@<TRIPOS>MOLECULE
NONAME
37 38 1 0 0 
SMALL
USER_CHARGES


@<TRIPOS>ATOM
  1 S        0.3650     0.2040     0.2370 S.o2  1 <1>   1.4470 
  2 O       -0.2690     1.3210    -0.4230 O.2   1 <1>  -0.6500 
  3 O        1.0800     0.4000     1.4780 O.2   1 <1>  -0.6500 
  4 N        1.4730    -0.3510    -0.8950 N.am  1 <1>  -0.9140 
  5 C       -0.7990    -1.1780     0.3990 C.ar  1 <1>  -0.0090 
  6 C        2.7470     0.3620    -0.8580 C.3   1 <1>   0.1160 
  7 C       -2.0130    -1.1800    -0.2720 C.ar  1 <1>  -0.1500 
  8 C       -0.4930    -2.2820     1.1820 C.ar  1 <1>  -0.1500 
  9 C       -2.9230    -2.2310    -0.1800 C.ar  1 <1>   0.0860 
 10 C       -1.3720    -3.3440     1.2930 C.ar  1 <1>  -0.1500 
 11 C       -2.5810    -3.3260     0.6200 C.ar  1 <1>  -0.1430 
 12 C       -4.1790    -2.1510    -0.9010 C.2   1 <1>   0.5440 
 13 C       -3.5320    -4.5080     0.7570 C.3   1 <1>  -0.0960 
 14 O       -4.3840    -2.8760    -1.8560 O.2   1 <1>  -0.5700 
 15 N       -5.1490    -1.2540    -0.5270 N.am  1 <1>  -0.6600 
 16 C       -5.1220    -0.4260     0.6980 C.3   1 <1>   0.1400 
 17 C       -6.4480    -1.1420    -1.2220 C.3   1 <1>   0.1400 
 18 C       -6.5720    -0.0050     0.9070 C.3   1 <1>  -0.1600 
 19 C       -7.1860    -0.0260    -0.4910 C.3   1 <1>  -0.1600 
 20 H        1.0270    -0.1390    -1.7870 H     1 <1>   0.4200 
 21 H        3.2420     0.1850     0.0830 H     1 <1>   0.0800 
 22 H        2.5870     1.4220    -0.9740 H     1 <1>   0.0800 
 23 H        3.3840     0.0130    -1.6520 H     1 <1>   0.0800 
 24 H       -2.2730    -0.3380    -0.8930 H     1 <1>   0.1500 
 25 H        0.4460    -2.3100     1.7100 H     1 <1>   0.1500 
 26 H       -1.1040    -4.1860     1.9080 H     1 <1>   0.1500 
 27 H       -4.4950    -4.1730     1.0990 H     1 <1>   0.0800 
 28 H       -3.1560    -5.2320     1.4570 H     1 <1>   0.0800 
 29 H       -3.6560    -4.9900    -0.1970 H     1 <1>   0.0800 
 30 H       -4.5030     0.4390     0.5240 H     1 <1>   0.0800 
 31 H       -4.7460    -0.9830     1.5390 H     1 <1>   0.0800 
 32 H       -6.9770    -2.0760    -1.1270 H     1 <1>   0.0800 
 33 H       -6.3040    -0.9140    -2.2640 H     1 <1>   0.0800 
 34 H       -6.6450     0.9610     1.3740 H     1 <1>   0.0800 
 35 H       -7.0600    -0.7350     1.5300 H     1 <1>   0.0800 
 36 H       -8.2480    -0.1940    -0.4730 H     1 <1>   0.0800 
 37 H       -6.9880     0.9060    -0.9910 H     1 <1>   0.0800 
@<TRIPOS>BOND
  1   1   2  2   
  2   1   3  2   
  3   1   4  am  
  4   1   5  1   
  5   4   6  1   
  6   4  20  1   
  7   5   7  ar  
  8   5   8  ar  
  9   6  21  1   
 10   6  22  1   
 11   6  23  1   
 12   7   9  ar  
 13   7  24  1   
 14   8  10  ar  
 15   8  25  1   
 16   9  11  ar  
 17   9  12  1   
 18  10  11  ar  
 19  10  26  1   
 20  11  13  1   
 21  12  14  2   
 22  12  15  am  
 23  13  27  1   
 24  13  28  1   
 25  13  29  1   
 26  15  16  1   
 27  15  17  1   
 28  16  18  1   
 29  16  30  1   
 30  16  31  1   
 31  17  19  1   
 32  17  32  1   
 33  17  33  1   
 34  18  19  1   
 35  18  34  1   
 36  18  35  1   
 37  19  36  1   
 38  19  37  1   
@<TRIPOS>SUBSTRUCTURE
  1 ****   7 GROUP 4 **** **** 0

# MOE 2024.06 (io_trps.svl 2023.06)
