@<TRIPOS>MOLECULE
NONAME
41 42 1 0 0 
SMALL
USER_CHARGES


@<TRIPOS>ATOM
  1 S       -0.3840    -0.0730     0.8510 S.o2  1 <1>   1.3330 
  2 O       -0.7640    -0.0630     2.2440 O.2   1 <1>  -0.6500 
  3 O        0.8270    -0.7440     0.4390 O.2   1 <1>  -0.6500 
  4 N       -1.6750    -0.7180    -0.0360 N.am  1 <1>  -0.8490 
  5 C       -0.2910     1.6030     0.2570 C.3   1 <1>  -0.1350 
  6 C       -2.9850    -0.3100     0.5040 C.3   1 <1>   0.1960 
  7 C       -1.5870    -2.1810    -0.1030 C.3   1 <1>   0.1960 
  8 C       -4.1210    -0.7730    -0.4220 C.3   1 <1>  -0.0190 
  9 C       -2.6740    -2.7430    -1.0260 C.3   1 <1>  -0.1600 
 10 C       -5.4760    -0.3120     0.0970 C.2   1 <1>   0.5690 
 11 C       -4.0770    -2.3030    -0.5880 C.3   1 <1>  -0.1600 
 12 O       -5.6190    -0.0640     1.2690 O.2   1 <1>  -0.5700 
 13 N       -6.5030    -0.2080    -0.7870 N.am  1 <1>  -0.7300 
 14 C       -7.8880     0.2190    -0.4370 C.3   1 <1>   0.1400 
 15 C       -8.8300    -0.9870    -0.3080 C.3   1 <1>   0.2000 
 16 O      -10.1290    -0.5360    -0.0730 O.3   1 <1>  -0.5600 
 17 C       -8.5040    -1.9230     0.8500 C.3   1 <1>  -0.1600 
 18 C      -10.8050    -1.3460     0.8400 C.3   1 <1>   0.1200 
 19 C       -9.8640    -2.4890     1.1980 C.3   1 <1>  -0.1600 
 20 H        0.5300     2.1090     0.7240 H     1 <1>   0.0800 
 21 H       -1.1940     2.1330     0.4840 H     1 <1>   0.0800 
 22 H       -0.1410     1.6070    -0.8040 H     1 <1>   0.0800 
 23 H       -3.0270     0.7620     0.5960 H     1 <1>   0.0800 
 24 H       -3.1230    -0.7290     1.4890 H     1 <1>   0.0800 
 25 H       -1.6850    -2.5980     0.8860 H     1 <1>   0.0800 
 26 H       -0.6250    -2.4730    -0.4940 H     1 <1>   0.0800 
 27 H       -3.9640    -0.3100    -1.3790 H     1 <1>   0.0800 
 28 H       -2.6170    -3.8170    -1.0270 H     1 <1>   0.0800 
 29 H       -2.4810    -2.4050    -2.0290 H     1 <1>   0.0800 
 30 H       -4.8050    -2.6200    -1.3140 H     1 <1>   0.0800 
 31 H       -4.3190    -2.7680     0.3530 H     1 <1>   0.0800 
 32 H       -6.3530    -0.4510    -1.7670 H     1 <1>   0.3700 
 33 H       -8.2570     0.8760    -1.2040 H     1 <1>   0.0800 
 34 H       -7.8760     0.7580     0.4960 H     1 <1>   0.0800 
 35 H       -8.8580    -1.5360    -1.2330 H     1 <1>   0.0800 
 36 H       -8.1120    -1.3570     1.6780 H     1 <1>   0.0800 
 37 H       -7.7920    -2.6780     0.5710 H     1 <1>   0.0800 
 38 H      -11.7190    -1.6960     0.3910 H     1 <1>   0.0800 
 39 H      -11.0270    -0.7440     1.7050 H     1 <1>   0.0800 
 40 H       -9.9440    -2.7700     2.2330 H     1 <1>   0.0800 
 41 H      -10.0860    -3.3410     0.5790 H     1 <1>   0.0800 
@<TRIPOS>BOND
  1   1   2  2   
  2   1   3  2   
  3   1   4  am  
  4   1   5  1   
  5   4   6  1   
  6   4   7  1   
  7   5  20  1   
  8   5  21  1   
  9   5  22  1   
 10   6   8  1   
 11   6  23  1   
 12   6  24  1   
 13   7   9  1   
 14   7  25  1   
 15   7  26  1   
 16   8  10  1   
 17   8  11  1   
 18   8  27  1   
 19   9  11  1   
 20   9  28  1   
 21   9  29  1   
 22  10  12  2   
 23  10  13  am  
 24  11  30  1   
 25  11  31  1   
 26  13  14  1   
 27  13  32  1   
 28  14  15  1   
 29  14  33  1   
 30  14  34  1   
 31  15  16  1   
 32  15  17  1   
 33  15  35  1   
 34  16  18  1   
 35  17  19  1   
 36  17  36  1   
 37  17  37  1   
 38  18  19  1   
 39  18  38  1   
 40  18  39  1   
 41  19  40  1   
 42  19  41  1   
@<TRIPOS>SUBSTRUCTURE
  1 ****  10 GROUP 4 **** **** 0

# MOE 2024.06 (io_trps.svl 2023.06)
