@<TRIPOS>MOLECULE
NONAME
26 26 1 0 0 
SMALL
USER_CHARGES


@<TRIPOS>ATOM
  1 F        0.7560    -0.8340    -0.5230 F     1 <1>  -0.3400 
  2 C        0.1960    -1.4350     0.5290 C.3   1 <1>   0.6610 
  3 F        0.8960    -2.5620     0.6670 F     1 <1>  -0.3400 
  4 C       -1.3240    -1.6860     0.3110 C.2   1 <1>   0.5690 
  5 O       -1.7760    -2.7810     0.5750 O.2   1 <1>  -0.5700 
  6 N       -2.1820    -0.6920    -0.1330 N.am  1 <1>  -0.6600 
  7 C       -3.6110    -0.9940    -0.4680 C.3   1 <1>   0.1400 
  8 C       -1.8120     0.7410    -0.3750 C.3   1 <1>   0.1400 
  9 C       -4.5740    -0.0420     0.2590 C.3   1 <1>   0.1400 
 10 C       -2.7760     1.6930     0.3520 C.3   1 <1>   0.1400 
 11 N       -4.2050     1.3910     0.0170 N.am  1 <1>  -0.6600 
 12 C       -5.0630     2.3850    -0.4270 C.2   1 <1>   0.5690 
 13 O       -4.6110     3.4800    -0.6920 O.2   1 <1>  -0.5700 
 14 C       -6.5830     2.1340    -0.6450 C.3   1 <1>   0.6610 
 15 F       -7.2830     3.2610    -0.7830 F     1 <1>  -0.3400 
 16 F       -7.1430     1.5330     0.4060 F     1 <1>  -0.3400 
 17 H        0.3850    -0.8300     1.3940 H     1 <1>   0.0800 
 18 H       -3.8620    -2.0070    -0.2060 H     1 <1>   0.0800 
 19 H       -3.7480    -0.8940    -1.5310 H     1 <1>   0.0800 
 20 H       -1.8500     0.9420    -1.4320 H     1 <1>   0.0800 
 21 H       -0.8150     0.9500    -0.0370 H     1 <1>   0.0800 
 22 H       -4.5360    -0.2430     1.3160 H     1 <1>   0.0800 
 23 H       -5.5720    -0.2510    -0.0790 H     1 <1>   0.0800 
 24 H       -2.5250     2.7060     0.0890 H     1 <1>   0.0800 
 25 H       -2.6390     1.5920     1.4140 H     1 <1>   0.0800 
 26 H       -6.7720     1.5290    -1.5110 H     1 <1>   0.0800 
@<TRIPOS>BOND
  1   1   2  1   
  2   2   3  1   
  3   2   4  1   
  4   2  17  1   
  5   4   5  2   
  6   4   6  am  
  7   6   7  1   
  8   6   8  1   
  9   7   9  1   
 10   7  18  1   
 11   7  19  1   
 12   8  10  1   
 13   8  20  1   
 14   8  21  1   
 15   9  11  1   
 16   9  22  1   
 17   9  23  1   
 18  10  11  1   
 19  10  24  1   
 20  10  25  1   
 21  11  12  am  
 22  12  13  2   
 23  12  14  1   
 24  14  15  1   
 25  14  16  1   
 26  14  26  1   
@<TRIPOS>SUBSTRUCTURE
  1 ****   6 GROUP 4 **** **** 0

# MOE 2024.06 (io_trps.svl 2023.06)
