@<TRIPOS>MOLECULE
NONAME
43 44 1 0 0 
SMALL
USER_CHARGES


@<TRIPOS>ATOM
  1 O        4.3740     0.0040    -1.0340 O.3   1 <1>  -0.6800 
  2 C        4.1600    -1.2240    -0.4480 C.3   1 <1>   0.4240 
  3 C        5.4890    -1.7550     0.1290 C.ar  1 <1>  -0.1440 
  4 C        3.5240    -2.0970    -1.5710 C.3   1 <1>  -0.0800 
  5 C        3.1890    -0.9520     0.7070 C.3   1 <1>  -0.1600 
  6 C        5.5250    -3.0120     0.7270 C.ar  1 <1>  -0.1500 
  7 C        6.6710    -1.0160     0.1000 C.ar  1 <1>  -0.1500 
  8 C        2.3430    -2.8910    -1.0140 C.3   1 <1>   0.3430 
  9 C        4.5030    -3.0050    -2.3440 C.3   1 <1>  -0.2400 
 10 C        1.7780    -0.7330     0.1790 C.3   1 <1>   0.3430 
 11 C        6.6970    -3.5230     1.2560 C.ar  1 <1>  -0.1500 
 12 C        7.8440    -1.5250     0.6290 C.ar  1 <1>  -0.1500 
 13 N        1.2580    -1.9560    -0.5380 N.4   1 <1>  -0.9590 
 14 C        7.8600    -2.7800     1.2060 C.ar  1 <1>  -0.1500 
 15 C        0.1320    -2.6520     0.1430 C.3   1 <1>   0.7030 
 16 C       -0.3310    -3.7530    -0.7530 C.1   1 <1>  -0.2000 
 17 C        0.5660    -3.2290     1.4910 C.3   1 <1>  -0.2400 
 18 C       -1.0350    -1.6810     0.3240 C.3   1 <1>  -0.2400 
 19 C       -0.7040    -4.6290    -1.4680 C.1   1 <1>  -0.1770 
 20 H        5.1750    -0.0580    -1.5910 H     1 <1>   0.4000 
 21 H        3.1000    -1.4410    -2.3140 H     1 <1>   0.0800 
 22 H        3.1820    -1.7690     1.4030 H     1 <1>   0.0800 
 23 H        3.5180    -0.0840     1.2520 H     1 <1>   0.0800 
 24 H        4.6420    -3.6190     0.7900 H     1 <1>   0.1500 
 25 H        6.7110    -0.0270    -0.3210 H     1 <1>   0.1500 
 26 H        1.9550    -3.5400    -1.7830 H     1 <1>   0.0800 
 27 H        2.6860    -3.5080    -0.2000 H     1 <1>   0.0800 
 28 H        4.8790    -3.8050    -1.7310 H     1 <1>   0.0800 
 29 H        5.3410    -2.4320    -2.7020 H     1 <1>   0.0800 
 30 H        4.0140    -3.4430    -3.1970 H     1 <1>   0.0800 
 31 H        1.8050     0.1000    -0.5080 H     1 <1>   0.0800 
 32 H        1.1330    -0.4630     0.9970 H     1 <1>   0.0800 
 33 H        6.7080    -4.4990     1.7110 H     1 <1>   0.1500 
 34 H        8.7480    -0.9410     0.5950 H     1 <1>   0.1500 
 35 H        0.8100    -1.6090    -1.3930 H     1 <1>   0.4500 
 36 H        8.7740    -3.1740     1.6160 H     1 <1>   0.1500 
 37 H       -0.2650    -3.7430     1.9420 H     1 <1>   0.0800 
 38 H        0.8730    -2.4550     2.1700 H     1 <1>   0.0800 
 39 H        1.3590    -3.9440     1.3770 H     1 <1>   0.0800 
 40 H       -1.8940    -2.2190     0.6890 H     1 <1>   0.0800 
 41 H       -1.3090    -1.2300    -0.6120 H     1 <1>   0.0800 
 42 H       -0.8180    -0.9150     1.0440 H     1 <1>   0.0800 
 43 H       -1.0570    -5.4250    -2.1060 H     1 <1>   0.1770 
@<TRIPOS>BOND
  1   1   2  1   
  2   1  20  1   
  3   2   3  1   
  4   2   4  1   
  5   2   5  1   
  6   3   6  ar  
  7   3   7  ar  
  8   4   8  1   
  9   4   9  1   
 10   4  21  1   
 11   5  10  1   
 12   5  22  1   
 13   5  23  1   
 14   6  11  ar  
 15   6  24  1   
 16   7  12  ar  
 17   7  25  1   
 18   8  13  1   
 19   8  26  1   
 20   8  27  1   
 21   9  28  1   
 22   9  29  1   
 23   9  30  1   
 24  10  13  1   
 25  10  31  1   
 26  10  32  1   
 27  11  14  ar  
 28  11  33  1   
 29  12  14  ar  
 30  12  34  1   
 31  13  15  1   
 32  13  35  1   
 33  14  36  1   
 34  15  16  1   
 35  15  17  1   
 36  15  18  1   
 37  16  19  3   
 38  17  37  1   
 39  17  38  1   
 40  17  39  1   
 41  18  40  1   
 42  18  41  1   
 43  18  42  1   
 44  19  43  1   
@<TRIPOS>SUBSTRUCTURE
  1 ****   2 GROUP 4 **** **** 0

# MOE 2024.06 (io_trps.svl 2023.06)
