@<TRIPOS>MOLECULE
NONAME
32 32 1 0 0 
SMALL
USER_CHARGES


@<TRIPOS>ATOM
  1 S       -0.2750    -0.1890     0.7020 S.3   1 <1>  -0.2860 
  2 C        1.3740     0.2310     0.1270 C.2   1 <1>   0.2420 
  3 C       -1.3050     1.2060     0.0320 C.3   1 <1>   0.1310 
  4 N        1.6320     1.2680    -0.5860 N.2   1 <1>  -0.3380 
  5 N        2.4460    -0.5100     0.4020 N.pl3 1 <1>   0.0480 
  6 C       -2.7870     0.9380     0.2420 C.2   1 <1>   0.5690 
  7 N        2.9490     1.2310    -0.8100 N.2   1 <1>  -0.3380 
  8 C        3.4170     0.1750    -0.2240 C.2   1 <1>   0.0060 
  9 C        2.5130    -1.7460     1.2060 C.3   1 <1>   0.2340 
 10 O       -3.5330     1.8580     0.4530 O.2   1 <1>  -0.5700 
 11 N       -3.2720    -0.3190     0.1820 N.am  1 <1>  -0.8000 
 12 C        4.8880    -0.2430    -0.2290 C.3   1 <1>   0.1000 
 13 C        2.3050    -2.9670     0.3240 C.2   1 <1>  -0.2880 
 14 C        5.6070     0.3580     0.9830 C.3   1 <1>  -0.2400 
 15 C        5.5950     0.1810    -1.5230 C.3   1 <1>  -0.2400 
 16 C        1.3320    -3.8710     0.4810 C.2   1 <1>  -0.3000 
 17 H       -1.0870     1.2940    -1.0160 H     1 <1>   0.0800 
 18 H       -1.0040     2.1000     0.5450 H     1 <1>   0.0800 
 19 H        1.7590    -1.7070     1.9720 H     1 <1>   0.0800 
 20 H        3.4720    -1.8010     1.6880 H     1 <1>   0.0800 
 21 H       -4.2660    -0.4860     0.3370 H     1 <1>   0.3700 
 22 H       -2.6720    -1.1370     0.0670 H     1 <1>   0.3700 
 23 H        4.9470    -1.3160    -0.1690 H     1 <1>   0.0800 
 24 H        3.0330    -3.0380    -0.4670 H     1 <1>   0.1500 
 25 H        5.5680     1.4330     0.9370 H     1 <1>   0.0800 
 26 H        6.6380     0.0510     0.9990 H     1 <1>   0.0800 
 27 H        5.1390     0.0410     1.8960 H     1 <1>   0.0800 
 28 H        5.6020     1.2530    -1.6140 H     1 <1>   0.0800 
 29 H        5.0780    -0.2270    -2.3740 H     1 <1>   0.0800 
 30 H        6.6090    -0.1730    -1.5340 H     1 <1>   0.0800 
 31 H        1.2030    -4.7280    -0.1580 H     1 <1>   0.1500 
 32 H        0.5830    -3.8360     1.2540 H     1 <1>   0.1500 
@<TRIPOS>BOND
  1   1   2  1   
  2   1   3  1   
  3   2   4  2   
  4   2   5  1   
  5   3   6  1   
  6   3  17  1   
  7   3  18  1   
  8   4   7  1   
  9   5   8  1   
 10   5   9  1   
 11   6  10  2   
 12   6  11  am  
 13   7   8  2   
 14   8  12  1   
 15   9  13  1   
 16   9  19  1   
 17   9  20  1   
 18  11  21  1   
 19  11  22  1   
 20  12  14  1   
 21  12  15  1   
 22  12  23  1   
 23  13  16  2   
 24  13  24  1   
 25  14  25  1   
 26  14  26  1   
 27  14  27  1   
 28  15  28  1   
 29  15  29  1   
 30  15  30  1   
 31  16  31  1   
 32  16  32  1   
@<TRIPOS>SUBSTRUCTURE
  1 ****   2 GROUP 4 **** **** 0

# MOE 2024.06 (io_trps.svl 2023.06)
