@<TRIPOS>MOLECULE
NONAME
33 34 1 0 0 
SMALL
USER_CHARGES


@<TRIPOS>ATOM
  1 O       -0.1410    -1.1300    -1.4170 O.2   1 <1>  -0.5700 
  2 C       -0.1320    -1.7550    -0.3850 C.2   1 <1>   0.5690 
  3 N       -1.2730    -1.9540     0.3510 N.am  1 <1>  -0.5470 
  4 C        1.2290    -2.2700     0.1130 C.3   1 <1>   0.4040 
  5 C       -2.4790    -1.2500     0.1920 C.ar  1 <1>   0.1170 
  6 N        2.3760    -1.3620    -0.2710 N.4   1 <1>  -0.9590 
  7 C       -2.5530     0.1440     0.3360 C.ar  1 <1>   0.0730 
  8 C       -3.6320    -1.9650    -0.1060 C.ar  1 <1>  -0.1500 
  9 C        3.7270    -1.8830     0.0250 C.3   1 <1>   0.3430 
 10 C        2.2880    -0.0020     0.3270 C.3   1 <1>   0.3430 
 11 C       -1.3880     0.9030     0.6870 C.1   1 <1>   0.4840 
 12 C       -3.7770     0.7790     0.1580 C.ar  1 <1>  -0.1500 
 13 C       -4.8420    -1.3200    -0.2740 C.ar  1 <1>  -0.1500 
 14 C        4.6140    -0.6520    -0.0660 C.3   1 <1>  -0.1600 
 15 C        3.7160     0.5300     0.3110 C.3   1 <1>  -0.1600 
 16 N       -0.4100     1.4120     0.9890 N.1   1 <1>  -0.5570 
 17 C       -4.9150     0.0550    -0.1440 C.ar  1 <1>  -0.1500 
 18 H       -1.2850    -2.6800     1.0720 H     1 <1>   0.3700 
 19 H        1.3890    -3.2450    -0.3130 H     1 <1>   0.0800 
 20 H        1.1930    -2.3700     1.1840 H     1 <1>   0.0800 
 21 H        2.2920    -1.2080    -1.2900 H     1 <1>   0.4500 
 22 H       -3.5870    -3.0340    -0.2170 H     1 <1>   0.1500 
 23 H        4.0290    -2.6460    -0.6740 H     1 <1>   0.0800 
 24 H        3.7590    -2.2750     1.0290 H     1 <1>   0.0800 
 25 H        1.9330    -0.0580     1.3440 H     1 <1>   0.0800 
 26 H        1.6240     0.6330    -0.2410 H     1 <1>   0.0800 
 27 H       -3.8450     1.8490     0.2600 H     1 <1>   0.1500 
 28 H       -5.7300    -1.8840    -0.5100 H     1 <1>   0.1500 
 29 H        4.9660    -0.5410    -1.0780 H     1 <1>   0.0800 
 30 H        5.4670    -0.7370     0.5850 H     1 <1>   0.0800 
 31 H        3.9650     0.9160     1.2850 H     1 <1>   0.0800 
 32 H        3.8090     1.3300    -0.4040 H     1 <1>   0.0800 
 33 H       -5.8580     0.5590    -0.2800 H     1 <1>   0.1500 
@<TRIPOS>BOND
  1   1   2  2   
  2   2   3  am  
  3   2   4  1   
  4   3   5  1   
  5   3  18  1   
  6   4   6  1   
  7   4  19  1   
  8   4  20  1   
  9   5   7  ar  
 10   5   8  ar  
 11   6   9  1   
 12   6  10  1   
 13   6  21  1   
 14   7  11  1   
 15   7  12  ar  
 16   8  13  ar  
 17   8  22  1   
 18   9  14  1   
 19   9  23  1   
 20   9  24  1   
 21  10  15  1   
 22  10  25  1   
 23  10  26  1   
 24  11  16  3   
 25  12  17  ar  
 26  12  27  1   
 27  13  17  ar  
 28  13  28  1   
 29  14  15  1   
 30  14  29  1   
 31  14  30  1   
 32  15  31  1   
 33  15  32  1   
 34  17  33  1   
@<TRIPOS>SUBSTRUCTURE
  1 ****   2 GROUP 4 **** **** 0

# MOE 2024.06 (io_trps.svl 2023.06)
