@<TRIPOS>MOLECULE
NONAME
29 29 1 0 0 
SMALL
USER_CHARGES


@<TRIPOS>ATOM
  1 O       -0.1170     0.2630    -1.3990 O.2   1 <1>  -0.5700 
  2 C       -0.0850    -0.7590    -0.7560 C.2   1 <1>   0.5690 
  3 N        1.0510    -1.3280    -0.2540 N.am  1 <1>  -0.5470 
  4 C       -1.4000    -1.4840    -0.4800 C.3   1 <1>   0.1810 
  5 C        2.4180    -1.0000    -0.2920 C.ar  1 <1>   0.1170 
  6 O       -1.1940    -2.6840     0.2340 O.3   1 <1>  -0.5600 
  7 C        3.3630    -1.9360     0.1480 C.ar  1 <1>  -0.1430 
  8 C        2.8550     0.2390    -0.7470 C.ar  1 <1>  -0.1500 
  9 C       -2.3670    -3.3810     0.5080 C.3   1 <1>   0.0400 
 10 C        4.7200    -1.6150     0.1290 C.ar  1 <1>  -0.1430 
 11 C        2.8710    -3.3010     0.6420 C.3   1 <1>  -0.0970 
 12 C        4.1970     0.5520    -0.7690 C.ar  1 <1>  -0.1500 
 13 C        5.1250    -0.3720    -0.3320 C.ar  1 <1>  -0.1500 
 14 C        5.8020    -2.5790     0.5990 C.3   1 <1>  -0.0970 
 15 H        0.8360    -2.2020     0.2320 H     1 <1>   0.3700 
 16 H       -1.8740    -1.7170    -1.4170 H     1 <1>   0.0800 
 17 H       -2.0390    -0.8420     0.0990 H     1 <1>   0.0800 
 18 H        2.1480     0.9720    -1.0850 H     1 <1>   0.1500 
 19 H       -2.1090    -4.2740     1.0510 H     1 <1>   0.0800 
 20 H       -2.8480    -3.6480    -0.4180 H     1 <1>   0.0800 
 21 H       -3.0150    -2.7670     1.1090 H     1 <1>   0.0800 
 22 H        2.2560    -3.7630    -0.1110 H     1 <1>   0.0800 
 23 H        2.2900    -3.1740     1.5380 H     1 <1>   0.0800 
 24 H        3.6690    -3.9820     0.8610 H     1 <1>   0.0800 
 25 H        4.5190     1.5150    -1.1250 H     1 <1>   0.1500 
 26 H        6.1680    -0.1110    -0.3550 H     1 <1>   0.1500 
 27 H        5.6230    -2.8650     1.6190 H     1 <1>   0.0800 
 28 H        6.7760    -2.1270     0.5460 H     1 <1>   0.0800 
 29 H        5.8070    -3.4570    -0.0220 H     1 <1>   0.0800 
@<TRIPOS>BOND
  1   1   2  2   
  2   2   3  am  
  3   2   4  1   
  4   3   5  1   
  5   3  15  1   
  6   4   6  1   
  7   4  16  1   
  8   4  17  1   
  9   5   7  ar  
 10   5   8  ar  
 11   6   9  1   
 12   7  10  ar  
 13   7  11  1   
 14   8  12  ar  
 15   8  18  1   
 16   9  19  1   
 17   9  20  1   
 18   9  21  1   
 19  10  13  ar  
 20  10  14  1   
 21  11  22  1   
 22  11  23  1   
 23  11  24  1   
 24  12  13  ar  
 25  12  25  1   
 26  13  26  1   
 27  14  27  1   
 28  14  28  1   
 29  14  29  1   
@<TRIPOS>SUBSTRUCTURE
  1 ****   5 GROUP 4 **** **** 0

# MOE 2024.06 (io_trps.svl 2023.06)
