@<TRIPOS>MOLECULE
NONAME
52 54 1 0 0 
SMALL
USER_CHARGES


@<TRIPOS>ATOM
  1 O       -0.3720     0.3850     0.0880 O.3   1 <1>  -0.3630 
  2 C       -0.5800     1.6790    -0.2780 C.ar  1 <1>   0.0830 
  3 C        0.9720    -0.0400     0.0990 C.3   1 <1>   0.0400 
  4 C       -0.2710     2.7150     0.6080 C.ar  1 <1>   0.0830 
  5 C       -1.0840     2.0000    -1.5460 C.ar  1 <1>   0.0820 
  6 O        0.1940     2.4960     1.8620 O.3   1 <1>  -0.3630 
  7 C       -0.4150     4.0360     0.2230 C.ar  1 <1>  -0.1500 
  8 O       -1.4540     1.1020    -2.4990 O.3   1 <1>  -0.3630 
  9 C       -1.2220     3.3290    -1.9130 C.ar  1 <1>  -0.1500 
 10 C       -0.7040     1.8980     2.7730 C.3   1 <1>   0.0400 
 11 C       -0.8850     4.3560    -1.0440 C.ar  1 <1>  -0.1430 
 12 C       -2.0560    -0.1230    -2.1380 C.3   1 <1>   0.0400 
 13 C       -1.0220     5.8000    -1.4960 C.3   1 <1>   0.7100 
 14 N        0.3480     6.2280    -1.8180 N.4   1 <1>  -0.9060 
 15 C       -1.6420     6.7130    -0.4360 C.ar  1 <1>  -0.1430 
 16 C        0.4470     7.6800    -2.1100 C.3   1 <1>   0.3430 
 17 C       -1.1090     7.9610    -0.1330 C.ar  1 <1>  -0.1430 
 18 C       -2.7830     6.2960     0.2340 C.ar  1 <1>  -0.1500 
 19 C        0.1350     8.4790    -0.8420 C.3   1 <1>  -0.0170 
 20 C       -1.7080     8.7540     0.8330 C.ar  1 <1>  -0.1500 
 21 C       -3.3950     7.0760     1.1990 C.ar  1 <1>   0.0830 
 22 C       -2.8490     8.3320     1.5130 C.ar  1 <1>   0.0830 
 23 O       -4.5010     6.4940     1.7470 O.3   1 <1>  -0.3620 
 24 O       -3.4270     9.1180     2.4670 O.3   1 <1>  -0.3620 
 25 C       -5.3190     7.1170     2.7120 C.3   1 <1>   0.0400 
 26 C       -2.9080    10.3730     2.8500 C.3   1 <1>   0.0400 
 27 H        0.9930    -1.0820     0.3630 H     1 <1>   0.0800 
 28 H        1.5200     0.5330     0.8260 H     1 <1>   0.0800 
 29 H        1.3890     0.1000    -0.8830 H     1 <1>   0.0800 
 30 H       -0.1620     4.7980     0.9410 H     1 <1>   0.1500 
 31 H       -1.6040     3.5320    -2.8990 H     1 <1>   0.1500 
 32 H       -0.2440     1.8940     3.7440 H     1 <1>   0.0800 
 33 H       -0.9090     0.8890     2.4630 H     1 <1>   0.0800 
 34 H       -1.6120     2.4740     2.7980 H     1 <1>   0.0800 
 35 H       -2.6010    -0.4930    -2.9870 H     1 <1>   0.0800 
 36 H       -2.7260     0.0400    -1.3120 H     1 <1>   0.0800 
 37 H       -1.2870    -0.8250    -1.8690 H     1 <1>   0.0800 
 38 H       -1.6350     5.8400    -2.3820 H     1 <1>   0.0800 
 39 H        0.6880     5.6430    -2.5870 H     1 <1>   0.4500 
 40 H        0.9020     5.9900    -0.9900 H     1 <1>   0.4500 
 41 H       -0.2590     7.9450    -2.8810 H     1 <1>   0.0800 
 42 H        1.4380     7.9270    -2.4560 H     1 <1>   0.0800 
 43 H       -3.2290     5.3380     0.0200 H     1 <1>   0.1500 
 44 H       -0.0020     9.5130    -1.1100 H     1 <1>   0.0800 
 45 H        0.9740     8.4280    -0.1700 H     1 <1>   0.0800 
 46 H       -1.2710     9.7100     1.0480 H     1 <1>   0.1500 
 47 H       -6.1310     6.4530     2.9430 H     1 <1>   0.0800 
 48 H       -5.7020     8.0360     2.3050 H     1 <1>   0.0800 
 49 H       -4.7360     7.3020     3.5970 H     1 <1>   0.0800 
 50 H       -3.5390    10.7720     3.6240 H     1 <1>   0.0800 
 51 H       -2.9180    11.0310     1.9990 H     1 <1>   0.0800 
 52 H       -1.9100    10.2400     3.2280 H     1 <1>   0.0800 
@<TRIPOS>BOND
  1   1   2  1   
  2   1   3  1   
  3   2   4  ar  
  4   2   5  ar  
  5   3  27  1   
  6   3  28  1   
  7   3  29  1   
  8   4   6  1   
  9   4   7  ar  
 10   5   8  1   
 11   5   9  ar  
 12   6  10  1   
 13   7  11  ar  
 14   7  30  1   
 15   8  12  1   
 16   9  11  ar  
 17   9  31  1   
 18  10  32  1   
 19  10  33  1   
 20  10  34  1   
 21  11  13  1   
 22  12  35  1   
 23  12  36  1   
 24  12  37  1   
 25  13  14  1   
 26  13  15  1   
 27  13  38  1   
 28  14  16  1   
 29  14  39  1   
 30  14  40  1   
 31  15  17  ar  
 32  15  18  ar  
 33  16  19  1   
 34  16  41  1   
 35  16  42  1   
 36  17  19  1   
 37  17  20  ar  
 38  18  21  ar  
 39  18  43  1   
 40  19  44  1   
 41  19  45  1   
 42  20  22  ar  
 43  20  46  1   
 44  21  22  ar  
 45  21  23  1   
 46  22  24  1   
 47  23  25  1   
 48  24  26  1   
 49  25  47  1   
 50  25  48  1   
 51  25  49  1   
 52  26  50  1   
 53  26  51  1   
 54  26  52  1   
@<TRIPOS>SUBSTRUCTURE
  1 ****   7 GROUP 4 **** **** 0

# MOE 2024.06 (io_trps.svl 2023.06)
