@<TRIPOS>MOLECULE
NONAME
49 50 1 0 0 
SMALL
USER_CHARGES


@<TRIPOS>ATOM
  1 O        0.2550     7.8650     0.2930 O.3   1 <1>  -0.3630 
  2 C        1.4690     7.2630     0.3760 C.ar  1 <1>   0.0830 
  3 C       -0.9360     7.1150     0.2960 C.3   1 <1>   0.1200 
  4 C        2.5770     8.0940     0.3560 C.ar  1 <1>  -0.1500 
  5 C        1.6480     5.8860     0.4780 C.ar  1 <1>  -0.1500 
  6 C       -2.1080     8.0900     0.1780 C.3   1 <1>  -0.1600 
  7 C        3.8600     7.5760     0.4340 C.ar  1 <1>  -0.1440 
  8 C        2.9240     5.3550     0.5580 C.ar  1 <1>  -0.1430 
  9 C       -3.4410     7.3390     0.1160 C.3   1 <1>   0.1100 
 10 C        4.0210     6.2010     0.5340 C.ar  1 <1>  -0.1500 
 11 C        5.0630     8.5170     0.4090 C.3   1 <1>   0.0640 
 12 C        3.1320     3.8550     0.6670 C.3   1 <1>  -0.0970 
 13 N       -4.5750     8.2770     0.2000 N.3   1 <1>  -0.8100 
 14 C        5.9510     8.2370    -0.8080 C.3   1 <1>  -0.2400 
 15 C        5.8690     8.4100     1.7070 C.3   1 <1>  -0.2400 
 16 C       -4.7620     9.0650    -1.0380 C.3   1 <1>   0.1100 
 17 C       -5.8140     7.5780     0.5930 C.3   1 <1>   0.1100 
 18 C       -5.9180    10.0750    -0.8870 C.3   1 <1>   0.3430 
 19 C       -6.9830     8.5690     0.7690 C.3   1 <1>   0.3430 
 20 N       -7.1900     9.4000    -0.4620 N.4   1 <1>  -0.9060 
 21 H       -0.9860     6.5630     1.2190 H     1 <1>   0.0800 
 22 H       -0.9110     6.4410    -0.5430 H     1 <1>   0.0800 
 23 H        2.4180     9.1530     0.2790 H     1 <1>   0.1500 
 24 H        0.8080     5.2200     0.4950 H     1 <1>   0.1500 
 25 H       -1.9670     8.6740    -0.7120 H     1 <1>   0.0800 
 26 H       -2.1040     8.7370     1.0370 H     1 <1>   0.0800 
 27 H       -3.4810     6.6640     0.9550 H     1 <1>   0.0800 
 28 H       -3.5020     6.7540    -0.7880 H     1 <1>   0.0800 
 29 H        5.0090     5.7830     0.5940 H     1 <1>   0.1500 
 30 H        4.7060     9.5300     0.3280 H     1 <1>   0.0800 
 31 H        2.2320     3.3670     0.9940 H     1 <1>   0.0800 
 32 H        3.9110     3.6400     1.3760 H     1 <1>   0.0800 
 33 H        3.4150     3.4570    -0.2910 H     1 <1>   0.0800 
 34 H        6.3750     7.2510    -0.7550 H     1 <1>   0.0800 
 35 H        6.7500     8.9540    -0.8590 H     1 <1>   0.0800 
 36 H        5.3670     8.3100    -1.7090 H     1 <1>   0.0800 
 37 H        6.2910     7.4270     1.8160 H     1 <1>   0.0800 
 38 H        5.2280     8.6020     2.5490 H     1 <1>   0.0800 
 39 H        6.6670     9.1300     1.7110 H     1 <1>   0.0800 
 40 H       -4.9540     8.4090    -1.8700 H     1 <1>   0.0800 
 41 H       -3.8660     9.6190    -1.2550 H     1 <1>   0.0800 
 42 H       -5.6520     7.0720     1.5310 H     1 <1>   0.0800 
 43 H       -6.0700     6.8350    -0.1430 H     1 <1>   0.0800 
 44 H       -6.0660    10.5910    -1.8210 H     1 <1>   0.0800 
 45 H       -5.6310    10.8040    -0.1470 H     1 <1>   0.0800 
 46 H       -6.7560     9.2100     1.6060 H     1 <1>   0.0800 
 47 H       -7.8820     8.0230     1.0040 H     1 <1>   0.0800 
 48 H       -7.5110     8.7910    -1.2230 H     1 <1>   0.4500 
 49 H       -7.9190    10.1030    -0.2930 H     1 <1>   0.4500 
@<TRIPOS>BOND
  1   1   2  1   
  2   1   3  1   
  3   2   4  ar  
  4   2   5  ar  
  5   3   6  1   
  6   3  21  1   
  7   3  22  1   
  8   4   7  ar  
  9   4  23  1   
 10   5   8  ar  
 11   5  24  1   
 12   6   9  1   
 13   6  25  1   
 14   6  26  1   
 15   7  10  ar  
 16   7  11  1   
 17   8  10  ar  
 18   8  12  1   
 19   9  13  1   
 20   9  27  1   
 21   9  28  1   
 22  10  29  1   
 23  11  14  1   
 24  11  15  1   
 25  11  30  1   
 26  12  31  1   
 27  12  32  1   
 28  12  33  1   
 29  13  16  1   
 30  13  17  1   
 31  14  34  1   
 32  14  35  1   
 33  14  36  1   
 34  15  37  1   
 35  15  38  1   
 36  15  39  1   
 37  16  18  1   
 38  16  40  1   
 39  16  41  1   
 40  17  19  1   
 41  17  42  1   
 42  17  43  1   
 43  18  20  1   
 44  18  44  1   
 45  18  45  1   
 46  19  20  1   
 47  19  46  1   
 48  19  47  1   
 49  20  48  1   
 50  20  49  1   
@<TRIPOS>SUBSTRUCTURE
  1 ****   1 GROUP 4 **** **** 0

# MOE 2024.06 (io_trps.svl 2023.06)
