@<TRIPOS>MOLECULE
NONAME
41 41 1 0 0 
SMALL
USER_CHARGES


@<TRIPOS>ATOM
  1 BR       1.5000     0.1850    -0.2480 Br    1 <1>  -0.1110 
  2 C        0.5270    -1.4700    -0.0390 C.ar  1 <1>   0.1110 
  3 C        1.1570    -2.6800    -0.2980 C.ar  1 <1>   0.0830 
  4 C       -0.7890    -1.3880     0.3710 C.ar  1 <1>  -0.1500 
  5 O        2.4560    -2.6550    -0.6970 O.3   1 <1>  -0.3630 
  6 C        0.4200    -3.8490    -0.1380 C.ar  1 <1>  -0.1500 
  7 C       -1.5160    -2.5580     0.5290 C.ar  1 <1>  -0.1430 
  8 C        3.1880    -3.8360    -0.9390 C.3   1 <1>   0.0400 
  9 C       -0.9120    -3.7900     0.2730 C.ar  1 <1>   0.0830 
 10 C       -2.9590    -2.4960     0.9820 C.3   1 <1>   0.4870 
 11 O       -1.6830    -4.9000     0.4350 O.3   1 <1>  -0.3630 
 12 N       -3.7780    -3.0680    -0.1030 N.4   1 <1>  -0.9060 
 13 C       -1.1100    -6.1940     0.4520 C.3   1 <1>   0.0400 
 14 C       -5.2010    -3.2620     0.2170 C.3   1 <1>   0.4230 
 15 C       -5.7900    -4.2350    -0.8210 C.3   1 <1>  -0.1600 
 16 C       -5.9040    -1.8910     0.2360 C.3   1 <1>  -0.1600 
 17 C       -6.7160    -5.2750    -0.1720 C.3   1 <1>  -0.2400 
 18 C       -7.3850    -1.9600     0.6370 C.3   1 <1>  -0.2400 
 19 H       -1.2150    -0.4170     0.5590 H     1 <1>   0.1500 
 20 H        0.8830    -4.7940    -0.3380 H     1 <1>   0.1500 
 21 H        4.1870    -3.5550    -1.2220 H     1 <1>   0.0800 
 22 H        2.7230    -4.3790    -1.7430 H     1 <1>   0.0800 
 23 H        3.2170    -4.4220    -0.0380 H     1 <1>   0.0800 
 24 H       -3.2460    -1.4760     1.1800 H     1 <1>   0.0800 
 25 H       -3.0750    -3.0770     1.8830 H     1 <1>   0.0800 
 26 H       -3.3440    -3.9850    -0.2920 H     1 <1>   0.4500 
 27 H       -3.6640    -2.5130    -0.9550 H     1 <1>   0.4500 
 28 H       -0.3330    -6.2260     1.1960 H     1 <1>   0.0800 
 29 H       -0.7140    -6.4190    -0.5240 H     1 <1>   0.0800 
 30 H       -1.8780    -6.9040     0.7020 H     1 <1>   0.0800 
 31 H       -5.2810    -3.7160     1.1920 H     1 <1>   0.0800 
 32 H       -5.0070    -4.7780    -1.3230 H     1 <1>   0.0800 
 33 H       -6.3390    -3.6950    -1.5730 H     1 <1>   0.0800 
 34 H       -5.8360    -1.4310    -0.7350 H     1 <1>   0.0800 
 35 H       -5.4170    -1.2450     0.9450 H     1 <1>   0.0800 
 36 H       -6.1800    -5.8680     0.5490 H     1 <1>   0.0800 
 37 H       -7.1060    -5.9370    -0.9260 H     1 <1>   0.0800 
 38 H       -7.5500    -4.8070     0.3200 H     1 <1>   0.0800 
 39 H       -7.9650    -2.4840    -0.1020 H     1 <1>   0.0800 
 40 H       -7.7870    -0.9650     0.7220 H     1 <1>   0.0800 
 41 H       -7.5040    -2.4510     1.5870 H     1 <1>   0.0800 
@<TRIPOS>BOND
  1   1   2  1   
  2   2   3  ar  
  3   2   4  ar  
  4   3   5  1   
  5   3   6  ar  
  6   4   7  ar  
  7   4  19  1   
  8   5   8  1   
  9   6   9  ar  
 10   6  20  1   
 11   7   9  ar  
 12   7  10  1   
 13   8  21  1   
 14   8  22  1   
 15   8  23  1   
 16   9  11  1   
 17  10  12  1   
 18  10  24  1   
 19  10  25  1   
 20  11  13  1   
 21  12  14  1   
 22  12  26  1   
 23  12  27  1   
 24  13  28  1   
 25  13  29  1   
 26  13  30  1   
 27  14  15  1   
 28  14  16  1   
 29  14  31  1   
 30  15  17  1   
 31  15  32  1   
 32  15  33  1   
 33  16  18  1   
 34  16  34  1   
 35  16  35  1   
 36  17  36  1   
 37  17  37  1   
 38  17  38  1   
 39  18  39  1   
 40  18  40  1   
 41  18  41  1   
@<TRIPOS>SUBSTRUCTURE
  1 ****   7 GROUP 4 **** **** 0

# MOE 2024.06 (io_trps.svl 2023.06)
