@<TRIPOS>MOLECULE
NONAME
57 59 1 0 0 
SMALL
USER_CHARGES


@<TRIPOS>ATOM
  1 O       -6.1810    -9.0140    -0.5750 O.3   1 <1>  -0.3630 
  2 C       -7.2560    -9.8180    -0.3820 C.ar  1 <1>   0.0830 
  3 C       -4.9240    -9.5470    -0.9440 C.3   1 <1>   0.1200 
  4 C       -8.4270    -9.2090     0.0360 C.ar  1 <1>  -0.1500 
  5 C       -7.2380   -11.1940    -0.5770 C.ar  1 <1>  -0.1500 
  6 C       -3.8890    -8.4170    -1.0520 C.3   1 <1>   0.2000 
  7 C       -9.5770    -9.9470     0.2650 C.ar  1 <1>  -0.1440 
  8 C       -8.3830   -11.9360    -0.3490 C.ar  1 <1>  -0.1500 
  9 O       -2.6460    -8.9890    -1.3050 O.3   1 <1>  -0.6800 
 10 C       -3.7960    -7.5310     0.2130 C.3   1 <1>   0.1100 
 11 C       -9.5550   -11.3250     0.0720 C.ar  1 <1>  -0.1430 
 12 C      -10.8390    -9.2300     0.7240 C.3   1 <1>  -0.0970 
 13 N       -4.2000    -6.1240    -0.0330 N.3   1 <1>  -0.8100 
 14 C      -10.7900   -12.1820     0.3100 C.3   1 <1>  -0.0970 
 15 C       -3.7970    -5.2590     1.0930 C.3   1 <1>   0.1100 
 16 C       -5.6490    -6.0030    -0.3150 C.3   1 <1>   0.1100 
 17 C       -4.1780    -3.7870     0.8380 C.3   1 <1>   0.3430 
 18 C       -6.0590    -4.5430    -0.5750 C.3   1 <1>   0.3430 
 19 N       -5.6440    -3.6370     0.5530 N.4   1 <1>  -0.9590 
 20 C       -6.0260    -2.2260     0.2920 C.3   1 <1>   0.4860 
 21 C       -7.5380    -2.1490     0.2170 C.ar  1 <1>  -0.1430 
 22 C       -8.1710    -2.0210    -1.0110 C.ar  1 <1>  -0.1500 
 23 C       -8.3010    -2.2170     1.3750 C.ar  1 <1>  -0.1500 
 24 C       -9.5520    -1.9750    -1.0820 C.ar  1 <1>  -0.1500 
 25 C       -9.6820    -2.1710     1.3020 C.ar  1 <1>  -0.1500 
 26 C      -10.3070    -2.0530     0.0740 C.ar  1 <1>  -0.1500 
 27 H       -5.0330   -10.0370    -1.8950 H     1 <1>   0.0800 
 28 H       -4.6320   -10.2530    -0.1870 H     1 <1>   0.0800 
 29 H       -8.4300    -8.1460     0.1810 H     1 <1>   0.1500 
 30 H       -6.3540   -11.7060    -0.9040 H     1 <1>   0.1500 
 31 H       -4.1160    -7.8090    -1.9100 H     1 <1>   0.0800 
 32 H       -8.3560   -13.0010    -0.5030 H     1 <1>   0.1500 
 33 H       -2.3480    -9.5390    -0.5550 H     1 <1>   0.4000 
 34 H       -2.7750    -7.5370     0.5570 H     1 <1>   0.0800 
 35 H       -4.4080    -7.9450     0.9970 H     1 <1>   0.0800 
 36 H      -10.6720    -8.1730     0.8160 H     1 <1>   0.0800 
 37 H      -11.1500    -9.6080     1.6810 H     1 <1>   0.0800 
 38 H      -11.6300    -9.3860     0.0120 H     1 <1>   0.0800 
 39 H      -11.1110   -12.0900     1.3310 H     1 <1>   0.0800 
 40 H      -10.5860   -13.2190     0.1130 H     1 <1>   0.0800 
 41 H      -11.5880   -11.8670    -0.3390 H     1 <1>   0.0800 
 42 H       -2.7290    -5.3200     1.2180 H     1 <1>   0.0800 
 43 H       -4.2580    -5.6020     2.0040 H     1 <1>   0.0800 
 44 H       -6.2210    -6.4030     0.5060 H     1 <1>   0.0800 
 45 H       -5.8940    -6.5740    -1.1930 H     1 <1>   0.0800 
 46 H       -3.6050    -3.4320    -0.0030 H     1 <1>   0.0800 
 47 H       -3.9070    -3.1980     1.6990 H     1 <1>   0.0800 
 48 H       -7.1280    -4.4980    -0.7100 H     1 <1>   0.0800 
 49 H       -5.5940    -4.2200    -1.4910 H     1 <1>   0.0800 
 50 H       -6.1710    -3.9460     1.3770 H     1 <1>   0.4500 
 51 H       -5.5920    -1.8860    -0.6340 H     1 <1>   0.0800 
 52 H       -5.6760    -1.5900     1.0890 H     1 <1>   0.0800 
 53 H       -7.6040    -1.9530    -1.9250 H     1 <1>   0.1500 
 54 H       -7.8380    -2.3000     2.3440 H     1 <1>   0.1500 
 55 H      -10.0440    -1.8760    -2.0350 H     1 <1>   0.1500 
 56 H      -10.2750    -2.2240     2.2000 H     1 <1>   0.1500 
 57 H      -11.3820    -2.0170     0.0190 H     1 <1>   0.1500 
@<TRIPOS>BOND
  1   1   2  1   
  2   1   3  1   
  3   2   4  ar  
  4   2   5  ar  
  5   3   6  1   
  6   3  27  1   
  7   3  28  1   
  8   4   7  ar  
  9   4  29  1   
 10   5   8  ar  
 11   5  30  1   
 12   6   9  1   
 13   6  10  1   
 14   6  31  1   
 15   7  11  ar  
 16   7  12  1   
 17   8  11  ar  
 18   8  32  1   
 19   9  33  1   
 20  10  13  1   
 21  10  34  1   
 22  10  35  1   
 23  11  14  1   
 24  12  36  1   
 25  12  37  1   
 26  12  38  1   
 27  13  15  1   
 28  13  16  1   
 29  14  39  1   
 30  14  40  1   
 31  14  41  1   
 32  15  17  1   
 33  15  42  1   
 34  15  43  1   
 35  16  18  1   
 36  16  44  1   
 37  16  45  1   
 38  17  19  1   
 39  17  46  1   
 40  17  47  1   
 41  18  19  1   
 42  18  48  1   
 43  18  49  1   
 44  19  20  1   
 45  19  50  1   
 46  20  21  1   
 47  20  51  1   
 48  20  52  1   
 49  21  22  ar  
 50  21  23  ar  
 51  22  24  ar  
 52  22  53  1   
 53  23  25  ar  
 54  23  54  1   
 55  24  26  ar  
 56  24  55  1   
 57  25  26  ar  
 58  25  56  1   
 59  26  57  1   
@<TRIPOS>SUBSTRUCTURE
  1 ****  16 GROUP 4 **** **** 0

# MOE 2024.06 (io_trps.svl 2023.06)
