@<TRIPOS>MOLECULE
NONAME
40 41 1 0 0 
SMALL
USER_CHARGES


@<TRIPOS>ATOM
  1 CL      -0.5590     0.0090     0.9000 Cl    1 <1>  -0.1770 
  2 C       -0.4510    -1.5830     0.1870 C.ar  1 <1>   0.1770 
  3 C       -1.4990    -2.1150    -0.5510 C.ar  1 <1>  -0.0090 
  4 C        0.7120    -2.2880     0.4040 C.ar  1 <1>  -0.1500 
  5 S       -3.0410    -1.2130    -0.8010 S.o2  1 <1>   1.4470 
  6 C       -1.3250    -3.3950    -1.0570 C.ar  1 <1>  -0.1500 
  7 C        0.8750    -3.5670    -0.1010 C.ar  1 <1>   0.1000 
  8 O       -3.9660    -1.9980    -1.5930 O.2   1 <1>  -0.6500 
  9 O       -2.7850     0.1490    -1.2200 O.2   1 <1>  -0.6500 
 10 N       -3.7210    -1.1510     0.7570 N.am  1 <1>  -0.8490 
 11 C       -0.1660    -4.1420    -0.8460 C.ar  1 <1>  -0.1790 
 12 N        2.0730    -4.2090     0.1710 N.pl3 1 <1>  -0.8380 
 13 C       -4.8220    -0.1920     0.8350 C.3   1 <1>   0.1160 
 14 C       -4.1500    -2.4660     1.2460 C.3   1 <1>   0.1160 
 15 C       -0.0930    -5.4790    -1.3880 C.2   1 <1>   0.9790 
 16 C        2.9720    -4.4430    -0.9900 C.3   1 <1>   0.2090 
 17 C        1.9990    -5.4020     1.0550 C.3   1 <1>   0.2090 
 18 O       -0.5510    -6.4400    -0.7410 O.co2 1 <1>  -0.9000 
 19 O        0.3720    -5.6830    -2.5230 O.co2 1 <1>  -0.9000 
 20 C        4.3920    -4.6880    -0.4710 C.3   1 <1>  -0.1600 
 21 C        3.3920    -5.6750     1.6320 C.3   1 <1>  -0.1600 
 22 C        4.4310    -5.8670     0.5160 C.3   1 <1>  -0.1600 
 23 H        1.5100    -1.8540     0.9750 H     1 <1>   0.1500 
 24 H       -2.1130    -3.8520    -1.6350 H     1 <1>   0.1500 
 25 H       -4.4700     0.7910     0.5710 H     1 <1>   0.0800 
 26 H       -5.2100    -0.1520     1.8380 H     1 <1>   0.0800 
 27 H       -5.6110    -0.4720     0.1570 H     1 <1>   0.0800 
 28 H       -3.3220    -3.1550     1.2360 H     1 <1>   0.0800 
 29 H       -4.9370    -2.8630     0.6260 H     1 <1>   0.0800 
 30 H       -4.5070    -2.3840     2.2580 H     1 <1>   0.0800 
 31 H        2.9500    -3.5870    -1.6420 H     1 <1>   0.0800 
 32 H        2.6340    -5.3010    -1.5460 H     1 <1>   0.0800 
 33 H        1.6650    -6.2560     0.4880 H     1 <1>   0.0800 
 34 H        1.2900    -5.2240     1.8450 H     1 <1>   0.0800 
 35 H        4.7380    -3.7930     0.0150 H     1 <1>   0.0800 
 36 H        5.0420    -4.8890    -1.3030 H     1 <1>   0.0800 
 37 H        3.3520    -6.5560     2.2470 H     1 <1>   0.0800 
 38 H        3.6720    -4.8440     2.2540 H     1 <1>   0.0800 
 39 H        5.4150    -5.9600     0.9400 H     1 <1>   0.0800 
 40 H        4.2080    -6.7760    -0.0180 H     1 <1>   0.0800 
@<TRIPOS>BOND
  1   1   2  1   
  2   2   3  ar  
  3   2   4  ar  
  4   3   5  1   
  5   3   6  ar  
  6   4   7  ar  
  7   4  23  1   
  8   5   8  2   
  9   5   9  2   
 10   5  10  am  
 11   6  11  ar  
 12   6  24  1   
 13   7  11  ar  
 14   7  12  1   
 15  10  13  1   
 16  10  14  1   
 17  11  15  1   
 18  12  16  1   
 19  12  17  1   
 20  13  25  1   
 21  13  26  1   
 22  13  27  1   
 23  14  28  1   
 24  14  29  1   
 25  14  30  1   
 26  15  18  ar  
 27  15  19  ar  
 28  16  20  1   
 29  16  31  1   
 30  16  32  1   
 31  17  21  1   
 32  17  33  1   
 33  17  34  1   
 34  20  22  1   
 35  20  35  1   
 36  20  36  1   
 37  21  22  1   
 38  21  37  1   
 39  21  38  1   
 40  22  39  1   
 41  22  40  1   
@<TRIPOS>SUBSTRUCTURE
  1 ****  11 GROUP 4 **** **** 0

# MOE 2024.06 (io_trps.svl 2023.06)
