@<TRIPOS>MOLECULE
NONAME
34 34 1 0 0 
SMALL
USER_CHARGES


@<TRIPOS>ATOM
  1 BR      -0.1390     0.6040    -1.8240 Br    1 <1>  -0.1110 
  2 C        1.5170     1.1470    -1.0060 C.ar  1 <1>   0.1110 
  3 C        2.3290     0.1810    -0.4470 C.ar  1 <1>  -0.1500 
  4 C        1.8440     2.4890    -0.9960 C.ar  1 <1>  -0.1500 
  5 C        3.5240     0.5650     0.1410 C.ar  1 <1>  -0.1440 
  6 C        3.0360     2.8850    -0.4120 C.ar  1 <1>  -0.1440 
  7 C        3.8790     1.9160     0.1350 C.ar  1 <1>   0.0820 
  8 C        4.4040    -0.4980     0.7840 C.3   1 <1>  -0.0960 
  9 C        3.3800     4.3680    -0.3750 C.3   1 <1>  -0.0960 
 10 O        5.0600     2.2930     0.6770 O.3   1 <1>  -0.3630 
 11 C        6.1520     2.3130    -0.2050 C.3   1 <1>   0.1200 
 12 C        7.3750     2.7600     0.5960 C.3   1 <1>   0.3430 
 13 N        8.6050     2.8170    -0.2520 N.4   1 <1>  -0.9060 
 14 C        9.7920     3.2500     0.5170 C.3   1 <1>   0.3430 
 15 C       10.9830     3.2750    -0.4270 C.3   1 <1>  -0.2400 
 16 H        2.0200    -0.8490    -0.4710 H     1 <1>   0.1500 
 17 H        1.1690     3.2010    -1.4360 H     1 <1>   0.1500 
 18 H        3.8270    -1.3760     1.0160 H     1 <1>   0.0800 
 19 H        4.8270    -0.1290     1.7010 H     1 <1>   0.0800 
 20 H        5.1960    -0.7780     0.1140 H     1 <1>   0.0800 
 21 H        2.4940     4.9650    -0.4930 H     1 <1>   0.0800 
 22 H        4.0630     4.6100    -1.1680 H     1 <1>   0.0800 
 23 H        3.8270     4.6240     0.5690 H     1 <1>   0.0800 
 24 H        5.9280     3.0030    -0.9990 H     1 <1>   0.0800 
 25 H        6.2820     1.3200    -0.5980 H     1 <1>   0.0800 
 26 H        7.5270     2.0680     1.4080 H     1 <1>   0.0800 
 27 H        7.1760     3.7350     1.0110 H     1 <1>   0.0800 
 28 H        8.4650     3.4680    -1.0360 H     1 <1>   0.4500 
 29 H        8.7960     1.8930    -0.6610 H     1 <1>   0.4500 
 30 H        9.9830     2.5630     1.3280 H     1 <1>   0.0800 
 31 H        9.6310     4.2340     0.9300 H     1 <1>   0.0800 
 32 H       11.1790     2.2970    -0.8300 H     1 <1>   0.0800 
 33 H       11.8580     3.5890     0.1160 H     1 <1>   0.0800 
 34 H       10.8270     3.9750    -1.2300 H     1 <1>   0.0800 
@<TRIPOS>BOND
  1   1   2  1   
  2   2   3  ar  
  3   2   4  ar  
  4   3   5  ar  
  5   3  16  1   
  6   4   6  ar  
  7   4  17  1   
  8   5   7  ar  
  9   5   8  1   
 10   6   7  ar  
 11   6   9  1   
 12   7  10  1   
 13   8  18  1   
 14   8  19  1   
 15   8  20  1   
 16   9  21  1   
 17   9  22  1   
 18   9  23  1   
 19  10  11  1   
 20  11  12  1   
 21  11  24  1   
 22  11  25  1   
 23  12  13  1   
 24  12  26  1   
 25  12  27  1   
 26  13  14  1   
 27  13  28  1   
 28  13  29  1   
 29  14  15  1   
 30  14  30  1   
 31  14  31  1   
 32  15  32  1   
 33  15  33  1   
 34  15  34  1   
@<TRIPOS>SUBSTRUCTURE
  1 ****  10 GROUP 4 **** **** 0

# MOE 2024.06 (io_trps.svl 2023.06)
