@<TRIPOS>MOLECULE
NONAME
44 45 1 0 0 
SMALL
USER_CHARGES


@<TRIPOS>ATOM
  1 F        0.5360    -0.4320     0.4050 F     1 <1>  -0.3400 
  2 C        0.4530    -1.7490     0.5490 C.3   1 <1>   1.1640 
  3 F        0.1760    -1.9710     1.8270 F     1 <1>  -0.3400 
  4 F       -0.6230    -2.1250    -0.1340 F     1 <1>  -0.3400 
  5 C        1.7260    -2.4860     0.0990 C.ar  1 <1>  -0.1440 
  6 C        2.9730    -1.8960     0.2560 C.ar  1 <1>  -0.1500 
  7 C        1.6590    -3.7570    -0.4650 C.ar  1 <1>  -0.1500 
  8 C        4.1390    -2.5430    -0.1360 C.ar  1 <1>   0.1170 
  9 C        2.8060    -4.4300    -0.8720 C.ar  1 <1>  -0.1440 
 10 N        5.4120    -1.9720     0.0040 N.am  1 <1>  -0.5470 
 11 C        4.0370    -3.8070    -0.7010 C.ar  1 <1>  -0.1500 
 12 C        2.6840    -5.8300    -1.4960 C.3   1 <1>   1.1640 
 13 C        5.8780    -0.9110     0.7270 C.2   1 <1>   0.5690 
 14 F        3.8580    -6.3990    -1.7480 F     1 <1>  -0.3400 
 15 F        2.0240    -6.6710    -0.7090 F     1 <1>  -0.3400 
 16 F        2.0270    -5.8040    -2.6480 F     1 <1>  -0.3400 
 17 O        5.2030    -0.2430     1.4720 O.2   1 <1>  -0.5700 
 18 C        7.3610    -0.5770     0.5600 C.3   1 <1>   0.1710 
 19 N        8.2010    -1.7380     0.1290 N.3   1 <1>  -0.8100 
 20 C        8.4100    -2.6650     1.2570 C.3   1 <1>   0.1100 
 21 C        9.4850    -1.2540    -0.4010 C.3   1 <1>   0.1100 
 22 C        9.1990    -3.8910     0.7900 C.3   1 <1>  -0.1600 
 23 C       10.3120    -2.4290    -0.9270 C.3   1 <1>  -0.1600 
 24 C       10.5480    -3.4740     0.1770 C.3   1 <1>  -0.0190 
 25 C       11.3570    -4.6680    -0.3220 C.2   1 <1>   0.5690 
 26 O       12.4340    -4.9010     0.1610 O.2   1 <1>  -0.5700 
 27 N       10.8760    -5.4580    -1.2990 N.am  1 <1>  -0.8000 
 28 H        3.0390    -0.9140     0.6900 H     1 <1>   0.1500 
 29 H        0.6980    -4.2340    -0.5900 H     1 <1>   0.1500 
 30 H        6.1870    -2.4450    -0.4730 H     1 <1>   0.3700 
 31 H        4.9420    -4.3020    -1.0070 H     1 <1>   0.1500 
 32 H        7.7340    -0.1740     1.4860 H     1 <1>   0.0800 
 33 H        7.4190     0.2000    -0.1810 H     1 <1>   0.0800 
 34 H        7.4600    -2.9890     1.6510 H     1 <1>   0.0800 
 35 H        8.9470    -2.1670     2.0480 H     1 <1>   0.0800 
 36 H       10.0320    -0.7370     0.3720 H     1 <1>   0.0800 
 37 H        9.3070    -0.5640    -1.2090 H     1 <1>   0.0800 
 38 H        8.6100    -4.4300     0.0700 H     1 <1>   0.0800 
 39 H        9.3730    -4.5420     1.6280 H     1 <1>   0.0800 
 40 H       11.2600    -2.0650    -1.2830 H     1 <1>   0.0800 
 41 H        9.7940    -2.8710    -1.7590 H     1 <1>   0.0800 
 42 H       11.1280    -3.0060     0.9530 H     1 <1>   0.0800 
 43 H       11.4390    -6.2450    -1.6240 H     1 <1>   0.3700 
 44 H        9.9760    -5.3110    -1.7540 H     1 <1>   0.3700 
@<TRIPOS>BOND
  1   1   2  1   
  2   2   3  1   
  3   2   4  1   
  4   2   5  1   
  5   5   6  ar  
  6   5   7  ar  
  7   6   8  ar  
  8   6  28  1   
  9   7   9  ar  
 10   7  29  1   
 11   8  10  1   
 12   8  11  ar  
 13   9  11  ar  
 14   9  12  1   
 15  10  13  am  
 16  10  30  1   
 17  11  31  1   
 18  12  14  1   
 19  12  15  1   
 20  12  16  1   
 21  13  17  2   
 22  13  18  1   
 23  18  19  1   
 24  18  32  1   
 25  18  33  1   
 26  19  20  1   
 27  19  21  1   
 28  20  22  1   
 29  20  34  1   
 30  20  35  1   
 31  21  23  1   
 32  21  36  1   
 33  21  37  1   
 34  22  24  1   
 35  22  38  1   
 36  22  39  1   
 37  23  24  1   
 38  23  40  1   
 39  23  41  1   
 40  24  25  1   
 41  24  42  1   
 42  25  26  2   
 43  25  27  am  
 44  27  43  1   
 45  27  44  1   
@<TRIPOS>SUBSTRUCTURE
  1 ****  10 GROUP 4 **** **** 0

# MOE 2024.06 (io_trps.svl 2023.06)
