@<TRIPOS>MOLECULE
NONAME
47 49 1 0 0 
SMALL
USER_CHARGES


@<TRIPOS>ATOM
  1 S       -0.5760     0.2910     2.3530 S.o2  1 <1>   1.4470 
  2 O       -1.3370     1.4440     2.7700 O.2   1 <1>  -0.6500 
  3 O       -0.2200    -0.7490     3.2870 O.2   1 <1>  -0.6500 
  4 N       -1.5060    -0.5460     1.1760 N.am  1 <1>  -0.7570 
  5 C        0.8880     0.7920     1.4040 C.ar  1 <1>  -0.0090 
  6 C       -2.0140    -0.0280    -0.0060 C.ar  1 <1>   0.1990 
  7 C        2.1060     0.1460     1.5610 C.ar  1 <1>  -0.1500 
  8 C        0.8240     1.8280     0.4820 C.ar  1 <1>  -0.1500 
  9 C       -1.8270    -0.7250    -1.1940 C.ar  1 <1>  -0.1500 
 10 C       -2.7120     1.1750    -0.0430 C.ar  1 <1>  -0.1500 
 11 C        3.2410     0.4970     0.8340 C.ar  1 <1>   0.0860 
 12 C        1.9340     2.2030    -0.2520 C.ar  1 <1>  -0.1500 
 13 C       -2.3090    -0.2270    -2.3910 C.ar  1 <1>  -0.1500 
 14 C       -3.1940     1.6770    -1.2370 C.ar  1 <1>  -0.1500 
 15 C        3.1400     1.5480    -0.0810 C.ar  1 <1>  -0.1430 
 16 C        4.4770    -0.2340     1.0390 C.2   1 <1>   0.5440 
 17 C       -2.9920     0.9780    -2.4150 C.ar  1 <1>  -0.1500 
 18 C        4.3560     1.9850    -0.8880 C.3   1 <1>  -0.0970 
 19 O        5.2940     0.1990     1.8300 O.2   1 <1>  -0.5700 
 20 N        4.7390    -1.4080     0.3620 N.am  1 <1>  -0.6600 
 21 C        6.0130    -2.1580     0.5520 C.3   1 <1>   0.1400 
 22 C        3.8120    -2.0200    -0.6300 C.3   1 <1>   0.1400 
 23 C        6.7360    -2.2940    -0.7920 C.3   1 <1>  -0.1600 
 24 C        4.5160    -2.1590    -1.9840 C.3   1 <1>  -0.1600 
 25 C        5.8360    -2.9340    -1.8590 C.3   1 <1>  -0.1600 
 26 H       -1.2980    -1.5370     1.2210 H     1 <1>   0.4200 
 27 H        2.1910    -0.6580     2.2730 H     1 <1>   0.1500 
 28 H       -0.1060     2.3540     0.3370 H     1 <1>   0.1500 
 29 H       -1.3000    -1.6600    -1.1840 H     1 <1>   0.1500 
 30 H       -2.8900     1.7190     0.8670 H     1 <1>   0.1500 
 31 H        1.8500     3.0140    -0.9550 H     1 <1>   0.1500 
 32 H       -2.1570    -0.7730    -3.3060 H     1 <1>   0.1500 
 33 H       -3.7320     2.6100    -1.2510 H     1 <1>   0.1500 
 34 H       -3.3680     1.3680    -3.3450 H     1 <1>   0.1500 
 35 H        4.7250     1.1650    -1.4780 H     1 <1>   0.0800 
 36 H        5.1380     2.3070    -0.2220 H     1 <1>   0.0800 
 37 H        4.1150     2.7980    -1.5470 H     1 <1>   0.0800 
 38 H        5.7880    -3.1330     0.9490 H     1 <1>   0.0800 
 39 H        6.6550    -1.6550     1.2550 H     1 <1>   0.0800 
 40 H        2.9230    -1.4250    -0.7510 H     1 <1>   0.0800 
 41 H        3.5170    -2.9920    -0.2740 H     1 <1>   0.0800 
 42 H        7.6200    -2.8920    -0.6590 H     1 <1>   0.0800 
 43 H        7.0480    -1.3160    -1.1150 H     1 <1>   0.0800 
 44 H        4.7100    -1.1770    -2.3780 H     1 <1>   0.0800 
 45 H        3.8650    -2.6660    -2.6730 H     1 <1>   0.0800 
 46 H        5.6280    -3.9540    -1.5840 H     1 <1>   0.0800 
 47 H        6.3450    -2.9420    -2.8070 H     1 <1>   0.0800 
@<TRIPOS>BOND
  1   1   2  2   
  2   1   3  2   
  3   1   4  am  
  4   1   5  1   
  5   4   6  1   
  6   4  26  1   
  7   5   7  ar  
  8   5   8  ar  
  9   6   9  ar  
 10   6  10  ar  
 11   7  11  ar  
 12   7  27  1   
 13   8  12  ar  
 14   8  28  1   
 15   9  13  ar  
 16   9  29  1   
 17  10  14  ar  
 18  10  30  1   
 19  11  15  ar  
 20  11  16  1   
 21  12  15  ar  
 22  12  31  1   
 23  13  17  ar  
 24  13  32  1   
 25  14  17  ar  
 26  14  33  1   
 27  15  18  1   
 28  16  19  2   
 29  16  20  am  
 30  17  34  1   
 31  18  35  1   
 32  18  36  1   
 33  18  37  1   
 34  20  21  1   
 35  20  22  1   
 36  21  23  1   
 37  21  38  1   
 38  21  39  1   
 39  22  24  1   
 40  22  40  1   
 41  22  41  1   
 42  23  25  1   
 43  23  42  1   
 44  23  43  1   
 45  24  25  1   
 46  24  44  1   
 47  24  45  1   
 48  25  46  1   
 49  25  47  1   
@<TRIPOS>SUBSTRUCTURE
  1 ****   7 GROUP 4 **** **** 0

# MOE 2024.06 (io_trps.svl 2023.06)
