@<TRIPOS>MOLECULE
NONAME
40 41 1 0 0 
SMALL
USER_CHARGES


@<TRIPOS>ATOM
  1 O       -0.3460    -0.5520     0.3740 O.3   1 <1>  -0.3630 
  2 C       -1.5760    -0.9890     0.0120 C.ar  1 <1>   0.0830 
  3 C        0.5380    -1.3620     1.1170 C.3   1 <1>   0.0400 
  4 C       -2.0990    -2.2260     0.3750 C.ar  1 <1>  -0.1500 
  5 C       -2.3360    -0.1330    -0.7670 C.ar  1 <1>  -0.1500 
  6 C       -3.3700    -2.5900    -0.0350 C.ar  1 <1>  -0.1500 
  7 C       -3.6050    -0.4960    -1.1790 C.ar  1 <1>  -0.1500 
  8 C       -4.1330    -1.7250    -0.8080 C.ar  1 <1>  -0.1430 
  9 C       -5.5330    -2.1150    -1.2410 C.3   1 <1>   0.4860 
 10 N       -6.4490    -1.9720    -0.0730 N.4   1 <1>  -0.9590 
 11 C       -7.7750    -2.5960    -0.3800 C.3   1 <1>   0.3430 
 12 C       -6.5760    -0.5330     0.3320 C.3   1 <1>   0.2630 
 13 C       -8.6570    -2.7520     0.8630 C.3   1 <1>  -0.0170 
 14 C       -9.9690    -3.3890     0.4560 C.ar  1 <1>   0.1670 
 15 N      -10.5380    -2.8810    -0.6260 N.ar  1 <1>  -0.6200 
 16 C      -10.5020    -4.4320     1.2000 C.ar  1 <1>  -0.1500 
 17 C      -11.6910    -3.4320    -0.9790 C.ar  1 <1>   0.1600 
 18 C      -11.6990    -4.9980     0.8170 C.ar  1 <1>  -0.1500 
 19 C      -12.3020    -4.4750    -0.3060 C.ar  1 <1>  -0.1500 
 20 H        1.4510    -0.8120     1.2620 H     1 <1>   0.0800 
 21 H        0.7380    -2.2610     0.5630 H     1 <1>   0.0800 
 22 H        0.0920    -1.5850     2.0700 H     1 <1>   0.0800 
 23 H       -1.5270    -2.9130     0.9730 H     1 <1>   0.1500 
 24 H       -1.9180     0.8180    -1.0490 H     1 <1>   0.1500 
 25 H       -3.7470    -3.5560     0.2530 H     1 <1>   0.1500 
 26 H       -4.1660     0.1910    -1.7900 H     1 <1>   0.1500 
 27 H       -5.5240    -3.1360    -1.5840 H     1 <1>   0.0800 
 28 H       -5.8590    -1.4850    -2.0530 H     1 <1>   0.0800 
 29 H       -5.9990    -2.4810     0.6990 H     1 <1>   0.4500 
 30 H       -7.6290    -3.5730    -0.8110 H     1 <1>   0.0800 
 31 H       -8.3010    -1.9960    -1.1070 H     1 <1>   0.0800 
 32 H       -7.0260     0.0420    -0.4610 H     1 <1>   0.0800 
 33 H       -5.6050    -0.1180     0.5510 H     1 <1>   0.0800 
 34 H       -7.1880    -0.4410     1.2140 H     1 <1>   0.0800 
 35 H       -8.8800    -1.7920     1.2920 H     1 <1>   0.0800 
 36 H       -8.1620    -3.3630     1.5950 H     1 <1>   0.0800 
 37 H       -9.9980    -4.8040     2.0740 H     1 <1>   0.1500 
 38 H      -12.1780    -3.0320    -1.8530 H     1 <1>   0.1500 
 39 H      -12.1440    -5.8090     1.3690 H     1 <1>   0.1500 
 40 H      -13.2390    -4.8690    -0.6560 H     1 <1>   0.1500 
@<TRIPOS>BOND
  1   1   2  1   
  2   1   3  1   
  3   2   4  ar  
  4   2   5  ar  
  5   3  20  1   
  6   3  21  1   
  7   3  22  1   
  8   4   6  ar  
  9   4  23  1   
 10   5   7  ar  
 11   5  24  1   
 12   6   8  ar  
 13   6  25  1   
 14   7   8  ar  
 15   7  26  1   
 16   8   9  1   
 17   9  10  1   
 18   9  27  1   
 19   9  28  1   
 20  10  11  1   
 21  10  12  1   
 22  10  29  1   
 23  11  13  1   
 24  11  30  1   
 25  11  31  1   
 26  12  32  1   
 27  12  33  1   
 28  12  34  1   
 29  13  14  1   
 30  13  35  1   
 31  13  36  1   
 32  14  15  ar  
 33  14  16  ar  
 34  15  17  ar  
 35  16  18  ar  
 36  16  37  1   
 37  17  19  ar  
 38  17  38  1   
 39  18  19  ar  
 40  18  39  1   
 41  19  40  1   
@<TRIPOS>SUBSTRUCTURE
  1 ****  10 GROUP 4 **** **** 0

# MOE 2024.06 (io_trps.svl 2023.06)
