@<TRIPOS>MOLECULE
NONAME
32 33 1 0 0 
SMALL
USER_CHARGES


@<TRIPOS>ATOM
  1 O        0.8370    -0.5980    -1.3540 O.3   1 <1>  -0.5600 
  2 C        1.4900     0.4870    -0.7460 C.3   1 <1>   0.1200 
  3 C        0.3320    -1.5450    -0.4530 C.3   1 <1>   0.1200 
  4 C        2.6080     0.0150     0.2130 C.3   1 <1>   0.3430 
  5 C        1.4700    -2.1800     0.3800 C.3   1 <1>   0.3430 
  6 N        2.7770    -1.4780     0.1570 N.4   1 <1>  -0.9590 
  7 C        3.8860    -1.9860     1.0080 C.3   1 <1>   0.4860 
  8 C        5.1680    -1.2870     0.6020 C.ar  1 <1>  -0.1440 
  9 C        5.7850    -1.5950    -0.6020 C.ar  1 <1>  -0.1500 
 10 C        5.7280    -0.3240     1.4280 C.ar  1 <1>  -0.1500 
 11 C        6.9420    -0.9360    -0.9790 C.ar  1 <1>  -0.1500 
 12 C        6.8860     0.3320     1.0470 C.ar  1 <1>  -0.1500 
 13 C        7.4970     0.0300    -0.1580 C.ar  1 <1>  -0.1440 
 14 C        8.7670     0.7510    -0.5730 C.3   1 <1>  -0.0970 
 15 H        0.7600     1.0770    -0.2180 H     1 <1>   0.0800 
 16 H        1.9090     1.0940    -1.5290 H     1 <1>   0.0800 
 17 H       -0.1800    -2.3020    -1.0210 H     1 <1>   0.0800 
 18 H       -0.3870    -1.0620     0.1870 H     1 <1>   0.0800 
 19 H        2.3630     0.3200     1.2160 H     1 <1>   0.0800 
 20 H        3.5290     0.5050    -0.0580 H     1 <1>   0.0800 
 21 H        1.5620    -3.2190     0.1090 H     1 <1>   0.0800 
 22 H        1.2000    -2.1400     1.4230 H     1 <1>   0.0800 
 23 H        3.0300    -1.6590    -0.8250 H     1 <1>   0.4500 
 24 H        4.0010    -3.0490     0.8740 H     1 <1>   0.0800 
 25 H        3.6770    -1.7910     2.0470 H     1 <1>   0.0800 
 26 H        5.3830    -2.3460    -1.2600 H     1 <1>   0.1500 
 27 H        5.2800    -0.0720     2.3740 H     1 <1>   0.1500 
 28 H        7.4140    -1.1800    -1.9160 H     1 <1>   0.1500 
 29 H        7.3140     1.0790     1.6940 H     1 <1>   0.1500 
 30 H        9.3740     0.1180    -1.1960 H     1 <1>   0.0800 
 31 H        9.3450     1.0270     0.2910 H     1 <1>   0.0800 
 32 H        8.5190     1.6420    -1.1230 H     1 <1>   0.0800 
@<TRIPOS>BOND
  1   1   2  1   
  2   1   3  1   
  3   2   4  1   
  4   2  15  1   
  5   2  16  1   
  6   3   5  1   
  7   3  17  1   
  8   3  18  1   
  9   4   6  1   
 10   4  19  1   
 11   4  20  1   
 12   5   6  1   
 13   5  21  1   
 14   5  22  1   
 15   6   7  1   
 16   6  23  1   
 17   7   8  1   
 18   7  24  1   
 19   7  25  1   
 20   8   9  ar  
 21   8  10  ar  
 22   9  11  ar  
 23   9  26  1   
 24  10  12  ar  
 25  10  27  1   
 26  11  13  ar  
 27  11  28  1   
 28  12  13  ar  
 29  12  29  1   
 30  13  14  1   
 31  14  30  1   
 32  14  31  1   
 33  14  32  1   
@<TRIPOS>SUBSTRUCTURE
  1 ****   8 GROUP 4 **** **** 0

# MOE 2024.06 (io_trps.svl 2023.06)
