@<TRIPOS>MOLECULE
NONAME
49 51 1 0 0 
SMALL
USER_CHARGES


@<TRIPOS>ATOM
  1 S       -0.0380    -0.4660    -0.2460 S.o2  1 <1>   1.5010 
  2 O       -0.0050    -1.1550    -1.5160 O.2   1 <1>  -0.6500 
  3 O       -0.0410    -1.2120     0.9910 O.2   1 <1>  -0.6500 
  4 N       -1.5060     0.3900    -0.2620 N.am  1 <1>  -0.8490 
  5 C        1.1870     0.8450    -0.1990 C.2   1 <1>  -0.0630 
  6 C       -1.7280     1.1170    -1.5310 C.3   1 <1>   0.1960 
  7 C       -2.6400    -0.5220     0.0100 C.3   1 <1>   0.1960 
  8 C        2.0150     1.1690    -1.2660 C.2   1 <1>   0.1390 
  9 C        1.5260     1.7460     0.7570 C.2   1 <1>  -0.3020 
 10 C       -3.0480     1.9320    -1.5210 C.3   1 <1>   0.3430 
 11 C       -4.0180     0.1840    -0.0640 C.3   1 <1>   0.3430 
 12 N        2.7840     2.1820    -1.0130 N.2   1 <1>  -0.7070 
 13 N        2.4920     2.5340     0.2500 N.pl3 1 <1>   0.3140 
 14 N       -3.8770     1.6670    -0.2910 N.4   1 <1>  -0.9590 
 15 C        3.1870     3.6450     0.9340 C.3   1 <1>   0.0960 
 16 C       -5.1710     2.4160    -0.3180 C.3   1 <1>   0.3430 
 17 C        2.3120     4.9040     0.9810 C.3   1 <1>  -0.2400 
 18 C       -5.8750     2.4050     1.0410 C.3   1 <1>  -0.0170 
 19 C       -7.1110     3.2770     0.9470 C.ar  1 <1>  -0.1430 
 20 C       -8.3220     2.7350     0.5410 C.ar  1 <1>  -0.1500 
 21 C       -7.0390     4.6270     1.2560 C.ar  1 <1>  -0.1500 
 22 C       -9.4450     3.5360     0.4380 C.ar  1 <1>  -0.1500 
 23 C       -8.1630     5.4270     1.1530 C.ar  1 <1>  -0.1500 
 24 C       -9.3660     4.8830     0.7420 C.ar  1 <1>  -0.1500 
 25 H       -1.7580     0.4220    -2.3550 H     1 <1>   0.0800 
 26 H       -0.9100     1.7940    -1.7140 H     1 <1>   0.0800 
 27 H       -2.5290    -0.9450     0.9960 H     1 <1>   0.0800 
 28 H       -2.6280    -1.3440    -0.6880 H     1 <1>   0.0800 
 29 H        2.0240     0.6430    -2.2080 H     1 <1>   0.1500 
 30 H        1.1380     1.8590     1.7530 H     1 <1>   0.1500 
 31 H       -3.6130     1.6860    -2.4060 H     1 <1>   0.0800 
 32 H       -2.8060     2.9810    -1.5760 H     1 <1>   0.0800 
 33 H       -4.5480    -0.0030     0.8550 H     1 <1>   0.0800 
 34 H       -4.5910    -0.2540    -0.8640 H     1 <1>   0.0800 
 35 H       -3.2960     2.0040     0.4930 H     1 <1>   0.4500 
 36 H        4.0970     3.8500     0.4000 H     1 <1>   0.0800 
 37 H        3.4400     3.3280     1.9290 H     1 <1>   0.0800 
 38 H       -5.8280     1.9950    -1.0610 H     1 <1>   0.0800 
 39 H       -4.9860     3.4440    -0.5890 H     1 <1>   0.0800 
 40 H        2.0690     5.2200    -0.0190 H     1 <1>   0.0800 
 41 H        2.8480     5.6990     1.4670 H     1 <1>   0.0800 
 42 H        1.4070     4.7160     1.5300 H     1 <1>   0.0800 
 43 H       -5.2220     2.7940     1.8030 H     1 <1>   0.0800 
 44 H       -6.1690     1.4080     1.3130 H     1 <1>   0.0800 
 45 H       -8.4090     1.6890     0.3040 H     1 <1>   0.1500 
 46 H       -6.1150     5.0720     1.5830 H     1 <1>   0.1500 
 47 H      -10.3850     3.1130     0.1240 H     1 <1>   0.1500 
 48 H       -8.1050     6.4750     1.3940 H     1 <1>   0.1500 
 49 H      -10.2410     5.5060     0.6630 H     1 <1>   0.1500 
@<TRIPOS>BOND
  1   1   2  2   
  2   1   3  2   
  3   1   4  am  
  4   1   5  1   
  5   4   6  1   
  6   4   7  1   
  7   5   8  1   
  8   5   9  2   
  9   6  10  1   
 10   6  25  1   
 11   6  26  1   
 12   7  11  1   
 13   7  27  1   
 14   7  28  1   
 15   8  12  2   
 16   8  29  1   
 17   9  13  1   
 18   9  30  1   
 19  10  14  1   
 20  10  31  1   
 21  10  32  1   
 22  11  14  1   
 23  11  33  1   
 24  11  34  1   
 25  12  13  1   
 26  13  15  1   
 27  14  16  1   
 28  14  35  1   
 29  15  17  1   
 30  15  36  1   
 31  15  37  1   
 32  16  18  1   
 33  16  38  1   
 34  16  39  1   
 35  17  40  1   
 36  17  41  1   
 37  17  42  1   
 38  18  19  1   
 39  18  43  1   
 40  18  44  1   
 41  19  20  ar  
 42  19  21  ar  
 43  20  22  ar  
 44  20  45  1   
 45  21  23  ar  
 46  21  46  1   
 47  22  24  ar  
 48  22  47  1   
 49  23  24  ar  
 50  23  48  1   
 51  24  49  1   
@<TRIPOS>SUBSTRUCTURE
  1 ****  14 GROUP 4 **** **** 0

# MOE 2024.06 (io_trps.svl 2023.06)
