@<TRIPOS>MOLECULE
NONAME
46 47 1 0 0 
SMALL
USER_CHARGES


@<TRIPOS>ATOM
  1 S        0.0300     0.2410     0.4050 S.3   1 <1>  -0.3320 
  2 C       -1.4740    -0.7140     0.4940 C.ar  1 <1>   0.7220 
  3 C        1.3760    -1.0110     0.6670 C.3   1 <1>   0.1310 
  4 N       -2.5680    -0.0310     0.3660 N.ar  1 <1>  -0.6200 
  5 N       -1.3300    -1.9920     0.6750 N.ar  1 <1>  -0.6200 
  6 C        2.7400    -0.3490     0.6240 C.2   1 <1>   0.6590 
  7 C       -3.6500    -0.7700     0.4430 C.ar  1 <1>   0.7200 
  8 C       -2.4820    -2.6070     0.7370 C.ar  1 <1>   0.7200 
  9 O        3.4410    -0.2830     1.6010 O.2   1 <1>  -0.5700 
 10 O        3.1280     0.1270    -0.5550 O.3   1 <1>  -0.4300 
 11 N       -3.6610    -2.0670     0.6300 N.ar  1 <1>  -0.6200 
 12 N       -4.8640    -0.1300     0.3200 N.pl3 1 <1>  -0.8380 
 13 N       -2.4860    -3.9410     0.9330 N.pl3 1 <1>  -0.8690 
 14 C        4.3750     0.7700    -0.7230 C.3   1 <1>   0.0400 
 15 C       -6.1810    -0.8180     0.5140 C.3   1 <1>   0.2090 
 16 C       -4.9980     1.3540     0.1650 C.3   1 <1>   0.2090 
 17 C       -1.3610    -4.8580     0.6530 C.3   1 <1>   0.2090 
 18 C       -7.2150    -0.3310    -0.5170 C.3   1 <1>   0.1200 
 19 C       -6.1080     1.7070    -0.8420 C.3   1 <1>   0.1200 
 20 C       -1.8890    -6.2190     0.1690 C.3   1 <1>  -0.0800 
 21 O       -7.3110     1.0670    -0.5160 O.3   1 <1>  -0.5600 
 22 C       -0.7250    -7.2000    -0.0210 C.3   1 <1>  -0.2400 
 23 C       -2.6780    -6.1010    -1.1450 C.3   1 <1>  -0.2400 
 24 H        1.2900    -1.7450    -0.1110 H     1 <1>   0.0800 
 25 H        1.2090    -1.4620     1.6270 H     1 <1>   0.0800 
 26 H       -3.4150    -4.3570     0.8910 H     1 <1>   0.4000 
 27 H        4.4690     1.0710    -1.7500 H     1 <1>   0.0800 
 28 H        5.1600     0.0800    -0.4630 H     1 <1>   0.0800 
 29 H        4.4100     1.6310    -0.0790 H     1 <1>   0.0800 
 30 H       -6.5440    -0.6080     1.5040 H     1 <1>   0.0800 
 31 H       -6.0820    -1.8840     0.4180 H     1 <1>   0.0800 
 32 H       -4.0790     1.7960    -0.1770 H     1 <1>   0.0800 
 33 H       -5.2370     1.7880     1.1200 H     1 <1>   0.0800 
 34 H       -0.7890    -4.9870     1.5560 H     1 <1>   0.0800 
 35 H       -0.7170    -4.4290    -0.0970 H     1 <1>   0.0800 
 36 H       -8.1860    -0.7270    -0.2810 H     1 <1>   0.0800 
 37 H       -6.9390    -0.6570    -1.5040 H     1 <1>   0.0800 
 38 H       -5.8180     1.4100    -1.8350 H     1 <1>   0.0800 
 39 H       -6.2880     2.7660    -0.8370 H     1 <1>   0.0800 
 40 H       -2.5360    -6.6190     0.9320 H     1 <1>   0.0800 
 41 H       -0.0480    -6.8450    -0.7790 H     1 <1>   0.0800 
 42 H       -1.0950    -8.1660    -0.3190 H     1 <1>   0.0800 
 43 H       -0.1800    -7.3190     0.8990 H     1 <1>   0.0800 
 44 H       -2.0600    -5.6820    -1.9200 H     1 <1>   0.0800 
 45 H       -3.5390    -5.4690    -1.0200 H     1 <1>   0.0800 
 46 H       -3.0200    -7.0700    -1.4650 H     1 <1>   0.0800 
@<TRIPOS>BOND
  1   1   2  1   
  2   1   3  1   
  3   2   4  ar  
  4   2   5  ar  
  5   3   6  1   
  6   3  24  1   
  7   3  25  1   
  8   4   7  ar  
  9   5   8  ar  
 10   6   9  2   
 11   6  10  1   
 12   7  11  ar  
 13   7  12  1   
 14   8  11  ar  
 15   8  13  1   
 16  10  14  1   
 17  12  15  1   
 18  12  16  1   
 19  13  17  1   
 20  13  26  1   
 21  14  27  1   
 22  14  28  1   
 23  14  29  1   
 24  15  18  1   
 25  15  30  1   
 26  15  31  1   
 27  16  19  1   
 28  16  32  1   
 29  16  33  1   
 30  17  20  1   
 31  17  34  1   
 32  17  35  1   
 33  18  21  1   
 34  18  36  1   
 35  18  37  1   
 36  19  21  1   
 37  19  38  1   
 38  19  39  1   
 39  20  22  1   
 40  20  23  1   
 41  20  40  1   
 42  22  41  1   
 43  22  42  1   
 44  22  43  1   
 45  23  44  1   
 46  23  45  1   
 47  23  46  1   
@<TRIPOS>SUBSTRUCTURE
  1 ****   5 GROUP 4 **** **** 0

# MOE 2024.06 (io_trps.svl 2023.06)
