@<TRIPOS>MOLECULE
NONAME
40 41 1 0 0 
SMALL
USER_CHARGES


@<TRIPOS>ATOM
  1 O        0.1570    -0.3250    -0.4450 O.3   1 <1>  -0.3630 
  2 C        1.1790     0.5560    -0.2390 C.ar  1 <1>   0.0820 
  3 C       -1.2060     0.0350    -0.4150 C.3   1 <1>   0.0400 
  4 C        1.0740     1.9050     0.1370 C.ar  1 <1>   0.0820 
  5 C        2.4330     0.0040    -0.4380 C.ar  1 <1>  -0.1500 
  6 O       -0.1490     2.4710     0.3550 O.3   1 <1>  -0.3630 
  7 C        2.2430     2.6460     0.2820 C.ar  1 <1>  -0.1500 
  8 C        3.6040     0.7340    -0.2730 C.ar  1 <1>  -0.1430 
  9 C       -0.3130     3.8050     0.7870 C.3   1 <1>   0.0400 
 10 C        3.4910     2.0790     0.0770 C.ar  1 <1>  -0.1430 
 11 C        4.9780     0.0840    -0.5110 C.3   1 <1>   0.5660 
 12 C        4.7170     2.9700     0.2470 C.3   1 <1>  -0.0160 
 13 N        6.0030     0.9000     0.1620 N.4   1 <1>  -0.9060 
 14 C        5.1320    -1.3770    -0.0100 C.3   1 <1>  -0.0800 
 15 C        5.9940     2.3100    -0.2740 C.3   1 <1>   0.3430 
 16 C        6.4130    -2.0500    -0.5490 C.3   1 <1>   0.1200 
 17 C        5.0250    -1.5240     1.5250 C.3   1 <1>  -0.2400 
 18 O        7.5460    -1.3220    -0.2010 O.3   1 <1>  -0.6800 
 19 H       -1.7870    -0.8300    -0.6780 H     1 <1>   0.0800 
 20 H       -1.4600     0.3570     0.5790 H     1 <1>   0.0800 
 21 H       -1.3760     0.8210    -1.1290 H     1 <1>   0.0800 
 22 H        2.4460    -1.0270    -0.7370 H     1 <1>   0.1500 
 23 H        2.1970     3.6820     0.5580 H     1 <1>   0.1500 
 24 H       -1.3660     3.9880     0.9070 H     1 <1>   0.0800 
 25 H        0.1870     3.9320     1.7300 H     1 <1>   0.0800 
 26 H        0.0870     4.4670     0.0400 H     1 <1>   0.0800 
 27 H        5.1650     0.0940    -1.5720 H     1 <1>   0.0800 
 28 H        4.8400     3.2040     1.2900 H     1 <1>   0.0800 
 29 H        4.5700     3.8980    -0.2770 H     1 <1>   0.0800 
 30 H        5.8090     0.8290     1.1630 H     1 <1>   0.4500 
 31 H        6.9020     0.4060     0.0030 H     1 <1>   0.4500 
 32 H        4.3290    -1.9530    -0.4300 H     1 <1>   0.0800 
 33 H        6.8570     2.8310     0.1100 H     1 <1>   0.0800 
 34 H        6.0140     2.3580    -1.3510 H     1 <1>   0.0800 
 35 H        6.3830    -2.1270    -1.6240 H     1 <1>   0.0800 
 36 H        6.5120    -3.0420    -0.1380 H     1 <1>   0.0800 
 37 H        5.8700    -1.0890     2.0290 H     1 <1>   0.0800 
 38 H        4.9900    -2.5670     1.7900 H     1 <1>   0.0800 
 39 H        4.1230    -1.0650     1.8920 H     1 <1>   0.0800 
 40 H        8.3530    -1.8650    -0.3550 H     1 <1>   0.4000 
@<TRIPOS>BOND
  1   1   2  1   
  2   1   3  1   
  3   2   4  ar  
  4   2   5  ar  
  5   3  19  1   
  6   3  20  1   
  7   3  21  1   
  8   4   6  1   
  9   4   7  ar  
 10   5   8  ar  
 11   5  22  1   
 12   6   9  1   
 13   7  10  ar  
 14   7  23  1   
 15   8  10  ar  
 16   8  11  1   
 17   9  24  1   
 18   9  25  1   
 19   9  26  1   
 20  10  12  1   
 21  11  13  1   
 22  11  14  1   
 23  11  27  1   
 24  12  15  1   
 25  12  28  1   
 26  12  29  1   
 27  13  15  1   
 28  13  30  1   
 29  13  31  1   
 30  14  16  1   
 31  14  17  1   
 32  14  32  1   
 33  15  33  1   
 34  15  34  1   
 35  16  18  1   
 36  16  35  1   
 37  16  36  1   
 38  17  37  1   
 39  17  38  1   
 40  17  39  1   
 41  18  40  1   
@<TRIPOS>SUBSTRUCTURE
  1 ****   8 GROUP 4 **** **** 0

# MOE 2024.06 (io_trps.svl 2023.06)
