@<TRIPOS>MOLECULE
NONAME
38 39 1 0 0 
SMALL
USER_CHARGES


@<TRIPOS>ATOM
  1 BR       0.2210     0.3100    -0.9390 Br    1 <1>  -0.1110 
  2 C       -1.5380     1.0280    -0.6210 C.ar  1 <1>   0.1110 
  3 C       -1.6600     2.3510    -0.2470 C.ar  1 <1>  -0.1500 
  4 C       -2.6340     0.2020    -0.7730 C.ar  1 <1>  -0.1500 
  5 C       -2.9280     2.8600    -0.0210 C.ar  1 <1>  -0.1500 
  6 C       -3.8940     0.7250    -0.5420 C.ar  1 <1>  -0.1500 
  7 C       -4.0590     2.0590    -0.1670 C.ar  1 <1>   0.1170 
  8 N       -5.3170     2.6320     0.0900 N.am  1 <1>  -0.5470 
  9 C       -6.5570     2.2780    -0.3800 C.2   1 <1>   0.5690 
 10 O       -6.7450     1.3690    -1.1540 O.2   1 <1>  -0.5700 
 11 C       -7.8010     3.0600     0.0800 C.3   1 <1>   0.4040 
 12 N       -9.0940     2.3040    -0.1300 N.4   1 <1>  -0.9590 
 13 C      -10.3050     3.1830    -0.1040 C.3   1 <1>   0.3430 
 14 C       -9.2210     1.1220     0.7670 C.3   1 <1>   0.3430 
 15 C      -11.6170     2.3740    -0.0240 C.3   1 <1>  -0.0800 
 16 C      -10.3290     0.2030     0.2390 C.3   1 <1>  -0.1600 
 17 C      -11.4420     0.9340    -0.5360 C.3   1 <1>  -0.1600 
 18 C      -12.7350     3.0830    -0.7990 C.3   1 <1>  -0.2400 
 19 H       -0.7830     2.9640    -0.1390 H     1 <1>   0.1500 
 20 H       -2.5010    -0.8250    -1.0650 H     1 <1>   0.1500 
 21 H       -3.0280     3.8910     0.2670 H     1 <1>   0.1500 
 22 H       -4.7460     0.0800    -0.6550 H     1 <1>   0.1500 
 23 H       -5.2540     3.4700     0.6690 H     1 <1>   0.3700 
 24 H       -7.8330     3.9760    -0.4850 H     1 <1>   0.0800 
 25 H       -7.6940     3.3100     1.1210 H     1 <1>   0.0800 
 26 H       -9.0170     1.8920    -1.0760 H     1 <1>   0.4500 
 27 H      -10.3190     3.7830    -1.0000 H     1 <1>   0.0800 
 28 H      -10.2620     3.8520     0.7400 H     1 <1>   0.0800 
 29 H       -9.4700     1.4520     1.7630 H     1 <1>   0.0800 
 30 H       -8.2940     0.5730     0.8090 H     1 <1>   0.0800 
 31 H      -11.9160     2.3290     1.0100 H     1 <1>   0.0800 
 32 H      -10.7580    -0.3130     1.0800 H     1 <1>   0.0800 
 33 H       -9.8930    -0.5490    -0.3960 H     1 <1>   0.0800 
 34 H      -11.1890     0.9590    -1.5830 H     1 <1>   0.0800 
 35 H      -12.3660     0.3870    -0.4420 H     1 <1>   0.0800 
 36 H      -12.4970     3.1500    -1.8470 H     1 <1>   0.0800 
 37 H      -12.8920     4.0770    -0.4170 H     1 <1>   0.0800 
 38 H      -13.6600     2.5410    -0.6990 H     1 <1>   0.0800 
@<TRIPOS>BOND
  1   1   2  1   
  2   2   3  ar  
  3   2   4  ar  
  4   3   5  ar  
  5   3  19  1   
  6   4   6  ar  
  7   4  20  1   
  8   5   7  ar  
  9   5  21  1   
 10   6   7  ar  
 11   6  22  1   
 12   7   8  1   
 13   8   9  am  
 14   8  23  1   
 15   9  10  2   
 16   9  11  1   
 17  11  12  1   
 18  11  24  1   
 19  11  25  1   
 20  12  13  1   
 21  12  14  1   
 22  12  26  1   
 23  13  15  1   
 24  13  27  1   
 25  13  28  1   
 26  14  16  1   
 27  14  29  1   
 28  14  30  1   
 29  15  17  1   
 30  15  18  1   
 31  15  31  1   
 32  16  17  1   
 33  16  32  1   
 34  16  33  1   
 35  17  34  1   
 36  17  35  1   
 37  18  36  1   
 38  18  37  1   
 39  18  38  1   
@<TRIPOS>SUBSTRUCTURE
  1 ****   9 GROUP 4 **** **** 0

# MOE 2024.06 (io_trps.svl 2023.06)
