@<TRIPOS>MOLECULE
NONAME
41 42 1 0 0 
SMALL
USER_CHARGES


@<TRIPOS>ATOM
  1 O       -0.2480    -0.4750    -1.4050 O.2   1 <1>  -0.5700 
  2 C       -0.3140    -1.6420    -1.0700 C.2   1 <1>   0.5440 
  3 N        0.8270    -2.2670    -0.6190 N.am  1 <1>  -0.6600 
  4 C       -1.5840    -2.3400    -1.1470 C.ar  1 <1>   0.0860 
  5 C        0.8180    -3.5690     0.1140 C.3   1 <1>   0.1400 
  6 C        2.1500    -1.5750    -0.6550 C.3   1 <1>   0.1400 
  7 C       -2.7110    -1.8520    -0.4920 C.ar  1 <1>  -0.1500 
  8 C       -1.7220    -3.5200    -1.8780 C.ar  1 <1>  -0.1500 
  9 C        2.0060    -3.6650     1.0940 C.3   1 <1>   0.2000 
 10 C        3.3160    -2.5880    -0.6230 C.3   1 <1>   0.2000 
 11 C       -3.9250    -2.5130    -0.5420 C.ar  1 <1>   0.0830 
 12 C       -2.9290    -4.1920    -1.9380 C.ar  1 <1>  -0.1500 
 13 O        3.2340    -3.5060     0.4390 O.3   1 <1>  -0.5600 
 14 C        2.0570    -5.0130     1.8070 C.3   1 <1>  -0.2400 
 15 C        4.6720    -1.8970    -0.5040 C.3   1 <1>  -0.2400 
 16 O       -4.9540    -1.9510     0.1390 O.3   1 <1>  -0.3630 
 17 C       -4.0330    -3.6950    -1.2700 C.ar  1 <1>  -0.1500 
 18 C       -6.2610    -2.4700     0.0560 C.3   1 <1>   0.2580 
 19 C       -7.1740    -1.5810     0.8780 C.2   1 <1>  -0.2880 
 20 C       -7.9600    -1.9880     1.8810 C.2   1 <1>  -0.3000 
 21 H        0.8780    -4.3780    -0.5930 H     1 <1>   0.0800 
 22 H       -0.1000    -3.6680     0.6660 H     1 <1>   0.0800 
 23 H        2.2240    -0.9090     0.1860 H     1 <1>   0.0800 
 24 H        2.2200    -0.9820    -1.5510 H     1 <1>   0.0800 
 25 H       -2.6360    -0.9350     0.0660 H     1 <1>   0.1500 
 26 H       -0.8680    -3.9060    -2.4070 H     1 <1>   0.1500 
 27 H        1.9240    -2.8790     1.8250 H     1 <1>   0.0800 
 28 H        3.2920    -3.1610    -1.5340 H     1 <1>   0.0800 
 29 H       -3.0100    -5.1020    -2.5090 H     1 <1>   0.1500 
 30 H        2.1720    -5.8090     1.0930 H     1 <1>   0.0800 
 31 H        1.1510    -5.1730     2.3620 H     1 <1>   0.0800 
 32 H        2.8850    -5.0300     2.4920 H     1 <1>   0.0800 
 33 H        4.7280    -1.3440     0.4160 H     1 <1>   0.0800 
 34 H        4.8140    -1.2200    -1.3260 H     1 <1>   0.0800 
 35 H        5.4570    -2.6310    -0.5260 H     1 <1>   0.0800 
 36 H       -4.9580    -4.2360    -1.3310 H     1 <1>   0.1500 
 37 H       -6.2570    -3.4740     0.4410 H     1 <1>   0.0800 
 38 H       -6.5630    -2.4660    -0.9770 H     1 <1>   0.0800 
 39 H       -7.1210    -0.5530     0.5620 H     1 <1>   0.1500 
 40 H       -8.5960    -1.3290     2.4470 H     1 <1>   0.1500 
 41 H       -8.0330    -3.0060     2.2230 H     1 <1>   0.1500 
@<TRIPOS>BOND
  1   1   2  2   
  2   2   3  am  
  3   2   4  1   
  4   3   5  1   
  5   3   6  1   
  6   4   7  ar  
  7   4   8  ar  
  8   5   9  1   
  9   5  21  1   
 10   5  22  1   
 11   6  10  1   
 12   6  23  1   
 13   6  24  1   
 14   7  11  ar  
 15   7  25  1   
 16   8  12  ar  
 17   8  26  1   
 18   9  13  1   
 19   9  14  1   
 20   9  27  1   
 21  10  13  1   
 22  10  15  1   
 23  10  28  1   
 24  11  16  1   
 25  11  17  ar  
 26  12  17  ar  
 27  12  29  1   
 28  14  30  1   
 29  14  31  1   
 30  14  32  1   
 31  15  33  1   
 32  15  34  1   
 33  15  35  1   
 34  16  18  1   
 35  17  36  1   
 36  18  19  1   
 37  18  37  1   
 38  18  38  1   
 39  19  20  2   
 40  19  39  1   
 41  20  40  1   
 42  20  41  1   
@<TRIPOS>SUBSTRUCTURE
  1 ****   4 GROUP 4 **** **** 0

# MOE 2024.06 (io_trps.svl 2023.06)
