@<TRIPOS>MOLECULE
NONAME
51 51 1 0 0 
SMALL
USER_CHARGES


@<TRIPOS>ATOM
  1 N       -0.4110     0.0690    -0.0770 N.4   1 <1>  -0.9590 
  2 C        0.8250     0.8990    -0.2710 C.3   1 <1>   0.4230 
  3 C       -1.6190     0.9730     0.0290 C.3   1 <1>   0.3430 
  4 C       -0.2650    -0.8970     1.0580 C.3   1 <1>   0.3430 
  5 C        1.9560     0.0440    -0.8740 C.3   1 <1>  -0.1600 
  6 C        1.2730     1.6250     1.0080 C.3   1 <1>  -0.1600 
  7 C       -2.9990     0.2560    -0.0410 C.3   1 <1>   0.3430 
  8 C       -0.8340    -2.2480     0.6450 C.3   1 <1>  -0.2400 
  9 C        3.3640     0.5970    -0.5640 C.3   1 <1>  -0.0800 
 10 C        2.4220     2.6030     0.6990 C.3   1 <1>  -0.1600 
 11 N       -4.1890     1.1870    -0.0970 N.4   1 <1>  -0.9590 
 12 C        3.3410     2.1280    -0.4440 C.3   1 <1>  -0.1600 
 13 C        4.3710     0.1480    -1.6290 C.3   1 <1>  -0.2400 
 14 C       -4.3700     1.9750     1.1600 C.3   1 <1>   0.3430 
 15 C       -5.4450     0.4330    -0.4020 C.3   1 <1>   0.3430 
 16 C       -5.1610     3.2410     0.8510 C.3   1 <1>  -0.2400 
 17 C       -5.4580     0.0260    -1.8710 C.3   1 <1>  -0.2400 
 18 H       -0.4670    -0.4960    -0.9370 H     1 <1>   0.4500 
 19 H        0.6090     1.6680    -0.9970 H     1 <1>   0.0800 
 20 H       -1.5780     1.6860    -0.7780 H     1 <1>   0.0800 
 21 H       -1.5620     1.5200     0.9550 H     1 <1>   0.0800 
 22 H       -0.7570    -0.5270     1.9430 H     1 <1>   0.0800 
 23 H        0.7800    -1.0310     1.2960 H     1 <1>   0.0800 
 24 H        1.8150     0.0280    -1.9410 H     1 <1>   0.0800 
 25 H        1.9240    -0.9720    -0.5240 H     1 <1>   0.0800 
 26 H        1.6350     0.9110     1.7280 H     1 <1>   0.0800 
 27 H        0.4680     2.1790     1.4540 H     1 <1>   0.0800 
 28 H       -3.1020    -0.3880     0.8160 H     1 <1>   0.0800 
 29 H       -3.0030    -0.3620    -0.9230 H     1 <1>   0.0800 
 30 H       -1.8880    -2.2080     0.4500 H     1 <1>   0.0800 
 31 H       -0.6790    -2.9490     1.4480 H     1 <1>   0.0800 
 32 H       -0.3180    -2.6310    -0.2180 H     1 <1>   0.0800 
 33 H        3.6930     0.1980     0.3830 H     1 <1>   0.0800 
 34 H        3.0100     2.7360     1.5930 H     1 <1>   0.0800 
 35 H        2.0260     3.5710     0.4380 H     1 <1>   0.0800 
 36 H       -4.0810     1.8650    -0.8680 H     1 <1>   0.4500 
 37 H        3.0050     2.5500    -1.3760 H     1 <1>   0.0800 
 38 H        4.3370     2.4980    -0.2690 H     1 <1>   0.0800 
 39 H        4.1160     0.5470    -2.5950 H     1 <1>   0.0800 
 40 H        4.3950    -0.9260    -1.6960 H     1 <1>   0.0800 
 41 H        5.3590     0.4880    -1.3730 H     1 <1>   0.0800 
 42 H       -3.4140     2.2640     1.5650 H     1 <1>   0.0800 
 43 H       -4.8870     1.3870     1.9030 H     1 <1>   0.0800 
 44 H       -6.3050     1.0580    -0.2160 H     1 <1>   0.0800 
 45 H       -5.5270    -0.4390     0.2280 H     1 <1>   0.0800 
 46 H       -4.6570     3.8450     0.1180 H     1 <1>   0.0800 
 47 H       -5.2540     3.8250     1.7500 H     1 <1>   0.0800 
 48 H       -6.1570     3.0170     0.5100 H     1 <1>   0.0800 
 49 H       -5.3650     0.8860    -2.5110 H     1 <1>   0.0800 
 50 H       -6.4010    -0.4420    -2.0920 H     1 <1>   0.0800 
 51 H       -4.6870    -0.6860    -2.1000 H     1 <1>   0.0800 
@<TRIPOS>BOND
  1   1   2  1   
  2   1   3  1   
  3   1   4  1   
  4   1  18  1   
  5   2   5  1   
  6   2   6  1   
  7   2  19  1   
  8   3   7  1   
  9   3  20  1   
 10   3  21  1   
 11   4   8  1   
 12   4  22  1   
 13   4  23  1   
 14   5   9  1   
 15   5  24  1   
 16   5  25  1   
 17   6  10  1   
 18   6  26  1   
 19   6  27  1   
 20   7  11  1   
 21   7  28  1   
 22   7  29  1   
 23   8  30  1   
 24   8  31  1   
 25   8  32  1   
 26   9  12  1   
 27   9  13  1   
 28   9  33  1   
 29  10  12  1   
 30  10  34  1   
 31  10  35  1   
 32  11  14  1   
 33  11  15  1   
 34  11  36  1   
 35  12  37  1   
 36  12  38  1   
 37  13  39  1   
 38  13  40  1   
 39  13  41  1   
 40  14  16  1   
 41  14  42  1   
 42  14  43  1   
 43  15  17  1   
 44  15  44  1   
 45  15  45  1   
 46  16  46  1   
 47  16  47  1   
 48  16  48  1   
 49  17  49  1   
 50  17  50  1   
 51  17  51  1   
@<TRIPOS>SUBSTRUCTURE
  1 ****   1 GROUP 4 **** **** 0

# MOE 2024.06 (io_trps.svl 2023.06)
