@<TRIPOS>MOLECULE
NONAME
40 40 1 0 0 
SMALL
USER_CHARGES


@<TRIPOS>ATOM
  1 O       -0.2520    -0.6290    -1.2100 O.2   1 <1>  -0.5700 
  2 C       -0.0840    -1.3910    -0.2780 C.2   1 <1>   0.5440 
  3 N       -1.0670    -1.4850     0.6820 N.am  1 <1>  -0.6600 
  4 C        1.1230    -2.1870    -0.2090 C.ar  1 <1>   0.0860 
  5 C       -2.4990    -1.2350     0.2980 C.3   1 <1>   0.2010 
  6 C       -0.8580    -2.0960     2.0250 C.3   1 <1>   0.0600 
  7 C        2.3800    -1.5940    -0.2840 C.ar  1 <1>  -0.1500 
  8 C        1.0520    -3.5720    -0.0750 C.ar  1 <1>  -0.1500 
  9 C       -3.1930    -2.4480    -0.3310 C.2   1 <1>   0.6590 
 10 C        3.5430    -2.3510    -0.2000 C.ar  1 <1>   0.0830 
 11 C        2.1980    -4.3520     0.0130 C.ar  1 <1>   0.0830 
 12 O       -2.8200    -3.5840    -0.1550 O.2   1 <1>  -0.5700 
 13 O       -4.2620    -2.1740    -1.0720 O.3   1 <1>  -0.4300 
 14 O        4.7880    -1.7950    -0.2730 O.3   1 <1>  -0.3630 
 15 C        3.4480    -3.7340    -0.0410 C.ar  1 <1>   0.0830 
 16 O        2.1510    -5.7090     0.1460 O.3   1 <1>  -0.3630 
 17 C       -5.0000    -3.1890    -1.7210 C.3   1 <1>   0.0400 
 18 C        4.9690    -0.4050    -0.4280 C.3   1 <1>   0.0400 
 19 O        4.5760    -4.4790     0.0780 O.3   1 <1>  -0.3630 
 20 C        0.9250    -6.4060     0.1940 C.3   1 <1>   0.0400 
 21 C        5.1000    -4.9830    -1.1260 C.3   1 <1>   0.0400 
 22 H       -2.5420    -0.4250    -0.4080 H     1 <1>   0.0800 
 23 H       -3.0560    -0.9350     1.1650 H     1 <1>   0.0800 
 24 H        0.1900    -2.1360     2.2650 H     1 <1>   0.0800 
 25 H       -1.2600    -3.0950     2.0380 H     1 <1>   0.0800 
 26 H       -1.3550    -1.5070     2.7750 H     1 <1>   0.0800 
 27 H        2.4130    -0.5290    -0.4120 H     1 <1>   0.1500 
 28 H        0.0730    -4.0140    -0.0460 H     1 <1>   0.1500 
 29 H       -5.8090    -2.7300    -2.2600 H     1 <1>   0.0800 
 30 H       -5.3840    -3.8690    -0.9810 H     1 <1>   0.0800 
 31 H       -4.3490    -3.7090    -2.4020 H     1 <1>   0.0800 
 32 H        6.0260    -0.2080    -0.4580 H     1 <1>   0.0800 
 33 H        4.5280     0.1020     0.4120 H     1 <1>   0.0800 
 34 H        4.5140    -0.0930    -1.3520 H     1 <1>   0.0800 
 35 H        1.1420    -7.4540     0.2960 H     1 <1>   0.0800 
 36 H        0.3870    -6.2320    -0.7210 H     1 <1>   0.0800 
 37 H        0.3610    -6.0650     1.0440 H     1 <1>   0.0800 
 38 H        5.9850    -5.5470    -0.8960 H     1 <1>   0.0800 
 39 H        5.3420    -4.1570    -1.7710 H     1 <1>   0.0800 
 40 H        4.3630    -5.6190    -1.5840 H     1 <1>   0.0800 
@<TRIPOS>BOND
  1   1   2  2   
  2   2   3  am  
  3   2   4  1   
  4   3   5  1   
  5   3   6  1   
  6   4   7  ar  
  7   4   8  ar  
  8   5   9  1   
  9   5  22  1   
 10   5  23  1   
 11   6  24  1   
 12   6  25  1   
 13   6  26  1   
 14   7  10  ar  
 15   7  27  1   
 16   8  11  ar  
 17   8  28  1   
 18   9  12  2   
 19   9  13  1   
 20  10  14  1   
 21  10  15  ar  
 22  11  15  ar  
 23  11  16  1   
 24  13  17  1   
 25  14  18  1   
 26  15  19  1   
 27  16  20  1   
 28  17  29  1   
 29  17  30  1   
 30  17  31  1   
 31  18  32  1   
 32  18  33  1   
 33  18  34  1   
 34  19  21  1   
 35  20  35  1   
 36  20  36  1   
 37  20  37  1   
 38  21  38  1   
 39  21  39  1   
 40  21  40  1   
@<TRIPOS>SUBSTRUCTURE
  1 ****   4 GROUP 4 **** **** 0

# MOE 2024.06 (io_trps.svl 2023.06)
