@<TRIPOS>MOLECULE
NONAME
36 37 1 0 0 
SMALL
USER_CHARGES


@<TRIPOS>ATOM
  1 F        1.1990     0.2170     1.6620 F     1 <1>  -0.1900 
  2 C        2.0100    -0.5580     0.9930 C.ar  1 <1>   0.1900 
  3 C        3.1150     0.0040     0.3870 C.ar  1 <1>  -0.1500 
  4 C        1.7280    -1.9090     0.9200 C.ar  1 <1>  -0.1500 
  5 C        3.9900    -0.8140    -0.3180 C.ar  1 <1>   0.1000 
  6 C        2.5920    -2.7220     0.2050 C.ar  1 <1>  -0.1500 
  7 N        5.1230    -0.3020    -0.9370 N.pl3 1 <1>  -0.8690 
  8 C        3.7090    -2.1760    -0.4080 C.ar  1 <1>  -0.1500 
  9 C        6.0600     0.5140    -0.1580 C.3   1 <1>   0.2890 
 10 C        6.1640     1.8840    -0.8200 C.3   1 <1>  -0.1600 
 11 C        7.4160    -0.1810    -0.1250 C.3   1 <1>  -0.1600 
 12 C        7.2180     2.7380    -0.1250 C.3   1 <1>   0.3430 
 13 C        8.4510     0.7040     0.5630 C.3   1 <1>   0.3430 
 14 N        8.5320     2.0270    -0.1300 N.4   1 <1>  -0.9590 
 15 C        9.5910     2.8990     0.4460 C.3   1 <1>   0.3430 
 16 C       10.9650     2.3680     0.0540 C.3   1 <1>  -0.2400 
 17 H        3.2830     1.0600     0.4570 H     1 <1>   0.1500 
 18 H        0.8560    -2.3070     1.4060 H     1 <1>   0.1500 
 19 H        2.3940    -3.7780     0.1260 H     1 <1>   0.1500 
 20 H        5.5900    -0.9720    -1.5570 H     1 <1>   0.4000 
 21 H        4.3700    -2.8150    -0.9620 H     1 <1>   0.1500 
 22 H        5.6930     0.6270     0.8510 H     1 <1>   0.0800 
 23 H        5.2110     2.3790    -0.7550 H     1 <1>   0.0800 
 24 H        6.4120     1.7770    -1.8610 H     1 <1>   0.0800 
 25 H        7.7480    -0.4080    -1.1230 H     1 <1>   0.0800 
 26 H        7.3270    -1.1040     0.4210 H     1 <1>   0.0800 
 27 H        6.9120     2.9330     0.8900 H     1 <1>   0.0800 
 28 H        7.3060     3.6820    -0.6390 H     1 <1>   0.0800 
 29 H        9.4100     0.2110     0.5380 H     1 <1>   0.0800 
 30 H        8.1740     0.8490     1.5950 H     1 <1>   0.0800 
 31 H        8.7810     1.8510    -1.1130 H     1 <1>   0.4500 
 32 H        9.4990     2.9410     1.5200 H     1 <1>   0.0800 
 33 H        9.4860     3.9010     0.0590 H     1 <1>   0.0800 
 34 H       11.1610     1.4090     0.4980 H     1 <1>   0.0800 
 35 H       11.7180     3.0490     0.4110 H     1 <1>   0.0800 
 36 H       11.0620     2.3020    -1.0150 H     1 <1>   0.0800 
@<TRIPOS>BOND
  1   1   2  1   
  2   2   3  ar  
  3   2   4  ar  
  4   3   5  ar  
  5   3  17  1   
  6   4   6  ar  
  7   4  18  1   
  8   5   7  1   
  9   5   8  ar  
 10   6   8  ar  
 11   6  19  1   
 12   7   9  1   
 13   7  20  1   
 14   8  21  1   
 15   9  10  1   
 16   9  11  1   
 17   9  22  1   
 18  10  12  1   
 19  10  23  1   
 20  10  24  1   
 21  11  13  1   
 22  11  25  1   
 23  11  26  1   
 24  12  14  1   
 25  12  27  1   
 26  12  28  1   
 27  13  14  1   
 28  13  29  1   
 29  13  30  1   
 30  14  15  1   
 31  14  31  1   
 32  15  16  1   
 33  15  32  1   
 34  15  33  1   
 35  16  34  1   
 36  16  35  1   
 37  16  36  1   
@<TRIPOS>SUBSTRUCTURE
  1 ****   9 GROUP 4 **** **** 0

# MOE 2024.06 (io_trps.svl 2023.06)
