@<TRIPOS>MOLECULE
NONAME
40 41 1 0 0 
SMALL
USER_CHARGES


@<TRIPOS>ATOM
  1 CL      -4.9810     1.6480    -2.3990 Cl    1 <1>  -0.1770 
  2 C       -3.5750     2.0680    -1.4410 C.ar  1 <1>   0.1770 
  3 C       -3.2600     1.3330    -0.3030 C.ar  1 <1>   0.0820 
  4 C       -2.8090     3.1490    -1.8340 C.ar  1 <1>  -0.1500 
  5 O       -4.0460     0.2800     0.0350 O.3   1 <1>  -0.3630 
  6 C       -2.1470     1.7010     0.4470 C.ar  1 <1>  -0.1500 
  7 C       -1.7050     3.5100    -1.0780 C.ar  1 <1>  -0.1500 
  8 C       -4.2870    -0.0150     1.4040 C.3   1 <1>   0.1810 
  9 C       -1.3780     2.7870     0.0580 C.ar  1 <1>  -0.1500 
 10 C       -5.3930    -1.0600     1.5760 C.2   1 <1>   0.5690 
 11 O       -5.2080    -1.9100     2.4140 O.2   1 <1>  -0.5700 
 12 N       -6.5640    -1.0510     0.8430 N.am  1 <1>  -0.6600 
 13 C       -7.4590    -2.2520     0.8480 C.3   1 <1>   0.1400 
 14 C       -6.9450     0.0220    -0.1320 C.3   1 <1>   0.1400 
 15 C       -8.9450    -1.8580     0.9200 C.3   1 <1>   0.3430 
 16 C       -8.4480     0.3560    -0.0750 C.3   1 <1>   0.3430 
 17 N       -9.3130    -0.8720    -0.1530 N.4   1 <1>  -0.9590 
 18 C      -10.7550    -0.5500    -0.1210 C.3   1 <1>   0.4810 
 19 C      -11.1020     0.0630    -1.4570 C.2   1 <1>  -0.2880 
 20 C      -11.7480    -0.5620    -2.4470 C.2   1 <1>  -0.3000 
 21 H       -3.0730     3.7010    -2.7180 H     1 <1>   0.1500 
 22 H       -1.8600     1.1500     1.3230 H     1 <1>   0.1500 
 23 H       -1.1010     4.3510    -1.3750 H     1 <1>   0.1500 
 24 H       -4.5640     0.8920     1.9070 H     1 <1>   0.0800 
 25 H       -3.3780    -0.4010     1.8280 H     1 <1>   0.0800 
 26 H       -0.5160     3.0690     0.6390 H     1 <1>   0.1500 
 27 H       -7.2350    -2.8880     1.6880 H     1 <1>   0.0800 
 28 H       -7.2790    -2.8260    -0.0440 H     1 <1>   0.0800 
 29 H       -6.6820    -0.2980    -1.1250 H     1 <1>   0.0800 
 30 H       -6.4020     0.9260     0.0750 H     1 <1>   0.0800 
 31 H       -9.1360    -1.4310     1.8910 H     1 <1>   0.0800 
 32 H       -9.5450    -2.7480     0.8250 H     1 <1>   0.0800 
 33 H       -8.6830     1.0240    -0.8870 H     1 <1>   0.0800 
 34 H       -8.6450     0.8770     0.8480 H     1 <1>   0.0800 
 35 H       -9.1430    -1.3100    -1.0680 H     1 <1>   0.4500 
 36 H      -10.9890     0.1250     0.6880 H     1 <1>   0.0800 
 37 H      -11.3280    -1.4550     0.0070 H     1 <1>   0.0800 
 38 H      -10.7820     1.0880    -1.5490 H     1 <1>   0.1500 
 39 H      -11.9890    -0.0990    -3.3910 H     1 <1>   0.1500 
 40 H      -12.0990    -1.5810    -2.4140 H     1 <1>   0.1500 
@<TRIPOS>BOND
  1   1   2  1   
  2   2   3  ar  
  3   2   4  ar  
  4   3   5  1   
  5   3   6  ar  
  6   4   7  ar  
  7   4  21  1   
  8   5   8  1   
  9   6   9  ar  
 10   6  22  1   
 11   7   9  ar  
 12   7  23  1   
 13   8  10  1   
 14   8  24  1   
 15   8  25  1   
 16   9  26  1   
 17  10  11  2   
 18  10  12  am  
 19  12  13  1   
 20  12  14  1   
 21  13  15  1   
 22  13  27  1   
 23  13  28  1   
 24  14  16  1   
 25  14  29  1   
 26  14  30  1   
 27  15  17  1   
 28  15  31  1   
 29  15  32  1   
 30  16  17  1   
 31  16  33  1   
 32  16  34  1   
 33  17  18  1   
 34  17  35  1   
 35  18  19  1   
 36  18  36  1   
 37  18  37  1   
 38  19  20  2   
 39  19  38  1   
 40  20  39  1   
 41  20  40  1   
@<TRIPOS>SUBSTRUCTURE
  1 ****  14 GROUP 4 **** **** 0

# MOE 2024.06 (io_trps.svl 2023.06)
