@<TRIPOS>MOLECULE
NONAME
37 37 1 0 0 
SMALL
USER_CHARGES


@<TRIPOS>ATOM
  1 O        0.2560    -0.1350     0.3520 O.3   1 <1>  -0.5600 
  2 C        1.3950    -0.8150    -0.0400 C.3   1 <1>   0.1200 
  3 C       -0.9420    -0.7760     0.0340 C.3   1 <1>   0.0400 
  4 C        2.5830     0.0420     0.4050 C.3   1 <1>   0.3430 
  5 N        3.8980    -0.5550     0.0000 N.4   1 <1>  -0.9060 
  6 C        5.0750     0.2290     0.4540 C.3   1 <1>   0.4230 
  7 C        5.1810     1.5470    -0.3200 C.3   1 <1>  -0.1600 
  8 C        6.3380    -0.6090     0.2470 C.3   1 <1>  -0.1600 
  9 C        6.4480     2.3140     0.0670 C.3   1 <1>   0.3430 
 10 C        7.5920     0.1780     0.6330 C.3   1 <1>   0.3430 
 11 N        7.6520     1.4580    -0.1360 N.4   1 <1>  -0.9590 
 12 C        8.8830     2.2360     0.1990 C.3   1 <1>   0.3430 
 13 C       10.1040     1.5560    -0.4090 C.3   1 <1>  -0.2400 
 14 H        1.3690    -0.9260    -1.1110 H     1 <1>   0.0800 
 15 H        1.4010    -1.7770     0.4450 H     1 <1>   0.0800 
 16 H       -1.7540    -0.1610     0.3840 H     1 <1>   0.0800 
 17 H       -0.9810    -1.7330     0.5260 H     1 <1>   0.0800 
 18 H       -1.0160    -0.8940    -1.0330 H     1 <1>   0.0800 
 19 H        2.5410     0.1460     1.4770 H     1 <1>   0.0800 
 20 H        2.4710     1.0190    -0.0360 H     1 <1>   0.0800 
 21 H        3.9140    -0.6670    -1.0220 H     1 <1>   0.4500 
 22 H        3.9470    -1.5040     0.3970 H     1 <1>   0.4500 
 23 H        4.9730     0.4450     1.5070 H     1 <1>   0.0800 
 24 H        4.3380     2.1770    -0.0980 H     1 <1>   0.0800 
 25 H        5.1960     1.3670    -1.3810 H     1 <1>   0.0800 
 26 H        6.4280    -0.9200    -0.7790 H     1 <1>   0.0800 
 27 H        6.2950    -1.4900     0.8630 H     1 <1>   0.0800 
 28 H        6.3890     2.6170     1.1020 H     1 <1>   0.0800 
 29 H        6.5270     3.2070    -0.5350 H     1 <1>   0.0800 
 30 H        8.4660    -0.4200     0.4240 H     1 <1>   0.0800 
 31 H        7.5810     0.3900     1.6910 H     1 <1>   0.0800 
 32 H        7.7340     1.2370    -1.1410 H     1 <1>   0.4500 
 33 H        8.9980     2.3200     1.2690 H     1 <1>   0.0800 
 34 H        8.8070     3.2320    -0.2090 H     1 <1>   0.0800 
 35 H       10.2920     0.5960     0.0370 H     1 <1>   0.0800 
 36 H       10.9700     2.1690    -0.2260 H     1 <1>   0.0800 
 37 H        9.9990     1.4510    -1.4740 H     1 <1>   0.0800 
@<TRIPOS>BOND
  1   1   2  1   
  2   1   3  1   
  3   2   4  1   
  4   2  14  1   
  5   2  15  1   
  6   3  16  1   
  7   3  17  1   
  8   3  18  1   
  9   4   5  1   
 10   4  19  1   
 11   4  20  1   
 12   5   6  1   
 13   5  21  1   
 14   5  22  1   
 15   6   7  1   
 16   6   8  1   
 17   6  23  1   
 18   7   9  1   
 19   7  24  1   
 20   7  25  1   
 21   8  10  1   
 22   8  26  1   
 23   8  27  1   
 24   9  11  1   
 25   9  28  1   
 26   9  29  1   
 27  10  11  1   
 28  10  30  1   
 29  10  31  1   
 30  11  12  1   
 31  11  32  1   
 32  12  13  1   
 33  12  33  1   
 34  12  34  1   
 35  13  35  1   
 36  13  36  1   
 37  13  37  1   
@<TRIPOS>SUBSTRUCTURE
  1 ****   6 GROUP 4 **** **** 0

# MOE 2024.06 (io_trps.svl 2023.06)
