@<TRIPOS>MOLECULE
NONAME
41 41 1 0 0 
SMALL
USER_CHARGES


@<TRIPOS>ATOM
  1 O       -0.4010    -0.3850    -0.0300 O.3   1 <1>  -0.3630 
  2 C       -1.6040    -0.9120    -0.3610 C.ar  1 <1>   0.0830 
  3 C        0.3610    -0.8920     1.0410 C.3   1 <1>   0.1200 
  4 C       -2.2300    -0.3780    -1.4750 C.ar  1 <1>  -0.1500 
  5 C       -2.2250    -1.9390     0.3440 C.ar  1 <1>  -0.1500 
  6 C        1.6610    -0.0980     1.1110 C.3   1 <1>  -0.2400 
  7 C       -3.4630    -0.8520    -1.8840 C.ar  1 <1>  -0.1500 
  8 C       -3.4590    -2.4130    -0.0650 C.ar  1 <1>  -0.1500 
  9 C       -4.0900    -1.8670    -1.1750 C.ar  1 <1>  -0.1430 
 10 C       -5.4530    -2.3680    -1.6100 C.3   1 <1>   0.4860 
 11 N       -6.4780    -1.8340    -0.6680 N.4   1 <1>  -0.9590 
 12 C       -7.7910    -2.5280    -0.8820 C.3   1 <1>   0.3430 
 13 C       -6.5730    -0.3460    -0.7850 C.3   1 <1>   0.3430 
 14 C       -8.4020    -3.0370     0.4300 C.3   1 <1>   0.1200 
 15 C       -7.4040     0.2480     0.3530 C.3   1 <1>  -0.1600 
 16 O       -9.5740    -3.6980     0.1140 O.3   1 <1>  -0.6800 
 17 C       -7.3360     1.7790     0.3330 C.3   1 <1>  -0.2400 
 18 H        0.5620    -1.9330     0.8540 H     1 <1>   0.0800 
 19 H       -0.2050    -0.7750     1.9490 H     1 <1>   0.0800 
 20 H       -1.7360     0.4100    -2.0170 H     1 <1>   0.1500 
 21 H       -1.7580    -2.3770     1.2060 H     1 <1>   0.1500 
 22 H        2.2120    -0.2080     0.1940 H     1 <1>   0.0800 
 23 H        2.2680    -0.4610     1.9210 H     1 <1>   0.0800 
 24 H        1.4500     0.9430     1.2800 H     1 <1>   0.0800 
 25 H       -3.9170    -0.4170    -2.7590 H     1 <1>   0.1500 
 26 H       -3.9140    -3.2140     0.4940 H     1 <1>   0.1500 
 27 H       -5.4540    -3.4460    -1.5890 H     1 <1>   0.0800 
 28 H       -5.6640    -2.0460    -2.6170 H     1 <1>   0.0800 
 29 H       -6.1220    -2.0400     0.2730 H     1 <1>   0.4500 
 30 H       -7.6530    -3.3780    -1.5300 H     1 <1>   0.0800 
 31 H       -8.4880    -1.8560    -1.3560 H     1 <1>   0.0800 
 32 H       -7.0060    -0.0730    -1.7340 H     1 <1>   0.0800 
 33 H       -5.5840     0.0820    -0.7350 H     1 <1>   0.0800 
 34 H       -8.6450    -2.2280     1.0960 H     1 <1>   0.0800 
 35 H       -7.7470    -3.7410     0.9160 H     1 <1>   0.0800 
 36 H       -7.0280    -0.0970     1.3010 H     1 <1>   0.0800 
 37 H       -8.4350    -0.0430     0.2550 H     1 <1>   0.0800 
 38 H      -10.0280    -4.0420     0.9130 H     1 <1>   0.4000 
 39 H       -6.3220     2.1190     0.4540 H     1 <1>   0.0800 
 40 H       -7.9230     2.1840     1.1400 H     1 <1>   0.0800 
 41 H       -7.7240     2.1690    -0.5920 H     1 <1>   0.0800 
@<TRIPOS>BOND
  1   1   2  1   
  2   1   3  1   
  3   2   4  ar  
  4   2   5  ar  
  5   3   6  1   
  6   3  18  1   
  7   3  19  1   
  8   4   7  ar  
  9   4  20  1   
 10   5   8  ar  
 11   5  21  1   
 12   6  22  1   
 13   6  23  1   
 14   6  24  1   
 15   7   9  ar  
 16   7  25  1   
 17   8   9  ar  
 18   8  26  1   
 19   9  10  1   
 20  10  11  1   
 21  10  27  1   
 22  10  28  1   
 23  11  12  1   
 24  11  13  1   
 25  11  29  1   
 26  12  14  1   
 27  12  30  1   
 28  12  31  1   
 29  13  15  1   
 30  13  32  1   
 31  13  33  1   
 32  14  16  1   
 33  14  34  1   
 34  14  35  1   
 35  15  17  1   
 36  15  36  1   
 37  15  37  1   
 38  16  38  1   
 39  17  39  1   
 40  17  40  1   
 41  17  41  1   
@<TRIPOS>SUBSTRUCTURE
  1 ****   9 GROUP 4 **** **** 0

# MOE 2024.06 (io_trps.svl 2023.06)
