@<TRIPOS>MOLECULE
NONAME
41 42 1 0 0 
SMALL
USER_CHARGES


@<TRIPOS>ATOM
  1 O        0.4560     0.0160     0.4920 O.3   1 <1>  -0.3630 
  2 C       -0.7890    -0.5240     0.5040 C.ar  1 <1>   0.0830 
  3 C        1.5960    -0.7730     0.2660 C.3   1 <1>   0.1200 
  4 C       -1.0490    -1.8840     0.3480 C.ar  1 <1>  -0.1500 
  5 C       -1.8430     0.3570     0.6820 C.ar  1 <1>  -0.1500 
  6 C        2.8050     0.1660     0.2900 C.3   1 <1>   0.3430 
  7 C       -2.3530    -2.3600     0.3670 C.ar  1 <1>  -0.1440 
  8 C       -3.1440    -0.1090     0.7030 C.ar  1 <1>  -0.1500 
  9 N        4.1010    -0.5490     0.0470 N.4   1 <1>  -0.9590 
 10 C       -3.3960    -1.4610     0.5450 C.ar  1 <1>  -0.1500 
 11 C       -2.6260    -3.8540     0.1940 C.3   1 <1>   0.0630 
 12 C        5.2730     0.3450     0.2180 C.3   1 <1>   0.3430 
 13 C        4.2330    -1.1240    -1.3160 C.3   1 <1>   0.3430 
 14 C       -3.4590    -4.1150    -1.0650 C.3   1 <1>  -0.2400 
 15 C       -3.3190    -4.4310     1.4330 C.3   1 <1>  -0.2400 
 16 C        6.4040    -0.3740    -0.5030 C.3   1 <1>  -0.1600 
 17 C        5.7310    -1.3180    -1.5040 C.3   1 <1>  -0.1600 
 18 H        1.4850    -1.2440    -0.6950 H     1 <1>   0.0800 
 19 H        1.6580    -1.5040     1.0530 H     1 <1>   0.0800 
 20 H       -0.2520    -2.5860     0.2110 H     1 <1>   0.1500 
 21 H       -1.6440     1.4060     0.8040 H     1 <1>   0.1500 
 22 H        2.8380     0.6450     1.2550 H     1 <1>   0.0800 
 23 H        2.6670     0.9270    -0.4610 H     1 <1>   0.0800 
 24 H       -3.9600     0.5770     0.8410 H     1 <1>   0.1500 
 25 H        4.2070    -1.3160     0.7260 H     1 <1>   0.4500 
 26 H       -4.4130    -1.8080     0.5630 H     1 <1>   0.1500 
 27 H       -1.6880    -4.3690     0.0770 H     1 <1>   0.0800 
 28 H        5.5030     0.5120     1.2590 H     1 <1>   0.0800 
 29 H        5.0850     1.2910    -0.2640 H     1 <1>   0.0800 
 30 H        3.8680    -0.4190    -2.0470 H     1 <1>   0.0800 
 31 H        3.6950    -2.0540    -1.4160 H     1 <1>   0.0800 
 32 H       -4.4330    -3.6670    -0.9810 H     1 <1>   0.0800 
 33 H       -3.5810    -5.1730    -1.2190 H     1 <1>   0.0800 
 34 H       -2.9640    -3.6990    -1.9240 H     1 <1>   0.0800 
 35 H       -4.2910    -3.9920     1.5690 H     1 <1>   0.0800 
 36 H       -2.7290    -4.2320     2.3090 H     1 <1>   0.0800 
 37 H       -3.4350    -5.4960     1.3330 H     1 <1>   0.0800 
 38 H        6.9910    -0.9340     0.2060 H     1 <1>   0.0800 
 39 H        7.0490     0.3360    -0.9920 H     1 <1>   0.0800 
 40 H        6.0140    -1.0920    -2.5180 H     1 <1>   0.0800 
 41 H        5.9980    -2.3400    -1.2950 H     1 <1>   0.0800 
@<TRIPOS>BOND
  1   1   2  1   
  2   1   3  1   
  3   2   4  ar  
  4   2   5  ar  
  5   3   6  1   
  6   3  18  1   
  7   3  19  1   
  8   4   7  ar  
  9   4  20  1   
 10   5   8  ar  
 11   5  21  1   
 12   6   9  1   
 13   6  22  1   
 14   6  23  1   
 15   7  10  ar  
 16   7  11  1   
 17   8  10  ar  
 18   8  24  1   
 19   9  12  1   
 20   9  13  1   
 21   9  25  1   
 22  10  26  1   
 23  11  14  1   
 24  11  15  1   
 25  11  27  1   
 26  12  16  1   
 27  12  28  1   
 28  12  29  1   
 29  13  17  1   
 30  13  30  1   
 31  13  31  1   
 32  14  32  1   
 33  14  33  1   
 34  14  34  1   
 35  15  35  1   
 36  15  36  1   
 37  15  37  1   
 38  16  17  1   
 39  16  38  1   
 40  16  39  1   
 41  17  40  1   
 42  17  41  1   
@<TRIPOS>SUBSTRUCTURE
  1 ****   3 GROUP 4 **** **** 0

# MOE 2024.06 (io_trps.svl 2023.06)
