@<TRIPOS>MOLECULE
NONAME
50 50 1 0 0 
SMALL
USER_CHARGES


@<TRIPOS>ATOM
  1 O       -1.2270    -1.2730    -2.1410 O.2   1 <1>  -0.5700 
  2 C       -1.3260    -1.7110    -1.0090 C.2   1 <1>   0.5440 
  3 N       -2.3190    -1.2180    -0.1850 N.am  1 <1>  -0.6600 
  4 C       -0.3780    -2.7150    -0.5710 C.ar  1 <1>   0.0860 
  5 C       -2.7430     0.2000    -0.3730 C.3   1 <1>   0.2200 
  6 C       -3.2120    -2.0940     0.6370 C.3   1 <1>   0.2200 
  7 C       -0.2170    -3.9110    -1.2670 C.ar  1 <1>  -0.1500 
  8 C        0.4250    -2.5140     0.5510 C.ar  1 <1>  -0.1500 
  9 C       -2.8270     0.9250     0.9710 C.3   1 <1>  -0.2400 
 10 C       -4.0580     0.2790    -1.1510 C.3   1 <1>  -0.2400 
 11 C       -2.5460    -2.5070     1.9480 C.3   1 <1>  -0.2400 
 12 C       -3.6800    -3.3100    -0.1640 C.3   1 <1>  -0.2400 
 13 C        0.6880    -4.8680    -0.8500 C.ar  1 <1>  -0.1500 
 14 C        1.3310    -3.4710     0.9660 C.ar  1 <1>  -0.1500 
 15 C        1.4900    -4.6680     0.2720 C.ar  1 <1>   0.0860 
 16 C        2.4400    -5.6740     0.6980 C.2   1 <1>   0.5440 
 17 O        2.0670    -6.8020     0.9380 O.2   1 <1>  -0.5700 
 18 N        3.7710    -5.4440     0.8640 N.am  1 <1>  -0.7300 
 19 C        4.7040    -4.5970     0.1090 C.3   1 <1>   0.3000 
 20 C        6.0460    -5.3260     0.1310 C.3   1 <1>  -0.2400 
 21 C        4.2510    -4.4160    -1.3420 C.3   1 <1>  -0.2400 
 22 C        4.8440    -3.2500     0.8130 C.3   1 <1>  -0.2400 
 23 H       -1.9900     0.7040    -0.9580 H     1 <1>   0.0800 
 24 H       -4.0940    -1.5360     0.8960 H     1 <1>   0.0800 
 25 H       -0.8170    -4.0810    -2.1450 H     1 <1>   0.1500 
 26 H        0.3240    -1.5930     1.0980 H     1 <1>   0.1500 
 27 H       -3.6240     0.5410     1.5790 H     1 <1>   0.0800 
 28 H       -3.0100     1.9710     0.8030 H     1 <1>   0.0800 
 29 H       -1.8940     0.8280     1.4960 H     1 <1>   0.0800 
 30 H       -4.8800    -0.1230    -0.5890 H     1 <1>   0.0800 
 31 H       -3.9620    -0.2590    -2.0770 H     1 <1>   0.0800 
 32 H       -4.2790     1.3050    -1.3810 H     1 <1>   0.0800 
 33 H       -1.7940    -3.2540     1.7860 H     1 <1>   0.0800 
 34 H       -3.2850    -2.9300     2.6050 H     1 <1>   0.0800 
 35 H       -2.1130    -1.6530     2.4340 H     1 <1>   0.0800 
 36 H       -2.8730    -3.9950    -0.3460 H     1 <1>   0.0800 
 37 H       -4.0990    -2.9930    -1.1020 H     1 <1>   0.0800 
 38 H       -4.4400    -3.8330     0.3870 H     1 <1>   0.0800 
 39 H        0.7870    -5.7910    -1.3970 H     1 <1>   0.1500 
 40 H        1.9280    -3.2990     1.8450 H     1 <1>   0.1500 
 41 H        4.2440    -6.2420     1.2860 H     1 <1>   0.3700 
 42 H        5.9610    -6.2860    -0.3460 H     1 <1>   0.0800 
 43 H        6.3870    -5.4630     1.1420 H     1 <1>   0.0800 
 44 H        6.7880    -4.7550    -0.3970 H     1 <1>   0.0800 
 45 H        4.0560    -5.3700    -1.7980 H     1 <1>   0.0800 
 46 H        5.0220    -3.9230    -1.9070 H     1 <1>   0.0800 
 47 H        3.3710    -3.8040    -1.4030 H     1 <1>   0.0800 
 48 H        5.0980    -3.3900     1.8480 H     1 <1>   0.0800 
 49 H        3.9330    -2.6870     0.7460 H     1 <1>   0.0800 
 50 H        5.6200    -2.6700     0.3480 H     1 <1>   0.0800 
@<TRIPOS>BOND
  1   1   2  2   
  2   2   3  am  
  3   2   4  1   
  4   3   5  1   
  5   3   6  1   
  6   4   7  ar  
  7   4   8  ar  
  8   5   9  1   
  9   5  10  1   
 10   5  23  1   
 11   6  11  1   
 12   6  12  1   
 13   6  24  1   
 14   7  13  ar  
 15   7  25  1   
 16   8  14  ar  
 17   8  26  1   
 18   9  27  1   
 19   9  28  1   
 20   9  29  1   
 21  10  30  1   
 22  10  31  1   
 23  10  32  1   
 24  11  33  1   
 25  11  34  1   
 26  11  35  1   
 27  12  36  1   
 28  12  37  1   
 29  12  38  1   
 30  13  15  ar  
 31  13  39  1   
 32  14  15  ar  
 33  14  40  1   
 34  15  16  1   
 35  16  17  2   
 36  16  18  am  
 37  18  19  1   
 38  18  41  1   
 39  19  20  1   
 40  19  21  1   
 41  19  22  1   
 42  20  42  1   
 43  20  43  1   
 44  20  44  1   
 45  21  45  1   
 46  21  46  1   
 47  21  47  1   
 48  22  48  1   
 49  22  49  1   
 50  22  50  1   
@<TRIPOS>SUBSTRUCTURE
  1 ****   8 GROUP 4 **** **** 0

# MOE 2024.06 (io_trps.svl 2023.06)
