@<TRIPOS>MOLECULE
NONAME
36 37 1 0 0 
SMALL
USER_CHARGES


@<TRIPOS>ATOM
  1 CL       0.0060     0.4710    -0.1630 Cl    1 <1>  -0.1770 
  2 C        1.6640     1.0290    -0.1650 C.ar  1 <1>   0.1770 
  3 C        2.6940     0.1680     0.1920 C.ar  1 <1>  -0.1440 
  4 C        1.9110     2.3390    -0.5290 C.ar  1 <1>  -0.1500 
  5 C        3.9960     0.6470     0.1780 C.ar  1 <1>  -0.1500 
  6 C        2.4030    -1.2710     0.5910 C.3   1 <1>  -0.0960 
  7 C        3.2130     2.8070    -0.5400 C.ar  1 <1>  -0.1500 
  8 C        4.2590     1.9670    -0.1880 C.ar  1 <1>   0.0830 
  9 O        5.5040     2.5060    -0.2270 O.3   1 <1>  -0.3630 
 10 C        6.6460     1.7450     0.0760 C.3   1 <1>   0.1200 
 11 C        7.8570     2.6710    -0.0750 C.3   1 <1>   0.3430 
 12 N        9.1580     1.9940     0.2450 N.4   1 <1>  -0.9590 
 13 C       10.2690     3.0100     0.3110 C.3   1 <1>   0.3430 
 14 C        9.5100     0.9160    -0.7500 C.3   1 <1>   0.3430 
 15 C       11.6400     2.3410     0.5250 C.3   1 <1>   0.1200 
 16 C       10.9150     0.3390    -0.4890 C.3   1 <1>   0.1200 
 17 O       11.8600     1.3680    -0.4540 O.3   1 <1>  -0.5600 
 18 H        1.0920     2.9810    -0.8000 H     1 <1>   0.1500 
 19 H        4.7870    -0.0210     0.4560 H     1 <1>   0.1500 
 20 H        1.7520    -1.2900     1.4470 H     1 <1>   0.0800 
 21 H        3.3060    -1.7990     0.8390 H     1 <1>   0.0800 
 22 H        1.9190    -1.7860    -0.2200 H     1 <1>   0.0800 
 23 H        3.4190     3.8240    -0.8210 H     1 <1>   0.1500 
 24 H        6.6880     0.9250    -0.6180 H     1 <1>   0.0800 
 25 H        6.5530     1.3940     1.0890 H     1 <1>   0.0800 
 26 H        7.7190     3.5090     0.5880 H     1 <1>   0.0800 
 27 H        7.8840     3.0440    -1.0860 H     1 <1>   0.0800 
 28 H        9.0920     1.5610     1.1760 H     1 <1>   0.4500 
 29 H       10.0860     3.7080     1.1110 H     1 <1>   0.0800 
 30 H       10.3080     3.5680    -0.6110 H     1 <1>   0.0800 
 31 H        9.4940     1.3230    -1.7480 H     1 <1>   0.0800 
 32 H        8.7880     0.1180    -0.7060 H     1 <1>   0.0800 
 33 H       11.7050     1.8800     1.4950 H     1 <1>   0.0800 
 34 H       12.4270     3.0720     0.4400 H     1 <1>   0.0800 
 35 H       11.1940    -0.3320    -1.2830 H     1 <1>   0.0800 
 36 H       10.9520    -0.1990     0.4420 H     1 <1>   0.0800 
@<TRIPOS>BOND
  1   1   2  1   
  2   2   3  ar  
  3   2   4  ar  
  4   3   5  ar  
  5   3   6  1   
  6   4   7  ar  
  7   4  18  1   
  8   5   8  ar  
  9   5  19  1   
 10   6  20  1   
 11   6  21  1   
 12   6  22  1   
 13   7   8  ar  
 14   7  23  1   
 15   8   9  1   
 16   9  10  1   
 17  10  11  1   
 18  10  24  1   
 19  10  25  1   
 20  11  12  1   
 21  11  26  1   
 22  11  27  1   
 23  12  13  1   
 24  12  14  1   
 25  12  28  1   
 26  13  15  1   
 27  13  29  1   
 28  13  30  1   
 29  14  16  1   
 30  14  31  1   
 31  14  32  1   
 32  15  17  1   
 33  15  33  1   
 34  15  34  1   
 35  16  17  1   
 36  16  35  1   
 37  16  36  1   
@<TRIPOS>SUBSTRUCTURE
  1 ****  10 GROUP 4 **** **** 0

# MOE 2024.06 (io_trps.svl 2023.06)
