@<TRIPOS>MOLECULE
NONAME
32 33 1 0 0 
SMALL
USER_CHARGES


@<TRIPOS>ATOM
  1 O       -1.3960     3.1710     0.0640 O.2   1 <1>  -0.5700 
  2 C       -2.0960     2.1980     0.0230 C.2   1 <1>   0.6590 
  3 O       -1.7440     1.0170     0.4950 O.3   1 <1>  -0.4300 
  4 C       -3.4890     2.1660    -0.5340 C.3   1 <1>  -0.0990 
  5 C       -2.7410     0.0410     0.3080 C.3   1 <1>   0.1200 
  6 C       -4.0180     0.8380     0.0120 C.3   1 <1>  -0.0190 
  7 C       -4.9650     0.1170    -0.9450 C.2   1 <1>   0.4230 
  8 O       -4.4770    -0.3470    -1.9460 O.2   1 <1>  -0.5700 
  9 C       -6.3630    -0.0570    -0.6220 C.ar  1 <1>   0.0860 
 10 C       -7.1660     0.9410    -0.0440 C.ar  1 <1>   0.0830 
 11 C       -6.9600    -1.2870    -0.9090 C.ar  1 <1>  -0.1500 
 12 O       -6.6140     2.1610     0.1780 O.3   1 <1>  -0.3630 
 13 C       -8.4990     0.6790     0.2680 C.ar  1 <1>  -0.1500 
 14 C       -8.2890    -1.5420    -0.6060 C.ar  1 <1>   0.0830 
 15 C       -7.3640     3.2680     0.6320 C.3   1 <1>   0.0400 
 16 C       -9.0520    -0.5550    -0.0100 C.ar  1 <1>  -0.1500 
 17 O       -8.9120    -2.7210    -0.8610 O.3   1 <1>  -0.3630 
 18 C       -8.2670    -3.7480    -1.5820 C.3   1 <1>   0.0400 
 19 H       -3.4320     2.1600    -1.6070 H     1 <1>   0.0800 
 20 H       -4.0620     3.0080    -0.1940 H     1 <1>   0.0800 
 21 H       -2.8240    -0.5570     1.1990 H     1 <1>   0.0800 
 22 H       -2.4420    -0.5710    -0.5260 H     1 <1>   0.0800 
 23 H       -4.5070     1.0060     0.9550 H     1 <1>   0.0800 
 24 H       -6.3520    -2.0400    -1.3740 H     1 <1>   0.1500 
 25 H       -9.1270     1.4200     0.7240 H     1 <1>   0.1500 
 26 H       -6.7100     4.1210     0.6750 H     1 <1>   0.0800 
 27 H       -7.7480     3.0540     1.6140 H     1 <1>   0.0800 
 28 H       -8.1640     3.4580    -0.0630 H     1 <1>   0.0800 
 29 H      -10.0810    -0.7620     0.2280 H     1 <1>   0.1500 
 30 H       -8.9650    -4.5560    -1.7080 H     1 <1>   0.0800 
 31 H       -7.4140    -4.0880    -1.0220 H     1 <1>   0.0800 
 32 H       -7.9720    -3.3680    -2.5440 H     1 <1>   0.0800 
@<TRIPOS>BOND
  1   1   2  2   
  2   2   3  1   
  3   2   4  1   
  4   3   5  1   
  5   4   6  1   
  6   4  19  1   
  7   4  20  1   
  8   5   6  1   
  9   5  21  1   
 10   5  22  1   
 11   6   7  1   
 12   6  23  1   
 13   7   8  2   
 14   7   9  1   
 15   9  10  ar  
 16   9  11  ar  
 17  10  12  1   
 18  10  13  ar  
 19  11  14  ar  
 20  11  24  1   
 21  12  15  1   
 22  13  16  ar  
 23  13  25  1   
 24  14  16  ar  
 25  14  17  1   
 26  15  26  1   
 27  15  27  1   
 28  15  28  1   
 29  16  29  1   
 30  17  18  1   
 31  18  30  1   
 32  18  31  1   
 33  18  32  1   
@<TRIPOS>SUBSTRUCTURE
  1 ****   9 GROUP 4 **** **** 0

# MOE 2024.06 (io_trps.svl 2023.06)
