@<TRIPOS>MOLECULE
NONAME
51 53 1 0 0 
SMALL
USER_CHARGES


@<TRIPOS>ATOM
  1 O        0.4630     1.3200     2.3500 O.2   1 <1>  -0.5700 
  2 C        0.3820     1.5100     1.1660 C.2   1 <1>   0.5690 
  3 N        0.1300     0.4380     0.3730 N.am  1 <1>  -0.8000 
  4 C        0.5840     2.9800     0.6350 C.3   1 <1>   0.5640 
  5 N       -0.7270     3.7510     0.7010 N.4   1 <1>  -0.9590 
  6 C        1.1620     2.9800    -0.8030 C.3   1 <1>  -0.1600 
  7 C        1.6230     3.6920     1.5270 C.3   1 <1>  -0.1600 
  8 C       -1.8420     3.0930    -0.0570 C.3   1 <1>   0.3430 
  9 C       -0.6710     5.2220     0.3970 C.3   1 <1>   0.3430 
 10 C        2.6860     2.7640    -0.8580 C.3   1 <1>   0.3430 
 11 C        2.9220     2.8830     1.6370 C.3   1 <1>   0.3430 
 12 C       -3.1810     3.7210     0.3320 C.3   1 <1>  -0.1600 
 13 C       -1.9890     5.8870     0.7950 C.3   1 <1>  -0.1600 
 14 N        3.2180     2.1130     0.3810 N.4   1 <1>  -0.9590 
 15 C       -3.1880     5.2350     0.1000 C.3   1 <1>  -0.1600 
 16 C        4.7010     1.8570     0.2640 C.3   1 <1>   0.4860 
 17 C        5.4650     3.1430    -0.0180 C.ar  1 <1>  -0.1430 
 18 C        5.6850     3.5540    -1.3270 C.ar  1 <1>  -0.1500 
 19 C        5.9680     3.9110     1.0240 C.ar  1 <1>  -0.1500 
 20 C        6.3590     4.7340    -1.5870 C.ar  1 <1>  -0.1500 
 21 C        6.6410     5.0910     0.7630 C.ar  1 <1>  -0.1500 
 22 C        6.8320     5.5060    -0.5420 C.ar  1 <1>  -0.1500 
 23 H       -0.0390    -0.4680     0.8320 H     1 <1>   0.3700 
 24 H       -0.0490     0.4230    -0.6340 H     1 <1>   0.3700 
 25 H       -1.0200     3.6880     1.6890 H     1 <1>   0.4500 
 26 H        0.9780     3.9230    -1.2820 H     1 <1>   0.0800 
 27 H        0.6840     2.2360    -1.4120 H     1 <1>   0.0800 
 28 H        1.2350     3.8370     2.5210 H     1 <1>   0.0800 
 29 H        1.8790     4.6570     1.1300 H     1 <1>   0.0800 
 30 H       -1.8830     2.0390     0.1680 H     1 <1>   0.0800 
 31 H       -1.6880     3.2120    -1.1170 H     1 <1>   0.0800 
 32 H       -0.5010     5.3780    -0.6560 H     1 <1>   0.0800 
 33 H        0.1270     5.6960     0.9450 H     1 <1>   0.0800 
 34 H        3.1620     3.7260    -0.9710 H     1 <1>   0.0800 
 35 H        2.9390     2.1760    -1.7270 H     1 <1>   0.0800 
 36 H        2.8450     2.1930     2.4640 H     1 <1>   0.0800 
 37 H        3.7240     3.5680     1.8600 H     1 <1>   0.0800 
 38 H       -3.3940     3.5060     1.3660 H     1 <1>   0.0800 
 39 H       -3.9640     3.2700    -0.2530 H     1 <1>   0.0800 
 40 H       -1.9510     6.9300     0.5300 H     1 <1>   0.0800 
 41 H       -2.1110     5.8360     1.8640 H     1 <1>   0.0800 
 42 H        2.7990     1.1750     0.4790 H     1 <1>   0.4500 
 43 H       -4.1050     5.6590     0.4770 H     1 <1>   0.0800 
 44 H       -3.1480     5.4400    -0.9580 H     1 <1>   0.0800 
 45 H        4.8900     1.1600    -0.5350 H     1 <1>   0.0800 
 46 H        5.0720     1.4170     1.1760 H     1 <1>   0.0800 
 47 H        5.3460     2.9660    -2.1630 H     1 <1>   0.1500 
 48 H        5.8550     3.6050     2.0510 H     1 <1>   0.1500 
 49 H        6.5260     5.0540    -2.6020 H     1 <1>   0.1500 
 50 H        7.0280     5.6870     1.5730 H     1 <1>   0.1500 
 51 H        7.3590     6.4240    -0.7440 H     1 <1>   0.1500 
@<TRIPOS>BOND
  1   1   2  2   
  2   2   3  am  
  3   2   4  1   
  4   3  23  1   
  5   3  24  1   
  6   4   5  1   
  7   4   6  1   
  8   4   7  1   
  9   5   8  1   
 10   5   9  1   
 11   5  25  1   
 12   6  10  1   
 13   6  26  1   
 14   6  27  1   
 15   7  11  1   
 16   7  28  1   
 17   7  29  1   
 18   8  12  1   
 19   8  30  1   
 20   8  31  1   
 21   9  13  1   
 22   9  32  1   
 23   9  33  1   
 24  10  14  1   
 25  10  34  1   
 26  10  35  1   
 27  11  14  1   
 28  11  36  1   
 29  11  37  1   
 30  12  15  1   
 31  12  38  1   
 32  12  39  1   
 33  13  15  1   
 34  13  40  1   
 35  13  41  1   
 36  14  16  1   
 37  14  42  1   
 38  15  43  1   
 39  15  44  1   
 40  16  17  1   
 41  16  45  1   
 42  16  46  1   
 43  17  18  ar  
 44  17  19  ar  
 45  18  20  ar  
 46  18  47  1   
 47  19  21  ar  
 48  19  48  1   
 49  20  22  ar  
 50  20  49  1   
 51  21  22  ar  
 52  21  50  1   
 53  22  51  1   
@<TRIPOS>SUBSTRUCTURE
  1 ****   7 GROUP 4 **** **** 0

# MOE 2024.06 (io_trps.svl 2023.06)
