@<TRIPOS>MOLECULE
NONAME
46 47 1 0 0 
SMALL
USER_CHARGES


@<TRIPOS>ATOM
  1 O       -0.3980     1.1490     1.9950 O.2   1 <1>  -0.5700 
  2 C        0.0540     0.4580     1.1090 C.2   1 <1>   0.6900 
  3 N        0.4220    -0.8500     1.2400 N.am  1 <1>  -0.4200 
  4 N        0.2450     0.9020    -0.1490 N.am  1 <1>  -0.7300 
  5 C        0.8240    -1.3310     0.0300 C.2   1 <1>   0.5690 
  6 C        0.3680    -1.6210     2.5030 C.3   1 <1>   0.1400 
  7 C        0.6990    -0.1980    -1.0090 C.3   1 <1>   0.3610 
  8 O        1.2390    -2.4470    -0.1870 O.2   1 <1>  -0.5700 
  9 C       -0.5540    -2.8430     2.4090 C.3   1 <1>   0.1200 
 10 C        2.0390     0.1910    -1.6350 C.3   1 <1>  -0.2400 
 11 C       -0.3660    -0.4600    -2.0740 C.3   1 <1>  -0.2400 
 12 O       -1.8840    -2.4410     2.1280 O.3   1 <1>  -0.3620 
 13 C       -2.3950    -2.3820     0.8690 C.ar  1 <1>   0.0820 
 14 C       -3.3040    -1.3670     0.5660 C.ar  1 <1>  -0.1440 
 15 C       -2.0620    -3.3260    -0.0980 C.ar  1 <1>  -0.1500 
 16 C       -3.8820    -1.3450    -0.6970 C.ar  1 <1>  -0.1500 
 17 C       -3.6760    -0.2990     1.6030 C.3   1 <1>   0.0630 
 18 C       -2.6250    -3.2770    -1.3610 C.ar  1 <1>  -0.1440 
 19 C       -3.5460    -2.2880    -1.6530 C.ar  1 <1>  -0.1500 
 20 C       -5.0280    -0.6370     2.2380 C.3   1 <1>  -0.2400 
 21 C       -3.7000     1.1160     1.0100 C.3   1 <1>  -0.2400 
 22 C       -2.2400    -4.3090    -2.4050 C.3   1 <1>  -0.0970 
 23 H       -0.2510     1.7150    -0.5080 H     1 <1>   0.3700 
 24 H        0.0280    -0.9850     3.3020 H     1 <1>   0.0800 
 25 H        1.3630    -1.9500     2.7420 H     1 <1>   0.0800 
 26 H       -0.5750    -3.3440     3.3590 H     1 <1>   0.0800 
 27 H       -0.1950    -3.5380     1.6760 H     1 <1>   0.0800 
 28 H        2.7590     0.4110    -0.8670 H     1 <1>   0.0800 
 29 H        1.9260     1.0500    -2.2720 H     1 <1>   0.0800 
 30 H        2.4140    -0.6270    -2.2240 H     1 <1>   0.0800 
 31 H       -1.3160    -0.6350    -1.6060 H     1 <1>   0.0800 
 32 H       -0.1050    -1.3350    -2.6410 H     1 <1>   0.0800 
 33 H       -0.4510     0.3750    -2.7450 H     1 <1>   0.0800 
 34 H       -1.3740    -4.1190     0.1210 H     1 <1>   0.1500 
 35 H       -4.6060    -0.5930    -0.9510 H     1 <1>   0.1500 
 36 H       -2.9360    -0.2860     2.3850 H     1 <1>   0.0800 
 37 H       -4.0070    -2.2450    -2.6230 H     1 <1>   0.1500 
 38 H       -5.8040    -0.6400     1.4940 H     1 <1>   0.0800 
 39 H       -5.2740     0.0820     2.9980 H     1 <1>   0.0800 
 40 H       -4.9800    -1.6120     2.6890 H     1 <1>   0.0800 
 41 H       -4.5230     1.2460     0.3320 H     1 <1>   0.0800 
 42 H       -2.7810     1.3070     0.4870 H     1 <1>   0.0800 
 43 H       -3.7930     1.8400     1.8000 H     1 <1>   0.0800 
 44 H       -1.1920    -4.5390    -2.3310 H     1 <1>   0.0800 
 45 H       -2.4370    -3.9390    -3.3950 H     1 <1>   0.0800 
 46 H       -2.8060    -5.2100    -2.2520 H     1 <1>   0.0800 
@<TRIPOS>BOND
  1   1   2  2   
  2   2   3  am  
  3   2   4  am  
  4   3   5  am  
  5   3   6  1   
  6   4   7  1   
  7   4  23  1   
  8   5   7  1   
  9   5   8  2   
 10   6   9  1   
 11   6  24  1   
 12   6  25  1   
 13   7  10  1   
 14   7  11  1   
 15   9  12  1   
 16   9  26  1   
 17   9  27  1   
 18  10  28  1   
 19  10  29  1   
 20  10  30  1   
 21  11  31  1   
 22  11  32  1   
 23  11  33  1   
 24  12  13  1   
 25  13  14  ar  
 26  13  15  ar  
 27  14  16  ar  
 28  14  17  1   
 29  15  18  ar  
 30  15  34  1   
 31  16  19  ar  
 32  16  35  1   
 33  17  20  1   
 34  17  21  1   
 35  17  36  1   
 36  18  19  ar  
 37  18  22  1   
 38  19  37  1   
 39  20  38  1   
 40  20  39  1   
 41  20  40  1   
 42  21  41  1   
 43  21  42  1   
 44  21  43  1   
 45  22  44  1   
 46  22  45  1   
 47  22  46  1   
@<TRIPOS>SUBSTRUCTURE
  1 ****  13 GROUP 4 **** **** 0

# MOE 2024.06 (io_trps.svl 2023.06)
