@<TRIPOS>MOLECULE
NONAME
54 57 1 0 0 
SMALL
USER_CHARGES


@<TRIPOS>ATOM
  1 S       -0.3730     0.1480    -0.0250 S.o2  1 <1>   1.3330 
  2 O        0.1040    -0.9720     0.7530 O.2   1 <1>  -0.6500 
  3 O       -1.7450     0.1590    -0.4710 O.2   1 <1>  -0.6500 
  4 N       -0.1260     1.5680     0.9370 N.am  1 <1>  -0.6930 
  5 C        0.6820     0.3880    -1.4390 C.3   1 <1>  -0.1350 
  6 C       -1.1430     2.5030     1.0940 C.ar  1 <1>   0.1990 
  7 C        0.9190     1.4750     1.9780 C.3   1 <1>   0.3390 
  8 C       -1.1060     3.7780     0.5040 C.ar  1 <1>   0.0860 
  9 C       -2.2310     2.1570     1.8930 C.ar  1 <1>  -0.1500 
 10 C        2.3030     1.3250     1.3620 C.ar  1 <1>  -0.1440 
 11 C       -0.0110     4.2150    -0.3280 C.2   1 <1>   0.5440 
 12 C       -2.1660     4.6540     0.7490 C.ar  1 <1>  -0.1500 
 13 C       -3.2660     3.0390     2.1240 C.ar  1 <1>  -0.1500 
 14 C        2.9820     0.1170     1.4430 C.ar  1 <1>  -0.1500 
 15 C        2.9030     2.3920     0.7110 C.ar  1 <1>  -0.1500 
 16 O        0.3300     3.5930    -1.3140 O.2   1 <1>  -0.5700 
 17 N        0.6530     5.3700    -0.0190 N.am  1 <1>  -0.7300 
 18 C       -3.2330     4.2970     1.5490 C.ar  1 <1>  -0.1500 
 19 C        4.2400    -0.0200     0.8830 C.ar  1 <1>  -0.1500 
 20 C        4.1610     2.2580     0.1490 C.ar  1 <1>  -0.1500 
 21 C        1.7690     5.9590    -0.7970 C.3   1 <1>   0.2200 
 22 C        4.8310     1.0510     0.2360 C.ar  1 <1>  -0.1500 
 23 C        3.1220     6.1170     0.1120 C.3   1 <1>  -0.0800 
 24 C        1.3400     7.4810    -1.3290 C.3   1 <1>  -0.1600 
 25 C        2.8410     7.3220    -0.4010 C.3   1 <1>  -0.1600 
 26 C        4.3240     7.1460     0.5260 C.3   1 <1>  -0.1600 
 27 C        2.5300     8.5210    -0.9020 C.3   1 <1>  -0.0800 
 28 C        3.8960     8.6720    -0.0140 C.3   1 <1>  -0.1600 
 29 H        0.6470    -0.4760    -2.0720 H     1 <1>   0.0800 
 30 H        1.6960     0.5490    -1.1360 H     1 <1>   0.0800 
 31 H        0.3540     1.2350    -2.0070 H     1 <1>   0.0800 
 32 H        0.7060     0.6380     2.6220 H     1 <1>   0.0800 
 33 H        0.9010     2.3650     2.5820 H     1 <1>   0.0800 
 34 H       -2.2640     1.1740     2.3280 H     1 <1>   0.1500 
 35 H       -2.1540     5.6300     0.2940 H     1 <1>   0.1500 
 36 H       -4.0980     2.7480     2.7410 H     1 <1>   0.1500 
 37 H        2.5300    -0.7270     1.9370 H     1 <1>   0.1500 
 38 H        2.3900     3.3310     0.6320 H     1 <1>   0.1500 
 39 H        0.3700     5.9060     0.8010 H     1 <1>   0.3700 
 40 H       -4.0410     4.9870     1.7220 H     1 <1>   0.1500 
 41 H        4.7580    -0.9610     0.9500 H     1 <1>   0.1500 
 42 H        4.6130     3.0930    -0.3560 H     1 <1>   0.1500 
 43 H        1.9860     5.3320    -1.6500 H     1 <1>   0.0800 
 44 H        5.8090     0.9450    -0.2000 H     1 <1>   0.1500 
 45 H        2.7720     5.8180     1.0900 H     1 <1>   0.0800 
 46 H        0.4030     7.7890    -0.8920 H     1 <1>   0.0800 
 47 H        1.2130     7.4680    -2.3990 H     1 <1>   0.0800 
 48 H        2.2170     7.5720     0.5670 H     1 <1>   0.0800 
 49 H        3.4510     7.0700    -1.3770 H     1 <1>   0.0800 
 50 H        5.2530     6.8370     0.0680 H     1 <1>   0.0800 
 51 H        4.4790     7.1550     1.5940 H     1 <1>   0.0800 
 52 H        2.8840     8.8370    -1.8740 H     1 <1>   0.0800 
 53 H        4.6940     9.1020    -0.6000 H     1 <1>   0.0800 
 54 H        3.7210     9.3290     0.8250 H     1 <1>   0.0800 
@<TRIPOS>BOND
  1   1   2  2   
  2   1   3  2   
  3   1   4  am  
  4   1   5  1   
  5   4   6  1   
  6   4   7  1   
  7   5  29  1   
  8   5  30  1   
  9   5  31  1   
 10   6   8  ar  
 11   6   9  ar  
 12   7  10  1   
 13   7  32  1   
 14   7  33  1   
 15   8  11  1   
 16   8  12  ar  
 17   9  13  ar  
 18   9  34  1   
 19  10  14  ar  
 20  10  15  ar  
 21  11  16  2   
 22  11  17  am  
 23  12  18  ar  
 24  12  35  1   
 25  13  18  ar  
 26  13  36  1   
 27  14  19  ar  
 28  14  37  1   
 29  15  20  ar  
 30  15  38  1   
 31  17  21  1   
 32  17  39  1   
 33  18  40  1   
 34  19  22  ar  
 35  19  41  1   
 36  20  22  ar  
 37  20  42  1   
 38  21  23  1   
 39  21  24  1   
 40  21  43  1   
 41  22  44  1   
 42  23  25  1   
 43  23  26  1   
 44  23  45  1   
 45  24  27  1   
 46  24  46  1   
 47  24  47  1   
 48  25  27  1   
 49  25  48  1   
 50  25  49  1   
 51  26  28  1   
 52  26  50  1   
 53  26  51  1   
 54  27  28  1   
 55  27  52  1   
 56  28  53  1   
 57  28  54  1   
@<TRIPOS>SUBSTRUCTURE
  1 ****  11 GROUP 4 **** **** 0

# MOE 2024.06 (io_trps.svl 2023.06)
