@<TRIPOS>MOLECULE
NONAME
43 45 1 0 0 
SMALL
USER_CHARGES


@<TRIPOS>ATOM
  1 S       -0.3070     0.8780    -1.1820 S.o2  1 <1>   1.4470 
  2 O       -0.7870     1.5910    -2.3470 O.2   1 <1>  -0.6500 
  3 O       -0.0880    -0.5490    -1.2620 O.2   1 <1>  -0.6500 
  4 N       -1.4500     1.1320     0.0420 N.am  1 <1>  -0.8490 
  5 C        1.1830     1.6810    -0.5260 C.ar  1 <1>  -0.0090 
  6 C       -2.6400     0.2830    -0.1620 C.3   1 <1>   0.1960 
  7 C       -1.8650     2.5460     0.1380 C.3   1 <1>   0.1960 
  8 C        1.6570     1.3710     0.7450 C.ar  1 <1>  -0.1500 
  9 C        1.8840     2.6240    -1.2730 C.ar  1 <1>  -0.1500 
 10 C       -3.6960     0.4510     0.9500 C.3   1 <1>   0.2090 
 11 C       -2.8650     2.7910     1.2840 C.3   1 <1>   0.2090 
 12 C        2.7860     1.9840     1.2590 C.ar  1 <1>  -0.1500 
 13 C        3.0160     3.2460    -0.7720 C.ar  1 <1>  -0.1500 
 14 N       -4.0460     1.8820     1.2040 N.pl3 1 <1>  -0.8380 
 15 C        3.4600     2.9200     0.4980 C.ar  1 <1>   0.1010 
 16 C       -5.2180     2.3840     0.6500 C.ar  1 <1>   0.1000 
 17 S        4.9170     3.6800     1.2330 S.3   1 <1>  -0.3310 
 18 C       -5.3700     2.5550    -0.7220 C.ar  1 <1>  -0.1500 
 19 C       -6.2700     2.7330     1.4860 C.ar  1 <1>  -0.1500 
 20 C        5.6220     4.8220    -0.0360 C.3   1 <1>  -0.0100 
 21 C       -6.5470     3.0610    -1.2440 C.ar  1 <1>  -0.1500 
 22 C       -7.4490     3.2390     0.9690 C.ar  1 <1>  -0.1500 
 23 C       -7.5890     3.4050    -0.3990 C.ar  1 <1>  -0.1500 
 24 H       -2.3430    -0.7510    -0.1870 H     1 <1>   0.0800 
 25 H       -3.0920     0.5130    -1.1120 H     1 <1>   0.0800 
 26 H       -2.3190     2.8620    -0.7860 H     1 <1>   0.0800 
 27 H       -1.0000     3.1650     0.3060 H     1 <1>   0.0800 
 28 H        1.1320     0.6390     1.3380 H     1 <1>   0.1500 
 29 H        1.5370     2.8750    -2.2620 H     1 <1>   0.1500 
 30 H       -3.3140     0.0230     1.8600 H     1 <1>   0.0800 
 31 H       -4.5850    -0.0920     0.6810 H     1 <1>   0.0800 
 32 H       -3.2010     3.8140     1.2520 H     1 <1>   0.0800 
 33 H       -2.3690     2.6360     2.2250 H     1 <1>   0.0800 
 34 H        3.1470     1.7400     2.2430 H     1 <1>   0.1500 
 35 H        3.5300     3.9680    -1.3740 H     1 <1>   0.1500 
 36 H       -4.5660     2.2930    -1.3800 H     1 <1>   0.1500 
 37 H       -6.1510     2.6000     2.5450 H     1 <1>   0.1500 
 38 H        6.5060     5.2660     0.3850 H     1 <1>   0.0800 
 39 H        4.8850     5.5740    -0.2540 H     1 <1>   0.0800 
 40 H        5.8650     4.2410    -0.9070 H     1 <1>   0.0800 
 41 H       -6.6540     3.1890    -2.3070 H     1 <1>   0.1500 
 42 H       -8.2560     3.5040     1.6290 H     1 <1>   0.1500 
 43 H       -8.5050     3.7990    -0.8030 H     1 <1>   0.1500 
@<TRIPOS>BOND
  1   1   2  2   
  2   1   3  2   
  3   1   4  am  
  4   1   5  1   
  5   4   6  1   
  6   4   7  1   
  7   5   8  ar  
  8   5   9  ar  
  9   6  10  1   
 10   6  24  1   
 11   6  25  1   
 12   7  11  1   
 13   7  26  1   
 14   7  27  1   
 15   8  12  ar  
 16   8  28  1   
 17   9  13  ar  
 18   9  29  1   
 19  10  14  1   
 20  10  30  1   
 21  10  31  1   
 22  11  14  1   
 23  11  32  1   
 24  11  33  1   
 25  12  15  ar  
 26  12  34  1   
 27  13  15  ar  
 28  13  35  1   
 29  14  16  1   
 30  15  17  1   
 31  16  18  ar  
 32  16  19  ar  
 33  17  20  1   
 34  18  21  ar  
 35  18  36  1   
 36  19  22  ar  
 37  19  37  1   
 38  20  38  1   
 39  20  39  1   
 40  20  40  1   
 41  21  23  ar  
 42  21  41  1   
 43  22  23  ar  
 44  22  42  1   
 45  23  43  1   
@<TRIPOS>SUBSTRUCTURE
  1 ****   7 GROUP 4 **** **** 0

# MOE 2024.06 (io_trps.svl 2023.06)
