@<TRIPOS>MOLECULE
NONAME
39 41 1 0 0 
SMALL
USER_CHARGES


@<TRIPOS>ATOM
  1 S       -0.0780    -0.0820    -0.4760 S.3   1 <1>  -0.0800 
  2 C        0.7580     1.4740    -0.5130 C.2   1 <1>   0.1240 
  3 C       -1.5950     0.7210    -0.1390 C.2   1 <1>  -0.1400 
  4 N        2.0970     1.4330    -0.8100 N.pl3 1 <1>  -0.8840 
  5 C       -0.1060     2.5130    -0.2460 C.2   1 <1>  -0.0860 
  6 C       -1.4460     2.0320    -0.0560 C.2   1 <1>  -0.1810 
  7 C       -2.9740     0.1810     0.0560 C.3   1 <1>   0.0200 
  8 C        0.2550     3.8960    -0.1450 C.2   1 <1>   0.7160 
  9 C       -2.7700     2.6930     0.2290 C.3   1 <1>   0.0210 
 10 C       -3.7590     1.4940     0.3150 C.3   1 <1>  -0.1600 
 11 O       -0.5600     4.7940    -0.2850 O.2   1 <1>  -0.5700 
 12 N        1.5640     4.1920     0.1240 N.am  1 <1>  -0.5470 
 13 C        2.3460     5.3340    -0.0940 C.ar  1 <1>   0.1170 
 14 C        3.6950     5.1600    -0.4230 C.ar  1 <1>   0.0820 
 15 C        1.8370     6.6220     0.0170 C.ar  1 <1>  -0.1500 
 16 O        4.1510     3.8720    -0.5290 O.3   1 <1>  -0.3620 
 17 C        4.5050     6.2720    -0.6350 C.ar  1 <1>  -0.1500 
 18 C        2.6470     7.7230    -0.1940 C.ar  1 <1>  -0.1500 
 19 C        5.5250     3.5450    -0.4710 C.3   1 <1>   0.1200 
 20 C        3.9800     7.5490    -0.5200 C.ar  1 <1>  -0.1500 
 21 C        6.0330     3.7200     0.9610 C.3   1 <1>  -0.2400 
 22 H        2.6430     2.2480    -1.1240 H     1 <1>   0.4000 
 23 H        2.5510     0.5370    -1.0170 H     1 <1>   0.4000 
 24 H       -3.0090    -0.4810     0.9030 H     1 <1>   0.0800 
 25 H       -3.3150    -0.3200    -0.8330 H     1 <1>   0.0800 
 26 H       -3.0320     3.3620    -0.5730 H     1 <1>   0.0800 
 27 H       -2.7270     3.2370     1.1560 H     1 <1>   0.0800 
 28 H       -4.2090     1.4630     1.2920 H     1 <1>   0.0800 
 29 H       -4.5370     1.6080    -0.4180 H     1 <1>   0.0800 
 30 H        2.1150     3.3450     0.2750 H     1 <1>   0.3700 
 31 H        0.8030     6.7680     0.2740 H     1 <1>   0.1500 
 32 H        5.5400     6.1720    -0.8940 H     1 <1>   0.1500 
 33 H        2.2370     8.7140    -0.1050 H     1 <1>   0.1500 
 34 H        6.0690     4.1460    -1.1770 H     1 <1>   0.0800 
 35 H        5.6170     2.5140    -0.7650 H     1 <1>   0.0800 
 36 H        4.6080     8.4070    -0.6850 H     1 <1>   0.1500 
 37 H        5.9630     4.7470     1.2710 H     1 <1>   0.0800 
 38 H        7.0640     3.4200     1.0180 H     1 <1>   0.0800 
 39 H        5.4610     3.1060     1.6330 H     1 <1>   0.0800 
@<TRIPOS>BOND
  1   1   2  1   
  2   1   3  1   
  3   2   4  1   
  4   2   5  2   
  5   3   6  2   
  6   3   7  1   
  7   4  22  1   
  8   4  23  1   
  9   5   6  1   
 10   5   8  1   
 11   6   9  1   
 12   7  10  1   
 13   7  24  1   
 14   7  25  1   
 15   8  11  2   
 16   8  12  am  
 17   9  10  1   
 18   9  26  1   
 19   9  27  1   
 20  10  28  1   
 21  10  29  1   
 22  12  13  1   
 23  12  30  1   
 24  13  14  ar  
 25  13  15  ar  
 26  14  16  1   
 27  14  17  ar  
 28  15  18  ar  
 29  15  31  1   
 30  16  19  1   
 31  17  20  ar  
 32  17  32  1   
 33  18  20  ar  
 34  18  33  1   
 35  19  21  1   
 36  19  34  1   
 37  19  35  1   
 38  20  36  1   
 39  21  37  1   
 40  21  38  1   
 41  21  39  1   
@<TRIPOS>SUBSTRUCTURE
  1 ****  12 GROUP 4 **** **** 0

# MOE 2024.06 (io_trps.svl 2023.06)
