@<TRIPOS>MOLECULE
NONAME
42 46 1 0 0 
SMALL
USER_CHARGES


@<TRIPOS>ATOM
  1 S        0.2510    -0.0950     0.1860 S.o2  1 <1>   1.4970 
  2 O        0.3080    -0.6280     1.5310 O.2   1 <1>  -0.6500 
  3 O        0.6700    -0.8830    -0.9530 O.2   1 <1>  -0.6500 
  4 N        0.9840     1.4160     0.1380 N.2   1 <1>  -0.6380 
  5 C       -1.3760     0.5640    -0.1180 C.ar  1 <1>  -0.0090 
  6 C        0.1260     2.3270    -0.0800 C.2   1 <1>   0.4140 
  7 C       -1.2600     1.9280    -0.2410 C.ar  1 <1>   0.0860 
  8 C       -2.6040    -0.0690    -0.2320 C.ar  1 <1>  -0.1500 
  9 N        0.4700     3.6560    -0.1670 N.pl3 1 <1>  -0.8190 
 10 C       -2.3990     2.6900    -0.4860 C.ar  1 <1>  -0.1500 
 11 C       -3.7360     0.6930    -0.4750 C.ar  1 <1>  -0.1500 
 12 C        1.8010     4.2840    -0.0380 C.3   1 <1>   0.3690 
 13 C       -3.6310     2.0700    -0.6010 C.ar  1 <1>  -0.1500 
 14 C        1.6020     5.8000    -0.2230 C.3   1 <1>  -0.1600 
 15 C        2.4030     4.0340     1.3580 C.3   1 <1>  -0.1600 
 16 C        2.7650     3.7780    -1.1280 C.3   1 <1>  -0.1600 
 17 C        2.9480     6.5410    -0.1030 C.3   1 <1>  -0.0800 
 18 C        3.7600     4.7550     1.4840 C.3   1 <1>  -0.0800 
 19 C        4.1230     4.4990    -1.0070 C.3   1 <1>  -0.0800 
 20 C        3.5500     6.2680     1.2880 C.3   1 <1>  -0.1600 
 21 C        3.9100     6.0140    -1.1840 C.3   1 <1>  -0.1600 
 22 C        4.7130     4.2310     0.3910 C.3   1 <1>  -0.1600 
 23 H       -2.6730    -1.1390    -0.1320 H     1 <1>   0.1500 
 24 H       -0.2660     4.3360    -0.3440 H     1 <1>   0.4000 
 25 H       -2.3250     3.7580    -0.5840 H     1 <1>   0.1500 
 26 H       -4.6970     0.2140    -0.5660 H     1 <1>   0.1500 
 27 H       -4.5150     2.6560    -0.7900 H     1 <1>   0.1500 
 28 H        0.9270     6.1730     0.5280 H     1 <1>   0.0800 
 29 H        1.1770     5.9960    -1.1910 H     1 <1>   0.0800 
 30 H        2.5570     2.9820     1.5130 H     1 <1>   0.0800 
 31 H        1.7290     4.3890     2.1160 H     1 <1>   0.0800 
 32 H        2.3430     3.9550    -2.1000 H     1 <1>   0.0800 
 33 H        2.9250     2.7210    -1.0200 H     1 <1>   0.0800 
 34 H        2.7970     7.5990    -0.2330 H     1 <1>   0.0800 
 35 H        4.1830     4.5670     2.4570 H     1 <1>   0.0800 
 36 H        4.7960     4.1330    -1.7630 H     1 <1>   0.0800 
 37 H        2.8940     6.6470     2.0530 H     1 <1>   0.0800 
 38 H        4.4920     6.7810     1.3850 H     1 <1>   0.0800 
 39 H        4.8550     6.5240    -1.1110 H     1 <1>   0.0800 
 40 H        3.5070     6.2140    -2.1620 H     1 <1>   0.0800 
 41 H        4.8710     3.1740     0.5230 H     1 <1>   0.0800 
 42 H        5.6700     4.7150     0.4810 H     1 <1>   0.0800 
@<TRIPOS>BOND
  1   1   2  2   
  2   1   3  2   
  3   1   4  1   
  4   1   5  1   
  5   4   6  2   
  6   5   7  ar  
  7   5   8  ar  
  8   6   7  1   
  9   6   9  1   
 10   7  10  ar  
 11   8  11  ar  
 12   8  23  1   
 13   9  12  1   
 14   9  24  1   
 15  10  13  ar  
 16  10  25  1   
 17  11  13  ar  
 18  11  26  1   
 19  12  14  1   
 20  12  15  1   
 21  12  16  1   
 22  13  27  1   
 23  14  17  1   
 24  14  28  1   
 25  14  29  1   
 26  15  18  1   
 27  15  30  1   
 28  15  31  1   
 29  16  19  1   
 30  16  32  1   
 31  16  33  1   
 32  17  20  1   
 33  17  21  1   
 34  17  34  1   
 35  18  20  1   
 36  18  22  1   
 37  18  35  1   
 38  19  21  1   
 39  19  22  1   
 40  19  36  1   
 41  20  37  1   
 42  20  38  1   
 43  21  39  1   
 44  21  40  1   
 45  22  41  1   
 46  22  42  1   
@<TRIPOS>SUBSTRUCTURE
  1 ****   9 GROUP 4 **** **** 0

# MOE 2024.06 (io_trps.svl 2023.06)
