@<TRIPOS>MOLECULE
NONAME
33 34 1 0 0 
SMALL
USER_CHARGES


@<TRIPOS>ATOM
  1 CL       0.2460    -0.5860    -0.5650 Cl    1 <1>  -0.1770 
  2 C       -1.2580    -1.4680    -0.5340 C.ar  1 <1>   0.1770 
  3 C       -2.0140    -1.4740     0.6250 C.ar  1 <1>  -0.1500 
  4 C       -1.6690    -2.1460    -1.6680 C.ar  1 <1>  -0.1500 
  5 C       -3.2100    -2.1740     0.6550 C.ar  1 <1>  -0.1500 
  6 C       -2.8640    -2.8460    -1.6400 C.ar  1 <1>  -0.1500 
  7 C       -3.6250    -2.8550    -0.4820 C.ar  1 <1>   0.1020 
  8 S       -5.1640    -3.7900    -0.5310 S.3   1 <1>  -0.3320 
  9 C       -5.9420    -3.6270     1.1550 C.3   1 <1>   0.1310 
 10 C       -7.2580    -4.3860     1.2460 C.2   1 <1>   0.5690 
 11 O       -7.8350    -4.4060     2.3050 O.2   1 <1>  -0.5700 
 12 N       -7.7580    -5.0230     0.1540 N.am  1 <1>  -0.7300 
 13 C       -9.0290    -5.7650     0.1180 C.3   1 <1>   0.2200 
 14 C       -8.7780    -7.2680     0.1450 C.3   1 <1>  -0.0550 
 15 C       -9.7870    -5.4430    -1.1720 C.3   1 <1>  -0.1600 
 16 S      -10.2050    -8.0310    -0.5950 S.o2  1 <1>   1.0900 
 17 C      -10.8620    -6.5280    -1.3040 C.3   1 <1>  -0.0550 
 18 O       -9.7630    -8.9030    -1.6570 O.2   1 <1>  -0.6500 
 19 O      -11.1050    -8.4810     0.4400 O.2   1 <1>  -0.6500 
 20 H       -1.6660    -0.9370     1.4890 H     1 <1>   0.1500 
 21 H       -1.0610    -2.1240    -2.5550 H     1 <1>   0.1500 
 22 H       -3.7900    -2.1730     1.5570 H     1 <1>   0.1500 
 23 H       -3.2040    -3.3800    -2.5100 H     1 <1>   0.1500 
 24 H       -6.1100    -2.5820     1.3320 H     1 <1>   0.0800 
 25 H       -5.2440    -4.0200     1.8700 H     1 <1>   0.0800 
 26 H       -7.2130    -4.9830    -0.7130 H     1 <1>   0.3700 
 27 H       -9.6410    -5.4960     0.9660 H     1 <1>   0.0800 
 28 H       -8.6300    -7.6100     1.1510 H     1 <1>   0.0800 
 29 H       -7.9100    -7.4970    -0.4430 H     1 <1>   0.0800 
 30 H       -9.1200    -5.5080    -2.0150 H     1 <1>   0.0800 
 31 H      -10.2260    -4.4620    -1.1340 H     1 <1>   0.0800 
 32 H      -11.1470    -6.6710    -2.3290 H     1 <1>   0.0800 
 33 H      -11.7310    -6.2290    -0.7470 H     1 <1>   0.0800 
@<TRIPOS>BOND
  1   1   2  1   
  2   2   3  ar  
  3   2   4  ar  
  4   3   5  ar  
  5   3  20  1   
  6   4   6  ar  
  7   4  21  1   
  8   5   7  ar  
  9   5  22  1   
 10   6   7  ar  
 11   6  23  1   
 12   7   8  1   
 13   8   9  1   
 14   9  10  1   
 15   9  24  1   
 16   9  25  1   
 17  10  11  2   
 18  10  12  am  
 19  12  13  1   
 20  12  26  1   
 21  13  14  1   
 22  13  15  1   
 23  13  27  1   
 24  14  16  1   
 25  14  28  1   
 26  14  29  1   
 27  15  17  1   
 28  15  30  1   
 29  15  31  1   
 30  16  17  1   
 31  16  18  2   
 32  16  19  2   
 33  17  32  1   
 34  17  33  1   
@<TRIPOS>SUBSTRUCTURE
  1 ****   8 GROUP 4 **** **** 0

# MOE 2024.06 (io_trps.svl 2023.06)
