@<TRIPOS>MOLECULE
NONAME
37 39 1 0 0 
SMALL
USER_CHARGES


@<TRIPOS>ATOM
  1 S       -0.1560     0.0980     1.6420 S.3   1 <1>  -0.0800 
  2 C       -1.0180     1.3030     0.6910 C.2   1 <1>  -0.0130 
  3 C        1.2810     1.0810     1.7050 C.2   1 <1>  -0.1100 
  4 C       -2.3850     1.0140     0.3350 C.ar  1 <1>   0.0530 
  5 C       -0.1960     2.3580     0.4580 C.2   1 <1>  -0.1810 
  6 C        1.1210     2.2450     1.0320 C.2   1 <1>  -0.0860 
  7 C       -2.7380    -0.1930    -0.2640 C.ar  1 <1>  -0.1500 
  8 C       -3.4000     1.9360     0.5820 C.ar  1 <1>  -0.1500 
  9 C       -0.5690     3.5940    -0.3480 C.3   1 <1>  -0.0590 
 10 C        2.1440     3.2610     0.8870 C.2   1 <1>   0.7160 
 11 C       -4.0490    -0.4680    -0.6080 C.ar  1 <1>  -0.1500 
 12 C       -4.7130     1.6690     0.2390 C.ar  1 <1>  -0.1500 
 13 O        2.0230     4.3250     1.4620 O.2   1 <1>  -0.5700 
 14 N        3.2540     3.0420     0.1020 N.am  1 <1>  -0.6600 
 15 C       -5.0400     0.4650    -0.3580 C.ar  1 <1>  -0.1500 
 16 C        4.3870     4.0120     0.0350 C.3   1 <1>   0.1400 
 17 C        3.4270     1.8690    -0.8050 C.3   1 <1>   0.1400 
 18 C        5.7340     3.2780     0.1510 C.3   1 <1>   0.1200 
 19 C        4.8270     1.2560    -0.6310 C.3   1 <1>   0.1200 
 20 O        5.8150     2.2360    -0.7820 O.3   1 <1>  -0.5600 
 21 H        2.1250     0.6950     2.2480 H     1 <1>   0.1500 
 22 H       -1.9730    -0.9220    -0.4620 H     1 <1>   0.1500 
 23 H       -3.1520     2.8690     1.0550 H     1 <1>   0.1500 
 24 H       -1.5390     3.4850    -0.7970 H     1 <1>   0.0800 
 25 H        0.1480     3.7540    -1.1330 H     1 <1>   0.0800 
 26 H       -0.5800     4.4580     0.2920 H     1 <1>   0.0800 
 27 H       -4.2990    -1.4070    -1.0710 H     1 <1>   0.1500 
 28 H       -5.4810     2.3960     0.4390 H     1 <1>   0.1500 
 29 H       -6.0610     0.2530    -0.6260 H     1 <1>   0.1500 
 30 H        4.3140     4.7380     0.8270 H     1 <1>   0.0800 
 31 H        4.3490     4.5380    -0.9020 H     1 <1>   0.0800 
 32 H        3.3130     2.1940    -1.8240 H     1 <1>   0.0800 
 33 H        2.6840     1.1150    -0.6170 H     1 <1>   0.0800 
 34 H        5.8570     2.8680     1.1380 H     1 <1>   0.0800 
 35 H        6.5440     3.9570    -0.0450 H     1 <1>   0.0800 
 36 H        4.9970     0.5010    -1.3770 H     1 <1>   0.0800 
 37 H        4.9280     0.8100     0.3430 H     1 <1>   0.0800 
@<TRIPOS>BOND
  1   1   2  1   
  2   1   3  1   
  3   2   4  1   
  4   2   5  2   
  5   3   6  2   
  6   3  21  1   
  7   4   7  ar  
  8   4   8  ar  
  9   5   6  1   
 10   5   9  1   
 11   6  10  1   
 12   7  11  ar  
 13   7  22  1   
 14   8  12  ar  
 15   8  23  1   
 16   9  24  1   
 17   9  25  1   
 18   9  26  1   
 19  10  13  2   
 20  10  14  am  
 21  11  15  ar  
 22  11  27  1   
 23  12  15  ar  
 24  12  28  1   
 25  14  16  1   
 26  14  17  1   
 27  15  29  1   
 28  16  18  1   
 29  16  30  1   
 30  16  31  1   
 31  17  19  1   
 32  17  32  1   
 33  17  33  1   
 34  18  20  1   
 35  18  34  1   
 36  18  35  1   
 37  19  20  1   
 38  19  36  1   
 39  19  37  1   
@<TRIPOS>SUBSTRUCTURE
  1 ****   5 GROUP 4 **** **** 0

# MOE 2024.06 (io_trps.svl 2023.06)
