@<TRIPOS>MOLECULE
NONAME
47 48 1 0 0 
SMALL
USER_CHARGES


@<TRIPOS>ATOM
  1 O       -5.1480     4.3660     0.7910 O.3   1 <1>  -0.3630 
  2 C       -3.9300     4.9160     0.5570 C.ar  1 <1>   0.0830 
  3 C       -6.2650     4.7100     0.0140 C.3   1 <1>   0.1200 
  4 C       -3.6760     5.8500    -0.4410 C.ar  1 <1>  -0.1500 
  5 C       -2.8910     4.5070     1.3740 C.ar  1 <1>  -0.1500 
  6 C       -7.4480     3.9010     0.5490 C.3   1 <1>  -0.1600 
  7 C       -2.3990     6.3560    -0.6050 C.ar  1 <1>  -0.1500 
  8 C       -1.6160     5.0170     1.2050 C.ar  1 <1>  -0.1500 
  9 C       -8.7180     4.2020    -0.2370 C.3   1 <1>   0.3430 
 10 C       -1.3470     5.9560     0.2120 C.ar  1 <1>  -0.1440 
 11 N       -9.8290     3.3930     0.3230 N.4   1 <1>  -0.9060 
 12 C        0.0580     6.5530    -0.0300 C.3   1 <1>   0.2870 
 13 C      -11.1230     3.6210    -0.3870 C.3   1 <1>   0.2630 
 14 C       -0.0400     8.0840    -0.2110 C.ar  1 <1>  -0.1430 
 15 C        0.6330     5.8360    -1.2630 C.3   1 <1>  -0.2400 
 16 C        1.0250     6.3090     1.1400 C.3   1 <1>  -0.2400 
 17 C        0.5900     8.7750    -1.2440 C.ar  1 <1>  -0.1500 
 18 C       -0.7820     8.8210     0.7060 C.ar  1 <1>  -0.1500 
 19 C        0.4730    10.1500    -1.3570 C.ar  1 <1>  -0.1500 
 20 C       -0.9010    10.1960     0.5970 C.ar  1 <1>  -0.1500 
 21 C       -0.2720    10.8630    -0.4370 C.ar  1 <1>  -0.1500 
 22 H       -6.0500     4.4610    -1.0120 H     1 <1>   0.0800 
 23 H       -6.4330     5.7690     0.1180 H     1 <1>   0.0800 
 24 H       -4.4480     6.1990    -1.0990 H     1 <1>   0.1500 
 25 H       -3.0850     3.7840     2.1450 H     1 <1>   0.1500 
 26 H       -7.5900     4.1560     1.5850 H     1 <1>   0.0800 
 27 H       -7.2060     2.8560     0.4660 H     1 <1>   0.0800 
 28 H       -2.2230     7.0790    -1.3840 H     1 <1>   0.1500 
 29 H       -0.8450     4.6620     1.8630 H     1 <1>   0.1500 
 30 H       -8.5690     3.9560    -1.2770 H     1 <1>   0.0800 
 31 H       -8.9520     5.2520    -0.1630 H     1 <1>   0.0800 
 32 H       -9.9350     3.6140     1.3230 H     1 <1>   0.4500 
 33 H       -9.5760     2.3960     0.2760 H     1 <1>   0.4500 
 34 H      -11.4140     4.6570    -0.3140 H     1 <1>   0.0800 
 35 H      -11.9010     3.0150     0.0510 H     1 <1>   0.0800 
 36 H      -11.0320     3.3600    -1.4290 H     1 <1>   0.0800 
 37 H        0.0510     6.0700    -2.1360 H     1 <1>   0.0800 
 38 H        0.6020     4.7720    -1.1160 H     1 <1>   0.0800 
 39 H        1.6550     6.1220    -1.4350 H     1 <1>   0.0800 
 40 H        0.6070     6.6850     2.0560 H     1 <1>   0.0800 
 41 H        1.9530     6.8220     0.9610 H     1 <1>   0.0800 
 42 H        1.2380     5.2620     1.2550 H     1 <1>   0.0800 
 43 H        1.1820     8.2630    -1.9790 H     1 <1>   0.1500 
 44 H       -1.2810     8.3210     1.5180 H     1 <1>   0.1500 
 45 H        0.9660    10.6660    -2.1620 H     1 <1>   0.1500 
 46 H       -1.4830    10.7430     1.3170 H     1 <1>   0.1500 
 47 H       -0.3630    11.9310    -0.5250 H     1 <1>   0.1500 
@<TRIPOS>BOND
  1   1   2  1   
  2   1   3  1   
  3   2   4  ar  
  4   2   5  ar  
  5   3   6  1   
  6   3  22  1   
  7   3  23  1   
  8   4   7  ar  
  9   4  24  1   
 10   5   8  ar  
 11   5  25  1   
 12   6   9  1   
 13   6  26  1   
 14   6  27  1   
 15   7  10  ar  
 16   7  28  1   
 17   8  10  ar  
 18   8  29  1   
 19   9  11  1   
 20   9  30  1   
 21   9  31  1   
 22  10  12  1   
 23  11  13  1   
 24  11  32  1   
 25  11  33  1   
 26  12  14  1   
 27  12  15  1   
 28  12  16  1   
 29  13  34  1   
 30  13  35  1   
 31  13  36  1   
 32  14  17  ar  
 33  14  18  ar  
 34  15  37  1   
 35  15  38  1   
 36  15  39  1   
 37  16  40  1   
 38  16  41  1   
 39  16  42  1   
 40  17  19  ar  
 41  17  43  1   
 42  18  20  ar  
 43  18  44  1   
 44  19  21  ar  
 45  19  45  1   
 46  20  21  ar  
 47  20  46  1   
 48  21  47  1   
@<TRIPOS>SUBSTRUCTURE
  1 ****   7 GROUP 4 **** **** 0

# MOE 2024.06 (io_trps.svl 2023.06)
