@<TRIPOS>MOLECULE
NONAME
50 52 1 0 0 
SMALL
USER_CHARGES


@<TRIPOS>ATOM
  1 N        0.7520     0.0410    -0.3360 N.4   1 <1>  -0.9590 
  2 C        2.2080    -0.3390    -0.1830 C.3   1 <1>   0.3430 
  3 C        0.3970     1.3600     0.2860 C.3   1 <1>   0.3430 
  4 C       -0.1110    -1.0240     0.2610 C.3   1 <1>   0.3430 
  5 C        3.1280     0.1120    -1.3560 C.3   1 <1>   0.3430 
  6 C        1.0320     2.5160    -0.4760 C.3   1 <1>  -0.2400 
  7 C       -1.5020    -0.9620    -0.3600 C.3   1 <1>  -0.2400 
  8 N        4.5600    -0.3410    -1.2410 N.4   1 <1>  -0.9060 
  9 C        5.3410     0.1630    -0.0770 C.3   1 <1>   0.4230 
 10 C        5.4960     1.7020    -0.1320 C.3   1 <1>  -0.0800 
 11 C        6.7380    -0.4940    -0.0900 C.3   1 <1>  -0.0800 
 12 C        6.2950     2.1310    -1.3860 C.3   1 <1>  -0.1600 
 13 C        6.2690     2.1590     1.1220 C.3   1 <1>  -0.1600 
 14 C        7.5410    -0.0670    -1.3420 C.3   1 <1>  -0.1600 
 15 C        7.5070    -0.0310     1.1650 C.3   1 <1>  -0.1600 
 16 C        7.6860     1.4670    -1.3740 C.3   1 <1>  -0.0800 
 17 C        7.6620     1.5020     1.1520 C.3   1 <1>  -0.0800 
 18 C        8.4400     1.9190    -0.1100 C.3   1 <1>  -0.1600 
 19 H        0.4770     0.0850    -1.3290 H     1 <1>   0.4500 
 20 H        2.2740    -1.4130    -0.1170 H     1 <1>   0.0800 
 21 H        2.5800     0.0700     0.7420 H     1 <1>   0.0800 
 22 H        0.7060     1.3850     1.3200 H     1 <1>   0.0800 
 23 H       -0.6730     1.4920     0.2640 H     1 <1>   0.0800 
 24 H       -0.1760    -0.9050     1.3320 H     1 <1>   0.0800 
 25 H        0.3070    -1.9970     0.0560 H     1 <1>   0.0800 
 26 H        3.1110     1.1860    -1.4250 H     1 <1>   0.0800 
 27 H        2.7210    -0.2800    -2.2740 H     1 <1>   0.0800 
 28 H        2.0880     2.5770    -0.2970 H     1 <1>   0.0800 
 29 H        0.6020     3.4360    -0.1190 H     1 <1>   0.0800 
 30 H        0.8260     2.4510    -1.5300 H     1 <1>   0.0800 
 31 H       -2.0100    -0.0460    -0.1180 H     1 <1>   0.0800 
 32 H       -2.0960    -1.7690     0.0340 H     1 <1>   0.0800 
 33 H       -1.4570    -1.0820    -1.4280 H     1 <1>   0.0800 
 34 H        5.0880    -0.0110    -2.0620 H     1 <1>   0.4500 
 35 H        4.6500    -1.3660    -1.2700 H     1 <1>   0.4500 
 36 H        4.8480    -0.1080     0.8420 H     1 <1>   0.0800 
 37 H        4.5380     2.1880    -0.1220 H     1 <1>   0.0800 
 38 H        6.6490    -1.5660    -0.0550 H     1 <1>   0.0800 
 39 H        6.4180     3.2020    -1.3840 H     1 <1>   0.0800 
 40 H        5.7750     1.8810    -2.2920 H     1 <1>   0.0800 
 41 H        5.7280     1.9000     2.0160 H     1 <1>   0.0800 
 42 H        6.3810     3.2310     1.1160 H     1 <1>   0.0800 
 43 H        7.0780    -0.4140    -2.2480 H     1 <1>   0.0800 
 44 H        8.5220    -0.5110    -1.3070 H     1 <1>   0.0800 
 45 H        6.9910    -0.3370     2.0590 H     1 <1>   0.0800 
 46 H        8.4820    -0.4890     1.1870 H     1 <1>   0.0800 
 47 H        8.2440     1.7660    -2.2470 H     1 <1>   0.0800 
 48 H        8.2000     1.8230     2.0300 H     1 <1>   0.0800 
 49 H        8.5700     2.9880    -0.1220 H     1 <1>   0.0800 
 50 H        9.4230     1.4790    -0.0930 H     1 <1>   0.0800 
@<TRIPOS>BOND
  1   1   2  1   
  2   1   3  1   
  3   1   4  1   
  4   1  19  1   
  5   2   5  1   
  6   2  20  1   
  7   2  21  1   
  8   3   6  1   
  9   3  22  1   
 10   3  23  1   
 11   4   7  1   
 12   4  24  1   
 13   4  25  1   
 14   5   8  1   
 15   5  26  1   
 16   5  27  1   
 17   6  28  1   
 18   6  29  1   
 19   6  30  1   
 20   7  31  1   
 21   7  32  1   
 22   7  33  1   
 23   8   9  1   
 24   8  34  1   
 25   8  35  1   
 26   9  10  1   
 27   9  11  1   
 28   9  36  1   
 29  10  12  1   
 30  10  13  1   
 31  10  37  1   
 32  11  14  1   
 33  11  15  1   
 34  11  38  1   
 35  12  16  1   
 36  12  39  1   
 37  12  40  1   
 38  13  17  1   
 39  13  41  1   
 40  13  42  1   
 41  14  16  1   
 42  14  43  1   
 43  14  44  1   
 44  15  17  1   
 45  15  45  1   
 46  15  46  1   
 47  16  18  1   
 48  16  47  1   
 49  17  18  1   
 50  17  48  1   
 51  18  49  1   
 52  18  50  1   
@<TRIPOS>SUBSTRUCTURE
  1 ****   9 GROUP 4 **** **** 0

# MOE 2024.06 (io_trps.svl 2023.06)
