@<TRIPOS>MOLECULE
NONAME
39 41 1 0 0 
SMALL
USER_CHARGES


@<TRIPOS>ATOM
  1 S        0.3930     0.2820    -0.1120 S.o2  1 <1>   1.5000 
  2 O        0.7010     0.9040     1.1590 O.2   1 <1>  -0.6500 
  3 O       -0.1670     1.0940    -1.1700 O.2   1 <1>  -0.6500 
  4 N        1.8480    -0.3650    -0.6920 N.am  1 <1>  -0.8490 
  5 C       -0.6580    -1.1650     0.1660 C.2   1 <1>  -0.0220 
  6 C        2.7010     0.6850    -1.2810 C.3   1 <1>   0.1960 
  7 C        2.6010    -1.0860     0.3540 C.3   1 <1>   0.1960 
  8 S       -0.6600    -2.4440    -1.0480 S.3   1 <1>  -0.0800 
  9 C       -1.5120    -1.4950     1.1590 C.2   1 <1>  -0.1500 
 10 C        4.0170     0.1310    -1.8650 C.3   1 <1>   0.2090 
 11 C        3.8950    -1.7250    -0.1850 C.3   1 <1>   0.2090 
 12 C       -1.8280    -3.3900    -0.1450 C.2   1 <1>  -0.1100 
 13 C       -2.1730    -2.7530     0.9880 C.2   1 <1>  -0.1500 
 14 N        4.7550    -0.7370    -0.8990 N.pl3 1 <1>  -0.8380 
 15 C        5.8460    -0.1980    -0.2160 C.ar  1 <1>   0.1000 
 16 C        7.1450    -0.6230    -0.5000 C.ar  1 <1>  -0.1440 
 17 C        5.6560     0.7710     0.7630 C.ar  1 <1>  -0.1500 
 18 C        8.2160    -0.0810     0.1910 C.ar  1 <1>  -0.1500 
 19 C        7.3940    -1.6810    -1.5650 C.3   1 <1>  -0.0970 
 20 C        6.7280     1.3100     1.4490 C.ar  1 <1>  -0.1500 
 21 C        8.0120     0.8830     1.1630 C.ar  1 <1>  -0.1500 
 22 H        2.9330     1.4270    -0.5360 H     1 <1>   0.0800 
 23 H        2.1660     1.1780    -2.0750 H     1 <1>   0.0800 
 24 H        1.9860    -1.8660     0.7680 H     1 <1>   0.0800 
 25 H        2.8590    -0.4130     1.1550 H     1 <1>   0.0800 
 26 H       -1.7090    -0.8850     2.0250 H     1 <1>   0.1500 
 27 H        4.6480     0.9510    -2.1620 H     1 <1>   0.0800 
 28 H        3.7930    -0.4450    -2.7450 H     1 <1>   0.0800 
 29 H        3.6410    -2.5190    -0.8640 H     1 <1>   0.0800 
 30 H        4.4500    -2.1540     0.6320 H     1 <1>   0.0800 
 31 H       -2.1360    -4.3320    -0.5640 H     1 <1>   0.1500 
 32 H       -2.8740    -3.1160     1.7200 H     1 <1>   0.1500 
 33 H        4.6630     1.1040     0.9900 H     1 <1>   0.1500 
 34 H        9.2190    -0.4050    -0.0240 H     1 <1>   0.1500 
 35 H        6.8860    -2.5890    -1.2980 H     1 <1>   0.0800 
 36 H        8.4420    -1.8890    -1.6730 H     1 <1>   0.0800 
 37 H        7.0110    -1.3390    -2.5090 H     1 <1>   0.0800 
 38 H        6.5650     2.0590     2.2040 H     1 <1>   0.1500 
 39 H        8.8510     1.2990     1.6940 H     1 <1>   0.1500 
@<TRIPOS>BOND
  1   1   2  2   
  2   1   3  2   
  3   1   4  am  
  4   1   5  1   
  5   4   6  1   
  6   4   7  1   
  7   5   8  1   
  8   5   9  2   
  9   6  10  1   
 10   6  22  1   
 11   6  23  1   
 12   7  11  1   
 13   7  24  1   
 14   7  25  1   
 15   8  12  1   
 16   9  13  1   
 17   9  26  1   
 18  10  14  1   
 19  10  27  1   
 20  10  28  1   
 21  11  14  1   
 22  11  29  1   
 23  11  30  1   
 24  12  13  2   
 25  12  31  1   
 26  13  32  1   
 27  14  15  1   
 28  15  16  ar  
 29  15  17  ar  
 30  16  18  ar  
 31  16  19  1   
 32  17  20  ar  
 33  17  33  1   
 34  18  21  ar  
 35  18  34  1   
 36  19  35  1   
 37  19  36  1   
 38  19  37  1   
 39  20  21  ar  
 40  20  38  1   
 41  21  39  1   
@<TRIPOS>SUBSTRUCTURE
  1 ****   7 GROUP 4 **** **** 0

# MOE 2024.06 (io_trps.svl 2023.06)
