@<TRIPOS>MOLECULE
NONAME
45 47 1 0 0 
SMALL
USER_CHARGES


@<TRIPOS>ATOM
  1 CL       3.2620     2.0050     2.7840 Cl    1 <1>  -0.1770 
  2 C        2.3700     2.4030     1.3360 C.ar  1 <1>   0.1770 
  3 C        2.3620     1.5160     0.2700 C.ar  1 <1>  -0.1440 
  4 C        1.6990     3.6080     1.2830 C.ar  1 <1>  -0.1500 
  5 C        1.6520     1.8630    -0.8700 C.ar  1 <1>  -0.1500 
  6 C        3.1110     0.1970     0.3540 C.3   1 <1>   0.4870 
  7 C        0.9910     3.9630     0.1420 C.ar  1 <1>   0.0730 
  8 C        0.9780     3.0720    -0.9280 C.ar  1 <1>  -0.1500 
  9 N        4.5740     0.4590     0.3760 N.4   1 <1>  -0.9590 
 10 C        0.2940     5.2160     0.0670 C.1   1 <1>   0.4840 
 11 C        5.0590     1.1640    -0.8690 C.3   1 <1>   0.3430 
 12 C        5.3700    -0.7970     0.6220 C.3   1 <1>   0.3430 
 13 N       -0.2490     6.2160     0.0040 N.1   1 <1>  -0.5570 
 14 C        6.5710     1.4550    -0.8230 C.3   1 <1>   0.2090 
 15 C        6.8870    -0.5260     0.6770 C.3   1 <1>   0.2090 
 16 N        7.3460     0.2120    -0.5370 N.pl3 1 <1>  -0.8380 
 17 C        8.7370     0.3690    -0.6230 C.ar  1 <1>   0.1000 
 18 C        9.4950     1.1600     0.2610 C.ar  1 <1>   0.0830 
 19 C        9.3900    -0.3030    -1.6460 C.ar  1 <1>  -0.1500 
 20 O        8.8400     1.8210     1.2690 O.3   1 <1>  -0.3620 
 21 C       10.8730     1.2510     0.0910 C.ar  1 <1>  -0.1500 
 22 C       10.7600    -0.2070    -1.8070 C.ar  1 <1>  -0.1500 
 23 C        9.5420     2.6310     2.1890 C.3   1 <1>   0.0400 
 24 C       11.5020     0.5710    -0.9380 C.ar  1 <1>  -0.1500 
 25 H        1.7270     4.2720     2.1320 H     1 <1>   0.1500 
 26 H        1.6090     1.2010    -1.7210 H     1 <1>   0.1500 
 27 H        2.8590    -0.4230    -0.4900 H     1 <1>   0.0800 
 28 H        2.8170    -0.3190     1.2550 H     1 <1>   0.0800 
 29 H        0.4270     3.3310    -1.8200 H     1 <1>   0.1500 
 30 H        4.7560     1.0920     1.1690 H     1 <1>   0.4500 
 31 H        4.5320     2.0950    -0.9970 H     1 <1>   0.0800 
 32 H        4.8640     0.5500    -1.7320 H     1 <1>   0.0800 
 33 H        5.1890    -1.5030    -0.1720 H     1 <1>   0.0800 
 34 H        5.0650    -1.2530     1.5490 H     1 <1>   0.0800 
 35 H        6.7730     2.1980    -0.0710 H     1 <1>   0.0800 
 36 H        6.8880     1.8550    -1.7710 H     1 <1>   0.0800 
 37 H        7.4160    -1.4620     0.7380 H     1 <1>   0.0800 
 38 H        7.1210     0.0380     1.5630 H     1 <1>   0.0800 
 39 H        8.8140    -0.9070    -2.3210 H     1 <1>   0.1500 
 40 H       11.4850     1.8440     0.7440 H     1 <1>   0.1500 
 41 H       11.2470    -0.7360    -2.6080 H     1 <1>   0.1500 
 42 H        8.8330     3.0440     2.8830 H     1 <1>   0.0800 
 43 H       10.0310     3.4250     1.6530 H     1 <1>   0.0800 
 44 H       10.2560     2.0240     2.7160 H     1 <1>   0.0800 
 45 H       12.5680     0.6460    -1.0630 H     1 <1>   0.1500 
@<TRIPOS>BOND
  1   1   2  1   
  2   2   3  ar  
  3   2   4  ar  
  4   3   5  ar  
  5   3   6  1   
  6   4   7  ar  
  7   4  25  1   
  8   5   8  ar  
  9   5  26  1   
 10   6   9  1   
 11   6  27  1   
 12   6  28  1   
 13   7   8  ar  
 14   7  10  1   
 15   8  29  1   
 16   9  11  1   
 17   9  12  1   
 18   9  30  1   
 19  10  13  3   
 20  11  14  1   
 21  11  31  1   
 22  11  32  1   
 23  12  15  1   
 24  12  33  1   
 25  12  34  1   
 26  14  16  1   
 27  14  35  1   
 28  14  36  1   
 29  15  16  1   
 30  15  37  1   
 31  15  38  1   
 32  16  17  1   
 33  17  18  ar  
 34  17  19  ar  
 35  18  20  1   
 36  18  21  ar  
 37  19  22  ar  
 38  19  39  1   
 39  20  23  1   
 40  21  24  ar  
 41  21  40  1   
 42  22  24  ar  
 43  22  41  1   
 44  23  42  1   
 45  23  43  1   
 46  23  44  1   
 47  24  45  1   
@<TRIPOS>SUBSTRUCTURE
  1 ****  11 GROUP 4 **** **** 0

# MOE 2024.06 (io_trps.svl 2023.06)
