@<TRIPOS>MOLECULE
NONAME
49 52 1 0 0 
SMALL
USER_CHARGES


@<TRIPOS>ATOM
  1 O        2.6630    -3.8650     1.0920 O.2   1 <1>  -0.5700 
  2 C        2.6080    -3.9260    -0.1200 C.2   1 <1>   0.7800 
  3 O        3.7230    -4.0220    -0.8400 O.3   1 <1>  -0.4300 
  4 N        1.4640    -3.8840    -0.8350 N.am  1 <1>  -0.7300 
  5 C        4.9950    -3.8720    -0.2270 C.3   1 <1>   0.1200 
  6 C        0.1170    -3.5250    -0.3720 C.3   1 <1>   0.3000 
  7 C        5.2370    -2.4020     0.1500 C.3   1 <1>   0.2090 
  8 C       -0.4140    -4.5660     0.6310 C.3   1 <1>  -0.1600 
  9 C       -0.8080    -3.5030    -1.6040 C.3   1 <1>  -0.1600 
 10 C        0.1150    -2.1260     0.2750 C.3   1 <1>  -0.1600 
 11 N        4.9300    -1.5150    -1.0020 N.pl3 1 <1>  -0.8690 
 12 C       -1.8450    -4.1950     1.0660 C.3   1 <1>  -0.0800 
 13 C       -2.2440    -3.1300    -1.1880 C.3   1 <1>  -0.0800 
 14 C       -1.3150    -1.7480     0.7090 C.3   1 <1>  -0.0800 
 15 C        4.1320    -0.4050    -0.7590 C.ar  1 <1>   0.1000 
 16 C       -2.7600    -4.1680    -0.1730 C.3   1 <1>  -0.1600 
 17 C       -1.8300    -2.7970     1.7140 C.3   1 <1>  -0.1600 
 18 C       -2.2330    -1.7380    -0.5280 C.3   1 <1>  -0.1600 
 19 C        2.9680    -0.2160    -1.4930 C.ar  1 <1>  -0.1500 
 20 C        4.4710     0.5330     0.2100 C.ar  1 <1>  -0.1500 
 21 C        2.1530     0.8760    -1.2580 C.ar  1 <1>  -0.1500 
 22 C        3.6580     1.6260     0.4500 C.ar  1 <1>  -0.1500 
 23 C        2.4960     1.7980    -0.2830 C.ar  1 <1>  -0.1500 
 24 H        1.5670    -3.9400    -1.8430 H     1 <1>   0.3700 
 25 H        5.7390    -4.1940    -0.9340 H     1 <1>   0.0800 
 26 H        5.0450    -4.5060     0.6420 H     1 <1>   0.0800 
 27 H        6.2640    -2.2670     0.4390 H     1 <1>   0.0800 
 28 H        4.6180    -2.1430     0.9940 H     1 <1>   0.0800 
 29 H        0.2190    -4.5950     1.5010 H     1 <1>   0.0800 
 30 H       -0.4110    -5.5430     0.1820 H     1 <1>   0.0800 
 31 H       -0.8160    -4.4720    -2.0710 H     1 <1>   0.0800 
 32 H       -0.4490    -2.7830    -2.3180 H     1 <1>   0.0800 
 33 H        0.4850    -1.3980    -0.4230 H     1 <1>   0.0800 
 34 H        0.7550    -2.1160     1.1390 H     1 <1>   0.0800 
 35 H        4.5610    -2.0890    -1.7680 H     1 <1>   0.4000 
 36 H       -2.2090    -4.9200     1.7740 H     1 <1>   0.0800 
 37 H       -2.8850    -3.1180    -2.0540 H     1 <1>   0.0800 
 38 H       -1.3080    -0.7740     1.1680 H     1 <1>   0.0800 
 39 H       -3.7650    -3.9200     0.1230 H     1 <1>   0.0800 
 40 H       -2.7860    -5.1430    -0.6280 H     1 <1>   0.0800 
 41 H       -1.1970    -2.8060     2.5850 H     1 <1>   0.0800 
 42 H       -2.8230    -2.5340     2.0360 H     1 <1>   0.0800 
 43 H       -3.2320    -1.4660    -0.2360 H     1 <1>   0.0800 
 44 H       -1.8870    -1.0020    -1.2320 H     1 <1>   0.0800 
 45 H        2.7010    -0.9310    -2.2470 H     1 <1>   0.1500 
 46 H        5.3770     0.4010     0.7700 H     1 <1>   0.1500 
 47 H        1.2530     1.0100    -1.8310 H     1 <1>   0.1500 
 48 H        3.9300     2.3420     1.2040 H     1 <1>   0.1500 
 49 H        1.8630     2.6480    -0.0970 H     1 <1>   0.1500 
@<TRIPOS>BOND
  1   1   2  2   
  2   2   3  1   
  3   2   4  am  
  4   3   5  1   
  5   4   6  1   
  6   4  24  1   
  7   5   7  1   
  8   5  25  1   
  9   5  26  1   
 10   6   8  1   
 11   6   9  1   
 12   6  10  1   
 13   7  11  1   
 14   7  27  1   
 15   7  28  1   
 16   8  12  1   
 17   8  29  1   
 18   8  30  1   
 19   9  13  1   
 20   9  31  1   
 21   9  32  1   
 22  10  14  1   
 23  10  33  1   
 24  10  34  1   
 25  11  15  1   
 26  11  35  1   
 27  12  16  1   
 28  12  17  1   
 29  12  36  1   
 30  13  16  1   
 31  13  18  1   
 32  13  37  1   
 33  14  17  1   
 34  14  18  1   
 35  14  38  1   
 36  15  19  ar  
 37  15  20  ar  
 38  16  39  1   
 39  16  40  1   
 40  17  41  1   
 41  17  42  1   
 42  18  43  1   
 43  18  44  1   
 44  19  21  ar  
 45  19  45  1   
 46  20  22  ar  
 47  20  46  1   
 48  21  23  ar  
 49  21  47  1   
 50  22  23  ar  
 51  22  48  1   
 52  23  49  1   
@<TRIPOS>SUBSTRUCTURE
  1 ****  10 GROUP 4 **** **** 0

# MOE 2024.06 (io_trps.svl 2023.06)
