@<TRIPOS>MOLECULE
NONAME
55 57 1 0 0 
SMALL
USER_CHARGES


@<TRIPOS>ATOM
  1 O       -4.0940    -6.6900    -0.4520 O.3   1 <1>  -0.5600 
  2 C       -5.2030    -5.9010    -0.7660 C.3   1 <1>   0.2640 
  3 C       -3.2250    -6.9430    -1.5120 C.3   1 <1>   0.1200 
  4 C       -5.9340    -5.5690     0.5230 C.ar  1 <1>  -0.1440 
  5 C       -2.1340    -7.9200    -1.0320 C.3   1 <1>   0.2000 
  6 C       -6.4730    -6.5840     1.2990 C.ar  1 <1>  -0.1500 
  7 C       -6.0740    -4.2520     0.9370 C.ar  1 <1>  -0.1500 
  8 O       -1.8350    -7.6420     0.3040 O.3   1 <1>  -0.6800 
  9 C       -0.8340    -7.8670    -1.8690 C.3   1 <1>   0.3430 
 10 C       -7.1450    -6.2890     2.4730 C.ar  1 <1>  -0.1500 
 11 C       -6.7460    -3.9550     2.1100 C.ar  1 <1>  -0.1500 
 12 N        0.1970    -6.9970    -1.2200 N.4   1 <1>  -0.9590 
 13 C       -7.2820    -4.9730     2.8790 C.ar  1 <1>  -0.1500 
 14 C       -0.0110    -5.5220    -1.4460 C.3   1 <1>   0.3430 
 15 C        1.6110    -7.4150    -1.5320 C.3   1 <1>   0.3430 
 16 C        1.0350    -4.6620    -0.7090 C.3   1 <1>   0.2090 
 17 C        2.6570    -6.5490    -0.8000 C.3   1 <1>   0.2090 
 18 N        2.4210    -5.0960    -1.0520 N.pl3 1 <1>  -0.8380 
 19 C        3.4310    -4.2520    -0.5670 C.ar  1 <1>   0.1000 
 20 C        3.7120    -4.0660     0.8000 C.ar  1 <1>   0.0830 
 21 C        4.1900    -3.5650    -1.5030 C.ar  1 <1>  -0.1500 
 22 O        2.9570    -4.7490     1.7190 O.3   1 <1>  -0.3630 
 23 C        4.7370    -3.2050     1.1790 C.ar  1 <1>  -0.1500 
 24 C        5.2060    -2.7110    -1.1180 C.ar  1 <1>  -0.1500 
 25 C        3.1660    -4.5860     3.1050 C.3   1 <1>   0.0400 
 26 C        5.4800    -2.5310     0.2250 C.ar  1 <1>  -0.1500 
 27 H       -5.8470    -6.4550    -1.4270 H     1 <1>   0.0800 
 28 H       -4.8680    -5.0010    -1.2520 H     1 <1>   0.0800 
 29 H       -2.7980    -6.0080    -1.8280 H     1 <1>   0.0800 
 30 H       -3.7800    -7.3740    -2.3280 H     1 <1>   0.0800 
 31 H       -2.5410    -8.9160    -1.0720 H     1 <1>   0.0800 
 32 H       -6.3690    -7.6100     0.9920 H     1 <1>   0.1500 
 33 H       -5.6620    -3.4490     0.3520 H     1 <1>   0.1500 
 34 H       -2.6890    -7.3860     0.7370 H     1 <1>   0.4000 
 35 H       -1.0410    -7.5370    -2.8740 H     1 <1>   0.0800 
 36 H       -0.4530    -8.8730    -1.9320 H     1 <1>   0.0800 
 37 H       -7.5600    -7.0820     3.0700 H     1 <1>   0.1500 
 38 H       -6.8530    -2.9320     2.4270 H     1 <1>   0.1500 
 39 H        0.0260    -7.1480    -0.2060 H     1 <1>   0.4500 
 40 H       -7.8050    -4.7430     3.7910 H     1 <1>   0.1500 
 41 H       -0.9900    -5.2350    -1.1030 H     1 <1>   0.0800 
 42 H        0.0580    -5.3030    -2.4980 H     1 <1>   0.0800 
 43 H        1.7880    -7.3250    -2.5910 H     1 <1>   0.0800 
 44 H        1.7590    -8.4450    -1.2550 H     1 <1>   0.0800 
 45 H        0.8750    -4.7380     0.3520 H     1 <1>   0.0800 
 46 H        0.9110    -3.6290    -0.9870 H     1 <1>   0.0800 
 47 H        3.6430    -6.8090    -1.1450 H     1 <1>   0.0800 
 48 H        2.6140    -6.7510     0.2560 H     1 <1>   0.0800 
 49 H        3.9770    -3.7060    -2.5470 H     1 <1>   0.1500 
 50 H        4.9810    -3.0380     2.2110 H     1 <1>   0.1500 
 51 H        5.7820    -2.1880    -1.8610 H     1 <1>   0.1500 
 52 H        2.4580    -5.2040     3.6260 H     1 <1>   0.0800 
 53 H        3.0070    -3.5540     3.3640 H     1 <1>   0.0800 
 54 H        4.1670    -4.8950     3.3480 H     1 <1>   0.0800 
 55 H        6.2710    -1.8660     0.5270 H     1 <1>   0.1500 
@<TRIPOS>BOND
  1   1   2  1   
  2   1   3  1   
  3   2   4  1   
  4   2  27  1   
  5   2  28  1   
  6   3   5  1   
  7   3  29  1   
  8   3  30  1   
  9   4   6  ar  
 10   4   7  ar  
 11   5   8  1   
 12   5   9  1   
 13   5  31  1   
 14   6  10  ar  
 15   6  32  1   
 16   7  11  ar  
 17   7  33  1   
 18   8  34  1   
 19   9  12  1   
 20   9  35  1   
 21   9  36  1   
 22  10  13  ar  
 23  10  37  1   
 24  11  13  ar  
 25  11  38  1   
 26  12  14  1   
 27  12  15  1   
 28  12  39  1   
 29  13  40  1   
 30  14  16  1   
 31  14  41  1   
 32  14  42  1   
 33  15  17  1   
 34  15  43  1   
 35  15  44  1   
 36  16  18  1   
 37  16  45  1   
 38  16  46  1   
 39  17  18  1   
 40  17  47  1   
 41  17  48  1   
 42  18  19  1   
 43  19  20  ar  
 44  19  21  ar  
 45  20  22  1   
 46  20  23  ar  
 47  21  24  ar  
 48  21  49  1   
 49  22  25  1   
 50  23  26  ar  
 51  23  50  1   
 52  24  26  ar  
 53  24  51  1   
 54  25  52  1   
 55  25  53  1   
 56  25  54  1   
 57  26  55  1   
@<TRIPOS>SUBSTRUCTURE
  1 ****  14 GROUP 4 **** **** 0

# MOE 2024.06 (io_trps.svl 2023.06)
