@<TRIPOS>MOLECULE
NONAME
48 50 1 0 0 
SMALL
USER_CHARGES


@<TRIPOS>ATOM
  1 CL      -0.1520     0.5170    -0.8610 Cl    1 <1>  -0.1770 
  2 C       -1.2240    -0.8320    -0.5970 C.ar  1 <1>   0.1770 
  3 C       -2.1900    -1.1270    -1.5380 C.ar  1 <1>  -0.1500 
  4 C       -1.0930    -1.5890     0.5510 C.ar  1 <1>  -0.1500 
  5 C       -3.0390    -2.2000    -1.3200 C.ar  1 <1>  -0.1500 
  6 C       -1.9500    -2.6590     0.7570 C.ar  1 <1>  -0.1500 
  7 C       -2.9380    -2.9800    -0.1710 C.ar  1 <1>  -0.0090 
  8 S       -4.0620    -4.3810     0.1000 S.o2  1 <1>   1.4470 
  9 O       -4.0340    -4.7850     1.4900 O.2   1 <1>  -0.6500 
 10 O       -3.8400    -5.3710    -0.9310 O.2   1 <1>  -0.6500 
 11 N       -5.5950    -3.7080    -0.1710 N.am  1 <1>  -0.8490 
 12 C       -5.9890    -2.7910     0.9040 C.3   1 <1>   0.1960 
 13 C       -6.6020    -4.7520    -0.3750 C.3   1 <1>   0.1960 
 14 C       -7.3040    -2.0980     0.5490 C.3   1 <1>  -0.1600 
 15 C       -7.9470    -4.1290    -0.7580 C.3   1 <1>  -0.1600 
 16 C       -8.4040    -3.1270     0.3050 C.3   1 <1>   0.1900 
 17 N       -9.5880    -2.4140    -0.1450 N.3   1 <1>  -0.9000 
 18 C      -10.8520    -3.1700    -0.0180 C.3   1 <1>   0.2510 
 19 C      -11.9660    -2.6500    -0.9340 C.2   1 <1>   0.5690 
 20 C      -11.4390    -2.9870     1.3900 C.3   1 <1>  -0.0990 
 21 O      -11.8840    -2.6290    -2.1390 O.2   1 <1>  -0.5700 
 22 N      -13.0360    -2.2460    -0.2020 N.am  1 <1>  -0.4200 
 23 C      -12.8100    -2.4110     1.1270 C.2   1 <1>   0.5690 
 24 C      -14.2760    -1.6850    -0.7760 C.3   1 <1>   0.1400 
 25 O      -13.5900    -2.1580     2.0090 O.2   1 <1>  -0.5700 
 26 C      -15.2670    -2.8110    -1.0670 C.3   1 <1>  -0.2400 
 27 H       -2.2730    -0.5270    -2.4260 H     1 <1>   0.1500 
 28 H       -0.3310    -1.3440     1.2700 H     1 <1>   0.1500 
 29 H       -3.7950    -2.4380    -2.0510 H     1 <1>   0.1500 
 30 H       -1.8500    -3.2530     1.6510 H     1 <1>   0.1500 
 31 H       -5.2280    -2.0410     1.0430 H     1 <1>   0.0800 
 32 H       -6.1000    -3.3320     1.8310 H     1 <1>   0.0800 
 33 H       -6.7040    -5.3420     0.5220 H     1 <1>   0.0800 
 34 H       -6.2910    -5.4070    -1.1730 H     1 <1>   0.0800 
 35 H       -7.1530    -1.4980    -0.3310 H     1 <1>   0.0800 
 36 H       -7.5940    -1.4510     1.3560 H     1 <1>   0.0800 
 37 H       -8.6680    -4.9170    -0.8660 H     1 <1>   0.0800 
 38 H       -7.8350    -3.6370    -1.7080 H     1 <1>   0.0800 
 39 H       -8.6110    -3.6390     1.2320 H     1 <1>   0.0800 
 40 H       -9.4590    -2.1830    -1.1420 H     1 <1>   0.3600 
 41 H      -10.7040    -4.2120    -0.2380 H     1 <1>   0.0800 
 42 H      -10.8670    -2.2960     1.9820 H     1 <1>   0.0800 
 43 H      -11.5340    -3.9270     1.8980 H     1 <1>   0.0800 
 44 H      -14.0410    -1.1560    -1.6850 H     1 <1>   0.0800 
 45 H      -14.7080    -0.9870    -0.0780 H     1 <1>   0.0800 
 46 H      -14.8490    -3.5010    -1.7790 H     1 <1>   0.0800 
 47 H      -16.1690    -2.4000    -1.4820 H     1 <1>   0.0800 
 48 H      -15.5160    -3.3320    -0.1600 H     1 <1>   0.0800 
@<TRIPOS>BOND
  1   1   2  1   
  2   2   3  ar  
  3   2   4  ar  
  4   3   5  ar  
  5   3  27  1   
  6   4   6  ar  
  7   4  28  1   
  8   5   7  ar  
  9   5  29  1   
 10   6   7  ar  
 11   6  30  1   
 12   7   8  1   
 13   8   9  2   
 14   8  10  2   
 15   8  11  am  
 16  11  12  1   
 17  11  13  1   
 18  12  14  1   
 19  12  31  1   
 20  12  32  1   
 21  13  15  1   
 22  13  33  1   
 23  13  34  1   
 24  14  16  1   
 25  14  35  1   
 26  14  36  1   
 27  15  16  1   
 28  15  37  1   
 29  15  38  1   
 30  16  17  1   
 31  16  39  1   
 32  17  18  1   
 33  17  40  1   
 34  18  19  1   
 35  18  20  1   
 36  18  41  1   
 37  19  21  2   
 38  19  22  am  
 39  20  23  1   
 40  20  42  1   
 41  20  43  1   
 42  22  23  am  
 43  22  24  1   
 44  23  25  2   
 45  24  26  1   
 46  24  44  1   
 47  24  45  1   
 48  26  46  1   
 49  26  47  1   
 50  26  48  1   
@<TRIPOS>SUBSTRUCTURE
  1 ****  14 GROUP 4 **** **** 0

# MOE 2024.06 (io_trps.svl 2023.06)
