@<TRIPOS>MOLECULE
NONAME
36 38 1 0 0 
SMALL
USER_CHARGES


@<TRIPOS>ATOM
  1 O        0.1600     0.6610    -0.7610 O.2   1 <1>  -0.5700 
  2 C        0.0090     1.8200    -0.4260 C.2   1 <1>   0.5440 
  3 N        1.1130     2.5700    -0.1370 N.am  1 <1>  -0.7300 
  4 C       -1.3210     2.3960    -0.3150 C.ar  1 <1>   0.0860 
  5 C        2.5120     2.1010    -0.1980 C.3   1 <1>   0.2200 
  6 C       -2.4220     1.6000    -0.0020 C.ar  1 <1>  -0.1500 
  7 C       -1.5530     3.7590    -0.5130 C.ar  1 <1>  -0.1500 
  8 C        3.1650     2.2130     1.1910 C.3   1 <1>  -0.0800 
  9 C        3.3550     3.0690    -1.0470 C.3   1 <1>  -0.1600 
 10 C       -3.6960     2.1280     0.1240 C.ar  1 <1>  -0.1430 
 11 C       -2.8200     4.2990    -0.3880 C.ar  1 <1>  -0.1500 
 12 C        3.5960     3.6730     1.2340 C.3   1 <1>  -0.1600 
 13 C        4.5290     1.5020     1.1310 C.3   1 <1>  -0.1600 
 14 C        4.4030     3.5990    -0.0510 C.3   1 <1>  -0.0800 
 15 C       -3.8910     3.4850    -0.0680 C.ar  1 <1>  -0.1500 
 16 C       -4.8740     1.2340     0.4690 C.3   1 <1>  -0.0970 
 17 C        5.3790     2.4560     0.2720 C.3   1 <1>  -0.1600 
 18 H        0.9950     3.4950     0.2690 H     1 <1>   0.3700 
 19 H        2.5610     1.0930    -0.5780 H     1 <1>   0.0800 
 20 H       -2.2630     0.5450     0.1440 H     1 <1>   0.1500 
 21 H       -0.7350     4.4050    -0.7760 H     1 <1>   0.1500 
 22 H        2.5380     1.8760     1.9980 H     1 <1>   0.0800 
 23 H        2.7570     3.8760    -1.4310 H     1 <1>   0.0800 
 24 H        3.8200     2.5560    -1.8700 H     1 <1>   0.0800 
 25 H       -2.9770     5.3520    -0.5430 H     1 <1>   0.1500 
 26 H        4.2030     3.9030     2.0950 H     1 <1>   0.0800 
 27 H        2.7720     4.3630     1.1710 H     1 <1>   0.0800 
 28 H        4.4510     0.5220     0.6930 H     1 <1>   0.0800 
 29 H        4.9480     1.4160     2.1190 H     1 <1>   0.0800 
 30 H        4.8800     4.5150    -0.3540 H     1 <1>   0.0800 
 31 H       -4.8750     3.9090     0.0290 H     1 <1>   0.1500 
 32 H       -4.6260     0.1990     0.3140 H     1 <1>   0.0800 
 33 H       -5.7180     1.4770    -0.1520 H     1 <1>   0.0800 
 34 H       -5.1470     1.3740     1.4990 H     1 <1>   0.0800 
 35 H        5.7490     1.9760    -0.6180 H     1 <1>   0.0800 
 36 H        6.2120     2.8270     0.8440 H     1 <1>   0.0800 
@<TRIPOS>BOND
  1   1   2  2   
  2   2   3  am  
  3   2   4  1   
  4   3   5  1   
  5   3  18  1   
  6   4   6  ar  
  7   4   7  ar  
  8   5   8  1   
  9   5   9  1   
 10   5  19  1   
 11   6  10  ar  
 12   6  20  1   
 13   7  11  ar  
 14   7  21  1   
 15   8  12  1   
 16   8  13  1   
 17   8  22  1   
 18   9  14  1   
 19   9  23  1   
 20   9  24  1   
 21  10  15  ar  
 22  10  16  1   
 23  11  15  ar  
 24  11  25  1   
 25  12  14  1   
 26  12  26  1   
 27  12  27  1   
 28  13  17  1   
 29  13  28  1   
 30  13  29  1   
 31  14  17  1   
 32  14  30  1   
 33  15  31  1   
 34  16  32  1   
 35  16  33  1   
 36  16  34  1   
 37  17  35  1   
 38  17  36  1   
@<TRIPOS>SUBSTRUCTURE
  1 ****   3 GROUP 4 **** **** 0

# MOE 2024.06 (io_trps.svl 2023.06)
