@<TRIPOS>MOLECULE
NONAME
40 41 1 0 0 
SMALL
USER_CHARGES


@<TRIPOS>ATOM
  1 O        0.6210    -0.6490    -2.1340 O.2   1 <1>  -0.5700 
  2 C        1.0550    -1.7500    -1.8580 C.2   1 <1>   0.5440 
  3 N        2.3830    -2.0180    -2.1300 N.am  1 <1>  -0.6600 
  4 C        0.2020    -2.7200    -1.2150 C.ar  1 <1>   0.0860 
  5 C        3.2540    -0.9730    -2.7380 C.3   1 <1>   0.1400 
  6 C        3.1540    -3.0390    -1.3650 C.3   1 <1>   0.1400 
  7 C        0.1740    -2.8410     0.1770 C.ar  1 <1>   0.0830 
  8 C       -0.6100    -3.5740    -1.9600 C.ar  1 <1>  -0.1500 
  9 C        4.0190    -0.2470    -1.6180 C.3   1 <1>   0.3430 
 10 C        3.9470    -2.3420    -0.2400 C.3   1 <1>   0.3430 
 11 O        0.9380    -2.0340     0.9400 O.3   1 <1>  -0.3630 
 12 C       -0.6190    -3.7950     0.7960 C.ar  1 <1>  -0.1500 
 13 C       -1.4070    -4.5220    -1.3450 C.ar  1 <1>  -0.1500 
 14 N        4.8030    -1.2060    -0.7540 N.4   1 <1>  -0.9590 
 15 C        0.2830    -0.9010     1.4700 C.3   1 <1>   0.0400 
 16 C       -1.4110    -4.6350     0.0360 C.ar  1 <1>  -0.1500 
 17 C        5.4770    -0.4890     0.3480 C.3   1 <1>   0.4810 
 18 C        6.5780    -1.3900     0.8570 C.2   1 <1>  -0.2880 
 19 C        7.8820    -1.2290     0.6080 C.2   1 <1>  -0.3000 
 20 H        2.6640    -0.2620    -3.2940 H     1 <1>   0.0800 
 21 H        3.9420    -1.4290    -3.4280 H     1 <1>   0.0800 
 22 H        3.8290    -3.5510    -2.0290 H     1 <1>   0.0800 
 23 H        2.5000    -3.7790    -0.9380 H     1 <1>   0.0800 
 24 H       -0.6140    -3.4860    -3.0330 H     1 <1>   0.1500 
 25 H        3.2970     0.2800    -1.0150 H     1 <1>   0.0800 
 26 H        4.6800     0.4810    -2.0570 H     1 <1>   0.0800 
 27 H        4.5640    -3.0720     0.2570 H     1 <1>   0.0800 
 28 H        3.2420    -1.9630     0.4810 H     1 <1>   0.0800 
 29 H       -0.6170    -3.8780     1.8690 H     1 <1>   0.1500 
 30 H       -2.0290    -5.1720    -1.9370 H     1 <1>   0.1500 
 31 H        5.5550    -1.6150    -1.3240 H     1 <1>   0.4500 
 32 H        0.9870    -0.3430     2.0610 H     1 <1>   0.0800 
 33 H       -0.5380    -1.2250     2.0860 H     1 <1>   0.0800 
 34 H       -0.0790    -0.2950     0.6570 H     1 <1>   0.0800 
 35 H       -2.0310    -5.3750     0.5130 H     1 <1>   0.1500 
 36 H        4.7830    -0.2410     1.1350 H     1 <1>   0.0800 
 37 H        5.9160     0.4230    -0.0260 H     1 <1>   0.0800 
 38 H        6.2140    -2.1980     1.4690 H     1 <1>   0.1500 
 39 H        8.6500    -1.8840     0.9900 H     1 <1>   0.1500 
 40 H        8.3090    -0.4380     0.0120 H     1 <1>   0.1500 
@<TRIPOS>BOND
  1   1   2  2   
  2   2   3  am  
  3   2   4  1   
  4   3   5  1   
  5   3   6  1   
  6   4   7  ar  
  7   4   8  ar  
  8   5   9  1   
  9   5  20  1   
 10   5  21  1   
 11   6  10  1   
 12   6  22  1   
 13   6  23  1   
 14   7  11  1   
 15   7  12  ar  
 16   8  13  ar  
 17   8  24  1   
 18   9  14  1   
 19   9  25  1   
 20   9  26  1   
 21  10  14  1   
 22  10  27  1   
 23  10  28  1   
 24  11  15  1   
 25  12  16  ar  
 26  12  29  1   
 27  13  16  ar  
 28  13  30  1   
 29  14  17  1   
 30  14  31  1   
 31  15  32  1   
 32  15  33  1   
 33  15  34  1   
 34  16  35  1   
 35  17  18  1   
 36  17  36  1   
 37  17  37  1   
 38  18  19  2   
 39  18  38  1   
 40  19  39  1   
 41  19  40  1   
@<TRIPOS>SUBSTRUCTURE
  1 ****   3 GROUP 4 **** **** 0

# MOE 2024.06 (io_trps.svl 2023.06)
