@<TRIPOS>MOLECULE
NONAME
40 41 1 0 0 
SMALL
USER_CHARGES


@<TRIPOS>ATOM
  1 O       -0.0510    -0.4170     0.3890 O.3   1 <1>  -0.5600 
  2 C       -0.9330    -0.9850    -0.5210 C.3   1 <1>   0.2640 
  3 C        0.3370     0.8820     0.0780 C.3   1 <1>   0.0400 
  4 C       -1.0500    -2.4640    -0.1860 C.ar  1 <1>  -0.1440 
  5 C       -0.0480    -3.3730    -0.4930 C.ar  1 <1>   0.0730 
  6 C       -2.1710    -2.9550     0.4540 C.ar  1 <1>  -0.1500 
  7 C        1.1540    -2.9720    -1.1590 C.1   1 <1>   0.4840 
  8 C       -0.2310    -4.7210    -0.1470 C.ar  1 <1>   0.4100 
  9 C       -2.2570    -4.3030     0.7490 C.ar  1 <1>   0.1660 
 10 N        2.0970    -2.6540    -1.7190 N.1   1 <1>  -0.5570 
 11 N       -1.3210    -5.1830     0.4590 N.ar  1 <1>  -0.6200 
 12 N        0.7380    -5.6640    -0.4310 N.pl3 1 <1>  -0.8690 
 13 C       -3.4820    -4.8530     1.4490 C.3   1 <1>  -0.0970 
 14 C        0.7460    -7.0130     0.1780 C.3   1 <1>   0.2090 
 15 C        1.9770    -7.7850    -0.3070 C.3   1 <1>  -0.0170 
 16 C        3.2630    -7.0110    -0.0460 C.ar  1 <1>  -0.1430 
 17 C        3.8810    -7.0730     1.1930 C.ar  1 <1>  -0.1500 
 18 C        3.8170    -6.2200    -1.0430 C.ar  1 <1>  -0.1500 
 19 C        5.0370    -6.3510     1.4350 C.ar  1 <1>  -0.1500 
 20 C        4.9700    -5.4950    -0.8000 C.ar  1 <1>  -0.1500 
 21 C        5.5810    -5.5600     0.4390 C.ar  1 <1>  -0.1500 
 22 H       -0.5500    -0.8490    -1.5190 H     1 <1>   0.0800 
 23 H       -1.8840    -0.4880    -0.4300 H     1 <1>   0.0800 
 24 H        0.9930     1.2290     0.8560 H     1 <1>   0.0800 
 25 H       -0.5330     1.5140     0.0270 H     1 <1>   0.0800 
 26 H        0.8640     0.8790    -0.8610 H     1 <1>   0.0800 
 27 H       -2.9710    -2.2920     0.7260 H     1 <1>   0.1500 
 28 H        1.6970    -5.3100    -0.5430 H     1 <1>   0.4000 
 29 H       -4.1980    -4.0780     1.6500 H     1 <1>   0.0800 
 30 H       -3.1890    -5.3050     2.3790 H     1 <1>   0.0800 
 31 H       -3.9420    -5.6020     0.8310 H     1 <1>   0.0800 
 32 H       -0.1540    -7.5380    -0.0950 H     1 <1>   0.0800 
 33 H        0.7740    -6.9140     1.2500 H     1 <1>   0.0800 
 34 H        1.8710    -7.9850    -1.3580 H     1 <1>   0.0800 
 35 H        2.0170    -8.7330     0.1980 H     1 <1>   0.0800 
 36 H        3.4630    -7.6800     1.9770 H     1 <1>   0.1500 
 37 H        3.3500    -6.1590    -2.0110 H     1 <1>   0.1500 
 38 H        5.5110    -6.4020     2.4000 H     1 <1>   0.1500 
 39 H        5.3870    -4.8760    -1.5760 H     1 <1>   0.1500 
 40 H        6.4770    -4.9960     0.6270 H     1 <1>   0.1500 
@<TRIPOS>BOND
  1   1   2  1   
  2   1   3  1   
  3   2   4  1   
  4   2  22  1   
  5   2  23  1   
  6   3  24  1   
  7   3  25  1   
  8   3  26  1   
  9   4   5  ar  
 10   4   6  ar  
 11   5   7  1   
 12   5   8  ar  
 13   6   9  ar  
 14   6  27  1   
 15   7  10  3   
 16   8  11  ar  
 17   8  12  1   
 18   9  11  ar  
 19   9  13  1   
 20  12  14  1   
 21  12  28  1   
 22  13  29  1   
 23  13  30  1   
 24  13  31  1   
 25  14  15  1   
 26  14  32  1   
 27  14  33  1   
 28  15  16  1   
 29  15  34  1   
 30  15  35  1   
 31  16  17  ar  
 32  16  18  ar  
 33  17  19  ar  
 34  17  36  1   
 35  18  20  ar  
 36  18  37  1   
 37  19  21  ar  
 38  19  38  1   
 39  20  21  ar  
 40  20  39  1   
 41  21  40  1   
@<TRIPOS>SUBSTRUCTURE
  1 ****   8 GROUP 4 **** **** 0

# MOE 2024.06 (io_trps.svl 2023.06)
