@<TRIPOS>MOLECULE
NONAME
41 43 1 0 0 
SMALL
USER_CHARGES


@<TRIPOS>ATOM
  1 O      -12.0700     4.9710     0.9670 O.2   1 <1>  -0.5700 
  2 C      -10.9510     5.2630     0.6010 C.2   1 <1>   0.6340 
  3 O      -10.6050     6.5550     0.5730 O.3   1 <1>  -0.4300 
  4 C       -9.9370     4.3030     0.2150 C.ar  1 <1>   0.0860 
  5 C      -11.5070     7.5790     0.9450 C.3   1 <1>   0.0400 
  6 C      -10.2140     3.0850    -0.4710 C.ar  1 <1>   0.0000 
  7 C       -8.6210     4.5390     0.5060 C.ar  1 <1>  -0.1500 
  8 C       -9.1270     2.2220    -0.7530 C.ar  1 <1>   0.3100 
  9 C      -11.4980     2.6850    -0.9050 C.ar  1 <1>  -0.1500 
 10 C       -7.6190     3.6260     0.1730 C.ar  1 <1>   0.4100 
 11 N       -7.8420     2.4960    -0.4310 N.ar  1 <1>  -0.6200 
 12 C       -9.3760     1.0080    -1.4160 C.ar  1 <1>  -0.1500 
 13 C      -11.7050     1.4980    -1.5540 C.ar  1 <1>  -0.1500 
 14 N       -6.3150     3.9150     0.4920 N.pl3 1 <1>  -0.8380 
 15 C      -10.6330     0.6450    -1.8110 C.ar  1 <1>  -0.1500 
 16 C       -5.6920     3.0430     1.5330 C.3   1 <1>   0.2090 
 17 C       -5.4170     4.2180    -0.6630 C.3   1 <1>   0.2090 
 18 C       -5.0740     1.7700     0.9100 C.3   1 <1>   0.3430 
 19 C       -4.8060     2.9280    -1.2570 C.3   1 <1>   0.3430 
 20 N       -4.1160     2.0770    -0.2170 N.4   1 <1>  -0.9590 
 21 C       -3.5860     0.8200    -0.8240 C.3   1 <1>   0.2630 
 22 H      -11.0100     8.5260     0.8420 H     1 <1>   0.0800 
 23 H      -11.8050     7.4250     1.9680 H     1 <1>   0.0800 
 24 H      -12.3670     7.5370     0.2990 H     1 <1>   0.0800 
 25 H       -8.3170     5.4380     1.0110 H     1 <1>   0.1500 
 26 H      -12.3480     3.3200    -0.7290 H     1 <1>   0.1500 
 27 H       -8.5410     0.3620    -1.6100 H     1 <1>   0.1500 
 28 H      -12.6940     1.2110    -1.8720 H     1 <1>   0.1500 
 29 H      -10.8110    -0.2880    -2.3190 H     1 <1>   0.1500 
 30 H       -6.4410     2.7540     2.2510 H     1 <1>   0.0800 
 31 H       -4.9360     3.5990     2.0590 H     1 <1>   0.0800 
 32 H       -4.6340     4.8830    -0.3430 H     1 <1>   0.0800 
 33 H       -5.9810     4.7240    -1.4290 H     1 <1>   0.0800 
 34 H       -5.8830     1.1620     0.5360 H     1 <1>   0.0800 
 35 H       -4.5700     1.2100     1.6800 H     1 <1>   0.0800 
 36 H       -4.1110     3.1950    -2.0360 H     1 <1>   0.0800 
 37 H       -5.6070     2.3630    -1.7080 H     1 <1>   0.0800 
 38 H       -3.3380     2.6260     0.1720 H     1 <1>   0.4500 
 39 H       -4.3930     0.2350    -1.2360 H     1 <1>   0.0800 
 40 H       -3.0780     0.2290    -0.0780 H     1 <1>   0.0800 
 41 H       -2.8880     1.0490    -1.6130 H     1 <1>   0.0800 
@<TRIPOS>BOND
  1   1   2  2   
  2   2   3  1   
  3   2   4  1   
  4   3   5  1   
  5   4   6  ar  
  6   4   7  ar  
  7   5  22  1   
  8   5  23  1   
  9   5  24  1   
 10   6   8  ar  
 11   6   9  ar  
 12   7  10  ar  
 13   7  25  1   
 14   8  11  ar  
 15   8  12  ar  
 16   9  13  ar  
 17   9  26  1   
 18  10  11  ar  
 19  10  14  1   
 20  12  15  ar  
 21  12  27  1   
 22  13  15  ar  
 23  13  28  1   
 24  14  16  1   
 25  14  17  1   
 26  15  29  1   
 27  16  18  1   
 28  16  30  1   
 29  16  31  1   
 30  17  19  1   
 31  17  32  1   
 32  17  33  1   
 33  18  20  1   
 34  18  34  1   
 35  18  35  1   
 36  19  20  1   
 37  19  36  1   
 38  19  37  1   
 39  20  21  1   
 40  20  38  1   
 41  21  39  1   
 42  21  40  1   
 43  21  41  1   
@<TRIPOS>SUBSTRUCTURE
  1 ****  10 GROUP 4 **** **** 0

# MOE 2024.06 (io_trps.svl 2023.06)
