@<TRIPOS>MOLECULE
NONAME
45 46 1 0 0 
SMALL
USER_CHARGES


@<TRIPOS>ATOM
  1 O       -0.5030     0.9500     0.7150 O.2   1 <1>  -0.5700 
  2 C       -0.2400     1.8800    -0.0260 C.2   1 <1>   0.5440 
  3 N       -1.3020     2.4850    -0.6600 N.am  1 <1>  -0.6600 
  4 C        1.1220     2.3630    -0.1720 C.ar  1 <1>   0.0860 
  5 C       -2.5180     1.6720    -0.9530 C.3   1 <1>   0.1400 
  6 C       -1.6050     3.9110    -0.3510 C.3   1 <1>   0.1400 
  7 C        2.0810     2.1260     0.8160 C.ar  1 <1>  -0.1500 
  8 C        1.5320     3.0840    -1.2970 C.ar  1 <1>  -0.1500 
  9 C       -3.4920     1.7400     0.2370 C.3   1 <1>   0.3430 
 10 C       -2.6060     3.9950     0.8230 C.3   1 <1>   0.3430 
 11 C        3.3770     2.5950     0.7010 C.ar  1 <1>  -0.1500 
 12 C        2.8250     3.5580    -1.4180 C.ar  1 <1>  -0.1500 
 13 N       -3.8470     3.1650     0.5930 N.4   1 <1>  -0.9590 
 14 C        3.7580     3.3220    -0.4220 C.ar  1 <1>   0.0830 
 15 C       -4.7370     3.1970     1.7920 C.3   1 <1>   0.2630 
 16 O        4.9990     3.8200    -0.6160 O.3   1 <1>  -0.3630 
 17 C        6.0410     3.6000     0.3080 C.3   1 <1>   0.1200 
 18 C        7.3040     4.2740    -0.2260 C.3   1 <1>  -0.1600 
 19 C        8.4870     4.0760     0.7300 C.3   1 <1>  -0.1600 
 20 C        9.7500     4.7530     0.1900 C.3   1 <1>  -0.2400 
 21 H       -2.2340     0.6460    -1.1230 H     1 <1>   0.0800 
 22 H       -2.9920     2.0340    -1.8490 H     1 <1>   0.0800 
 23 H       -2.0140     4.3900    -1.2230 H     1 <1>   0.0800 
 24 H       -0.7010     4.4310    -0.0820 H     1 <1>   0.0800 
 25 H        1.8020     1.5590     1.6880 H     1 <1>   0.1500 
 26 H        0.8320     3.2700    -2.0920 H     1 <1>   0.1500 
 27 H       -3.0190     1.2610     1.0800 H     1 <1>   0.0800 
 28 H       -4.3840     1.1850    -0.0020 H     1 <1>   0.0800 
 29 H       -2.8790     5.0260     0.9820 H     1 <1>   0.0800 
 30 H       -2.1060     3.6460     1.7120 H     1 <1>   0.0800 
 31 H        4.0750     2.3850     1.4900 H     1 <1>   0.1500 
 32 H        3.1260     4.1120    -2.2890 H     1 <1>   0.1500 
 33 H       -4.3530     3.5680    -0.2090 H     1 <1>   0.4500 
 34 H       -4.2310     2.7710     2.6440 H     1 <1>   0.0800 
 35 H       -5.6350     2.6290     1.6080 H     1 <1>   0.0800 
 36 H       -5.0150     4.2110     2.0280 H     1 <1>   0.0800 
 37 H        6.1890     2.5380     0.4050 H     1 <1>   0.0800 
 38 H        5.7530     4.0260     1.2530 H     1 <1>   0.0800 
 39 H        7.1140     5.3270    -0.3480 H     1 <1>   0.0800 
 40 H        7.5460     3.8540    -1.1870 H     1 <1>   0.0800 
 41 H        8.6790     3.0240     0.8580 H     1 <1>   0.0800 
 42 H        8.2480     4.4930     1.6940 H     1 <1>   0.0800 
 43 H       10.0210     4.3380    -0.7650 H     1 <1>   0.0800 
 44 H       10.5680     4.6050     0.8720 H     1 <1>   0.0800 
 45 H        9.5890     5.8110     0.0740 H     1 <1>   0.0800 
@<TRIPOS>BOND
  1   1   2  2   
  2   2   3  am  
  3   2   4  1   
  4   3   5  1   
  5   3   6  1   
  6   4   7  ar  
  7   4   8  ar  
  8   5   9  1   
  9   5  21  1   
 10   5  22  1   
 11   6  10  1   
 12   6  23  1   
 13   6  24  1   
 14   7  11  ar  
 15   7  25  1   
 16   8  12  ar  
 17   8  26  1   
 18   9  13  1   
 19   9  27  1   
 20   9  28  1   
 21  10  13  1   
 22  10  29  1   
 23  10  30  1   
 24  11  14  ar  
 25  11  31  1   
 26  12  14  ar  
 27  12  32  1   
 28  13  15  1   
 29  13  33  1   
 30  14  16  1   
 31  15  34  1   
 32  15  35  1   
 33  15  36  1   
 34  16  17  1   
 35  17  18  1   
 36  17  37  1   
 37  17  38  1   
 38  18  19  1   
 39  18  39  1   
 40  18  40  1   
 41  19  20  1   
 42  19  41  1   
 43  19  42  1   
 44  20  43  1   
 45  20  44  1   
 46  20  45  1   
@<TRIPOS>SUBSTRUCTURE
  1 ****   4 GROUP 4 **** **** 0

# MOE 2024.06 (io_trps.svl 2023.06)
