@<TRIPOS>MOLECULE
NONAME
37 40 1 0 0 
SMALL
USER_CHARGES


@<TRIPOS>ATOM
  1 S        0.4540    -0.0010     0.7740 S.3   1 <1>  -0.3320 
  2 C        1.3220     1.5320     0.4650 C.ar  1 <1>   0.7220 
  3 C       -1.2290     0.2390     0.0450 C.3   1 <1>  -0.0100 
  4 N        0.6360     2.4820    -0.1780 N.ar  1 <1>  -0.3100 
  5 N        2.5560     1.5710     0.9030 N.ar  1 <1>  -0.6200 
  6 N        1.2170     3.6240    -0.4360 N.ar  1 <1>  -0.3100 
  7 C        3.1280     2.7260     0.6240 C.ar  1 <1>   0.3930 
  8 C        2.4860     3.7740    -0.0400 C.ar  1 <1>   0.3100 
  9 O        4.3820     2.8600     1.0650 O.3   1 <1>  -0.3620 
 10 C        3.1590     5.0260    -0.2900 C.ar  1 <1>   0.0000 
 11 C        5.4280     2.8670     0.1330 C.3   1 <1>   0.6490 
 12 C        4.4980     5.0430    -0.7070 C.ar  1 <1>   0.1000 
 13 C        2.5000     6.2450    -0.1270 C.ar  1 <1>  -0.1500 
 14 N        5.2120     3.8710    -0.9220 N.pl3 1 <1>  -0.8690 
 15 C        5.6360     1.4930    -0.4930 C.3   1 <1>  -0.1600 
 16 C        6.7480     3.1440     0.8380 C.3   1 <1>  -0.1600 
 17 C        5.1270     6.2580    -0.9490 C.ar  1 <1>  -0.1500 
 18 C        3.1380     7.4470    -0.3650 C.ar  1 <1>  -0.1500 
 19 C        7.1190     1.4320    -0.8830 C.3   1 <1>  -0.1600 
 20 C        7.8330     2.4930    -0.0330 C.3   1 <1>  -0.1600 
 21 C        4.4590     7.4540    -0.7780 C.ar  1 <1>  -0.1500 
 22 H       -1.7870    -0.6660     0.2040 H     1 <1>   0.0800 
 23 H       -1.1110     0.4390    -1.0050 H     1 <1>   0.0800 
 24 H       -1.6930     1.0700     0.5460 H     1 <1>   0.0800 
 25 H        1.4710     6.2500     0.1900 H     1 <1>   0.1500 
 26 H        6.0880     3.9900    -1.4320 H     1 <1>   0.4000 
 27 H        4.9860     1.3350    -1.3350 H     1 <1>   0.0800 
 28 H        5.4420     0.7410     0.2530 H     1 <1>   0.0800 
 29 H        6.7350     2.6510     1.7950 H     1 <1>   0.0800 
 30 H        6.9140     4.1960     0.9840 H     1 <1>   0.0800 
 31 H        6.1510     6.2670    -1.2750 H     1 <1>   0.1500 
 32 H        2.6110     8.3760    -0.2320 H     1 <1>   0.1500 
 33 H        7.2320     1.6670    -1.9280 H     1 <1>   0.0800 
 34 H        7.5210     0.4490    -0.7040 H     1 <1>   0.0800 
 35 H        8.6020     2.0530     0.5790 H     1 <1>   0.0800 
 36 H        8.2820     3.2310    -0.6750 H     1 <1>   0.0800 
 37 H        4.9590     8.3880    -0.9670 H     1 <1>   0.1500 
@<TRIPOS>BOND
  1   1   2  1   
  2   1   3  1   
  3   2   4  ar  
  4   2   5  ar  
  5   3  22  1   
  6   3  23  1   
  7   3  24  1   
  8   4   6  ar  
  9   5   7  ar  
 10   6   8  ar  
 11   7   8  ar  
 12   7   9  1   
 13   8  10  1   
 14   9  11  1   
 15  10  12  ar  
 16  10  13  ar  
 17  11  14  1   
 18  11  15  1   
 19  11  16  1   
 20  12  14  1   
 21  12  17  ar  
 22  13  18  ar  
 23  13  25  1   
 24  14  26  1   
 25  15  19  1   
 26  15  27  1   
 27  15  28  1   
 28  16  20  1   
 29  16  29  1   
 30  16  30  1   
 31  17  21  ar  
 32  17  31  1   
 33  18  21  ar  
 34  18  32  1   
 35  19  20  1   
 36  19  33  1   
 37  19  34  1   
 38  20  35  1   
 39  20  36  1   
 40  21  37  1   
@<TRIPOS>SUBSTRUCTURE
  1 ****   7 GROUP 4 **** **** 0

# MOE 2024.06 (io_trps.svl 2023.06)
