@<TRIPOS>MOLECULE
NONAME
51 52 1 0 0 
SMALL
USER_CHARGES


@<TRIPOS>ATOM
  1 O       -1.0730     0.5440     1.1010 O.3   1 <1>  -0.5600 
  2 C       -1.3330     1.5310     0.1460 C.3   1 <1>   0.1200 
  3 C       -2.0800     0.3640     2.0530 C.3   1 <1>   0.1200 
  4 C       -2.6200     1.1940    -0.6320 C.3   1 <1>   0.3430 
  5 C       -3.4030    -0.0260     1.3650 C.3   1 <1>   0.3430 
  6 N       -3.7840     0.9640     0.2940 N.4   1 <1>  -0.9590 
  7 C       -4.9910     0.5420    -0.4710 C.3   1 <1>   0.3430 
  8 C       -6.2440     0.6430     0.4020 C.3   1 <1>  -0.1600 
  9 C       -7.5020     0.3160    -0.4130 C.3   1 <1>  -0.1600 
 10 C       -8.7670     0.4200     0.4490 C.3   1 <1>  -0.1600 
 11 C      -10.0220     0.0920    -0.3730 C.3   1 <1>  -0.1600 
 12 C      -11.2910     0.1940     0.4750 C.3   1 <1>   0.1200 
 13 O      -12.3900    -0.1200    -0.3470 O.3   1 <1>  -0.3630 
 14 C      -13.6640    -0.1140     0.1300 C.ar  1 <1>   0.0820 
 15 C      -14.6870    -0.4380    -0.7570 C.ar  1 <1>  -0.1430 
 16 C      -13.9770     0.1980     1.4510 C.ar  1 <1>  -0.1500 
 17 C      -16.0010    -0.4450    -0.3160 C.ar  1 <1>  -0.1500 
 18 C      -14.3740    -0.7850    -2.2050 C.3   1 <1>  -0.0970 
 19 C      -15.2930     0.1880     1.8780 C.ar  1 <1>  -0.1500 
 20 C      -16.3120    -0.1320     0.9970 C.ar  1 <1>  -0.1430 
 21 C      -17.7560    -0.1460     1.4640 C.3   1 <1>  -0.0970 
 22 H       -0.4920     1.5660    -0.5250 H     1 <1>   0.0800 
 23 H       -1.4140     2.4830     0.6430 H     1 <1>   0.0800 
 24 H       -2.1880     1.2710     2.6220 H     1 <1>   0.0800 
 25 H       -1.7640    -0.4210     2.7180 H     1 <1>   0.0800 
 26 H       -2.4370     0.3060    -1.2150 H     1 <1>   0.0800 
 27 H       -2.8430     1.9980    -1.3140 H     1 <1>   0.0800 
 28 H       -4.1810    -0.0880     2.1070 H     1 <1>   0.0800 
 29 H       -3.2820    -1.0040     0.9300 H     1 <1>   0.0800 
 30 H       -3.9940     1.8600     0.7550 H     1 <1>   0.4500 
 31 H       -4.8700    -0.4700    -0.8250 H     1 <1>   0.0800 
 32 H       -5.1160     1.1830    -1.3290 H     1 <1>   0.0800 
 33 H       -6.3340     1.6430     0.7900 H     1 <1>   0.0800 
 34 H       -6.1810    -0.0470     1.2250 H     1 <1>   0.0800 
 35 H       -7.4290    -0.6840    -0.8100 H     1 <1>   0.0800 
 36 H       -7.5870     0.9980    -1.2430 H     1 <1>   0.0800 
 37 H       -8.8550     1.4180     0.8450 H     1 <1>   0.0800 
 38 H       -8.6990    -0.2650     1.2780 H     1 <1>   0.0800 
 39 H       -9.9480    -0.9080    -0.7640 H     1 <1>   0.0800 
 40 H      -10.1030     0.7790    -1.1980 H     1 <1>   0.0800 
 41 H      -11.4230     1.1950     0.8470 H     1 <1>   0.0800 
 42 H      -11.2650    -0.5100     1.2880 H     1 <1>   0.0800 
 43 H      -13.2150     0.4520     2.1610 H     1 <1>   0.1500 
 44 H      -16.7920    -0.6970    -1.0000 H     1 <1>   0.1500 
 45 H      -13.7230    -1.6410    -2.2400 H     1 <1>   0.0800 
 46 H      -13.8780     0.0440    -2.6770 H     1 <1>   0.0800 
 47 H      -15.2690    -1.0100    -2.7550 H     1 <1>   0.0800 
 48 H      -15.5200     0.4300     2.9010 H     1 <1>   0.1500 
 49 H      -18.0320    -1.1420     1.7600 H     1 <1>   0.0800 
 50 H      -18.4080     0.1760     0.6720 H     1 <1>   0.0800 
 51 H      -17.8890     0.5150     2.3010 H     1 <1>   0.0800 
@<TRIPOS>BOND
  1   1   2  1   
  2   1   3  1   
  3   2   4  1   
  4   2  22  1   
  5   2  23  1   
  6   3   5  1   
  7   3  24  1   
  8   3  25  1   
  9   4   6  1   
 10   4  26  1   
 11   4  27  1   
 12   5   6  1   
 13   5  28  1   
 14   5  29  1   
 15   6   7  1   
 16   6  30  1   
 17   7   8  1   
 18   7  31  1   
 19   7  32  1   
 20   8   9  1   
 21   8  33  1   
 22   8  34  1   
 23   9  10  1   
 24   9  35  1   
 25   9  36  1   
 26  10  11  1   
 27  10  37  1   
 28  10  38  1   
 29  11  12  1   
 30  11  39  1   
 31  11  40  1   
 32  12  13  1   
 33  12  41  1   
 34  12  42  1   
 35  13  14  1   
 36  14  15  ar  
 37  14  16  ar  
 38  15  17  ar  
 39  15  18  1   
 40  16  19  ar  
 41  16  43  1   
 42  17  20  ar  
 43  17  44  1   
 44  18  45  1   
 45  18  46  1   
 46  18  47  1   
 47  19  20  ar  
 48  19  48  1   
 49  20  21  1   
 50  21  49  1   
 51  21  50  1   
 52  21  51  1   
@<TRIPOS>SUBSTRUCTURE
  1 ****  10 GROUP 4 **** **** 0

# MOE 2024.06 (io_trps.svl 2023.06)
