@<TRIPOS>MOLECULE
NONAME
49 50 1 0 0 
SMALL
USER_CHARGES


@<TRIPOS>ATOM
  1 CL       0.8070     1.6740    -2.2880 Cl    1 <1>  -0.1770 
  2 C        1.3130     2.6790    -0.9480 C.ar  1 <1>   0.1770 
  3 C        0.4660     3.6530    -0.4340 C.ar  1 <1>   0.0820 
  4 C        2.5770     2.4670    -0.4280 C.ar  1 <1>  -0.1500 
  5 O       -0.7700     3.8060    -0.9710 O.3   1 <1>  -0.3630 
  6 C        0.9230     4.4470     0.6270 C.ar  1 <1>   0.0820 
  7 C        3.0210     3.2410     0.6340 C.ar  1 <1>  -0.1440 
  8 C       -1.7770     2.9790    -0.4360 C.3   1 <1>   0.1200 
  9 O        0.2300     5.4580     1.2160 O.3   1 <1>  -0.3630 
 10 C        2.1850     4.2190     1.1550 C.ar  1 <1>  -0.1500 
 11 C        4.4050     3.0400     1.2110 C.3   1 <1>   0.4860 
 12 C       -3.0830     3.3000    -1.1560 C.3   1 <1>  -0.2400 
 13 C       -0.6730     6.2520     0.4730 C.3   1 <1>   0.0400 
 14 N        5.2910     3.9840     0.5030 N.4   1 <1>  -0.9060 
 15 C        6.7140     4.0970     0.9450 C.3   1 <1>   0.4230 
 16 C        7.4590     5.0730    -0.0200 C.3   1 <1>   0.3430 
 17 C        7.3310     2.6900     0.9780 C.3   1 <1>  -0.2400 
 18 O        7.0620     4.8110    -1.3310 O.3   1 <1>  -0.6800 
 19 C        8.9810     5.0260     0.0640 C.ar  1 <1>  -0.1440 
 20 C        9.7390     4.1470    -0.7030 C.ar  1 <1>  -0.1500 
 21 C        9.6340     5.8880     0.9360 C.ar  1 <1>  -0.1500 
 22 C       11.1180     4.1280    -0.5940 C.ar  1 <1>  -0.1500 
 23 C       11.0130     5.8680     1.0440 C.ar  1 <1>  -0.1500 
 24 C       11.7560     4.9880     0.2800 C.ar  1 <1>  -0.1500 
 25 H        3.1880     1.6960    -0.8650 H     1 <1>   0.1500 
 26 H       -1.8600     3.1800     0.6190 H     1 <1>   0.0800 
 27 H       -1.4990     1.9510    -0.5920 H     1 <1>   0.0800 
 28 H        2.4940     4.8320     1.9840 H     1 <1>   0.1500 
 29 H        4.7280     2.0230     1.0560 H     1 <1>   0.0800 
 30 H        4.3960     3.2500     2.2690 H     1 <1>   0.0800 
 31 H       -3.3490     4.3300    -1.0050 H     1 <1>   0.0800 
 32 H       -3.8730     2.6810    -0.7700 H     1 <1>   0.0800 
 33 H       -2.9800     3.1050    -2.2090 H     1 <1>   0.0800 
 34 H       -0.8150     7.1790     0.9970 H     1 <1>   0.0800 
 35 H       -1.6120     5.7350     0.3950 H     1 <1>   0.0800 
 36 H       -0.2610     6.4400    -0.5030 H     1 <1>   0.0800 
 37 H        4.8450     4.9070     0.5060 H     1 <1>   0.4500 
 38 H        5.3360     3.7390    -0.4990 H     1 <1>   0.4500 
 39 H        6.7590     4.5060     1.9410 H     1 <1>   0.0800 
 40 H        7.1420     6.0790     0.1990 H     1 <1>   0.0800 
 41 H        7.3100     2.2370     0.0010 H     1 <1>   0.0800 
 42 H        6.8350     2.0520     1.6850 H     1 <1>   0.0800 
 43 H        8.3580     2.7480     1.2920 H     1 <1>   0.0800 
 44 H        7.6820     5.2660    -1.9420 H     1 <1>   0.4000 
 45 H        9.2700     3.4640    -1.3910 H     1 <1>   0.1500 
 46 H        9.0840     6.5880     1.5410 H     1 <1>   0.1500 
 47 H       11.6980     3.4440    -1.1910 H     1 <1>   0.1500 
 48 H       11.5130     6.5390     1.7220 H     1 <1>   0.1500 
 49 H       12.8290     4.9740     0.3640 H     1 <1>   0.1500 
@<TRIPOS>BOND
  1   1   2  1   
  2   2   3  ar  
  3   2   4  ar  
  4   3   5  1   
  5   3   6  ar  
  6   4   7  ar  
  7   4  25  1   
  8   5   8  1   
  9   6   9  1   
 10   6  10  ar  
 11   7  10  ar  
 12   7  11  1   
 13   8  12  1   
 14   8  26  1   
 15   8  27  1   
 16   9  13  1   
 17  10  28  1   
 18  11  14  1   
 19  11  29  1   
 20  11  30  1   
 21  12  31  1   
 22  12  32  1   
 23  12  33  1   
 24  13  34  1   
 25  13  35  1   
 26  13  36  1   
 27  14  15  1   
 28  14  37  1   
 29  14  38  1   
 30  15  16  1   
 31  15  17  1   
 32  15  39  1   
 33  16  18  1   
 34  16  19  1   
 35  16  40  1   
 36  17  41  1   
 37  17  42  1   
 38  17  43  1   
 39  18  44  1   
 40  19  20  ar  
 41  19  21  ar  
 42  20  22  ar  
 43  20  45  1   
 44  21  23  ar  
 45  21  46  1   
 46  22  24  ar  
 47  22  47  1   
 48  23  24  ar  
 49  23  48  1   
 50  24  49  1   
@<TRIPOS>SUBSTRUCTURE
  1 ****  14 GROUP 4 **** **** 0

# MOE 2024.06 (io_trps.svl 2023.06)
