@<TRIPOS>MOLECULE
NONAME
47 48 1 0 0 
SMALL
USER_CHARGES


@<TRIPOS>ATOM
  1 O        0.0510    -0.7020    -0.5730 O.3   1 <1>  -0.3630 
  2 C       -1.1610    -1.1000    -0.1260 C.ar  1 <1>   0.0830 
  3 C        1.1340    -0.9640     0.2850 C.3   1 <1>   0.1200 
  4 C       -1.6210    -2.3790    -0.4320 C.ar  1 <1>  -0.1440 
  5 C       -1.9400    -0.2230     0.6250 C.ar  1 <1>  -0.1440 
  6 C        2.4100    -0.4840    -0.4070 C.3   1 <1>  -0.1600 
  7 C       -2.8530    -2.7860     0.0530 C.ar  1 <1>  -0.1500 
  8 C       -0.8030    -3.3340    -1.2890 C.3   1 <1>  -0.0960 
  9 C       -3.1690    -0.6510     1.0990 C.ar  1 <1>  -0.1500 
 10 C       -1.4730     1.1930     0.9300 C.3   1 <1>  -0.0970 
 11 C        3.6500    -0.7340     0.4630 C.3   1 <1>  -0.1600 
 12 C       -3.6230    -1.9280     0.8180 C.ar  1 <1>  -0.1500 
 13 C        4.9230    -0.2540    -0.2490 C.3   1 <1>  -0.1600 
 14 C        6.1600    -0.5060     0.6150 C.3   1 <1>   0.3430 
 15 N        7.3920    -0.1220    -0.1240 N.4   1 <1>  -0.9590 
 16 C        8.6300    -0.5560     0.5650 C.3   1 <1>   0.3430 
 17 C        7.5440     1.3390    -0.3420 C.3   1 <1>   0.3430 
 18 C        9.7280     0.2930    -0.0600 C.3   1 <1>  -0.1600 
 19 C        9.0260     1.5270    -0.6350 C.3   1 <1>  -0.1600 
 20 H        1.1680    -2.0230     0.4740 H     1 <1>   0.0800 
 21 H        0.9690    -0.4380     1.2080 H     1 <1>   0.0800 
 22 H        2.3150     0.5690    -0.6100 H     1 <1>   0.0800 
 23 H        2.5100    -1.0070    -1.3420 H     1 <1>   0.0800 
 24 H       -3.2230    -3.7720    -0.1650 H     1 <1>   0.1500 
 25 H       -0.0370    -3.7960    -0.6940 H     1 <1>   0.0800 
 26 H       -0.3420    -2.8010    -2.1010 H     1 <1>   0.0800 
 27 H       -1.4280    -4.1030    -1.7060 H     1 <1>   0.0800 
 28 H       -3.7820     0.0080     1.6880 H     1 <1>   0.1500 
 29 H       -0.9950     1.6190     0.0660 H     1 <1>   0.0800 
 30 H       -0.7750     1.1810     1.7460 H     1 <1>   0.0800 
 31 H       -2.3060     1.8200     1.1950 H     1 <1>   0.0800 
 32 H        3.7250    -1.7880     0.6740 H     1 <1>   0.0800 
 33 H        3.5350    -0.2120     1.3990 H     1 <1>   0.0800 
 34 H       -4.5790    -2.2520     1.1910 H     1 <1>   0.1500 
 35 H        4.8250     0.7970    -0.4560 H     1 <1>   0.0800 
 36 H        5.0200    -0.7850    -1.1800 H     1 <1>   0.0800 
 37 H        6.2020    -1.5550     0.8650 H     1 <1>   0.0800 
 38 H        6.0870     0.0560     1.5320 H     1 <1>   0.0800 
 39 H        7.3820    -0.5730    -1.0490 H     1 <1>   0.4500 
 40 H        8.8160    -1.6110     0.4320 H     1 <1>   0.0800 
 41 H        8.5610    -0.3340     1.6180 H     1 <1>   0.0800 
 42 H        7.2850     1.8720     0.5590 H     1 <1>   0.0800 
 43 H        6.9280     1.6890    -1.1560 H     1 <1>   0.0800 
 44 H       10.2150    -0.2600    -0.8450 H     1 <1>   0.0800 
 45 H       10.4650     0.5590     0.6780 H     1 <1>   0.0800 
 46 H        9.3840     2.4370    -0.1840 H     1 <1>   0.0800 
 47 H        9.1850     1.5900    -1.6980 H     1 <1>   0.0800 
@<TRIPOS>BOND
  1   1   2  1   
  2   1   3  1   
  3   2   4  ar  
  4   2   5  ar  
  5   3   6  1   
  6   3  20  1   
  7   3  21  1   
  8   4   7  ar  
  9   4   8  1   
 10   5   9  ar  
 11   5  10  1   
 12   6  11  1   
 13   6  22  1   
 14   6  23  1   
 15   7  12  ar  
 16   7  24  1   
 17   8  25  1   
 18   8  26  1   
 19   8  27  1   
 20   9  12  ar  
 21   9  28  1   
 22  10  29  1   
 23  10  30  1   
 24  10  31  1   
 25  11  13  1   
 26  11  32  1   
 27  11  33  1   
 28  12  34  1   
 29  13  14  1   
 30  13  35  1   
 31  13  36  1   
 32  14  15  1   
 33  14  37  1   
 34  14  38  1   
 35  15  16  1   
 36  15  17  1   
 37  15  39  1   
 38  16  18  1   
 39  16  40  1   
 40  16  41  1   
 41  17  19  1   
 42  17  42  1   
 43  17  43  1   
 44  18  19  1   
 45  18  44  1   
 46  18  45  1   
 47  19  46  1   
 48  19  47  1   
@<TRIPOS>SUBSTRUCTURE
  1 ****   6 GROUP 4 **** **** 0

# MOE 2024.06 (io_trps.svl 2023.06)
