@<TRIPOS>MOLECULE
NONAME
54 55 1 0 0 
SMALL
USER_CHARGES


@<TRIPOS>ATOM
  1 O       -0.9170    -6.3280    -0.0910 O.3   1 <1>  -0.3630 
  2 C       -2.1030    -6.9880     0.0070 C.ar  1 <1>   0.0830 
  3 C        0.3210    -6.9950     0.0150 C.3   1 <1>   0.1200 
  4 C       -3.2800    -6.2490    -0.1340 C.ar  1 <1>  -0.1440 
  5 C       -2.1690    -8.3610     0.2340 C.ar  1 <1>  -0.1500 
  6 C        1.4270    -5.9580    -0.1580 C.3   1 <1>   0.1200 
  7 C       -4.5090    -6.9010    -0.0640 C.ar  1 <1>  -0.1440 
  8 C       -3.2190    -4.7400    -0.3730 C.3   1 <1>  -0.0960 
  9 C       -3.3900    -9.0020     0.3150 C.ar  1 <1>  -0.1430 
 10 O        2.6660    -6.5960    -0.0540 O.3   1 <1>  -0.5600 
 11 C       -4.5520    -8.2680     0.1620 C.ar  1 <1>  -0.1500 
 12 C       -5.8280    -6.1580    -0.2340 C.3   1 <1>  -0.0970 
 13 C       -3.4590   -10.4990     0.5630 C.3   1 <1>  -0.0970 
 14 C        3.7560    -5.7490    -0.1990 C.3   1 <1>   0.1200 
 15 C        5.0200    -6.6090    -0.0780 C.3   1 <1>   0.3430 
 16 N        6.2840    -5.8250    -0.2760 N.4   1 <1>  -0.9590 
 17 C        7.4400    -6.7560    -0.4290 C.3   1 <1>   0.3430 
 18 C        6.5240    -4.8460     0.8280 C.3   1 <1>   0.3430 
 19 C        8.7010    -5.9620    -0.7690 C.3   1 <1>  -0.1600 
 20 C        7.7660    -4.0110     0.5160 C.3   1 <1>  -0.1600 
 21 C        9.0010    -4.8950     0.2930 C.3   1 <1>  -0.0800 
 22 C       10.2070    -4.0440    -0.1210 C.3   1 <1>  -0.2400 
 23 H        0.3740    -7.7350    -0.7640 H     1 <1>   0.0800 
 24 H        0.3780    -7.4500     0.9880 H     1 <1>   0.0800 
 25 H       -1.2800    -8.9480     0.3480 H     1 <1>   0.1500 
 26 H        1.3520    -5.2130     0.6160 H     1 <1>   0.0800 
 27 H        1.3490    -5.5010    -1.1290 H     1 <1>   0.0800 
 28 H       -2.2860    -4.3220    -0.0430 H     1 <1>   0.0800 
 29 H       -3.9970    -4.2350     0.1670 H     1 <1>   0.0800 
 30 H       -3.3310    -4.5370    -1.4230 H     1 <1>   0.0800 
 31 H       -5.5010    -8.7700     0.2200 H     1 <1>   0.1500 
 32 H       -5.8030    -5.5550    -1.1230 H     1 <1>   0.0800 
 33 H       -6.0030    -5.5250     0.6180 H     1 <1>   0.0800 
 34 H       -6.6500    -6.8450    -0.3200 H     1 <1>   0.0800 
 35 H       -2.6110   -10.8260     1.1350 H     1 <1>   0.0800 
 36 H       -3.4690   -11.0210    -0.3770 H     1 <1>   0.0800 
 37 H       -4.3520   -10.7480     1.1080 H     1 <1>   0.0800 
 38 H        3.7110    -5.0080     0.5800 H     1 <1>   0.0800 
 39 H        3.6990    -5.2870    -1.1700 H     1 <1>   0.0800 
 40 H        4.9630    -7.3840    -0.8250 H     1 <1>   0.0800 
 41 H        5.0310    -7.0760     0.8920 H     1 <1>   0.0800 
 42 H        6.2140    -5.2950    -1.1540 H     1 <1>   0.4500 
 43 H        7.2420    -7.4670    -1.2160 H     1 <1>   0.0800 
 44 H        7.5950    -7.3010     0.4890 H     1 <1>   0.0800 
 45 H        6.6700    -5.3730     1.7580 H     1 <1>   0.0800 
 46 H        5.6760    -4.1910     0.9400 H     1 <1>   0.0800 
 47 H        8.5850    -5.5050    -1.7370 H     1 <1>   0.0800 
 48 H        9.5330    -6.6430    -0.8340 H     1 <1>   0.0800 
 49 H        7.9510    -3.3420     1.3390 H     1 <1>   0.0800 
 50 H        7.5780    -3.4050    -0.3540 H     1 <1>   0.0800 
 51 H        9.2430    -5.3890     1.2200 H     1 <1>   0.0800 
 52 H       10.0170    -3.5270    -1.0460 H     1 <1>   0.0800 
 53 H       11.0770    -4.6640    -0.2510 H     1 <1>   0.0800 
 54 H       10.4290    -3.3140     0.6380 H     1 <1>   0.0800 
@<TRIPOS>BOND
  1   1   2  1   
  2   1   3  1   
  3   2   4  ar  
  4   2   5  ar  
  5   3   6  1   
  6   3  23  1   
  7   3  24  1   
  8   4   7  ar  
  9   4   8  1   
 10   5   9  ar  
 11   5  25  1   
 12   6  10  1   
 13   6  26  1   
 14   6  27  1   
 15   7  11  ar  
 16   7  12  1   
 17   8  28  1   
 18   8  29  1   
 19   8  30  1   
 20   9  11  ar  
 21   9  13  1   
 22  10  14  1   
 23  11  31  1   
 24  12  32  1   
 25  12  33  1   
 26  12  34  1   
 27  13  35  1   
 28  13  36  1   
 29  13  37  1   
 30  14  15  1   
 31  14  38  1   
 32  14  39  1   
 33  15  16  1   
 34  15  40  1   
 35  15  41  1   
 36  16  17  1   
 37  16  18  1   
 38  16  42  1   
 39  17  19  1   
 40  17  43  1   
 41  17  44  1   
 42  18  20  1   
 43  18  45  1   
 44  18  46  1   
 45  19  21  1   
 46  19  47  1   
 47  19  48  1   
 48  20  21  1   
 49  20  49  1   
 50  20  50  1   
 51  21  22  1   
 52  21  51  1   
 53  22  52  1   
 54  22  53  1   
 55  22  54  1   
@<TRIPOS>SUBSTRUCTURE
  1 ****   6 GROUP 4 **** **** 0

# MOE 2024.06 (io_trps.svl 2023.06)
