@<TRIPOS>MOLECULE
NONAME
31 31 1 0 0 
SMALL
USER_CHARGES


@<TRIPOS>ATOM
  1 BR      -0.6670    -0.0890     0.0850 Br    1 <1>  -0.1110 
  2 C       -0.1250    -1.9340     0.1820 C.ar  1 <1>   0.1110 
  3 C       -1.1020    -2.9100     0.2360 C.ar  1 <1>  -0.1500 
  4 C        1.2240    -2.2290     0.1990 C.ar  1 <1>  -0.1500 
  5 C       -0.7170    -4.2390     0.3030 C.ar  1 <1>  -0.1440 
  6 C        1.6190    -3.5560     0.2660 C.ar  1 <1>  -0.1440 
  7 C        0.6430    -4.5530     0.3010 C.ar  1 <1>   0.0830 
  8 C       -1.7850    -5.3230     0.3840 C.3   1 <1>  -0.0960 
  9 C        3.1030    -3.8930     0.3060 C.3   1 <1>  -0.0960 
 10 O        1.0210    -5.8490     0.3450 O.3   1 <1>  -0.3630 
 11 C        1.1260    -6.5000    -0.9120 C.3   1 <1>   0.1810 
 12 C        1.1540    -8.0190    -0.7610 C.2   1 <1>   0.6590 
 13 O        0.2770    -8.6860    -1.2440 O.2   1 <1>  -0.5700 
 14 O        2.1710    -8.6120    -0.1390 O.3   1 <1>  -0.4300 
 15 C        3.1210    -7.9550     0.6670 C.3   1 <1>   0.1200 
 16 C        4.1270    -8.9950     1.1460 C.3   1 <1>  -0.2400 
 17 H       -2.1380    -2.6260     0.2280 H     1 <1>   0.1500 
 18 H        1.9420    -1.4300     0.1640 H     1 <1>   0.1500 
 19 H       -2.7280    -4.9080     0.6930 H     1 <1>   0.0800 
 20 H       -1.5000    -6.0740     1.0990 H     1 <1>   0.0800 
 21 H       -1.9140    -5.7900    -0.5750 H     1 <1>   0.0800 
 22 H        3.6870    -3.0190     0.5340 H     1 <1>   0.0800 
 23 H        3.4190    -4.2780    -0.6450 H     1 <1>   0.0800 
 24 H        3.2930    -4.6300     1.0660 H     1 <1>   0.0800 
 25 H        2.0200    -6.1610    -1.3970 H     1 <1>   0.0800 
 26 H        0.2770    -6.2250    -1.5100 H     1 <1>   0.0800 
 27 H        2.6100    -7.5090     1.5040 H     1 <1>   0.0800 
 28 H        3.6110    -7.1950     0.0830 H     1 <1>   0.0800 
 29 H        3.6270    -9.7560     1.7190 H     1 <1>   0.0800 
 30 H        4.8670    -8.5270     1.7700 H     1 <1>   0.0800 
 31 H        4.6230    -9.4480     0.3050 H     1 <1>   0.0800 
@<TRIPOS>BOND
  1   1   2  1   
  2   2   3  ar  
  3   2   4  ar  
  4   3   5  ar  
  5   3  17  1   
  6   4   6  ar  
  7   4  18  1   
  8   5   7  ar  
  9   5   8  1   
 10   6   7  ar  
 11   6   9  1   
 12   7  10  1   
 13   8  19  1   
 14   8  20  1   
 15   8  21  1   
 16   9  22  1   
 17   9  23  1   
 18   9  24  1   
 19  10  11  1   
 20  11  12  1   
 21  11  25  1   
 22  11  26  1   
 23  12  13  2   
 24  12  14  1   
 25  14  15  1   
 26  15  16  1   
 27  15  27  1   
 28  15  28  1   
 29  16  29  1   
 30  16  30  1   
 31  16  31  1   
@<TRIPOS>SUBSTRUCTURE
  1 ****  10 GROUP 4 **** **** 0

# MOE 2024.06 (io_trps.svl 2023.06)
