@<TRIPOS>MOLECULE
NONAME
37 37 1 0 0 
SMALL
USER_CHARGES


@<TRIPOS>ATOM
  1 CL       0.6230     2.3190    -2.4690 Cl    1 <1>  -0.1770 
  2 C       -0.5060     2.7380    -1.1990 C.ar  1 <1>   0.1770 
  3 C       -0.0470     3.3230    -0.0250 C.ar  1 <1>   0.0830 
  4 C       -1.8460     2.4720    -1.3960 C.ar  1 <1>  -0.1500 
  5 O        1.2830     3.5530     0.0970 O.3   1 <1>  -0.3630 
  6 C       -0.9730     3.6430     0.9620 C.ar  1 <1>  -0.1500 
  7 C       -2.7790     2.7890    -0.4160 C.ar  1 <1>  -0.0090 
  8 C        1.8470     4.1240     1.2710 C.3   1 <1>   0.1810 
  9 C       -2.3170     3.3740     0.7590 C.ar  1 <1>  -0.1500 
 10 S       -4.5420     2.4450    -0.6470 S.o2  1 <1>   1.4470 
 11 C        3.3600     4.2480     1.1430 C.2   1 <1>   0.5690 
 12 O       -4.9970     1.5480     0.3900 O.2   1 <1>  -0.6500 
 13 O       -4.8220     2.1660    -2.0350 O.2   1 <1>  -0.6500 
 14 N       -5.2450     3.9470    -0.4020 N.am  1 <1>  -0.9140 
 15 O        3.9780     4.7280     2.0630 O.2   1 <1>  -0.5700 
 16 N        3.9690     3.8160     0.0050 N.am  1 <1>  -0.7300 
 17 C       -6.5940     3.8920     0.0980 C.3   1 <1>   0.2760 
 18 C        5.4240     3.8620    -0.2790 C.3   1 <1>   0.0600 
 19 C       -7.3610     5.0380    -0.5490 C.3   1 <1>  -0.2400 
 20 C       -6.5590     4.0640     1.6140 C.3   1 <1>  -0.2400 
 21 H       -2.1620     2.0160    -2.3190 H     1 <1>   0.1500 
 22 H       -0.6750     4.0970     1.8890 H     1 <1>   0.1500 
 23 H        1.6140     3.4910     2.1060 H     1 <1>   0.0800 
 24 H        1.4240     5.1010     1.4140 H     1 <1>   0.0800 
 25 H       -3.0300     3.6240     1.5290 H     1 <1>   0.1500 
 26 H       -5.3200     4.3050    -1.3510 H     1 <1>   0.4200 
 27 H        3.3650     3.4230    -0.7260 H     1 <1>   0.3700 
 28 H       -7.0690     2.9570    -0.1640 H     1 <1>   0.0800 
 29 H        5.9530     4.2920     0.5540 H     1 <1>   0.0800 
 30 H        5.6040     4.4630    -1.1530 H     1 <1>   0.0800 
 31 H        5.7930     2.8660    -0.4500 H     1 <1>   0.0800 
 32 H       -6.9010     5.9830    -0.3170 H     1 <1>   0.0800 
 33 H       -8.3710     5.0530    -0.1790 H     1 <1>   0.0800 
 34 H       -7.4010     4.9090    -1.6160 H     1 <1>   0.0800 
 35 H       -6.0780     4.9890     1.8780 H     1 <1>   0.0800 
 36 H       -6.0320     3.2480     2.0750 H     1 <1>   0.0800 
 37 H       -7.5600     4.0730     2.0040 H     1 <1>   0.0800 
@<TRIPOS>BOND
  1   1   2  1   
  2   2   3  ar  
  3   2   4  ar  
  4   3   5  1   
  5   3   6  ar  
  6   4   7  ar  
  7   4  21  1   
  8   5   8  1   
  9   6   9  ar  
 10   6  22  1   
 11   7   9  ar  
 12   7  10  1   
 13   8  11  1   
 14   8  23  1   
 15   8  24  1   
 16   9  25  1   
 17  10  12  2   
 18  10  13  2   
 19  10  14  am  
 20  11  15  2   
 21  11  16  am  
 22  14  17  1   
 23  14  26  1   
 24  16  18  1   
 25  16  27  1   
 26  17  19  1   
 27  17  20  1   
 28  17  28  1   
 29  18  29  1   
 30  18  30  1   
 31  18  31  1   
 32  19  32  1   
 33  19  33  1   
 34  19  34  1   
 35  20  35  1   
 36  20  36  1   
 37  20  37  1   
@<TRIPOS>SUBSTRUCTURE
  1 ****   6 GROUP 4 **** **** 0

# MOE 2024.06 (io_trps.svl 2023.06)
