@<TRIPOS>MOLECULE
NONAME
37 37 1 0 0 
SMALL
USER_CHARGES


@<TRIPOS>ATOM
  1 CL       0.3330    -0.6700    -0.3690 Cl    1 <1>  -0.1770 
  2 C       -0.7870     0.6800    -0.3140 C.ar  1 <1>   0.1770 
  3 C       -0.3970     2.0260    -0.2030 C.ar  1 <1>   0.0830 
  4 C       -2.1240     0.3340    -0.3870 C.ar  1 <1>  -0.1500 
  5 O        0.8700     2.5240    -0.1220 O.3   1 <1>  -0.3630 
  6 C       -1.3890     2.9990    -0.1700 C.ar  1 <1>  -0.1500 
  7 C       -3.0820     1.3270    -0.3510 C.ar  1 <1>   0.1770 
  8 C        2.0320     1.7390    -0.1350 C.3   1 <1>   0.1200 
  9 C       -2.7290     2.6580    -0.2430 C.ar  1 <1>  -0.1500 
 10 CL      -4.7700     0.8930    -0.4440 Cl    1 <1>  -0.1770 
 11 C        3.2260     2.6860    -0.0240 C.3   1 <1>  -0.1600 
 12 C        4.5310     1.9000    -0.0330 C.3   1 <1>   0.3430 
 13 N        5.6660     2.8530     0.0760 N.4   1 <1>  -0.9060 
 14 C        7.0140     2.2810     0.0850 C.3   1 <1>   0.5030 
 15 C        7.1750     1.3540     1.2890 C.3   1 <1>  -0.2400 
 16 C        7.2660     1.5330    -1.2240 C.3   1 <1>  -0.2400 
 17 C        7.9770     3.4570     0.2040 C.3   1 <1>  -0.2400 
 18 H       -2.4180    -0.6960    -0.4720 H     1 <1>   0.1500 
 19 H       -1.1060     4.0340    -0.0860 H     1 <1>   0.1500 
 20 H        2.0590     1.1930    -1.0630 H     1 <1>   0.0800 
 21 H        1.9950     1.0670     0.7050 H     1 <1>   0.0800 
 22 H       -3.4940     3.4140    -0.2170 H     1 <1>   0.1500 
 23 H        3.1380     3.2390     0.8950 H     1 <1>   0.0800 
 24 H        3.2020     3.3640    -0.8590 H     1 <1>   0.0800 
 25 H        4.6070     1.3350    -0.9490 H     1 <1>   0.0800 
 26 H        4.5430     1.2110     0.7970 H     1 <1>   0.0800 
 27 H        5.5620     3.4020     0.9350 H     1 <1>   0.4500 
 28 H        5.6210     3.5190    -0.7010 H     1 <1>   0.4500 
 29 H        6.9500     1.8660     2.2070 H     1 <1>   0.0800 
 30 H        8.1940     1.0110     1.3470 H     1 <1>   0.0800 
 31 H        6.5520     0.4810     1.2050 H     1 <1>   0.0800 
 32 H        6.6440     0.6610    -1.3100 H     1 <1>   0.0800 
 33 H        8.2880     1.1970    -1.2560 H     1 <1>   0.0800 
 34 H        7.1050     2.1710    -2.0740 H     1 <1>   0.0800 
 35 H        7.8160     4.0030     1.1170 H     1 <1>   0.0800 
 36 H        7.8790     4.1270    -0.6320 H     1 <1>   0.0800 
 37 H        8.9920     3.0990     0.2150 H     1 <1>   0.0800 
@<TRIPOS>BOND
  1   1   2  1   
  2   2   3  ar  
  3   2   4  ar  
  4   3   5  1   
  5   3   6  ar  
  6   4   7  ar  
  7   4  18  1   
  8   5   8  1   
  9   6   9  ar  
 10   6  19  1   
 11   7   9  ar  
 12   7  10  1   
 13   8  11  1   
 14   8  20  1   
 15   8  21  1   
 16   9  22  1   
 17  11  12  1   
 18  11  23  1   
 19  11  24  1   
 20  12  13  1   
 21  12  25  1   
 22  12  26  1   
 23  13  14  1   
 24  13  27  1   
 25  13  28  1   
 26  14  15  1   
 27  14  16  1   
 28  14  17  1   
 29  15  29  1   
 30  15  30  1   
 31  15  31  1   
 32  16  32  1   
 33  16  33  1   
 34  16  34  1   
 35  17  35  1   
 36  17  36  1   
 37  17  37  1   
@<TRIPOS>SUBSTRUCTURE
  1 ****   8 GROUP 4 **** **** 0

# MOE 2024.06 (io_trps.svl 2023.06)
