@<TRIPOS>MOLECULE
NONAME
40 40 1 0 0 
SMALL
USER_CHARGES


@<TRIPOS>ATOM
  1 BR      -0.7140    -0.1480     0.0360 Br    1 <1>  -0.1110 
  2 C        0.5040    -1.6460     0.0060 C.ar  1 <1>   0.1110 
  3 C       -0.0020    -2.9400    -0.0050 C.ar  1 <1>   0.0820 
  4 C        1.8590    -1.3770    -0.0020 C.ar  1 <1>  -0.1500 
  5 O       -1.3520    -3.1060     0.0040 O.3   1 <1>  -0.3630 
  6 C        0.9080    -3.9940    -0.0250 C.ar  1 <1>  -0.1500 
  7 C        2.7540    -2.4350    -0.0240 C.ar  1 <1>  -0.1430 
  8 C       -1.9400    -4.3800    -0.0080 C.3   1 <1>   0.1200 
  9 C        2.2710    -3.7360    -0.0340 C.ar  1 <1>  -0.1500 
 10 C        4.2490    -2.1760    -0.0320 C.3   1 <1>  -0.0960 
 11 C       -3.4530    -4.1650     0.0070 C.3   1 <1>  -0.1600 
 12 C       -4.1990    -5.4930    -0.0040 C.3   1 <1>   0.3430 
 13 N       -5.6560    -5.2190     0.0110 N.4   1 <1>  -0.9060 
 14 C       -6.4740    -6.4540     0.0020 C.3   1 <1>   0.3430 
 15 C       -7.9500    -6.0690     0.0190 C.3   1 <1>  -0.1600 
 16 C       -8.8400    -7.3190     0.0100 C.3   1 <1>  -0.1600 
 17 C      -10.3220    -6.9350     0.0270 C.3   1 <1>  -0.2400 
 18 H        2.2000    -0.3580     0.0090 H     1 <1>   0.1500 
 19 H        0.5840    -5.0160    -0.0340 H     1 <1>   0.1500 
 20 H       -1.6080    -4.9110     0.8680 H     1 <1>   0.0800 
 21 H       -1.6220    -4.8890    -0.9020 H     1 <1>   0.0800 
 22 H        2.9630    -4.5610    -0.0480 H     1 <1>   0.1500 
 23 H        4.4620    -1.1920    -0.4080 H     1 <1>   0.0800 
 24 H        4.7490    -2.8940    -0.6580 H     1 <1>   0.0800 
 25 H        4.6380    -2.2570     0.9680 H     1 <1>   0.0800 
 26 H       -3.7200    -3.5890    -0.8620 H     1 <1>   0.0800 
 27 H       -3.7060    -3.6110     0.8950 H     1 <1>   0.0800 
 28 H       -3.9220    -6.0730     0.8630 H     1 <1>   0.0800 
 29 H       -3.9360    -6.0500    -0.8900 H     1 <1>   0.0800 
 30 H       -5.9050    -4.6420    -0.8020 H     1 <1>   0.4500 
 31 H       -5.8910    -4.6630     0.8430 H     1 <1>   0.4500 
 32 H       -6.2480    -7.0570     0.8680 H     1 <1>   0.0800 
 33 H       -6.2620    -7.0340    -0.8830 H     1 <1>   0.0800 
 34 H       -8.1820    -5.4730    -0.8480 H     1 <1>   0.0800 
 35 H       -8.1680    -5.4960     0.9040 H     1 <1>   0.0800 
 36 H       -8.6300    -7.9300     0.8720 H     1 <1>   0.0800 
 37 H       -8.6440    -7.9070    -0.8720 H     1 <1>   0.0800 
 38 H      -10.5610    -6.3700     0.9110 H     1 <1>   0.0800 
 39 H      -10.9310    -7.8220     0.0200 H     1 <1>   0.0800 
 40 H      -10.5750    -6.3470    -0.8390 H     1 <1>   0.0800 
@<TRIPOS>BOND
  1   1   2  1   
  2   2   3  ar  
  3   2   4  ar  
  4   3   5  1   
  5   3   6  ar  
  6   4   7  ar  
  7   4  18  1   
  8   5   8  1   
  9   6   9  ar  
 10   6  19  1   
 11   7   9  ar  
 12   7  10  1   
 13   8  11  1   
 14   8  20  1   
 15   8  21  1   
 16   9  22  1   
 17  10  23  1   
 18  10  24  1   
 19  10  25  1   
 20  11  12  1   
 21  11  26  1   
 22  11  27  1   
 23  12  13  1   
 24  12  28  1   
 25  12  29  1   
 26  13  14  1   
 27  13  30  1   
 28  13  31  1   
 29  14  15  1   
 30  14  32  1   
 31  14  33  1   
 32  15  16  1   
 33  15  34  1   
 34  15  35  1   
 35  16  17  1   
 36  16  36  1   
 37  16  37  1   
 38  17  38  1   
 39  17  39  1   
 40  17  40  1   
@<TRIPOS>SUBSTRUCTURE
  1 ****   8 GROUP 4 **** **** 0

# MOE 2024.06 (io_trps.svl 2023.06)
