@<TRIPOS>MOLECULE
NONAME
55 56 1 0 0 
SMALL
USER_CHARGES


@<TRIPOS>ATOM
  1 S       -0.2470     0.5050    -0.5830 S.3   1 <1>  -0.0800 
  2 C        0.4080    -1.1060    -0.3790 C.2   1 <1>   0.1040 
  3 C        1.3270     1.2440    -0.3830 C.2   1 <1>  -0.1400 
  4 N       -0.4320    -2.2100    -0.4300 N.am  1 <1>  -0.4940 
  5 C        1.7630    -1.0630    -0.1690 C.2   1 <1>  -0.0860 
  6 C        2.2690     0.3020    -0.1750 C.2   1 <1>  -0.1810 
  7 C        1.3290     2.7580    -0.4810 C.3   1 <1>  -0.0600 
  8 C       -1.7710    -2.3660    -0.6990 C.2   1 <1>   0.5690 
  9 C        2.5350    -2.2690     0.0290 C.2   1 <1>   0.8060 
 10 C        3.7420     0.6350     0.0420 C.3   1 <1>  -0.0590 
 11 O       -2.4970    -1.4580    -1.0280 O.2   1 <1>  -0.5700 
 12 C       -2.3460    -3.7900    -0.5610 C.3   1 <1>   0.1710 
 13 O        2.0170    -3.3730     0.1090 O.2   1 <1>  -0.5700 
 14 O        3.8670    -2.2040     0.1270 O.3   1 <1>  -0.4300 
 15 N       -3.8170    -3.8870    -0.3190 N.3   1 <1>  -0.8100 
 16 C        4.6630    -3.3530     0.3150 C.3   1 <1>   0.1200 
 17 C       -4.3330    -5.2720    -0.3560 C.3   1 <1>   0.1100 
 18 C       -4.2570    -3.1900     0.9170 C.3   1 <1>   0.1100 
 19 C        6.1200    -2.9090     0.3870 C.3   1 <1>  -0.2400 
 20 C       -5.8720    -5.3210    -0.1670 C.3   1 <1>   0.3430 
 21 C       -5.7990    -3.1770     1.0520 C.3   1 <1>   0.3430 
 22 N       -6.4500    -3.9390    -0.0680 N.4   1 <1>  -0.9590 
 23 C       -7.9350    -3.9210    -0.0600 C.3   1 <1>   0.3430 
 24 C       -8.4540    -2.5100    -0.3430 C.3   1 <1>  -0.1600 
 25 C       -9.9830    -2.5020    -0.4640 C.3   1 <1>  -0.2400 
 26 H        0.0750    -3.0820    -0.2410 H     1 <1>   0.3700 
 27 H        0.6980     3.1700     0.2850 H     1 <1>   0.0800 
 28 H        0.9460     3.0580    -1.4400 H     1 <1>   0.0800 
 29 H        2.3160     3.1630    -0.3660 H     1 <1>   0.0800 
 30 H        3.9140     1.6930     0.0360 H     1 <1>   0.0800 
 31 H        4.3380     0.1990    -0.7400 H     1 <1>   0.0800 
 32 H        4.0720     0.2530     0.9910 H     1 <1>   0.0800 
 33 H       -1.8270    -4.2900     0.2370 H     1 <1>   0.0800 
 34 H       -2.1170    -4.3070    -1.4760 H     1 <1>   0.0800 
 35 H        4.5030    -4.0210    -0.5150 H     1 <1>   0.0800 
 36 H        4.3610    -3.8330     1.2310 H     1 <1>   0.0800 
 37 H       -3.8610    -5.8630     0.4110 H     1 <1>   0.0800 
 38 H       -4.0870    -5.7160    -1.3060 H     1 <1>   0.0800 
 39 H       -3.9160    -2.1690     0.9070 H     1 <1>   0.0800 
 40 H       -3.8250    -3.6650     1.7810 H     1 <1>   0.0800 
 41 H        6.4060    -2.4220    -0.5290 H     1 <1>   0.0800 
 42 H        6.7540    -3.7650     0.5300 H     1 <1>   0.0800 
 43 H        6.2640    -2.2360     1.2130 H     1 <1>   0.0800 
 44 H       -6.1020    -5.8790     0.7240 H     1 <1>   0.0800 
 45 H       -6.3080    -5.8420    -1.0030 H     1 <1>   0.0800 
 46 H       -6.1320    -2.1530     1.0400 H     1 <1>   0.0800 
 47 H       -6.0770    -3.6020     2.0020 H     1 <1>   0.0800 
 48 H       -6.0930    -3.4630    -0.9140 H     1 <1>   0.4500 
 49 H       -8.3060    -4.2650     0.8910 H     1 <1>   0.0800 
 50 H       -8.3050    -4.5840    -0.8260 H     1 <1>   0.0800 
 51 H       -8.0350    -2.1470    -1.2660 H     1 <1>   0.0800 
 52 H       -8.1750    -1.8410     0.4510 H     1 <1>   0.0800 
 53 H      -10.3070    -3.1380    -1.2700 H     1 <1>   0.0800 
 54 H      -10.3300    -1.5030    -0.6650 H     1 <1>   0.0800 
 55 H      -10.4420    -2.8390     0.4500 H     1 <1>   0.0800 
@<TRIPOS>BOND
  1   1   2  1   
  2   1   3  1   
  3   2   4  1   
  4   2   5  2   
  5   3   6  2   
  6   3   7  1   
  7   4   8  am  
  8   4  26  1   
  9   5   6  1   
 10   5   9  1   
 11   6  10  1   
 12   7  27  1   
 13   7  28  1   
 14   7  29  1   
 15   8  11  2   
 16   8  12  1   
 17   9  13  2   
 18   9  14  1   
 19  10  30  1   
 20  10  31  1   
 21  10  32  1   
 22  12  15  1   
 23  12  33  1   
 24  12  34  1   
 25  14  16  1   
 26  15  17  1   
 27  15  18  1   
 28  16  19  1   
 29  16  35  1   
 30  16  36  1   
 31  17  20  1   
 32  17  37  1   
 33  17  38  1   
 34  18  21  1   
 35  18  39  1   
 36  18  40  1   
 37  19  41  1   
 38  19  42  1   
 39  19  43  1   
 40  20  22  1   
 41  20  44  1   
 42  20  45  1   
 43  21  22  1   
 44  21  46  1   
 45  21  47  1   
 46  22  23  1   
 47  22  48  1   
 48  23  24  1   
 49  23  49  1   
 50  23  50  1   
 51  24  25  1   
 52  24  51  1   
 53  24  52  1   
 54  25  53  1   
 55  25  54  1   
 56  25  55  1   
@<TRIPOS>SUBSTRUCTURE
  1 ****   8 GROUP 4 **** **** 0

# MOE 2024.06 (io_trps.svl 2023.06)
