@<TRIPOS>MOLECULE
NONAME
43 44 1 0 0 
SMALL
USER_CHARGES


@<TRIPOS>ATOM
  1 O        0.4980     0.3410     0.0270 O.3   1 <1>  -0.3630 
  2 C       -0.7490     0.8700    -0.0650 C.ar  1 <1>   0.0830 
  3 C        1.6540     1.0830    -0.2650 C.3   1 <1>   0.1200 
  4 C       -1.8330     0.0120     0.2560 C.ar  1 <1>   0.0000 
  5 C       -0.9790     2.1730    -0.4490 C.ar  1 <1>  -0.1500 
  6 C        2.8470     0.1530    -0.0540 C.3   1 <1>  -0.1600 
  7 C       -3.1490     0.5200     0.1730 C.ar  1 <1>   0.0000 
  8 C       -1.6670    -1.3330     0.6580 C.ar  1 <1>  -0.1500 
  9 C       -2.2840     2.6670    -0.5280 C.ar  1 <1>  -0.1500 
 10 C        4.1590     0.8740    -0.3570 C.3   1 <1>   0.3430 
 11 C       -3.3410     1.8570    -0.2240 C.ar  1 <1>  -0.1500 
 12 C       -4.2320    -0.3250     0.4890 C.ar  1 <1>  -0.1500 
 13 C       -2.7360    -2.1320     0.9590 C.ar  1 <1>  -0.1500 
 14 N        5.3260    -0.0010    -0.0420 N.4   1 <1>  -0.9590 
 15 C       -4.0350    -1.6220     0.8740 C.ar  1 <1>  -0.1500 
 16 C        6.5720     0.8110     0.0130 C.3   1 <1>   0.3430 
 17 C        5.4490    -1.1430    -0.9920 C.3   1 <1>   0.3430 
 18 C        7.6650     0.0360     0.7400 C.3   1 <1>  -0.2400 
 19 C        5.2460    -2.4380    -0.2170 C.3   1 <1>  -0.2400 
 20 H        1.6900     1.9270     0.4040 H     1 <1>   0.0800 
 21 H        1.5900     1.4140    -1.2880 H     1 <1>   0.0800 
 22 H       -0.1850     2.8490    -0.6980 H     1 <1>   0.1500 
 23 H        2.7280    -0.6940    -0.7050 H     1 <1>   0.0800 
 24 H        2.8420    -0.1760     0.9710 H     1 <1>   0.0800 
 25 H       -0.6710    -1.7300     0.7250 H     1 <1>   0.1500 
 26 H       -2.4420     3.6880    -0.8310 H     1 <1>   0.1500 
 27 H        4.2080     1.7660     0.2470 H     1 <1>   0.0800 
 28 H        4.1860     1.1680    -1.3940 H     1 <1>   0.0800 
 29 H       -4.3470     2.2340    -0.2840 H     1 <1>   0.1500 
 30 H       -5.2280     0.0730     0.4210 H     1 <1>   0.1500 
 31 H       -2.5940    -3.1540     1.2640 H     1 <1>   0.1500 
 32 H        5.1780    -0.3980     0.8950 H     1 <1>   0.4500 
 33 H       -4.8660    -2.2620     1.1140 H     1 <1>   0.1500 
 34 H        6.3850     1.7280     0.5500 H     1 <1>   0.0800 
 35 H        6.8980     1.0660    -0.9840 H     1 <1>   0.0800 
 36 H        6.4240    -1.1470    -1.4520 H     1 <1>   0.0800 
 37 H        4.7090    -1.0660    -1.7730 H     1 <1>   0.0800 
 38 H        7.3480    -0.2350     1.7320 H     1 <1>   0.0800 
 39 H        7.9520    -0.8460     0.1970 H     1 <1>   0.0800 
 40 H        8.5370     0.6590     0.8310 H     1 <1>   0.0800 
 41 H        5.3340    -3.2700    -0.8920 H     1 <1>   0.0800 
 42 H        5.9960    -2.5510     0.5460 H     1 <1>   0.0800 
 43 H        4.2680    -2.4750     0.2270 H     1 <1>   0.0800 
@<TRIPOS>BOND
  1   1   2  1   
  2   1   3  1   
  3   2   4  ar  
  4   2   5  ar  
  5   3   6  1   
  6   3  20  1   
  7   3  21  1   
  8   4   7  ar  
  9   4   8  ar  
 10   5   9  ar  
 11   5  22  1   
 12   6  10  1   
 13   6  23  1   
 14   6  24  1   
 15   7  11  ar  
 16   7  12  ar  
 17   8  13  ar  
 18   8  25  1   
 19   9  11  ar  
 20   9  26  1   
 21  10  14  1   
 22  10  27  1   
 23  10  28  1   
 24  11  29  1   
 25  12  15  ar  
 26  12  30  1   
 27  13  15  ar  
 28  13  31  1   
 29  14  16  1   
 30  14  17  1   
 31  14  32  1   
 32  15  33  1   
 33  16  18  1   
 34  16  34  1   
 35  16  35  1   
 36  17  19  1   
 37  17  36  1   
 38  17  37  1   
 39  18  38  1   
 40  18  39  1   
 41  18  40  1   
 42  19  41  1   
 43  19  42  1   
 44  19  43  1   
@<TRIPOS>SUBSTRUCTURE
  1 ****   1 GROUP 4 **** **** 0

# MOE 2024.06 (io_trps.svl 2023.06)
