@<TRIPOS>MOLECULE
NONAME
41 42 1 0 0 
SMALL
USER_CHARGES


@<TRIPOS>ATOM
  1 O        0.1470    -0.2670     1.1330 O.2   1 <1>  -0.5700 
  2 C        0.9820    -1.0490     0.7350 C.2   1 <1>   0.5690 
  3 N        2.2010    -0.6180     0.2820 N.am  1 <1>  -0.6600 
  4 C        0.6540    -2.5380     0.7970 C.3   1 <1>   0.1810 
  5 C        3.2790    -1.4780    -0.2560 C.3   1 <1>   0.1400 
  6 C        2.5800     0.8080     0.2380 C.3   1 <1>   0.1400 
  7 O        0.6420    -3.1250    -0.4960 O.3   1 <1>  -0.3620 
  8 C        4.3100    -0.5040    -0.8180 C.3   1 <1>  -0.1600 
  9 C        4.0760     0.7980    -0.0550 C.3   1 <1>  -0.1600 
 10 C        0.5730    -4.4770    -0.5350 C.ar  1 <1>   0.0820 
 11 C        1.6580    -5.2830    -0.1800 C.ar  1 <1>   0.0820 
 12 C       -0.6150    -5.0460    -0.9580 C.ar  1 <1>  -0.1500 
 13 O        2.8200    -4.6790     0.2060 O.3   1 <1>  -0.3630 
 14 C        1.5130    -6.6680    -0.2380 C.ar  1 <1>  -0.1500 
 15 C       -0.7430    -6.4220    -1.0130 C.ar  1 <1>  -0.1500 
 16 C        3.9850    -5.4270     0.4730 C.3   1 <1>   0.0400 
 17 C        0.3170    -7.2390    -0.6530 C.ar  1 <1>  -0.1440 
 18 C        0.1580    -8.7510    -0.7160 C.3   1 <1>   0.1220 
 19 C       -0.7270    -9.2320     0.4210 C.2   1 <1>  -0.2880 
 20 C       -1.8590    -9.9280     0.2780 C.2   1 <1>  -0.3000 
 21 H       -0.3190    -2.6760     1.2310 H     1 <1>   0.0800 
 22 H        1.3850    -3.0350     1.4050 H     1 <1>   0.0800 
 23 H        2.9070    -2.1350    -1.0240 H     1 <1>   0.0800 
 24 H        3.7030    -2.0580     0.5450 H     1 <1>   0.0800 
 25 H        2.3550     1.2940     1.1720 H     1 <1>   0.0800 
 26 H        2.0380     1.2870    -0.5590 H     1 <1>   0.0800 
 27 H        4.1090    -0.3540    -1.8640 H     1 <1>   0.0800 
 28 H        5.3130    -0.8750    -0.7030 H     1 <1>   0.0800 
 29 H        4.6130     0.7780     0.8770 H     1 <1>   0.0800 
 30 H        4.3780     1.6640    -0.6160 H     1 <1>   0.0800 
 31 H       -1.4340    -4.4100    -1.2390 H     1 <1>   0.1500 
 32 H        2.3210    -7.3160     0.0370 H     1 <1>   0.1500 
 33 H       -1.6740    -6.8580    -1.3330 H     1 <1>   0.1500 
 34 H        4.7770    -4.7390     0.7120 H     1 <1>   0.0800 
 35 H        4.2460    -5.9930    -0.4030 H     1 <1>   0.0800 
 36 H        3.8000    -6.0750     1.3120 H     1 <1>   0.0800 
 37 H        1.1180    -9.2300    -0.6440 H     1 <1>   0.0800 
 38 H       -0.2740    -9.0260    -1.6620 H     1 <1>   0.0800 
 39 H       -0.3440    -8.9440     1.3860 H     1 <1>   0.1500 
 40 H       -2.4690   -10.2550     1.1030 H     1 <1>   0.1500 
 41 H       -2.2730   -10.2300    -0.6690 H     1 <1>   0.1500 
@<TRIPOS>BOND
  1   1   2  2   
  2   2   3  am  
  3   2   4  1   
  4   3   5  1   
  5   3   6  1   
  6   4   7  1   
  7   4  21  1   
  8   4  22  1   
  9   5   8  1   
 10   5  23  1   
 11   5  24  1   
 12   6   9  1   
 13   6  25  1   
 14   6  26  1   
 15   7  10  1   
 16   8   9  1   
 17   8  27  1   
 18   8  28  1   
 19   9  29  1   
 20   9  30  1   
 21  10  11  ar  
 22  10  12  ar  
 23  11  13  1   
 24  11  14  ar  
 25  12  15  ar  
 26  12  31  1   
 27  13  16  1   
 28  14  17  ar  
 29  14  32  1   
 30  15  17  ar  
 31  15  33  1   
 32  16  34  1   
 33  16  35  1   
 34  16  36  1   
 35  17  18  1   
 36  18  19  1   
 37  18  37  1   
 38  18  38  1   
 39  19  20  2   
 40  19  39  1   
 41  20  40  1   
 42  20  41  1   
@<TRIPOS>SUBSTRUCTURE
  1 ****  10 GROUP 4 **** **** 0

# MOE 2024.06 (io_trps.svl 2023.06)
