@<TRIPOS>MOLECULE
NONAME
46 47 1 0 0 
SMALL
USER_CHARGES


@<TRIPOS>ATOM
  1 O       -1.0510     0.3670     1.4330 O.3   1 <1>  -0.5600 
  2 C       -1.8010     1.5510     1.3560 C.3   1 <1>   0.2000 
  3 C       -0.3650    -0.0520     0.2790 C.3   1 <1>   0.2000 
  4 C       -2.8920     1.4390     0.2580 C.3   1 <1>   0.3430 
  5 C       -0.8570     2.7440     1.1610 C.3   1 <1>  -0.2400 
  6 C       -1.2080     0.1660    -1.0060 C.3   1 <1>   0.3430 
  7 C       -0.0420    -1.5290     0.4970 C.3   1 <1>  -0.2400 
  8 N       -2.6610     0.2800    -0.6750 N.4   1 <1>  -0.9590 
  9 C       -3.5460     0.3180    -1.8590 C.3   1 <1>   0.4810 
 10 C       -4.9820     0.2910    -1.3730 C.2   1 <1>  -0.2760 
 11 C       -5.7950     1.3510    -1.4530 C.2   1 <1>  -0.2880 
 12 C       -5.4400    -1.0470    -0.7930 C.3   1 <1>  -0.0220 
 13 C       -7.2370     1.3670    -0.9610 C.3   1 <1>  -0.0220 
 14 C       -6.9700    -1.1230    -0.6910 C.3   1 <1>  -0.1600 
 15 C       -7.5600     0.1540    -0.0700 C.3   1 <1>   0.0580 
 16 C       -9.0690     0.0550     0.1820 C.2   1 <1>  -0.2760 
 17 C       -9.8910    -0.8450    -0.3720 C.2   1 <1>  -0.3000 
 18 C       -9.6010     1.0960     1.1580 C.3   1 <1>  -0.1020 
 19 H       -2.2890     1.6670     2.3100 H     1 <1>   0.0800 
 20 H        0.5560     0.5020     0.2130 H     1 <1>   0.0800 
 21 H       -2.9170     2.3610    -0.2980 H     1 <1>   0.0800 
 22 H       -3.8530     1.3300     0.7330 H     1 <1>   0.0800 
 23 H       -0.3880     2.7370     0.1950 H     1 <1>   0.0800 
 24 H       -0.0980     2.7360     1.9250 H     1 <1>   0.0800 
 25 H       -1.4080     3.6620     1.2560 H     1 <1>   0.0800 
 26 H       -1.0350    -0.6520    -1.6850 H     1 <1>   0.0800 
 27 H       -0.8750     1.0690    -1.4890 H     1 <1>   0.0800 
 28 H       -0.9420    -2.1080     0.6020 H     1 <1>   0.0800 
 29 H        0.5520    -1.6420     1.3880 H     1 <1>   0.0800 
 30 H        0.5250    -1.9160    -0.3300 H     1 <1>   0.0800 
 31 H       -2.8970    -0.5560    -0.1270 H     1 <1>   0.4500 
 32 H       -3.3620    -0.5280    -2.5020 H     1 <1>   0.0800 
 33 H       -3.3700     1.2220    -2.4200 H     1 <1>   0.0800 
 34 H       -5.5070     2.2960    -1.8850 H     1 <1>   0.1500 
 35 H       -5.0160    -1.1820     0.1870 H     1 <1>   0.0800 
 36 H       -5.1060    -1.8580    -1.4180 H     1 <1>   0.0800 
 37 H       -7.8960     1.3700    -1.8120 H     1 <1>   0.0800 
 38 H       -7.4120     2.2700    -0.4040 H     1 <1>   0.0800 
 39 H       -7.2470    -1.9780    -0.0990 H     1 <1>   0.0800 
 40 H       -7.3770    -1.2540    -1.6780 H     1 <1>   0.0800 
 41 H       -7.0760     0.2930     0.8820 H     1 <1>   0.0800 
 42 H      -10.9470    -0.8930    -0.1730 H     1 <1>   0.1500 
 43 H       -9.5990    -1.6110    -1.0680 H     1 <1>   0.1500 
 44 H       -9.4630     2.0880     0.7710 H     1 <1>   0.0800 
 45 H       -9.0940     1.0150     2.1030 H     1 <1>   0.0800 
 46 H      -10.6530     0.9510     1.3310 H     1 <1>   0.0800 
@<TRIPOS>BOND
  1   1   2  1   
  2   1   3  1   
  3   2   4  1   
  4   2   5  1   
  5   2  19  1   
  6   3   6  1   
  7   3   7  1   
  8   3  20  1   
  9   4   8  1   
 10   4  21  1   
 11   4  22  1   
 12   5  23  1   
 13   5  24  1   
 14   5  25  1   
 15   6   8  1   
 16   6  26  1   
 17   6  27  1   
 18   7  28  1   
 19   7  29  1   
 20   7  30  1   
 21   8   9  1   
 22   8  31  1   
 23   9  10  1   
 24   9  32  1   
 25   9  33  1   
 26  10  11  2   
 27  10  12  1   
 28  11  13  1   
 29  11  34  1   
 30  12  14  1   
 31  12  35  1   
 32  12  36  1   
 33  13  15  1   
 34  13  37  1   
 35  13  38  1   
 36  14  15  1   
 37  14  39  1   
 38  14  40  1   
 39  15  16  1   
 40  15  41  1   
 41  16  17  2   
 42  16  18  1   
 43  17  42  1   
 44  17  43  1   
 45  18  44  1   
 46  18  45  1   
 47  18  46  1   
@<TRIPOS>SUBSTRUCTURE
  1 ****  10 GROUP 4 **** **** 0

# MOE 2024.06 (io_trps.svl 2023.06)
