@<TRIPOS>MOLECULE
NONAME
50 52 1 0 0 
SMALL
USER_CHARGES


@<TRIPOS>ATOM
  1 S        1.6760     0.6370    -1.3910 S.o2  1 <1>   1.4470 
  2 O        0.4970    -0.0270    -1.8880 O.2   1 <1>  -0.6500 
  3 O        2.8080     0.8290    -2.2720 O.2   1 <1>  -0.6500 
  4 N        1.2420     2.2320    -0.8550 N.am  1 <1>  -0.6930 
  5 C        2.2700    -0.2120     0.1040 C.ar  1 <1>  -0.0090 
  6 C       -0.0530     2.5970    -0.4830 C.ar  1 <1>   0.1990 
  7 C        2.3460     3.2350    -0.7390 C.3   1 <1>   0.2570 
  8 C        3.2180    -1.2280    -0.0110 C.ar  1 <1>  -0.1500 
  9 C        1.8050     0.1080     1.3800 C.ar  1 <1>  -0.1500 
 10 C       -1.1270     2.4180    -1.3490 C.ar  1 <1>  -0.1500 
 11 C       -0.3040     3.1740     0.7600 C.ar  1 <1>  -0.1500 
 12 C        3.3500     2.9200     0.3850 C.2   1 <1>   0.5690 
 13 C        3.7140    -1.8850     1.1030 C.ar  1 <1>  -0.1500 
 14 C        2.2910    -0.5330     2.5070 C.ar  1 <1>  -0.1500 
 15 C       -2.4090     2.7890    -0.9850 C.ar  1 <1>  -0.1500 
 16 C       -1.5830     3.5490     1.1280 C.ar  1 <1>  -0.1500 
 17 O        3.0470     3.2760     1.4990 O.2   1 <1>  -0.5700 
 18 N        4.5410     2.2530     0.1820 N.am  1 <1>  -0.6600 
 19 C        3.2450    -1.5170     2.3470 C.ar  1 <1>   0.1900 
 20 C       -2.6390     3.3560     0.2560 C.ar  1 <1>  -0.1500 
 21 C        5.2350     2.0570    -1.1320 C.3   1 <1>   0.1400 
 22 C        5.2920     1.6820     1.3480 C.3   1 <1>   0.1400 
 23 F        3.7230    -2.1140     3.4030 F     1 <1>  -0.1900 
 24 C        6.6930     2.5590    -1.0720 C.3   1 <1>   0.3430 
 25 C        6.7340     2.2160     1.3920 C.3   1 <1>   0.3430 
 26 N        7.4580     1.9800     0.0910 N.4   1 <1>  -0.9590 
 27 C        8.8480     2.5300     0.1480 C.3   1 <1>   0.2630 
 28 H        1.9160     4.1980    -0.5290 H     1 <1>   0.0800 
 29 H        2.8390     3.3220    -1.6860 H     1 <1>   0.0800 
 30 H        3.5690    -1.5100    -0.9900 H     1 <1>   0.1500 
 31 H        1.0540     0.8690     1.5030 H     1 <1>   0.1500 
 32 H       -0.9610     1.9850    -2.3190 H     1 <1>   0.1500 
 33 H        0.5030     3.3310     1.4510 H     1 <1>   0.1500 
 34 H        4.4420    -2.6720     1.0130 H     1 <1>   0.1500 
 35 H        1.9360    -0.2770     3.4910 H     1 <1>   0.1500 
 36 H       -3.2270     2.6370    -1.6690 H     1 <1>   0.1500 
 37 H       -1.7590     3.9910     2.0940 H     1 <1>   0.1500 
 38 H       -3.6360     3.6450     0.5410 H     1 <1>   0.1500 
 39 H        4.7280     2.5810    -1.9210 H     1 <1>   0.0800 
 40 H        5.2280     1.0100    -1.3830 H     1 <1>   0.0800 
 41 H        5.3050     0.6090     1.2680 H     1 <1>   0.0800 
 42 H        4.8040     1.9220     2.2770 H     1 <1>   0.0800 
 43 H        6.6780     3.6340    -0.9920 H     1 <1>   0.0800 
 44 H        7.1880     2.3070    -1.9970 H     1 <1>   0.0800 
 45 H        7.2620     1.7340     2.1990 H     1 <1>   0.0800 
 46 H        6.6980     3.2720     1.6050 H     1 <1>   0.0800 
 47 H        7.5150     0.9610    -0.0510 H     1 <1>   0.4500 
 48 H        8.8240     3.5970     0.2980 H     1 <1>   0.0800 
 49 H        9.3710     2.3240    -0.7720 H     1 <1>   0.0800 
 50 H        9.3960     2.0810     0.9600 H     1 <1>   0.0800 
@<TRIPOS>BOND
  1   1   2  2   
  2   1   3  2   
  3   1   4  am  
  4   1   5  1   
  5   4   6  1   
  6   4   7  1   
  7   5   8  ar  
  8   5   9  ar  
  9   6  10  ar  
 10   6  11  ar  
 11   7  12  1   
 12   7  28  1   
 13   7  29  1   
 14   8  13  ar  
 15   8  30  1   
 16   9  14  ar  
 17   9  31  1   
 18  10  15  ar  
 19  10  32  1   
 20  11  16  ar  
 21  11  33  1   
 22  12  17  2   
 23  12  18  am  
 24  13  19  ar  
 25  13  34  1   
 26  14  19  ar  
 27  14  35  1   
 28  15  20  ar  
 29  15  36  1   
 30  16  20  ar  
 31  16  37  1   
 32  18  21  1   
 33  18  22  1   
 34  19  23  1   
 35  20  38  1   
 36  21  24  1   
 37  21  39  1   
 38  21  40  1   
 39  22  25  1   
 40  22  41  1   
 41  22  42  1   
 42  24  26  1   
 43  24  43  1   
 44  24  44  1   
 45  25  26  1   
 46  25  45  1   
 47  25  46  1   
 48  26  27  1   
 49  26  47  1   
 50  27  48  1   
 51  27  49  1   
 52  27  50  1   
@<TRIPOS>SUBSTRUCTURE
  1 ****  12 GROUP 4 **** **** 0

# MOE 2024.06 (io_trps.svl 2023.06)
