@<TRIPOS>MOLECULE
NONAME
45 46 1 0 0 
SMALL
USER_CHARGES


@<TRIPOS>ATOM
  1 O        0.2590     2.0690    -3.6450 O.2   1 <1>  -0.5700 
  2 C       -0.1070     2.0600    -2.4930 C.2   1 <1>   0.5690 
  3 N        0.7070     1.6540    -1.4820 N.am  1 <1>  -0.7300 
  4 C       -1.5270     2.5140    -2.1760 C.3   1 <1>   0.1810 
  5 C        2.1070     1.2110    -1.6190 C.3   1 <1>   0.1400 
  6 O       -1.7750     2.5040    -0.7750 O.3   1 <1>  -0.3620 
  7 C        2.9690     1.9710    -0.6130 C.3   1 <1>  -0.1600 
  8 C       -2.9670     2.9030    -0.2600 C.ar  1 <1>   0.0820 
  9 C        4.4450     1.5780    -0.7350 C.3   1 <1>  -0.0160 
 10 C       -3.0930     2.9340     1.1260 C.ar  1 <1>  -0.1440 
 11 C       -4.0480     3.2770    -1.0550 C.ar  1 <1>  -0.1500 
 12 C        5.2800     2.3280     0.2890 C.ar  1 <1>  -0.1440 
 13 C       -4.2910     3.3340     1.6970 C.ar  1 <1>  -0.1500 
 14 C       -1.9290     2.5340     2.0220 C.3   1 <1>  -0.0970 
 15 C       -5.2370     3.6750    -0.4720 C.ar  1 <1>  -0.1500 
 16 C        5.7580     3.5980     0.0040 C.ar  1 <1>  -0.1500 
 17 C        5.5690     1.7540     1.5180 C.ar  1 <1>  -0.1500 
 18 C       -5.3660     3.7040     0.9060 C.ar  1 <1>  -0.1440 
 19 C        6.5170     4.2860     0.9350 C.ar  1 <1>  -0.1500 
 20 C        6.3280     2.4400     2.4500 C.ar  1 <1>  -0.1500 
 21 C       -6.6700     4.1410     1.5480 C.3   1 <1>  -0.0970 
 22 C        6.8030     3.7070     2.1590 C.ar  1 <1>  -0.1500 
 23 H        0.3200     1.6790    -0.5340 H     1 <1>   0.3700 
 24 H       -2.2250     1.8480    -2.6490 H     1 <1>   0.0800 
 25 H       -1.6670     3.5150    -2.5380 H     1 <1>   0.0800 
 26 H        2.4520     1.4020    -2.6220 H     1 <1>   0.0800 
 27 H        2.1620     0.1510    -1.4340 H     1 <1>   0.0800 
 28 H        2.6300     1.7590     0.3860 H     1 <1>   0.0800 
 29 H        2.8730     3.0280    -0.7910 H     1 <1>   0.0800 
 30 H        4.8040     1.8050    -1.7240 H     1 <1>   0.0800 
 31 H        4.5560     0.5180    -0.5830 H     1 <1>   0.0800 
 32 H       -3.9890     3.2660    -2.1260 H     1 <1>   0.1500 
 33 H       -4.3910     3.3600     2.7670 H     1 <1>   0.1500 
 34 H       -1.6510     1.5150     1.8230 H     1 <1>   0.0800 
 35 H       -2.1890     2.6230     3.0600 H     1 <1>   0.0800 
 36 H       -1.0840     3.1700     1.8250 H     1 <1>   0.0800 
 37 H       -6.0650     3.9620    -1.0970 H     1 <1>   0.1500 
 38 H        5.5400     4.0570    -0.9440 H     1 <1>   0.1500 
 39 H        5.2040     0.7700     1.7550 H     1 <1>   0.1500 
 40 H        6.8850     5.2700     0.7060 H     1 <1>   0.1500 
 41 H        6.5500     1.9890     3.4010 H     1 <1>   0.1500 
 42 H       -6.8490     3.5830     2.4490 H     1 <1>   0.0800 
 43 H       -7.4960     3.9760     0.8790 H     1 <1>   0.0800 
 44 H       -6.6230     5.1880     1.7900 H     1 <1>   0.0800 
 45 H        7.3930     4.2410     2.8820 H     1 <1>   0.1500 
@<TRIPOS>BOND
  1   1   2  2   
  2   2   3  am  
  3   2   4  1   
  4   3   5  1   
  5   3  23  1   
  6   4   6  1   
  7   4  24  1   
  8   4  25  1   
  9   5   7  1   
 10   5  26  1   
 11   5  27  1   
 12   6   8  1   
 13   7   9  1   
 14   7  28  1   
 15   7  29  1   
 16   8  10  ar  
 17   8  11  ar  
 18   9  12  1   
 19   9  30  1   
 20   9  31  1   
 21  10  13  ar  
 22  10  14  1   
 23  11  15  ar  
 24  11  32  1   
 25  12  16  ar  
 26  12  17  ar  
 27  13  18  ar  
 28  13  33  1   
 29  14  34  1   
 30  14  35  1   
 31  14  36  1   
 32  15  18  ar  
 33  15  37  1   
 34  16  19  ar  
 35  16  38  1   
 36  17  20  ar  
 37  17  39  1   
 38  18  21  1   
 39  19  22  ar  
 40  19  40  1   
 41  20  22  ar  
 42  20  41  1   
 43  21  42  1   
 44  21  43  1   
 45  21  44  1   
 46  22  45  1   
@<TRIPOS>SUBSTRUCTURE
  1 ****   3 GROUP 4 **** **** 0

# MOE 2024.06 (io_trps.svl 2023.06)
