@<TRIPOS>MOLECULE
NONAME
44 46 1 0 0 
SMALL
USER_CHARGES


@<TRIPOS>ATOM
  1 O        0.0290    -1.4000    -1.9780 O.2   1 <1>  -0.5700 
  2 C       -0.2230    -1.9850    -0.9420 C.2   1 <1>   0.5440 
  3 N        0.6960    -1.9450     0.0860 N.am  1 <1>  -0.6600 
  4 C       -1.4720    -2.7170    -0.8260 C.ar  1 <1>   0.0860 
  5 C        1.8700    -1.0210     0.0660 C.3   1 <1>   0.1400 
  6 C        0.7710    -2.9610     1.1790 C.3   1 <1>   0.1400 
  7 C       -1.8840    -3.5920    -1.8290 C.ar  1 <1>  -0.1500 
  8 C       -2.3060    -2.5720     0.2820 C.ar  1 <1>  -0.1500 
  9 C        3.1840    -1.8130     0.1430 C.3   1 <1>   0.1200 
 10 C        2.1530    -3.6360     1.1970 C.3   1 <1>   0.1200 
 11 C       -3.0650    -4.3060    -1.7250 C.ar  1 <1>  -0.1500 
 12 C       -3.4870    -3.2840     0.3920 C.ar  1 <1>  -0.1500 
 13 O        3.1730    -2.6800     1.2430 O.3   1 <1>  -0.5600 
 14 C       -3.8750    -4.1590    -0.6100 C.ar  1 <1>  -0.1430 
 15 C       -5.1720    -4.9450    -0.4850 C.3   1 <1>   0.2630 
 16 O       -6.2260    -4.0510    -0.2010 O.3   1 <1>  -0.3630 
 17 C       -7.4950    -4.4920    -0.0210 C.ar  1 <1>   0.0820 
 18 C       -8.4560    -3.5270     0.2360 C.ar  1 <1>  -0.1500 
 19 C       -7.8680    -5.8320    -0.0820 C.ar  1 <1>  -0.1500 
 20 C       -9.7810    -3.8800     0.4350 C.ar  1 <1>  -0.1430 
 21 C       -9.1910    -6.1870     0.1160 C.ar  1 <1>  -0.1500 
 22 C      -10.1430    -5.2160     0.3730 C.ar  1 <1>  -0.1500 
 23 C      -10.8300    -2.8190     0.7150 C.3   1 <1>  -0.0970 
 24 H        1.8090    -0.3560     0.9090 H     1 <1>   0.0800 
 25 H        1.8700    -0.4190    -0.8270 H     1 <1>   0.0800 
 26 H        0.0200    -3.7190     1.0490 H     1 <1>   0.0800 
 27 H        0.6010    -2.4770     2.1240 H     1 <1>   0.0800 
 28 H       -1.2650    -3.7040    -2.7020 H     1 <1>   0.1500 
 29 H       -2.0250    -1.8860     1.0610 H     1 <1>   0.1500 
 30 H        4.0160    -1.1420     0.2610 H     1 <1>   0.0800 
 31 H        3.3290    -2.3910    -0.7540 H     1 <1>   0.0800 
 32 H        2.2890    -4.2430     0.3180 H     1 <1>   0.0800 
 33 H        2.2500    -4.2620     2.0670 H     1 <1>   0.0800 
 34 H       -3.3510    -4.9710    -2.5220 H     1 <1>   0.1500 
 35 H       -4.1140    -3.1500     1.2570 H     1 <1>   0.1500 
 36 H       -5.1000    -5.6510     0.3230 H     1 <1>   0.0800 
 37 H       -5.4040    -5.4530    -1.4040 H     1 <1>   0.0800 
 38 H       -8.1520    -2.4970     0.2760 H     1 <1>   0.1500 
 39 H       -7.1550    -6.6080    -0.2780 H     1 <1>   0.1500 
 40 H       -9.4830    -7.2220     0.0690 H     1 <1>   0.1500 
 41 H      -11.1690    -5.5030     0.5230 H     1 <1>   0.1500 
 42 H      -10.3680    -1.9010     1.0290 H     1 <1>   0.0800 
 43 H      -11.4920    -3.1500     1.4940 H     1 <1>   0.0800 
 44 H      -11.4030    -2.6320    -0.1750 H     1 <1>   0.0800 
@<TRIPOS>BOND
  1   1   2  2   
  2   2   3  am  
  3   2   4  1   
  4   3   5  1   
  5   3   6  1   
  6   4   7  ar  
  7   4   8  ar  
  8   5   9  1   
  9   5  24  1   
 10   5  25  1   
 11   6  10  1   
 12   6  26  1   
 13   6  27  1   
 14   7  11  ar  
 15   7  28  1   
 16   8  12  ar  
 17   8  29  1   
 18   9  13  1   
 19   9  30  1   
 20   9  31  1   
 21  10  13  1   
 22  10  32  1   
 23  10  33  1   
 24  11  14  ar  
 25  11  34  1   
 26  12  14  ar  
 27  12  35  1   
 28  14  15  1   
 29  15  16  1   
 30  15  36  1   
 31  15  37  1   
 32  16  17  1   
 33  17  18  ar  
 34  17  19  ar  
 35  18  20  ar  
 36  18  38  1   
 37  19  21  ar  
 38  19  39  1   
 39  20  22  ar  
 40  20  23  1   
 41  21  22  ar  
 42  21  40  1   
 43  22  41  1   
 44  23  42  1   
 45  23  43  1   
 46  23  44  1   
@<TRIPOS>SUBSTRUCTURE
  1 ****  12 GROUP 4 **** **** 0

# MOE 2024.06 (io_trps.svl 2023.06)
