@<TRIPOS>MOLECULE
NONAME
47 48 1 0 0 
SMALL
USER_CHARGES


@<TRIPOS>ATOM
  1 BR       1.1320    -1.5550    -2.5570 Br    1 <1>  -0.1110 
  2 C       -0.5930    -1.3180    -1.7250 C.ar  1 <1>   0.1110 
  3 C       -0.8340    -0.2220    -0.9120 C.ar  1 <1>   0.0830 
  4 C       -1.5570    -2.2790    -1.9580 C.ar  1 <1>  -0.1500 
  5 O        0.1110     0.7130    -0.6860 O.3   1 <1>  -0.5330 
  6 C       -2.0820    -0.0840    -0.3120 C.ar  1 <1>   0.0830 
  7 C       -2.7990    -2.1570    -1.3490 C.ar  1 <1>  -0.1430 
  8 O       -2.2790     1.0130     0.4740 O.3   1 <1>  -0.3630 
  9 C       -3.0550    -1.0580    -0.5340 C.ar  1 <1>  -0.1500 
 10 C       -3.8610    -3.2340    -1.5620 C.3   1 <1>   0.5020 
 11 C       -3.5260     1.2520     1.0910 C.3   1 <1>   0.0400 
 12 N       -4.9650    -2.6060    -2.3080 N.am  1 <1>  -0.7300 
 13 C       -4.3100    -3.8660    -0.2360 C.2   1 <1>  -0.1240 
 14 C       -6.2030    -2.4530    -1.8180 C.2   1 <1>   0.6900 
 15 C       -5.6130    -3.7400     0.1460 C.2   1 <1>  -0.0290 
 16 C       -3.2450    -4.5250     0.4660 C.2   1 <1>   0.7060 
 17 O       -7.0260    -1.7960    -2.4090 O.2   1 <1>  -0.5700 
 18 N       -6.5070    -3.0340    -0.6330 N.am  1 <1>  -0.5390 
 19 C       -6.2490    -4.3170     1.4040 C.3   1 <1>  -0.1020 
 20 O       -3.2990    -4.8520     1.6340 O.2   1 <1>  -0.5700 
 21 O       -2.1080    -4.7740    -0.1960 O.3   1 <1>  -0.4300 
 22 C       -0.9510    -5.2830     0.4420 C.3   1 <1>   0.1200 
 23 C        0.2570    -4.9270    -0.4210 C.3   1 <1>   0.0700 
 24 S        1.7440    -5.5920     0.3690 S.3   1 <1>  -0.4600 
 25 C        3.0800    -4.7750    -0.5380 C.3   1 <1>   0.0700 
 26 C        4.4010    -5.2690     0.0440 C.3   1 <1>  -0.2400 
 27 H       -1.3250    -3.1110    -2.5990 H     1 <1>   0.1500 
 28 H       -0.2490     1.4030    -0.0920 H     1 <1>   0.4500 
 29 H       -4.0250    -0.9770    -0.0780 H     1 <1>   0.1500 
 30 H       -3.4590    -4.0130    -2.1880 H     1 <1>   0.0800 
 31 H       -3.4590     2.1740     1.6400 H     1 <1>   0.0800 
 32 H       -3.7450     0.4420     1.7650 H     1 <1>   0.0800 
 33 H       -4.2830     1.3360     0.3310 H     1 <1>   0.0800 
 34 H       -4.7170    -2.0410    -3.1170 H     1 <1>   0.3700 
 35 H       -7.4800    -2.9050    -0.3530 H     1 <1>   0.3700 
 36 H       -6.3250    -3.5530     2.1570 H     1 <1>   0.0800 
 37 H       -5.6860    -5.1380     1.8040 H     1 <1>   0.0800 
 38 H       -7.2340    -4.6870     1.1860 H     1 <1>   0.0800 
 39 H       -1.0580    -6.3480     0.5460 H     1 <1>   0.0800 
 40 H       -0.8510    -4.8270     1.4130 H     1 <1>   0.0800 
 41 H        0.3850    -3.8620    -0.4840 H     1 <1>   0.0800 
 42 H        0.1920    -5.3690    -1.3990 H     1 <1>   0.0800 
 43 H        2.9610    -3.7130    -0.4070 H     1 <1>   0.0800 
 44 H        2.9790    -5.0380    -1.5760 H     1 <1>   0.0800 
 45 H        4.4600    -5.0210     1.0890 H     1 <1>   0.0800 
 46 H        5.2240    -4.8070    -0.4690 H     1 <1>   0.0800 
 47 H        4.4780    -6.3360    -0.0680 H     1 <1>   0.0800 
@<TRIPOS>BOND
  1   1   2  1   
  2   2   3  ar  
  3   2   4  ar  
  4   3   5  1   
  5   3   6  ar  
  6   4   7  ar  
  7   4  27  1   
  8   5  28  1   
  9   6   8  1   
 10   6   9  ar  
 11   7   9  ar  
 12   7  10  1   
 13   8  11  1   
 14   9  29  1   
 15  10  12  1   
 16  10  13  1   
 17  10  30  1   
 18  11  31  1   
 19  11  32  1   
 20  11  33  1   
 21  12  14  am  
 22  12  34  1   
 23  13  15  2   
 24  13  16  1   
 25  14  17  2   
 26  14  18  am  
 27  15  18  1   
 28  15  19  1   
 29  16  20  2   
 30  16  21  1   
 31  18  35  1   
 32  19  36  1   
 33  19  37  1   
 34  19  38  1   
 35  21  22  1   
 36  22  23  1   
 37  22  39  1   
 38  22  40  1   
 39  23  24  1   
 40  23  41  1   
 41  23  42  1   
 42  24  25  1   
 43  25  26  1   
 44  25  43  1   
 45  25  44  1   
 46  26  45  1   
 47  26  46  1   
 48  26  47  1   
@<TRIPOS>SUBSTRUCTURE
  1 ****   7 GROUP 4 **** **** 0

# MOE 2024.06 (io_trps.svl 2023.06)
