@<TRIPOS>MOLECULE
NONAME
35 36 1 0 0 
SMALL
USER_CHARGES


@<TRIPOS>ATOM
  1 O       -1.8210    -0.2430     2.5550 O.2   1 <1>  -0.5700 
  2 C       -2.3890     0.4800     1.7820 C.2   1 <1>   0.5690 
  3 N       -1.8850     1.7010     1.4760 N.am  1 <1>  -0.4900 
  4 C       -3.6900     0.0450     1.1310 C.3   1 <1>  -0.0990 
  5 C       -2.4070     2.5860     0.5920 C.2   1 <1>   0.5690 
  6 C       -3.8910     0.7100    -0.2470 C.3   1 <1>  -0.0800 
  7 O       -1.8610     3.6320     0.3690 O.2   1 <1>  -0.5700 
  8 C       -3.7020     2.2350    -0.1200 C.3   1 <1>  -0.0990 
  9 C       -5.2560     0.3760    -0.8860 C.3   1 <1>  -0.0220 
 10 C       -5.4650    -1.1300    -1.0740 C.2   1 <1>  -0.0380 
 11 N       -4.6700    -1.6310    -2.0460 N.pl3 1 <1>  -0.9000 
 12 C       -6.3760    -1.9100    -0.3650 C.2   1 <1>   0.0290 
 13 C       -7.1860    -1.4090     0.7120 C.2   1 <1>   0.4950 
 14 C       -6.5640    -3.3080    -0.6710 C.2   1 <1>   0.4950 
 15 O       -6.8690    -0.5020     1.4450 O.2   1 <1>  -0.5700 
 16 C       -8.5360    -2.0290     1.0490 C.3   1 <1>  -0.0990 
 17 O       -5.7960    -3.9960    -1.3090 O.2   1 <1>  -0.5700 
 18 C       -7.8040    -4.0500    -0.1940 C.3   1 <1>  -0.0990 
 19 C       -8.9740    -3.1010     0.0530 C.3   1 <1>  -0.1600 
 20 H       -1.0180     1.9650     1.9340 H     1 <1>   0.3700 
 21 H       -3.6840    -1.0260     1.0310 H     1 <1>   0.0800 
 22 H       -4.4900     0.3140     1.7940 H     1 <1>   0.0800 
 23 H       -3.1190     0.3380    -0.9000 H     1 <1>   0.0800 
 24 H       -4.5140     2.6630     0.4390 H     1 <1>   0.0800 
 25 H       -3.6930     2.6870    -1.0960 H     1 <1>   0.0800 
 26 H       -5.2990     0.8360    -1.8580 H     1 <1>   0.0800 
 27 H       -6.0460     0.8300    -0.3220 H     1 <1>   0.0800 
 28 H       -4.6860    -2.6460    -2.2640 H     1 <1>   0.4000 
 29 H       -3.9930    -1.1040    -2.6070 H     1 <1>   0.4000 
 30 H       -8.4660    -2.4590     2.0320 H     1 <1>   0.0800 
 31 H       -9.2760    -1.2490     1.0880 H     1 <1>   0.0800 
 32 H       -8.0860    -4.7740    -0.9390 H     1 <1>   0.0800 
 33 H       -7.5580    -4.5850     0.7070 H     1 <1>   0.0800 
 34 H       -9.2650    -2.6380    -0.8760 H     1 <1>   0.0800 
 35 H       -9.8220    -3.6420     0.4380 H     1 <1>   0.0800 
@<TRIPOS>BOND
  1   1   2  2   
  2   2   3  am  
  3   2   4  1   
  4   3   5  am  
  5   3  20  1   
  6   4   6  1   
  7   4  21  1   
  8   4  22  1   
  9   5   7  2   
 10   5   8  1   
 11   6   8  1   
 12   6   9  1   
 13   6  23  1   
 14   8  24  1   
 15   8  25  1   
 16   9  10  1   
 17   9  26  1   
 18   9  27  1   
 19  10  11  1   
 20  10  12  2   
 21  11  28  1   
 22  11  29  1   
 23  12  13  1   
 24  12  14  1   
 25  13  15  2   
 26  13  16  1   
 27  14  17  2   
 28  14  18  1   
 29  16  19  1   
 30  16  30  1   
 31  16  31  1   
 32  18  19  1   
 33  18  32  1   
 34  18  33  1   
 35  19  34  1   
 36  19  35  1   
@<TRIPOS>SUBSTRUCTURE
  1 ****  10 GROUP 4 **** **** 0

# MOE 2024.06 (io_trps.svl 2023.06)
