@<TRIPOS>MOLECULE
NONAME
45 47 1 0 0 
SMALL
USER_CHARGES


@<TRIPOS>ATOM
  1 S        0.0620    -0.2470    -0.2420 S.o2  1 <1>   1.3330 
  2 O        0.3660    -0.7220     1.0900 O.2   1 <1>  -0.6500 
  3 O        0.4070    -1.0610    -1.3860 O.2   1 <1>  -0.6500 
  4 N       -1.6050     0.0610    -0.2970 N.am  1 <1>  -0.8490 
  5 C        0.7760     1.3870    -0.4810 C.3   1 <1>  -0.0550 
  6 C       -2.1310     0.5030     0.9990 C.3   1 <1>   0.1960 
  7 C       -2.3520    -1.0880    -0.8200 C.3   1 <1>   0.1960 
  8 C        2.3140     1.4160    -0.4810 C.3   1 <1>  -0.2400 
  9 C       -3.5940     0.9270     0.8630 C.3   1 <1>  -0.1600 
 10 C       -3.8310    -0.7310    -0.9980 C.3   1 <1>  -0.1600 
 11 C       -4.4540    -0.2240     0.3120 C.3   1 <1>  -0.0190 
 12 C       -5.9150     0.1800     0.1100 C.2   1 <1>   0.5690 
 13 O       -6.1690     1.2560    -0.3670 O.2   1 <1>  -0.5700 
 14 N       -6.8730    -0.7220     0.4770 N.am  1 <1>  -0.4940 
 15 C       -8.2470    -0.6720     0.4280 C.2   1 <1>   0.4420 
 16 S       -9.1140     0.7040    -0.1620 S.3   1 <1>  -0.0800 
 17 N       -9.0340    -1.6110     0.8020 N.2   1 <1>  -0.3380 
 18 C      -10.5960    -0.1490     0.1620 C.2   1 <1>   0.3250 
 19 N      -10.3530    -1.3160     0.6520 N.2   1 <1>  -0.3380 
 20 C      -11.8720     0.4700    -0.1220 C.ar  1 <1>   0.0530 
 21 C      -13.0570    -0.2210     0.1460 C.ar  1 <1>  -0.1500 
 22 C      -11.9990     1.7540    -0.6640 C.ar  1 <1>  -0.1500 
 23 C      -14.2980     0.3320    -0.1090 C.ar  1 <1>  -0.1500 
 24 C      -13.2380     2.3120    -0.9210 C.ar  1 <1>  -0.1500 
 25 C      -14.3920     1.6030    -0.6450 C.ar  1 <1>  -0.1500 
 26 H        0.4230     2.0400     0.2930 H     1 <1>   0.0800 
 27 H        0.4270     1.7780    -1.4180 H     1 <1>   0.0800 
 28 H       -1.5560     1.3400     1.3590 H     1 <1>   0.0800 
 29 H       -2.0460    -0.2940     1.7210 H     1 <1>   0.0800 
 30 H       -2.2430    -1.9270    -0.1530 H     1 <1>   0.0800 
 31 H       -1.9570    -1.3720    -1.7820 H     1 <1>   0.0800 
 32 H        2.6910     1.0500     0.4590 H     1 <1>   0.0800 
 33 H        2.6690     2.4210    -0.6310 H     1 <1>   0.0800 
 34 H        2.6960     0.7920    -1.2700 H     1 <1>   0.0800 
 35 H       -3.6480     1.7770     0.2050 H     1 <1>   0.0800 
 36 H       -3.9690     1.2330     1.8240 H     1 <1>   0.0800 
 37 H       -4.3630    -1.5980    -1.3480 H     1 <1>   0.0800 
 38 H       -3.9120     0.0290    -1.7570 H     1 <1>   0.0800 
 39 H       -4.4210    -1.0250     1.0290 H     1 <1>   0.0800 
 40 H       -6.5350    -1.6030     0.8540 H     1 <1>   0.3700 
 41 H      -13.0030    -1.2120     0.5630 H     1 <1>   0.1500 
 42 H      -11.1260     2.3370    -0.8930 H     1 <1>   0.1500 
 43 H      -15.1920    -0.2270     0.1090 H     1 <1>   0.1500 
 44 H      -13.3070     3.3030    -1.3390 H     1 <1>   0.1500 
 45 H      -15.3560     2.0360    -0.8450 H     1 <1>   0.1500 
@<TRIPOS>BOND
  1   1   2  2   
  2   1   3  2   
  3   1   4  am  
  4   1   5  1   
  5   4   6  1   
  6   4   7  1   
  7   5   8  1   
  8   5  26  1   
  9   5  27  1   
 10   6   9  1   
 11   6  28  1   
 12   6  29  1   
 13   7  10  1   
 14   7  30  1   
 15   7  31  1   
 16   8  32  1   
 17   8  33  1   
 18   8  34  1   
 19   9  11  1   
 20   9  35  1   
 21   9  36  1   
 22  10  11  1   
 23  10  37  1   
 24  10  38  1   
 25  11  12  1   
 26  11  39  1   
 27  12  13  2   
 28  12  14  am  
 29  14  15  1   
 30  14  40  1   
 31  15  16  1   
 32  15  17  2   
 33  16  18  1   
 34  17  19  1   
 35  18  19  2   
 36  18  20  1   
 37  20  21  ar  
 38  20  22  ar  
 39  21  23  ar  
 40  21  41  1   
 41  22  24  ar  
 42  22  42  1   
 43  23  25  ar  
 44  23  43  1   
 45  24  25  ar  
 46  24  44  1   
 47  25  45  1   
@<TRIPOS>SUBSTRUCTURE
  1 ****  12 GROUP 4 **** **** 0

# MOE 2024.06 (io_trps.svl 2023.06)
