@<TRIPOS>MOLECULE
NONAME
51 53 1 0 0 
SMALL
USER_CHARGES


@<TRIPOS>ATOM
  1 S        0.5700    -1.9940    -1.3750 S.o2  1 <1>   1.4470 
  2 O        1.3830    -3.0750    -0.8590 O.2   1 <1>  -0.6500 
  3 O        0.6960    -1.6490    -2.7710 O.2   1 <1>  -0.6500 
  4 N        1.0590    -0.6160    -0.5020 N.am  1 <1>  -0.8490 
  5 C       -1.1750    -2.1970    -0.9220 C.ar  1 <1>  -0.0090 
  6 C        1.2960    -0.8460     0.9410 C.3   1 <1>   0.1960 
  7 C        2.2180     0.0630    -1.1100 C.3   1 <1>   0.1960 
  8 C       -1.5450    -2.9580     0.1740 C.ar  1 <1>  -0.1500 
  9 C       -2.1840    -1.5660    -1.6350 C.ar  1 <1>  -0.1500 
 10 C        2.6230    -1.5940     1.2530 C.3   1 <1>   0.3430 
 11 C        3.5160    -0.7550    -0.9370 C.3   1 <1>   0.3430 
 12 C       -2.8660    -3.1020     0.6040 C.ar  1 <1>   0.0860 
 13 C       -3.5070    -1.6950    -1.2600 C.ar  1 <1>  -0.1500 
 14 N        3.8170    -1.0340     0.5170 N.4   1 <1>  -0.9590 
 15 C       -3.8620    -2.4540    -0.1470 C.ar  1 <1>   0.0830 
 16 C       -3.1180    -3.8920     1.8000 C.2   1 <1>   0.5440 
 17 C        4.9870    -1.9450     0.6420 C.3   1 <1>   0.4860 
 18 O       -5.1580    -2.5750     0.2370 O.3   1 <1>  -0.3630 
 19 O       -2.2380    -4.0770     2.6160 O.2   1 <1>  -0.5700 
 20 N       -4.3090    -4.4650     2.0760 N.am  1 <1>  -0.8000 
 21 C        6.1990    -1.2480     0.0570 C.ar  1 <1>  -0.1430 
 22 C       -6.2220    -1.9060    -0.4090 C.3   1 <1>   0.0400 
 23 C        6.6810    -1.6200    -1.1910 C.ar  1 <1>  -0.1500 
 24 C        6.8300    -0.2300     0.7580 C.ar  1 <1>  -0.1500 
 25 C        7.7720    -0.9690    -1.7380 C.ar  1 <1>  -0.1500 
 26 C        7.9220     0.4200     0.2080 C.ar  1 <1>  -0.1500 
 27 C        8.3900     0.0520    -1.0400 C.ar  1 <1>  -0.1500 
 28 H        0.4720    -1.3960     1.3640 H     1 <1>   0.0800 
 29 H        1.3180     0.1080     1.4410 H     1 <1>   0.0800 
 30 H        2.3450     1.0290    -0.6530 H     1 <1>   0.0800 
 31 H        2.0400     0.2400    -2.1580 H     1 <1>   0.0800 
 32 H       -0.7760    -3.4690     0.7290 H     1 <1>   0.1500 
 33 H       -1.9310    -0.9670    -2.4950 H     1 <1>   0.1500 
 34 H        2.4980    -2.6310     0.9920 H     1 <1>   0.0800 
 35 H        2.8010    -1.5580     2.3160 H     1 <1>   0.0800 
 36 H        4.3350    -0.2140    -1.3820 H     1 <1>   0.0800 
 37 H        3.4080    -1.6850    -1.4730 H     1 <1>   0.0800 
 38 H       -4.2470    -1.1900    -1.8520 H     1 <1>   0.1500 
 39 H        4.0920    -0.1420     0.9440 H     1 <1>   0.4500 
 40 H        4.8000    -2.8680     0.1160 H     1 <1>   0.0800 
 41 H        5.1750    -2.1740     1.6790 H     1 <1>   0.0800 
 42 H       -4.4420    -4.9530     2.9610 H     1 <1>   0.3700 
 43 H       -5.1440    -4.2160     1.5410 H     1 <1>   0.3700 
 44 H       -7.1330    -2.1480     0.1080 H     1 <1>   0.0800 
 45 H       -6.2810    -2.2430    -1.4290 H     1 <1>   0.0800 
 46 H       -6.0490    -0.8450    -0.3620 H     1 <1>   0.0800 
 47 H        6.2200    -2.4170    -1.7510 H     1 <1>   0.1500 
 48 H        6.4920     0.0700     1.7350 H     1 <1>   0.1500 
 49 H        8.1460    -1.2570    -2.7070 H     1 <1>   0.1500 
 50 H        8.4140     1.2100     0.7500 H     1 <1>   0.1500 
 51 H        9.2410     0.5580    -1.4670 H     1 <1>   0.1500 
@<TRIPOS>BOND
  1   1   2  2   
  2   1   3  2   
  3   1   4  am  
  4   1   5  1   
  5   4   6  1   
  6   4   7  1   
  7   5   8  ar  
  8   5   9  ar  
  9   6  10  1   
 10   6  28  1   
 11   6  29  1   
 12   7  11  1   
 13   7  30  1   
 14   7  31  1   
 15   8  12  ar  
 16   8  32  1   
 17   9  13  ar  
 18   9  33  1   
 19  10  14  1   
 20  10  34  1   
 21  10  35  1   
 22  11  14  1   
 23  11  36  1   
 24  11  37  1   
 25  12  15  ar  
 26  12  16  1   
 27  13  15  ar  
 28  13  38  1   
 29  14  17  1   
 30  14  39  1   
 31  15  18  1   
 32  16  19  2   
 33  16  20  am  
 34  17  21  1   
 35  17  40  1   
 36  17  41  1   
 37  18  22  1   
 38  20  42  1   
 39  20  43  1   
 40  21  23  ar  
 41  21  24  ar  
 42  22  44  1   
 43  22  45  1   
 44  22  46  1   
 45  23  25  ar  
 46  23  47  1   
 47  24  26  ar  
 48  24  48  1   
 49  25  27  ar  
 50  25  49  1   
 51  26  27  ar  
 52  26  50  1   
 53  27  51  1   
@<TRIPOS>SUBSTRUCTURE
  1 ****   4 GROUP 4 **** **** 0

# MOE 2024.06 (io_trps.svl 2023.06)
