@<TRIPOS>MOLECULE
NONAME
36 36 1 0 0 
SMALL
USER_CHARGES


@<TRIPOS>ATOM
  1 S       -0.8290     0.1400     0.0040 S.3   1 <1>  -0.4100 
  2 C       -2.3610    -0.8240     0.0130 C.3   1 <1>   0.0700 
  3 C       -3.5350     0.1580     0.0010 C.3   1 <1>  -0.1600 
  4 C       -4.8780    -0.5830     0.0080 C.3   1 <1>  -0.1600 
  5 C       -6.0520     0.4030    -0.0040 C.3   1 <1>  -0.1600 
  6 C       -7.3960    -0.3380     0.0030 C.3   1 <1>  -0.1600 
  7 C       -8.5710     0.6400    -0.0090 C.3   1 <1>   0.1200 
  8 O       -9.7630    -0.1090    -0.0020 O.3   1 <1>  -0.3630 
  9 C      -10.9900     0.4890    -0.0100 C.ar  1 <1>   0.0830 
 10 C      -12.1210    -0.3330    -0.0030 C.ar  1 <1>   0.0830 
 11 C      -11.1470     1.8730    -0.0250 C.ar  1 <1>  -0.1500 
 12 O      -11.9320    -1.6850     0.0120 O.3   1 <1>  -0.3630 
 13 C      -13.3880     0.2450    -0.0100 C.ar  1 <1>  -0.1500 
 14 C      -12.4120     2.4340    -0.0330 C.ar  1 <1>  -0.1500 
 15 C      -13.0150    -2.5860     0.0210 C.3   1 <1>   0.0400 
 16 C      -13.5310     1.6210    -0.0250 C.ar  1 <1>  -0.1500 
 17 H        0.1310    -0.8310     0.0160 H     1 <1>   0.1800 
 18 H       -2.3560    -1.4280     0.9030 H     1 <1>   0.0800 
 19 H       -2.3540    -1.4470    -0.8640 H     1 <1>   0.0800 
 20 H       -3.4670     0.7750    -0.8780 H     1 <1>   0.0800 
 21 H       -3.4690     0.7940     0.8670 H     1 <1>   0.0800 
 22 H       -4.9420    -1.2030     0.8860 H     1 <1>   0.0800 
 23 H       -4.9400    -1.2210    -0.8580 H     1 <1>   0.0800 
 24 H       -5.9900     1.0230    -0.8820 H     1 <1>   0.0800 
 25 H       -5.9920     1.0410     0.8620 H     1 <1>   0.0800 
 26 H       -7.4650    -0.9530     0.8830 H     1 <1>   0.0800 
 27 H       -7.4630    -0.9710    -0.8650 H     1 <1>   0.0800 
 28 H       -8.5540     1.2440    -0.9000 H     1 <1>   0.0800 
 29 H       -8.5560     1.2620     0.8690 H     1 <1>   0.0800 
 30 H      -10.3010     2.5330    -0.0310 H     1 <1>   0.1500 
 31 H      -14.2760    -0.3580    -0.0050 H     1 <1>   0.1500 
 32 H      -12.5260     3.5040    -0.0440 H     1 <1>   0.1500 
 33 H      -12.6160    -3.5840     0.0320 H     1 <1>   0.0800 
 34 H      -13.6010    -2.4370    -0.8690 H     1 <1>   0.0800 
 35 H      -13.6020    -2.4170     0.9060 H     1 <1>   0.0800 
 36 H      -14.5140     2.0600    -0.0310 H     1 <1>   0.1500 
@<TRIPOS>BOND
  1   1   2  1   
  2   1  17  1   
  3   2   3  1   
  4   2  18  1   
  5   2  19  1   
  6   3   4  1   
  7   3  20  1   
  8   3  21  1   
  9   4   5  1   
 10   4  22  1   
 11   4  23  1   
 12   5   6  1   
 13   5  24  1   
 14   5  25  1   
 15   6   7  1   
 16   6  26  1   
 17   6  27  1   
 18   7   8  1   
 19   7  28  1   
 20   7  29  1   
 21   8   9  1   
 22   9  10  ar  
 23   9  11  ar  
 24  10  12  1   
 25  10  13  ar  
 26  11  14  ar  
 27  11  30  1   
 28  12  15  1   
 29  13  16  ar  
 30  13  31  1   
 31  14  16  ar  
 32  14  32  1   
 33  15  33  1   
 34  15  34  1   
 35  15  35  1   
 36  16  36  1   
@<TRIPOS>SUBSTRUCTURE
  1 ****   7 GROUP 4 **** **** 0

# MOE 2024.06 (io_trps.svl 2023.06)
