@<TRIPOS>MOLECULE
NONAME
51 52 1 0 0 
SMALL
USER_CHARGES


@<TRIPOS>ATOM
  1 O       -1.7950    -8.7930    -0.9630 O.3   1 <1>  -0.5600 
  2 C       -1.3430    -9.2360     0.2840 C.3   1 <1>   0.1200 
  3 C       -1.4740    -7.4680    -1.2700 C.3   1 <1>   0.1200 
  4 C        0.1920    -9.1250     0.3630 C.3   1 <1>   0.3430 
  5 C        0.0550    -7.2720    -1.2610 C.3   1 <1>   0.3430 
  6 N        0.6670    -7.7330     0.0380 N.4   1 <1>  -0.9590 
  7 C        2.1550    -7.6780     0.0190 C.3   1 <1>   0.3430 
  8 C        2.6430    -6.2270     0.0380 C.3   1 <1>  -0.1600 
  9 C        4.1750    -6.1830     0.1200 C.3   1 <1>  -0.1600 
 10 C        4.7080    -4.7490     0.1570 C.3   1 <1>   0.1200 
 11 O        6.1080    -4.8300     0.2340 O.3   1 <1>  -0.3630 
 12 C        6.9000    -3.7310     0.3470 C.ar  1 <1>   0.0820 
 13 C        8.2760    -3.9150     0.5150 C.ar  1 <1>  -0.1430 
 14 C        6.3750    -2.4400     0.2980 C.ar  1 <1>  -0.1500 
 15 C        9.0900    -2.7960     0.6330 C.ar  1 <1>  -0.1500 
 16 C        8.9500    -5.2950     0.5790 C.3   1 <1>   0.0630 
 17 C        7.2030    -1.3400     0.4170 C.ar  1 <1>  -0.1500 
 18 C        8.5620    -1.5180     0.5850 C.ar  1 <1>  -0.1500 
 19 C        8.8040    -6.0530    -0.7550 C.3   1 <1>  -0.1600 
 20 C        8.4590    -6.1040     1.7900 C.3   1 <1>  -0.2400 
 21 C        9.6790    -7.3120    -0.8420 C.3   1 <1>  -0.2400 
 22 H       -1.6470   -10.2630     0.3950 H     1 <1>   0.0800 
 23 H       -1.8180    -8.6530     1.0540 H     1 <1>   0.0800 
 24 H       -1.9560    -6.8190    -0.5580 H     1 <1>   0.0800 
 25 H       -1.8690    -7.2550    -2.2480 H     1 <1>   0.0800 
 26 H        0.6160    -9.8280    -0.3360 H     1 <1>   0.0800 
 27 H        0.5170    -9.4050     1.3520 H     1 <1>   0.0800 
 28 H        0.2780    -6.2320    -1.4270 H     1 <1>   0.0800 
 29 H        0.4710    -7.8350    -2.0800 H     1 <1>   0.0800 
 30 H        0.3290    -7.1110     0.7840 H     1 <1>   0.4500 
 31 H        2.5340    -8.1810    -0.8570 H     1 <1>   0.0800 
 32 H        2.5450    -8.1820     0.8890 H     1 <1>   0.0800 
 33 H        2.2340    -5.7180     0.8940 H     1 <1>   0.0800 
 34 H        2.3330    -5.7160    -0.8570 H     1 <1>   0.0800 
 35 H        4.6010    -6.6820    -0.7350 H     1 <1>   0.0800 
 36 H        4.5070    -6.6900     1.0110 H     1 <1>   0.0800 
 37 H        4.3510    -4.2250     1.0270 H     1 <1>   0.0800 
 38 H        4.4490    -4.2140    -0.7410 H     1 <1>   0.0800 
 39 H        5.3260    -2.2660     0.1660 H     1 <1>   0.1500 
 40 H       10.1520    -2.9080     0.7640 H     1 <1>   0.1500 
 41 H       10.0030    -5.1350     0.7300 H     1 <1>   0.0800 
 42 H        6.7920    -0.3470     0.3790 H     1 <1>   0.1500 
 43 H        9.2110    -0.6650     0.6780 H     1 <1>   0.1500 
 44 H        9.0810    -5.3880    -1.5540 H     1 <1>   0.0800 
 45 H        7.7780    -6.3310    -0.9100 H     1 <1>   0.0800 
 46 H        7.4500    -6.4410     1.6440 H     1 <1>   0.0800 
 47 H        8.4900    -5.4900     2.6720 H     1 <1>   0.0800 
 48 H        9.0860    -6.9600     1.9520 H     1 <1>   0.0800 
 49 H       10.7130    -7.0660    -0.6720 H     1 <1>   0.0800 
 50 H        9.5900    -7.7490    -1.8210 H     1 <1>   0.0800 
 51 H        9.3700    -8.0440    -0.1180 H     1 <1>   0.0800 
@<TRIPOS>BOND
  1   1   2  1   
  2   1   3  1   
  3   2   4  1   
  4   2  22  1   
  5   2  23  1   
  6   3   5  1   
  7   3  24  1   
  8   3  25  1   
  9   4   6  1   
 10   4  26  1   
 11   4  27  1   
 12   5   6  1   
 13   5  28  1   
 14   5  29  1   
 15   6   7  1   
 16   6  30  1   
 17   7   8  1   
 18   7  31  1   
 19   7  32  1   
 20   8   9  1   
 21   8  33  1   
 22   8  34  1   
 23   9  10  1   
 24   9  35  1   
 25   9  36  1   
 26  10  11  1   
 27  10  37  1   
 28  10  38  1   
 29  11  12  1   
 30  12  13  ar  
 31  12  14  ar  
 32  13  15  ar  
 33  13  16  1   
 34  14  17  ar  
 35  14  39  1   
 36  15  18  ar  
 37  15  40  1   
 38  16  19  1   
 39  16  20  1   
 40  16  41  1   
 41  17  18  ar  
 42  17  42  1   
 43  18  43  1   
 44  19  21  1   
 45  19  44  1   
 46  19  45  1   
 47  20  46  1   
 48  20  47  1   
 49  20  48  1   
 50  21  49  1   
 51  21  50  1   
 52  21  51  1   
@<TRIPOS>SUBSTRUCTURE
  1 ****   9 GROUP 4 **** **** 0

# MOE 2024.06 (io_trps.svl 2023.06)
