@<TRIPOS>MOLECULE
NONAME
48 49 1 0 0 
SMALL
USER_CHARGES


@<TRIPOS>ATOM
  1 O        1.1980    -2.1470     0.4690 O.2   1 <1>  -0.5700 
  2 C        0.9630    -1.1760     1.1610 C.2   1 <1>   0.6900 
  3 N       -0.1590    -0.4300     1.0040 N.am  1 <1>  -0.5470 
  4 N        1.8700    -0.7650     2.0850 N.am  1 <1>  -0.7300 
  5 C       -1.2500    -0.5540     0.1230 C.ar  1 <1>   0.1170 
  6 C        3.0970    -1.4830     2.5730 C.3   1 <1>   0.1400 
  7 C       -1.9720     0.6000    -0.1990 C.ar  1 <1>   0.0830 
  8 C       -1.6480    -1.7700    -0.4200 C.ar  1 <1>  -0.1500 
  9 C        3.8640    -2.3350     1.5290 C.3   1 <1>   0.3430 
 10 O       -1.5550     1.7740     0.3700 O.3   1 <1>  -0.3630 
 11 C       -3.0590     0.5220    -1.0610 C.ar  1 <1>  -0.1500 
 12 C       -2.7310    -1.8440    -1.2780 C.ar  1 <1>  -0.1500 
 13 N        3.8940    -1.7210     0.1670 N.4   1 <1>  -0.9590 
 14 C       -2.2300     2.9850     0.1030 C.3   1 <1>   0.0400 
 15 C       -3.4420    -0.6940    -1.6030 C.ar  1 <1>   0.0830 
 16 C        4.4300    -2.6580    -0.8550 C.3   1 <1>   0.3430 
 17 C        4.5140    -0.3690     0.1060 C.3   1 <1>   0.3430 
 18 O       -4.5170    -0.6770    -2.4360 O.3   1 <1>  -0.3620 
 19 C        4.1860    -2.0820    -2.2510 C.3   1 <1>  -0.1600 
 20 C        4.2720     0.2400    -1.2760 C.3   1 <1>  -0.1600 
 21 C       -4.9790    -1.8620    -3.0460 C.3   1 <1>   0.0400 
 22 C        4.7780    -0.6740    -2.4000 C.3   1 <1>  -0.1600 
 23 H       -0.1520     0.4850     1.4500 H     1 <1>   0.3700 
 24 H        1.5330    -0.0480     2.7320 H     1 <1>   0.3700 
 25 H        2.8180    -2.1220     3.3940 H     1 <1>   0.0800 
 26 H        3.7780    -0.7500     2.9690 H     1 <1>   0.0800 
 27 H       -1.1160    -2.6690    -0.1720 H     1 <1>   0.1500 
 28 H        3.3670    -3.2890     1.4630 H     1 <1>   0.0800 
 29 H        4.8670    -2.5140     1.8790 H     1 <1>   0.0800 
 30 H       -3.6330     1.3850    -1.3340 H     1 <1>   0.1500 
 31 H       -3.0040    -2.8030    -1.6770 H     1 <1>   0.1500 
 32 H        2.8840    -1.6090    -0.0610 H     1 <1>   0.4500 
 33 H       -1.7400     3.7710     0.6500 H     1 <1>   0.0800 
 34 H       -3.2510     2.8960     0.4300 H     1 <1>   0.0800 
 35 H       -2.1800     3.1900    -0.9520 H     1 <1>   0.0800 
 36 H        3.9360    -3.6130    -0.7730 H     1 <1>   0.0800 
 37 H        5.4870    -2.8030    -0.7010 H     1 <1>   0.0800 
 38 H        5.5740    -0.4450     0.2880 H     1 <1>   0.0800 
 39 H        4.0800     0.2710     0.8560 H     1 <1>   0.0800 
 40 H        3.1260    -2.0550    -2.4390 H     1 <1>   0.0800 
 41 H        4.6270    -2.7350    -2.9840 H     1 <1>   0.0800 
 42 H        4.7720     1.1910    -1.3350 H     1 <1>   0.0800 
 43 H        3.2170     0.4220    -1.4000 H     1 <1>   0.0800 
 44 H       -5.8240    -1.6120    -3.6620 H     1 <1>   0.0800 
 45 H       -5.2780    -2.5550    -2.2800 H     1 <1>   0.0800 
 46 H       -4.1920    -2.2720    -3.6530 H     1 <1>   0.0800 
 47 H        4.5030    -0.2620    -3.3570 H     1 <1>   0.0800 
 48 H        5.8530    -0.7290    -2.3630 H     1 <1>   0.0800 
@<TRIPOS>BOND
  1   1   2  2   
  2   2   3  am  
  3   2   4  am  
  4   3   5  1   
  5   3  23  1   
  6   4   6  1   
  7   4  24  1   
  8   5   7  ar  
  9   5   8  ar  
 10   6   9  1   
 11   6  25  1   
 12   6  26  1   
 13   7  10  1   
 14   7  11  ar  
 15   8  12  ar  
 16   8  27  1   
 17   9  13  1   
 18   9  28  1   
 19   9  29  1   
 20  10  14  1   
 21  11  15  ar  
 22  11  30  1   
 23  12  15  ar  
 24  12  31  1   
 25  13  16  1   
 26  13  17  1   
 27  13  32  1   
 28  14  33  1   
 29  14  34  1   
 30  14  35  1   
 31  15  18  1   
 32  16  19  1   
 33  16  36  1   
 34  16  37  1   
 35  17  20  1   
 36  17  38  1   
 37  17  39  1   
 38  18  21  1   
 39  19  22  1   
 40  19  40  1   
 41  19  41  1   
 42  20  22  1   
 43  20  42  1   
 44  20  43  1   
 45  21  44  1   
 46  21  45  1   
 47  21  46  1   
 48  22  47  1   
 49  22  48  1   
@<TRIPOS>SUBSTRUCTURE
  1 ****   3 GROUP 4 **** **** 0

# MOE 2024.06 (io_trps.svl 2023.06)
