@<TRIPOS>MOLECULE
NONAME
37 38 1 0 0 
SMALL
USER_CHARGES


@<TRIPOS>ATOM
  1 F       -2.3700     0.5800     2.8220 F     1 <1>  -0.1900 
  2 C       -2.6420     1.0580     1.6400 C.ar  1 <1>   0.1900 
  3 C       -3.6890     0.5040     0.9300 C.ar  1 <1>  -0.1500 
  4 C       -1.8820     2.1000     1.1460 C.ar  1 <1>  -0.1500 
  5 C       -3.9980     1.0190    -0.3230 C.ar  1 <1>  -0.1440 
  6 C       -2.1830     2.5990    -0.1090 C.ar  1 <1>  -0.1500 
  7 C       -3.2330     2.0600    -0.8380 C.ar  1 <1>  -0.1500 
  8 C       -5.1640     0.4560    -1.1120 C.3   1 <1>   0.4870 
  9 N       -6.4260     0.9580    -0.4790 N.4   1 <1>  -0.9590 
 10 C       -7.6180     0.1650    -0.9560 C.3   1 <1>   0.3430 
 11 C       -6.5150     2.4410    -0.6840 C.3   1 <1>   0.3430 
 12 C       -8.7620     0.0470     0.0940 C.3   1 <1>   0.3430 
 13 C       -7.8790     3.0470    -0.3490 C.3   1 <1>  -0.1600 
 14 N       -9.4520     1.3300     0.5020 N.4   1 <1>  -0.9590 
 15 C       -8.5690     2.4730     0.8870 C.3   1 <1>   0.3430 
 16 C      -10.4120     1.0480     1.6240 C.3   1 <1>   0.2630 
 17 H       -4.2270    -0.3170     1.3710 H     1 <1>   0.1500 
 18 H       -1.0720     2.5030     1.7300 H     1 <1>   0.1500 
 19 H       -1.5950     3.4050    -0.5170 H     1 <1>   0.1500 
 20 H       -3.4350     2.4670    -1.8160 H     1 <1>   0.1500 
 21 H       -5.1230    -0.6220    -1.0740 H     1 <1>   0.0800 
 22 H       -5.1020     0.7650    -2.1430 H     1 <1>   0.0800 
 23 H       -6.2690     0.7940     0.5250 H     1 <1>   0.4500 
 24 H       -7.2960    -0.8380    -1.1870 H     1 <1>   0.0800 
 25 H       -8.0040     0.5900    -1.8690 H     1 <1>   0.0800 
 26 H       -6.2800     2.6800    -1.7100 H     1 <1>   0.0800 
 27 H       -5.7640     2.9190    -0.0720 H     1 <1>   0.0800 
 28 H       -8.3580    -0.4300     0.9720 H     1 <1>   0.0800 
 29 H       -9.5050    -0.6250    -0.3050 H     1 <1>   0.0800 
 30 H       -8.5290     3.0000    -1.2060 H     1 <1>   0.0800 
 31 H       -7.7080     4.0940    -0.1680 H     1 <1>   0.0800 
 32 H      -10.0360     1.6550    -0.2870 H     1 <1>   0.4500 
 33 H       -9.1790     3.2500     1.3220 H     1 <1>   0.0800 
 34 H       -7.8460     2.1720     1.6290 H     1 <1>   0.0800 
 35 H       -9.8830     0.7170     2.5030 H     1 <1>   0.0800 
 36 H      -11.1150     0.2810     1.3370 H     1 <1>   0.0800 
 37 H      -10.9690     1.9370     1.8750 H     1 <1>   0.0800 
@<TRIPOS>BOND
  1   1   2  1   
  2   2   3  ar  
  3   2   4  ar  
  4   3   5  ar  
  5   3  17  1   
  6   4   6  ar  
  7   4  18  1   
  8   5   7  ar  
  9   5   8  1   
 10   6   7  ar  
 11   6  19  1   
 12   7  20  1   
 13   8   9  1   
 14   8  21  1   
 15   8  22  1   
 16   9  10  1   
 17   9  11  1   
 18   9  23  1   
 19  10  12  1   
 20  10  24  1   
 21  10  25  1   
 22  11  13  1   
 23  11  26  1   
 24  11  27  1   
 25  12  14  1   
 26  12  28  1   
 27  12  29  1   
 28  13  15  1   
 29  13  30  1   
 30  13  31  1   
 31  14  15  1   
 32  14  16  1   
 33  14  32  1   
 34  15  33  1   
 35  15  34  1   
 36  16  35  1   
 37  16  36  1   
 38  16  37  1   
@<TRIPOS>SUBSTRUCTURE
  1 ****   9 GROUP 4 **** **** 0

# MOE 2024.06 (io_trps.svl 2023.06)
