@<TRIPOS>MOLECULE
NONAME
41 42 1 0 0 
SMALL
USER_CHARGES


@<TRIPOS>ATOM
  1 O       -4.9990     0.3840    -0.7480 O.3   1 <1>  -0.3630 
  2 C       -6.0490     1.2070    -0.5150 C.ar  1 <1>   0.0830 
  3 C       -4.1940    -0.1060     0.2990 C.3   1 <1>   0.1200 
  4 C       -6.4670     1.5950     0.7550 C.ar  1 <1>  -0.1500 
  5 C       -6.7290     1.6760    -1.6260 C.ar  1 <1>  -0.1500 
  6 C       -3.0950    -0.9670    -0.3150 C.3   1 <1>  -0.2400 
  7 C       -7.5540     2.4390     0.9000 C.ar  1 <1>  -0.1500 
  8 C       -7.8150     2.5200    -1.4830 C.ar  1 <1>  -0.1500 
  9 C       -8.2360     2.9030    -0.2170 C.ar  1 <1>  -0.1430 
 10 C       -9.4340     3.8090    -0.0600 C.3   1 <1>   0.4860 
 11 N      -10.6180     2.9320    -0.0170 N.4   1 <1>  -0.9060 
 12 C      -11.9080     3.6330     0.1120 C.3   1 <1>   0.4860 
 13 C      -12.9690     2.5600     0.1340 C.ar  1 <1>  -0.1430 
 14 C      -13.5390     2.1160    -1.0510 C.ar  1 <1>  -0.1500 
 15 C      -13.3730     2.0010     1.3370 C.ar  1 <1>  -0.1500 
 16 C      -14.4960     1.1180    -1.0300 C.ar  1 <1>  -0.1500 
 17 C      -14.3310     1.0030     1.3520 C.ar  1 <1>  -0.1500 
 18 C      -14.8940     0.5540     0.1700 C.ar  1 <1>  -0.1430 
 19 C      -15.9470    -0.5400     0.1900 C.3   1 <1>  -0.0970 
 20 H       -4.8110    -0.6920     0.9590 H     1 <1>   0.0800 
 21 H       -3.7710     0.7320     0.8260 H     1 <1>   0.0800 
 22 H       -5.9550     1.2490     1.6340 H     1 <1>   0.1500 
 23 H       -6.3930     1.3730    -2.6020 H     1 <1>   0.1500 
 24 H       -3.5280    -1.7910    -0.8530 H     1 <1>   0.0800 
 25 H       -2.4620    -1.3580     0.4610 H     1 <1>   0.0800 
 26 H       -2.4940    -0.3780    -0.9840 H     1 <1>   0.0800 
 27 H       -7.8530     2.7270     1.8940 H     1 <1>   0.1500 
 28 H       -8.3140     2.8700    -2.3710 H     1 <1>   0.1500 
 29 H       -9.4930     4.4880    -0.8950 H     1 <1>   0.0800 
 30 H       -9.3490     4.3800     0.8520 H     1 <1>   0.0800 
 31 H      -10.5200     2.2640     0.7560 H     1 <1>   0.4500 
 32 H      -10.6370     2.3470    -0.8590 H     1 <1>   0.4500 
 33 H      -12.0700     4.2940    -0.7250 H     1 <1>   0.0800 
 34 H      -11.9440     4.2050     1.0250 H     1 <1>   0.0800 
 35 H      -13.2550     2.5360    -2.0010 H     1 <1>   0.1500 
 36 H      -12.9590     2.3300     2.2750 H     1 <1>   0.1500 
 37 H      -14.9360     0.7790    -1.9530 H     1 <1>   0.1500 
 38 H      -14.6420     0.5740     2.2900 H     1 <1>   0.1500 
 39 H      -16.9260    -0.1030     0.2770 H     1 <1>   0.0800 
 40 H      -15.7890    -1.2020     1.0230 H     1 <1>   0.0800 
 41 H      -15.9060    -1.1200    -0.7150 H     1 <1>   0.0800 
@<TRIPOS>BOND
  1   1   2  1   
  2   1   3  1   
  3   2   4  ar  
  4   2   5  ar  
  5   3   6  1   
  6   3  20  1   
  7   3  21  1   
  8   4   7  ar  
  9   4  22  1   
 10   5   8  ar  
 11   5  23  1   
 12   6  24  1   
 13   6  25  1   
 14   6  26  1   
 15   7   9  ar  
 16   7  27  1   
 17   8   9  ar  
 18   8  28  1   
 19   9  10  1   
 20  10  11  1   
 21  10  29  1   
 22  10  30  1   
 23  11  12  1   
 24  11  31  1   
 25  11  32  1   
 26  12  13  1   
 27  12  33  1   
 28  12  34  1   
 29  13  14  ar  
 30  13  15  ar  
 31  14  16  ar  
 32  14  35  1   
 33  15  17  ar  
 34  15  36  1   
 35  16  18  ar  
 36  16  37  1   
 37  17  18  ar  
 38  17  38  1   
 39  18  19  1   
 40  19  39  1   
 41  19  40  1   
 42  19  41  1   
@<TRIPOS>SUBSTRUCTURE
  1 ****  11 GROUP 4 **** **** 0

# MOE 2024.06 (io_trps.svl 2023.06)
