@<TRIPOS>MOLECULE
NONAME
46 48 1 0 0 
SMALL
USER_CHARGES


@<TRIPOS>ATOM
  1 CL      -0.6080    -0.9270     0.5950 Cl    1 <1>  -0.1770 
  2 C       -2.0690    -1.7340     0.0890 C.ar  1 <1>   0.1770 
  3 C       -2.5520    -1.5270    -1.1900 C.ar  1 <1>  -0.1500 
  4 C       -2.7250    -2.5710     0.9720 C.ar  1 <1>  -0.1500 
  5 C       -3.7140    -2.1660    -1.5860 C.ar  1 <1>  -0.1500 
  6 C       -3.8860    -3.2040     0.5650 C.ar  1 <1>  -0.1500 
  7 C       -4.4070    -3.0070    -0.7130 C.ar  1 <1>   0.0530 
  8 C       -5.6290    -3.6570    -1.1120 C.2   1 <1>   0.1330 
  9 N       -5.7920    -4.9470    -1.2230 N.2   1 <1>  -0.3380 
 10 N       -6.7740    -3.0100    -1.4060 N.pl3 1 <1>   0.0480 
 11 N       -7.0480    -5.1690    -1.6030 N.2   1 <1>  -0.3380 
 12 C       -7.5980    -4.0110    -1.6920 C.2   1 <1>   0.2430 
 13 C       -7.0700    -1.5600    -1.3400 C.3   1 <1>   0.0960 
 14 S       -9.3180    -3.7390    -2.1350 S.3   1 <1>  -0.2860 
 15 C       -7.4510    -1.1560     0.0900 C.3   1 <1>  -0.1600 
 16 C      -10.0470    -5.4400    -2.3250 C.3   1 <1>   0.1310 
 17 C       -7.7590     0.3420     0.1770 C.3   1 <1>  -0.2400 
 18 C      -11.1600    -5.6480    -1.3060 C.2   1 <1>   0.5690 
 19 O      -12.2950    -5.6110    -1.7240 O.2   1 <1>  -0.5700 
 20 N      -10.8970    -5.8700     0.0250 N.am  1 <1>  -0.6600 
 21 C      -11.9980    -5.9060     1.0360 C.3   1 <1>   0.1400 
 22 C       -9.5350    -6.0150     0.6280 C.3   1 <1>   0.1400 
 23 C      -11.8080    -7.0700     2.0210 C.3   1 <1>   0.1200 
 24 C       -9.4970    -7.1580     1.6560 C.3   1 <1>   0.1200 
 25 O      -10.5300    -7.0300     2.5900 O.3   1 <1>  -0.5600 
 26 H       -2.0180    -0.8780    -1.8610 H     1 <1>   0.1500 
 27 H       -2.3270    -2.7230     1.9590 H     1 <1>   0.1500 
 28 H       -4.0860    -2.0210    -2.5850 H     1 <1>   0.1500 
 29 H       -4.4020    -3.8650     1.2410 H     1 <1>   0.1500 
 30 H       -7.8770    -1.3350    -2.0140 H     1 <1>   0.0800 
 31 H       -6.2040    -1.0090    -1.6590 H     1 <1>   0.0800 
 32 H       -6.6410    -1.3870     0.7610 H     1 <1>   0.0800 
 33 H       -8.3210    -1.7110     0.4000 H     1 <1>   0.0800 
 34 H       -9.2740    -6.1750    -2.2210 H     1 <1>   0.0800 
 35 H      -10.4490    -5.4900    -3.3190 H     1 <1>   0.0800 
 36 H       -6.8990     0.9240    -0.1090 H     1 <1>   0.0800 
 37 H       -8.0250     0.6040     1.1870 H     1 <1>   0.0800 
 38 H       -8.5820     0.5980    -0.4670 H     1 <1>   0.0800 
 39 H      -12.9540    -6.0090     0.5530 H     1 <1>   0.0800 
 40 H      -12.0030    -4.9800     1.5830 H     1 <1>   0.0800 
 41 H       -9.2610    -5.0940     1.1110 H     1 <1>   0.0800 
 42 H       -8.8050    -6.2270    -0.1260 H     1 <1>   0.0800 
 43 H      -11.9360    -8.0140     1.5200 H     1 <1>   0.0800 
 44 H      -12.5250    -7.0010     2.8190 H     1 <1>   0.0800 
 45 H       -8.5640    -7.1420     2.1920 H     1 <1>   0.0800 
 46 H       -9.5930    -8.1110     1.1640 H     1 <1>   0.0800 
@<TRIPOS>BOND
  1   1   2  1   
  2   2   3  ar  
  3   2   4  ar  
  4   3   5  ar  
  5   3  26  1   
  6   4   6  ar  
  7   4  27  1   
  8   5   7  ar  
  9   5  28  1   
 10   6   7  ar  
 11   6  29  1   
 12   7   8  1   
 13   8   9  2   
 14   8  10  1   
 15   9  11  1   
 16  10  12  1   
 17  10  13  1   
 18  11  12  2   
 19  12  14  1   
 20  13  15  1   
 21  13  30  1   
 22  13  31  1   
 23  14  16  1   
 24  15  17  1   
 25  15  32  1   
 26  15  33  1   
 27  16  18  1   
 28  16  34  1   
 29  16  35  1   
 30  17  36  1   
 31  17  37  1   
 32  17  38  1   
 33  18  19  2   
 34  18  20  am  
 35  20  21  1   
 36  20  22  1   
 37  21  23  1   
 38  21  39  1   
 39  21  40  1   
 40  22  24  1   
 41  22  41  1   
 42  22  42  1   
 43  23  25  1   
 44  23  43  1   
 45  23  44  1   
 46  24  25  1   
 47  24  45  1   
 48  24  46  1   
@<TRIPOS>SUBSTRUCTURE
  1 ****  12 GROUP 4 **** **** 0

# MOE 2024.06 (io_trps.svl 2023.06)
