@<TRIPOS>MOLECULE
NONAME
39 40 1 0 0 
SMALL
USER_CHARGES


@<TRIPOS>ATOM
  1 S       -0.0440     2.5970    -0.5430 S.3   1 <1>  -0.2850 
  2 C       -1.1120     1.3670     0.2480 C.2   1 <1>   0.0550 
  3 C        0.9090     1.6030    -1.7910 C.3   1 <1>   0.1310 
  4 C       -2.4900     1.4920     0.3840 C.2   1 <1>   0.1080 
  5 C       -0.7760     0.1810     0.7950 C.2   1 <1>  -0.3320 
  6 C        2.2830     1.2260    -1.2650 C.2   1 <1>   0.5690 
  7 N       -3.0020     0.4500     0.9620 N.2   1 <1>  -0.7070 
  8 C       -3.3240     2.6670    -0.0750 C.3   1 <1>  -0.0590 
  9 N       -1.9460    -0.3560     1.2130 N.pl3 1 <1>   0.3000 
 10 C        0.5640    -0.5100     0.9880 C.3   1 <1>  -0.0600 
 11 O        2.7840     0.2090    -1.6790 O.2   1 <1>  -0.5700 
 12 N        2.8720     2.0450    -0.3390 N.am  1 <1>  -0.5470 
 13 C        4.0890     1.9490     0.3520 C.ar  1 <1>   0.1170 
 14 C        5.1600     1.1810    -0.0950 C.ar  1 <1>  -0.1500 
 15 C        4.2360     2.6610     1.5360 C.ar  1 <1>  -0.1500 
 16 C        6.3440     1.1140     0.6200 C.ar  1 <1>  -0.1430 
 17 C        5.4150     2.6050     2.2560 C.ar  1 <1>  -0.1500 
 18 C        6.4680     1.8310     1.8000 C.ar  1 <1>  -0.1500 
 19 C        7.4980     0.2640     0.1140 C.3   1 <1>  -0.0170 
 20 C        8.4270     1.0930    -0.7750 C.3   1 <1>  -0.2400 
 21 H        1.0010     2.2040    -2.6750 H     1 <1>   0.0800 
 22 H        0.3320     0.7220    -2.0050 H     1 <1>   0.0800 
 23 H       -2.8570     3.5880     0.2220 H     1 <1>   0.0800 
 24 H       -4.3020     2.6140     0.3660 H     1 <1>   0.0800 
 25 H       -3.4200     2.6460    -1.1450 H     1 <1>   0.0800 
 26 H       -2.0580    -1.2640     1.6810 H     1 <1>   0.2700 
 27 H        1.3480     0.2160     1.0970 H     1 <1>   0.0800 
 28 H        0.7860    -1.1420     0.1460 H     1 <1>   0.0800 
 29 H        0.5530    -1.1120     1.8800 H     1 <1>   0.0800 
 30 H        2.2640     2.8020    -0.0200 H     1 <1>   0.3700 
 31 H        5.0730     0.6310    -1.0140 H     1 <1>   0.1500 
 32 H        3.4240     3.2630     1.9010 H     1 <1>   0.1500 
 33 H        5.5170     3.1600     3.1720 H     1 <1>   0.1500 
 34 H        7.3830     1.7910     2.3630 H     1 <1>   0.1500 
 35 H        7.1130    -0.5710    -0.4460 H     1 <1>   0.0800 
 36 H        8.0510    -0.1310     0.9480 H     1 <1>   0.0800 
 37 H        7.8830     1.4760    -1.6210 H     1 <1>   0.0800 
 38 H        9.2390     0.4860    -1.1310 H     1 <1>   0.0800 
 39 H        8.8290     1.9220    -0.2200 H     1 <1>   0.0800 
@<TRIPOS>BOND
  1   1   2  1   
  2   1   3  1   
  3   2   4  1   
  4   2   5  2   
  5   3   6  1   
  6   3  21  1   
  7   3  22  1   
  8   4   7  2   
  9   4   8  1   
 10   5   9  1   
 11   5  10  1   
 12   6  11  2   
 13   6  12  am  
 14   7   9  1   
 15   8  23  1   
 16   8  24  1   
 17   8  25  1   
 18   9  26  1   
 19  10  27  1   
 20  10  28  1   
 21  10  29  1   
 22  12  13  1   
 23  12  30  1   
 24  13  14  ar  
 25  13  15  ar  
 26  14  16  ar  
 27  14  31  1   
 28  15  17  ar  
 29  15  32  1   
 30  16  18  ar  
 31  16  19  1   
 32  17  18  ar  
 33  17  33  1   
 34  18  34  1   
 35  19  20  1   
 36  19  35  1   
 37  19  36  1   
 38  20  37  1   
 39  20  38  1   
 40  20  39  1   
@<TRIPOS>SUBSTRUCTURE
  1 ****  12 GROUP 4 **** **** 0

# MOE 2024.06 (io_trps.svl 2023.06)
