@<TRIPOS>MOLECULE
NONAME
47 48 1 0 0 
SMALL
USER_CHARGES


@<TRIPOS>ATOM
  1 S       -0.0190    -0.5810     0.6940 S.o2  1 <1>   1.4470 
  2 O       -0.2090    -1.4530     1.8290 O.2   1 <1>  -0.6500 
  3 O        0.3990    -1.1160    -0.5800 O.2   1 <1>  -0.6500 
  4 N       -1.5270     0.0640     0.3380 N.am  1 <1>  -0.9140 
  5 C        0.9750     0.8670     1.1510 C.ar  1 <1>  -0.0090 
  6 C       -2.5640    -0.9480     0.3400 C.3   1 <1>   0.1960 
  7 C        2.0280     1.2930     0.3450 C.ar  1 <1>  -0.1500 
  8 C        0.6960     1.5800     2.3140 C.ar  1 <1>  -0.1500 
  9 C       -3.8910    -0.2890    -0.0320 C.3   1 <1>  -0.1600 
 10 C        2.7940     2.4080     0.6790 C.ar  1 <1>   0.0830 
 11 C        1.4410     2.6920     2.6700 C.ar  1 <1>  -0.1500 
 12 C       -5.0310    -1.3000     0.0850 C.3   1 <1>   0.3430 
 13 O        3.8310     2.8560    -0.0810 O.3   1 <1>  -0.3630 
 14 C        2.4760     3.0880     1.8480 C.ar  1 <1>   0.1900 
 15 N       -6.3430    -0.6310    -0.1220 N.4   1 <1>  -0.9590 
 16 C        4.2420     2.1860    -1.2500 C.3   1 <1>   0.1200 
 17 F        3.1700     4.1410     2.2000 F     1 <1>  -0.1900 
 18 C       -7.5020    -1.4780     0.3230 C.3   1 <1>   0.3430 
 19 C       -6.5800    -0.1270    -1.5220 C.3   1 <1>   0.3430 
 20 C        5.4380     2.9380    -1.8260 C.3   1 <1>  -0.2400 
 21 C       -8.8450    -0.7300     0.1470 C.3   1 <1>   0.1200 
 22 C       -7.9870     0.4970    -1.6700 C.3   1 <1>   0.1200 
 23 O       -8.6540     0.5310    -0.4370 O.3   1 <1>  -0.5600 
 24 H       -1.4070     0.3880    -0.6210 H     1 <1>   0.4200 
 25 H       -2.6390    -1.3790     1.3270 H     1 <1>   0.0800 
 26 H       -2.3150    -1.7320    -0.3590 H     1 <1>   0.0800 
 27 H        2.2380     0.7360    -0.5500 H     1 <1>   0.1500 
 28 H       -0.1140     1.2590     2.9500 H     1 <1>   0.1500 
 29 H       -3.8230     0.0830    -1.0380 H     1 <1>   0.0800 
 30 H       -4.0670     0.5270     0.6470 H     1 <1>   0.0800 
 31 H        1.2280     3.2440     3.5690 H     1 <1>   0.1500 
 32 H       -5.0060    -1.7370     1.0720 H     1 <1>   0.0800 
 33 H       -4.9000    -2.0920    -0.6360 H     1 <1>   0.0800 
 34 H       -6.3970     0.2110     0.4730 H     1 <1>   0.4500 
 35 H        3.4240     2.1830    -1.9490 H     1 <1>   0.0800 
 36 H        4.5170     1.1790    -0.9880 H     1 <1>   0.0800 
 37 H       -7.3870    -1.7500     1.3590 H     1 <1>   0.0800 
 38 H       -7.5330    -2.3900    -0.2510 H     1 <1>   0.0800 
 39 H       -6.4800    -0.9340    -2.2290 H     1 <1>   0.0800 
 40 H       -5.8440     0.6180    -1.7740 H     1 <1>   0.0800 
 41 H        5.1570     3.9470    -2.0680 H     1 <1>   0.0800 
 42 H        5.7780     2.4510    -2.7220 H     1 <1>   0.0800 
 43 H        6.2430     2.9500    -1.1140 H     1 <1>   0.0800 
 44 H       -9.3130    -0.5780     1.1040 H     1 <1>   0.0800 
 45 H       -9.5210    -1.2980    -0.4700 H     1 <1>   0.0800 
 46 H       -8.5840    -0.0630    -2.3700 H     1 <1>   0.0800 
 47 H       -7.9100     1.5090    -2.0310 H     1 <1>   0.0800 
@<TRIPOS>BOND
  1   1   2  2   
  2   1   3  2   
  3   1   4  am  
  4   1   5  1   
  5   4   6  1   
  6   4  24  1   
  7   5   7  ar  
  8   5   8  ar  
  9   6   9  1   
 10   6  25  1   
 11   6  26  1   
 12   7  10  ar  
 13   7  27  1   
 14   8  11  ar  
 15   8  28  1   
 16   9  12  1   
 17   9  29  1   
 18   9  30  1   
 19  10  13  1   
 20  10  14  ar  
 21  11  14  ar  
 22  11  31  1   
 23  12  15  1   
 24  12  32  1   
 25  12  33  1   
 26  13  16  1   
 27  14  17  1   
 28  15  18  1   
 29  15  19  1   
 30  15  34  1   
 31  16  20  1   
 32  16  35  1   
 33  16  36  1   
 34  18  21  1   
 35  18  37  1   
 36  18  38  1   
 37  19  22  1   
 38  19  39  1   
 39  19  40  1   
 40  20  41  1   
 41  20  42  1   
 42  20  43  1   
 43  21  23  1   
 44  21  44  1   
 45  21  45  1   
 46  22  23  1   
 47  22  46  1   
 48  22  47  1   
@<TRIPOS>SUBSTRUCTURE
  1 ****   4 GROUP 4 **** **** 0

# MOE 2024.06 (io_trps.svl 2023.06)
