@<TRIPOS>MOLECULE
NONAME
56 61 1 0 0 
SMALL
USER_CHARGES


@<TRIPOS>ATOM
  1 O        0.6100     1.4100    -0.0540 O.2   1 <1>  -0.5700 
  2 C        0.0650     2.3270    -0.6120 C.2   1 <1>   0.5690 
  3 N        0.6500     3.1090    -1.5580 N.am  1 <1>  -0.4200 
  4 C       -1.3510     2.7790    -0.3310 C.3   1 <1>  -0.0190 
  5 C       -0.1670     4.1230    -1.9440 C.2   1 <1>   0.5690 
  6 C        1.9550     2.8370    -2.2150 C.3   1 <1>   0.1400 
  7 C       -1.5760     3.1630     1.1500 C.3   1 <1>   0.2070 
  8 C       -1.5070     4.0350    -1.2540 C.3   1 <1>  -0.0190 
  9 O        0.1420     4.9820    -2.7280 O.2   1 <1>  -0.5700 
 10 C        2.9570     3.9890    -1.9960 C.3   1 <1>   0.3430 
 11 C       -2.9590     3.8160     1.1780 C.ar  1 <1>  -0.1440 
 12 C       -0.5970     4.2950     1.4750 C.ar  1 <1>  -0.1440 
 13 C       -1.8120     5.2920    -0.4130 C.3   1 <1>   0.2070 
 14 N        3.7590     3.9020    -0.7260 N.4   1 <1>  -0.9590 
 15 C       -3.0810     4.9340     0.3610 C.ar  1 <1>  -0.1430 
 16 C       -4.0360     3.3780     1.9280 C.ar  1 <1>  -0.1500 
 17 C       -0.7090     5.4030     0.6450 C.ar  1 <1>  -0.1430 
 18 C        0.3180     4.2900     2.5130 C.ar  1 <1>  -0.1500 
 19 C        2.9300     3.7110     0.5030 C.3   1 <1>   0.3430 
 20 C        4.6220     5.1130    -0.6010 C.3   1 <1>   0.3430 
 21 C       -4.2820     5.6190     0.2910 C.ar  1 <1>  -0.1500 
 22 C       -5.2380     4.0630     1.8550 C.ar  1 <1>  -0.1500 
 23 C        0.1150     6.5000     0.8310 C.ar  1 <1>  -0.1500 
 24 C        1.1270     5.3980     2.7130 C.ar  1 <1>  -0.1500 
 25 C        3.8460     3.5170     1.7130 C.3   1 <1>  -0.1600 
 26 C        5.5720     4.9590     0.5890 C.3   1 <1>  -0.1600 
 27 C       -5.3600     5.1780     1.0410 C.ar  1 <1>  -0.1500 
 28 C        1.0320     6.4940     1.8690 C.ar  1 <1>  -0.1500 
 29 C        4.8070     4.6980     1.8920 C.3   1 <1>  -0.1600 
 30 H       -2.0390     2.0070    -0.6230 H     1 <1>   0.0800 
 31 H        1.7710     2.7470    -3.2720 H     1 <1>   0.0800 
 32 H        2.3660     1.9040    -1.8720 H     1 <1>   0.0800 
 33 H       -1.4910     2.3250     1.8200 H     1 <1>   0.0800 
 34 H       -2.2800     3.8790    -1.9850 H     1 <1>   0.0800 
 35 H        2.4200     4.9230    -2.0290 H     1 <1>   0.0800 
 36 H        3.6430     3.9880    -2.8270 H     1 <1>   0.0800 
 37 H       -1.9180     6.1830    -1.0080 H     1 <1>   0.0800 
 38 H        4.3830     3.0870    -0.7810 H     1 <1>   0.4500 
 39 H       -3.9470     2.5160     2.5650 H     1 <1>   0.1500 
 40 H        0.3890     3.4420     3.1730 H     1 <1>   0.1500 
 41 H        2.3110     2.8370     0.4050 H     1 <1>   0.0800 
 42 H        2.2910     4.5660     0.6520 H     1 <1>   0.0800 
 43 H        4.0040     5.9840    -0.4550 H     1 <1>   0.0800 
 44 H        5.1990     5.2520    -1.5010 H     1 <1>   0.0800 
 45 H       -4.3820     6.4870    -0.3370 H     1 <1>   0.1500 
 46 H       -6.0810     3.7300     2.4360 H     1 <1>   0.1500 
 47 H        0.0290     7.3600     0.1900 H     1 <1>   0.1500 
 48 H        1.8240     5.4120     3.5330 H     1 <1>   0.1500 
 49 H        4.4010     2.6030     1.5970 H     1 <1>   0.0800 
 50 H        3.2420     3.4100     2.5970 H     1 <1>   0.0800 
 51 H        6.1530     5.8600     0.6930 H     1 <1>   0.0800 
 52 H        6.2600     4.1540     0.3970 H     1 <1>   0.0800 
 53 H       -6.2960     5.7060     0.9930 H     1 <1>   0.1500 
 54 H        1.6590     7.3540     2.0330 H     1 <1>   0.1500 
 55 H        5.5010     4.4900     2.6900 H     1 <1>   0.0800 
 56 H        4.2480     5.5780     2.1630 H     1 <1>   0.0800 
@<TRIPOS>BOND
  1   1   2  2   
  2   2   3  am  
  3   2   4  1   
  4   3   5  am  
  5   3   6  1   
  6   4   7  1   
  7   4   8  1   
  8   4  30  1   
  9   5   8  1   
 10   5   9  2   
 11   6  10  1   
 12   6  31  1   
 13   6  32  1   
 14   7  11  1   
 15   7  12  1   
 16   7  33  1   
 17   8  13  1   
 18   8  34  1   
 19  10  14  1   
 20  10  35  1   
 21  10  36  1   
 22  11  15  ar  
 23  11  16  ar  
 24  12  17  ar  
 25  12  18  ar  
 26  13  15  1   
 27  13  17  1   
 28  13  37  1   
 29  14  19  1   
 30  14  20  1   
 31  14  38  1   
 32  15  21  ar  
 33  16  22  ar  
 34  16  39  1   
 35  17  23  ar  
 36  18  24  ar  
 37  18  40  1   
 38  19  25  1   
 39  19  41  1   
 40  19  42  1   
 41  20  26  1   
 42  20  43  1   
 43  20  44  1   
 44  21  27  ar  
 45  21  45  1   
 46  22  27  ar  
 47  22  46  1   
 48  23  28  ar  
 49  23  47  1   
 50  24  28  ar  
 51  24  48  1   
 52  25  29  1   
 53  25  49  1   
 54  25  50  1   
 55  26  29  1   
 56  26  51  1   
 57  26  52  1   
 58  27  53  1   
 59  28  54  1   
 60  29  55  1   
 61  29  56  1   
@<TRIPOS>SUBSTRUCTURE
  1 ****  12 GROUP 4 **** **** 0

# MOE 2024.06 (io_trps.svl 2023.06)
