@<TRIPOS>MOLECULE
NONAME
42 44 1 0 0 
SMALL
USER_CHARGES


@<TRIPOS>ATOM
  1 O       -1.0010     0.0330    -0.3100 O.3   1 <1>  -0.3630 
  2 C       -0.6780     1.2980     0.0650 C.ar  1 <1>   0.0830 
  3 C       -0.1780    -1.0020     0.1840 C.3   1 <1>   0.0400 
  4 C        0.5220     1.9000    -0.3370 C.ar  1 <1>   0.0830 
  5 C       -1.5670     2.0000     0.8740 C.ar  1 <1>  -0.1440 
  6 O        1.4020     1.2960    -1.1730 O.3   1 <1>  -0.3620 
  7 C        0.8480     3.1650     0.1190 C.ar  1 <1>  -0.1500 
  8 C       -1.2260     3.2730     1.3130 C.ar  1 <1>  -0.1500 
  9 C       -2.8960     1.3910     1.3030 C.3   1 <1>   0.3530 
 10 C        0.9710     1.1140    -2.5040 C.3   1 <1>   0.0400 
 11 C       -0.0240     3.8520     0.9440 C.ar  1 <1>  -0.1500 
 12 N       -3.9850     2.3490     1.0130 N.pl3 1 <1>  -0.8690 
 13 C       -5.2650     1.8370     0.8540 C.ar  1 <1>   0.1000 
 14 C       -5.9730     2.0910    -0.3160 C.ar  1 <1>  -0.1500 
 15 C       -5.8620     1.0690     1.8520 C.ar  1 <1>  -0.1500 
 16 C       -7.2430     1.5700    -0.4740 C.ar  1 <1>  -0.1430 
 17 C       -7.1350     0.5490     1.6880 C.ar  1 <1>  -0.1500 
 18 C       -7.8170     0.8080     0.5130 C.ar  1 <1>  -0.1430 
 19 C       -8.1680     1.7230    -1.6550 C.3   1 <1>  -0.0170 
 20 C       -9.1990     0.3510     0.1200 C.3   1 <1>  -0.0170 
 21 C       -9.5150     1.2000    -1.1240 C.3   1 <1>  -0.1600 
 22 H       -0.6350    -1.9420    -0.0640 H     1 <1>   0.0800 
 23 H       -0.0950    -0.9010     1.2520 H     1 <1>   0.0800 
 24 H        0.7930    -0.9360    -0.2730 H     1 <1>   0.0800 
 25 H        1.7810     3.6080    -0.1790 H     1 <1>   0.1500 
 26 H       -1.9030     3.8190     1.9490 H     1 <1>   0.1500 
 27 H       -2.8730     1.1890     2.3590 H     1 <1>   0.0800 
 28 H       -3.0910     0.4680     0.7840 H     1 <1>   0.0800 
 29 H        1.7880     0.7070    -3.0700 H     1 <1>   0.0800 
 30 H        0.6800     2.0680    -2.9070 H     1 <1>   0.0800 
 31 H        0.1390     0.4330    -2.5200 H     1 <1>   0.0800 
 32 H        0.2300     4.8370     1.2960 H     1 <1>   0.1500 
 33 H       -3.6910     2.9440     0.2320 H     1 <1>   0.4000 
 34 H       -5.5310     2.6870    -1.0910 H     1 <1>   0.1500 
 35 H       -5.3250     0.8870     2.7630 H     1 <1>   0.1500 
 36 H       -7.5890    -0.0440     2.4620 H     1 <1>   0.1500 
 37 H       -7.8150     1.1110    -2.4660 H     1 <1>   0.0800 
 38 H       -8.2390     2.7480    -1.9720 H     1 <1>   0.0800 
 39 H       -9.9110     0.5230     0.9080 H     1 <1>   0.0800 
 40 H       -9.1720    -0.6950    -0.1300 H     1 <1>   0.0800 
 41 H      -10.0470     0.6350    -1.8690 H     1 <1>   0.0800 
 42 H      -10.1170     2.0400    -0.8240 H     1 <1>   0.0800 
@<TRIPOS>BOND
  1   1   2  1   
  2   1   3  1   
  3   2   4  ar  
  4   2   5  ar  
  5   3  22  1   
  6   3  23  1   
  7   3  24  1   
  8   4   6  1   
  9   4   7  ar  
 10   5   8  ar  
 11   5   9  1   
 12   6  10  1   
 13   7  11  ar  
 14   7  25  1   
 15   8  11  ar  
 16   8  26  1   
 17   9  12  1   
 18   9  27  1   
 19   9  28  1   
 20  10  29  1   
 21  10  30  1   
 22  10  31  1   
 23  11  32  1   
 24  12  13  1   
 25  12  33  1   
 26  13  14  ar  
 27  13  15  ar  
 28  14  16  ar  
 29  14  34  1   
 30  15  17  ar  
 31  15  35  1   
 32  16  18  ar  
 33  16  19  1   
 34  17  18  ar  
 35  17  36  1   
 36  18  20  1   
 37  19  21  1   
 38  19  37  1   
 39  19  38  1   
 40  20  21  1   
 41  20  39  1   
 42  20  40  1   
 43  21  41  1   
 44  21  42  1   
@<TRIPOS>SUBSTRUCTURE
  1 ****  12 GROUP 4 **** **** 0

# MOE 2024.06 (io_trps.svl 2023.06)
