@<TRIPOS>MOLECULE
NONAME
38 40 1 0 0 
SMALL
USER_CHARGES


@<TRIPOS>ATOM
  1 O       -0.6770     2.2600    -2.5510 O.2   1 <1>  -0.5700 
  2 C       -0.0050     2.0570    -1.5660 C.2   1 <1>   0.5690 
  3 N       -0.5110     1.5470    -0.4150 N.am  1 <1>  -0.5790 
  4 C        1.4900     2.3880    -1.5930 C.3   1 <1>   0.1710 
  5 C       -1.8990     1.1500    -0.1560 C.3   1 <1>   0.0490 
  6 N        2.2950     1.6530    -0.5700 N.3   1 <1>  -0.8100 
  7 C       -2.4140     1.2790     1.2390 C.3   1 <1>  -0.2000 
  8 C       -2.1360    -0.0760     0.6610 C.3   1 <1>  -0.2000 
  9 C        3.6230     2.2820    -0.3970 C.3   1 <1>   0.1100 
 10 C        2.4810     0.2340    -0.9620 C.3   1 <1>   0.1100 
 11 C        4.4790     1.5630     0.6640 C.3   1 <1>   0.2090 
 12 C        3.2980    -0.5610     0.0750 C.3   1 <1>   0.2090 
 13 N        4.6090     0.1030     0.3590 N.pl3 1 <1>  -0.8380 
 14 C        5.7790    -0.6030     0.5600 C.ar  1 <1>   0.7200 
 15 N        6.8580     0.0930     0.9210 N.ar  1 <1>  -0.6200 
 16 N        5.7350    -1.9230     0.3780 N.ar  1 <1>  -0.6200 
 17 C        7.9600    -0.5890     1.1090 C.ar  1 <1>   0.1600 
 18 C        6.8510    -2.5800     0.5730 C.ar  1 <1>   0.1600 
 19 C        8.0130    -1.9500     0.9460 C.ar  1 <1>  -0.1500 
 20 H        0.1700     1.3850     0.3330 H     1 <1>   0.3700 
 21 H        1.5760     3.4450    -1.4180 H     1 <1>   0.0800 
 22 H        1.8730     2.1860    -2.5770 H     1 <1>   0.0800 
 23 H       -2.5640     1.3640    -0.9780 H     1 <1>   0.1000 
 24 H       -3.4390     1.5710     1.3830 H     1 <1>   0.1000 
 25 H       -1.7600     1.6700     1.9980 H     1 <1>   0.1000 
 26 H       -1.2890    -0.6340     1.0170 H     1 <1>   0.1000 
 27 H       -2.9740    -0.7050     0.4140 H     1 <1>   0.1000 
 28 H        3.4970     3.3070    -0.0940 H     1 <1>   0.0800 
 29 H        4.1590     2.2730    -1.3310 H     1 <1>   0.0800 
 30 H        2.9920     0.1790    -1.9080 H     1 <1>   0.0800 
 31 H        1.5230    -0.2420    -1.0770 H     1 <1>   0.0800 
 32 H        4.0170     1.6790     1.6290 H     1 <1>   0.0800 
 33 H        5.4410     2.0400     0.7000 H     1 <1>   0.0800 
 34 H        3.4410    -1.5570    -0.3020 H     1 <1>   0.0800 
 35 H        2.7370    -0.6320     0.9900 H     1 <1>   0.0800 
 36 H        8.8440    -0.0480     1.4010 H     1 <1>   0.1500 
 37 H        6.8400    -3.6470     0.4320 H     1 <1>   0.1500 
 38 H        8.9220    -2.4990     1.1020 H     1 <1>   0.1500 
@<TRIPOS>BOND
  1   1   2  2   
  2   2   3  am  
  3   2   4  1   
  4   3   5  1   
  5   3  20  1   
  6   4   6  1   
  7   4  21  1   
  8   4  22  1   
  9   5   7  1   
 10   5   8  1   
 11   5  23  1   
 12   6   9  1   
 13   6  10  1   
 14   7   8  1   
 15   7  24  1   
 16   7  25  1   
 17   8  26  1   
 18   8  27  1   
 19   9  11  1   
 20   9  28  1   
 21   9  29  1   
 22  10  12  1   
 23  10  30  1   
 24  10  31  1   
 25  11  13  1   
 26  11  32  1   
 27  11  33  1   
 28  12  13  1   
 29  12  34  1   
 30  12  35  1   
 31  13  14  1   
 32  14  15  ar  
 33  14  16  ar  
 34  15  17  ar  
 35  16  18  ar  
 36  17  19  ar  
 37  17  36  1   
 38  18  19  ar  
 39  18  37  1   
 40  19  38  1   
@<TRIPOS>SUBSTRUCTURE
  1 ****  10 GROUP 4 **** **** 0

# MOE 2024.06 (io_trps.svl 2023.06)
