@<TRIPOS>MOLECULE
NONAME
31 32 1 0 0 
SMALL
USER_CHARGES


@<TRIPOS>ATOM
  1 O       -0.7890    -0.5000    -0.3740 O.3   1 <1>  -0.0190 
  2 N       -2.0000    -0.5420     0.0830 N.2   1 <1>  -0.4100 
  3 C       -0.6190     0.7490    -0.7190 C.2   1 <1>   0.2980 
  4 C       -2.4960     0.6410    -0.0070 C.2   1 <1>   0.4620 
  5 N       -1.6220     1.5040    -0.5320 N.2   1 <1>  -0.5650 
  6 C        0.7120     1.1770    -1.3150 C.3   1 <1>   0.0200 
  7 C       -3.8320     1.0290     0.3990 C.ar  1 <1>   0.0540 
  8 C        1.8430     1.4150    -0.2850 C.3   1 <1>   0.0000 
  9 C       -4.2820     2.3440     0.2630 C.ar  1 <1>   0.1600 
 10 C       -4.7290     0.1160     0.9420 C.ar  1 <1>  -0.1500 
 11 C        1.4420     2.5040     0.7230 C.3   1 <1>  -0.2400 
 12 C        2.1860     0.1270     0.4830 C.3   1 <1>  -0.2400 
 13 C        3.1030     1.8810    -1.0320 C.3   1 <1>  -0.2400 
 14 N       -5.4800     2.7970     0.6030 N.ar  1 <1>  -0.6200 
 15 C       -5.9800     0.5650     1.3030 C.ar  1 <1>  -0.1500 
 16 C       -6.3020     1.8970     1.1150 C.ar  1 <1>   0.1600 
 17 H        0.5460     2.0860    -1.8650 H     1 <1>   0.0800 
 18 H        1.0180     0.4290    -2.0230 H     1 <1>   0.0800 
 19 H       -3.6040     3.0680    -0.1550 H     1 <1>   0.1500 
 20 H       -4.4510    -0.9150     1.0760 H     1 <1>   0.1500 
 21 H        0.5910     2.1960     1.3040 H     1 <1>   0.0800 
 22 H        1.1900     3.4170     0.2140 H     1 <1>   0.0800 
 23 H        2.2510     2.7080     1.4020 H     1 <1>   0.0800 
 24 H        3.0320     0.2870     1.1270 H     1 <1>   0.0800 
 25 H        1.3620    -0.1870     1.0990 H     1 <1>   0.0800 
 26 H        2.4260    -0.6700    -0.1980 H     1 <1>   0.0800 
 27 H        2.9110     2.7940    -1.5680 H     1 <1>   0.0800 
 28 H        3.4260     1.1350    -1.7360 H     1 <1>   0.0800 
 29 H        3.9090     2.0610    -0.3410 H     1 <1>   0.0800 
 30 H       -6.7030    -0.1090     1.7260 H     1 <1>   0.1500 
 31 H       -7.2830     2.2400     1.4000 H     1 <1>   0.1500 
@<TRIPOS>BOND
  1   1   2  1   
  2   1   3  1   
  3   2   4  2   
  4   3   5  2   
  5   3   6  1   
  6   4   5  1   
  7   4   7  1   
  8   6   8  1   
  9   6  17  1   
 10   6  18  1   
 11   7   9  ar  
 12   7  10  ar  
 13   8  11  1   
 14   8  12  1   
 15   8  13  1   
 16   9  14  ar  
 17   9  19  1   
 18  10  15  ar  
 19  10  20  1   
 20  11  21  1   
 21  11  22  1   
 22  11  23  1   
 23  12  24  1   
 24  12  25  1   
 25  12  26  1   
 26  13  27  1   
 27  13  28  1   
 28  13  29  1   
 29  14  16  ar  
 30  15  16  ar  
 31  15  30  1   
 32  16  31  1   
@<TRIPOS>SUBSTRUCTURE
  1 ****   5 GROUP 4 **** **** 0

# MOE 2024.06 (io_trps.svl 2023.06)
