@<TRIPOS>MOLECULE
NONAME
49 52 1 0 0 
SMALL
USER_CHARGES


@<TRIPOS>ATOM
  1 S        0.5640    -0.1780    -1.2340 S.3   1 <1>  -0.0800 
  2 C        1.0440     1.5220    -1.1710 C.2   1 <1>  -0.0450 
  3 C        2.2080    -0.7120    -1.5010 C.2   1 <1>  -0.1100 
  4 C        0.0340     2.5280    -0.9540 C.2   1 <1>   0.7150 
  5 C        2.3900     1.5950    -1.3520 C.2   1 <1>  -0.1500 
  6 C        3.0430     0.3420    -1.5370 C.2   1 <1>  -0.1500 
  7 O       -1.1420     2.2380    -0.8340 O.2   1 <1>  -0.5700 
  8 N        0.4290     3.8350    -0.8630 N.am  1 <1>  -0.5470 
  9 C       -0.2620     5.0180    -0.5700 C.ar  1 <1>   0.1170 
 10 C        0.4920     6.0680    -0.0280 C.ar  1 <1>   0.1000 
 11 C       -1.6170     5.1860    -0.7930 C.ar  1 <1>  -0.1500 
 12 N        1.8730     5.9180     0.1640 N.pl3 1 <1>  -0.8380 
 13 C       -0.1610     7.2460     0.3100 C.ar  1 <1>  -0.1500 
 14 C       -2.2890     6.3540    -0.4350 C.ar  1 <1>   0.0860 
 15 C        2.7560     6.7950    -0.6520 C.3   1 <1>   0.2090 
 16 C        2.3450     5.9160     1.5740 C.3   1 <1>   0.2090 
 17 C       -1.5230     7.3840     0.1120 C.ar  1 <1>  -0.1500 
 18 C       -3.7190     6.5080    -0.6210 C.2   1 <1>   0.5440 
 19 C        3.9260     7.1570     0.2540 C.3   1 <1>  -0.1600 
 20 C        3.3650     7.0430     1.6650 C.3   1 <1>  -0.1600 
 21 O       -4.1590     7.5700    -1.0270 O.2   1 <1>  -0.5700 
 22 N       -4.6130     5.4980    -0.3360 N.am  1 <1>  -0.6600 
 23 C       -6.0710     5.6640    -0.5240 C.3   1 <1>   0.1400 
 24 C       -4.3220     4.2920     0.4750 C.3   1 <1>   0.1400 
 25 C       -6.6940     4.4000     0.0590 C.3   1 <1>  -0.1600 
 26 C       -5.6680     3.8950     1.0700 C.3   1 <1>  -0.1600 
 27 H        2.3780    -1.7690    -1.6050 H     1 <1>   0.1500 
 28 H        2.9610     2.5070    -1.3640 H     1 <1>   0.1500 
 29 H        4.1070     0.2850    -1.6880 H     1 <1>   0.1500 
 30 H        1.4320     3.9900    -0.7410 H     1 <1>   0.3700 
 31 H       -2.1760     4.3980    -1.2610 H     1 <1>   0.1500 
 32 H        0.4030     8.0570     0.7300 H     1 <1>   0.1500 
 33 H        2.2230     7.6840    -0.9460 H     1 <1>   0.0800 
 34 H        3.0910     6.2770    -1.5340 H     1 <1>   0.0800 
 35 H        2.8160     4.9700     1.7800 H     1 <1>   0.0800 
 36 H        1.5320     6.0630     2.2650 H     1 <1>   0.0800 
 37 H       -2.0140     8.3040     0.3800 H     1 <1>   0.1500 
 38 H        4.3070     8.1400     0.0410 H     1 <1>   0.0800 
 39 H        4.7130     6.4370     0.1120 H     1 <1>   0.0800 
 40 H        4.1260     6.8350     2.3960 H     1 <1>   0.0800 
 41 H        2.8570     7.9520     1.9330 H     1 <1>   0.0800 
 42 H       -6.3070     5.7830    -1.5680 H     1 <1>   0.0800 
 43 H       -6.3980     6.5350     0.0190 H     1 <1>   0.0800 
 44 H       -3.5950     4.4980     1.2420 H     1 <1>   0.0800 
 45 H       -3.9600     3.5080    -0.1690 H     1 <1>   0.0800 
 46 H       -6.8160     3.6770    -0.7290 H     1 <1>   0.0800 
 47 H       -7.6510     4.5970     0.5080 H     1 <1>   0.0800 
 48 H       -5.7980     4.4030     2.0090 H     1 <1>   0.0800 
 49 H       -5.7350     2.8330     1.2300 H     1 <1>   0.0800 
@<TRIPOS>BOND
  1   1   2  1   
  2   1   3  1   
  3   2   4  1   
  4   2   5  2   
  5   3   6  2   
  6   3  27  1   
  7   4   7  2   
  8   4   8  am  
  9   5   6  1   
 10   5  28  1   
 11   6  29  1   
 12   8   9  1   
 13   8  30  1   
 14   9  10  ar  
 15   9  11  ar  
 16  10  12  1   
 17  10  13  ar  
 18  11  14  ar  
 19  11  31  1   
 20  12  15  1   
 21  12  16  1   
 22  13  17  ar  
 23  13  32  1   
 24  14  17  ar  
 25  14  18  1   
 26  15  19  1   
 27  15  33  1   
 28  15  34  1   
 29  16  20  1   
 30  16  35  1   
 31  16  36  1   
 32  17  37  1   
 33  18  21  2   
 34  18  22  am  
 35  19  20  1   
 36  19  38  1   
 37  19  39  1   
 38  20  40  1   
 39  20  41  1   
 40  22  23  1   
 41  22  24  1   
 42  23  25  1   
 43  23  42  1   
 44  23  43  1   
 45  24  26  1   
 46  24  44  1   
 47  24  45  1   
 48  25  26  1   
 49  25  46  1   
 50  25  47  1   
 51  26  48  1   
 52  26  49  1   
@<TRIPOS>SUBSTRUCTURE
  1 ****   9 GROUP 4 **** **** 0

# MOE 2024.06 (io_trps.svl 2023.06)
