@<TRIPOS>MOLECULE
NONAME
34 35 1 0 0 
SMALL
USER_CHARGES


@<TRIPOS>ATOM
  1 F       -0.6200     1.1940     0.7570 F     1 <1>  -0.3400 
  2 C       -1.8860     1.5680     0.6040 C.3   1 <1>   1.1640 
  3 F       -1.8700     2.5940    -0.2390 F     1 <1>  -0.3400 
  4 F       -2.2740     2.0530     1.7770 F     1 <1>  -0.3400 
  5 C       -2.7750     0.4040     0.1370 C.ar  1 <1>  -0.1440 
  6 C       -2.6790    -0.8370     0.7600 C.ar  1 <1>  -0.1500 
  7 C       -3.6900     0.5580    -0.9000 C.ar  1 <1>  -0.1500 
  8 C       -3.4700    -1.9040     0.3610 C.ar  1 <1>  -0.1440 
  9 C       -4.4850    -0.5010    -1.3000 C.ar  1 <1>  -0.1500 
 10 C       -4.3770    -1.7270    -0.6710 C.ar  1 <1>  -0.1500 
 11 C       -3.3490    -3.2580     1.0470 C.3   1 <1>  -0.0160 
 12 C       -2.6250    -4.2900     0.1590 C.3   1 <1>  -0.0800 
 13 C       -2.5680    -5.6620     0.8530 C.3   1 <1>  -0.1600 
 14 C       -1.2020    -3.8320    -0.2150 C.3   1 <1>  -0.1600 
 15 C       -1.8010    -6.6910     0.0190 C.3   1 <1>   0.3430 
 16 C       -0.4590    -4.8910    -1.0300 C.3   1 <1>   0.3430 
 17 N       -0.4380    -6.1750    -0.2790 N.4   1 <1>  -0.9060 
 18 H       -1.9800    -0.9680     1.5690 H     1 <1>   0.1500 
 19 H       -3.7960     1.5040    -1.4050 H     1 <1>   0.1500 
 20 H       -5.1930    -0.3680    -2.1000 H     1 <1>   0.1500 
 21 H       -5.0070    -2.5390    -0.9890 H     1 <1>   0.1500 
 22 H       -4.3400    -3.6110     1.2770 H     1 <1>   0.0800 
 23 H       -2.8270    -3.1450     1.9810 H     1 <1>   0.0800 
 24 H       -3.1940    -4.3960    -0.7510 H     1 <1>   0.0800 
 25 H       -3.5690    -6.0240     1.0100 H     1 <1>   0.0800 
 26 H       -2.1050    -5.5720     1.8210 H     1 <1>   0.0800 
 27 H       -0.6390    -3.5990     0.6720 H     1 <1>   0.0800 
 28 H       -1.2560    -2.9320    -0.8040 H     1 <1>   0.0800 
 29 H       -2.3320    -6.8740    -0.9020 H     1 <1>   0.0800 
 30 H       -1.7360    -7.6210     0.5630 H     1 <1>   0.0800 
 31 H        0.5480    -4.5560    -1.2250 H     1 <1>   0.0800 
 32 H       -0.9580    -5.0290    -1.9760 H     1 <1>   0.0800 
 33 H        0.0920    -6.8790    -0.8100 H     1 <1>   0.4500 
 34 H        0.0620    -6.0290     0.6070 H     1 <1>   0.4500 
@<TRIPOS>BOND
  1   1   2  1   
  2   2   3  1   
  3   2   4  1   
  4   2   5  1   
  5   5   6  ar  
  6   5   7  ar  
  7   6   8  ar  
  8   6  18  1   
  9   7   9  ar  
 10   7  19  1   
 11   8  10  ar  
 12   8  11  1   
 13   9  10  ar  
 14   9  20  1   
 15  10  21  1   
 16  11  12  1   
 17  11  22  1   
 18  11  23  1   
 19  12  13  1   
 20  12  14  1   
 21  12  24  1   
 22  13  15  1   
 23  13  25  1   
 24  13  26  1   
 25  14  16  1   
 26  14  27  1   
 27  14  28  1   
 28  15  17  1   
 29  15  29  1   
 30  15  30  1   
 31  16  17  1   
 32  16  31  1   
 33  16  32  1   
 34  17  33  1   
 35  17  34  1   
@<TRIPOS>SUBSTRUCTURE
  1 ****   8 GROUP 4 **** **** 0

# MOE 2024.06 (io_trps.svl 2023.06)
