@<TRIPOS>MOLECULE
NONAME
40 41 1 0 0 
SMALL
USER_CHARGES


@<TRIPOS>ATOM
  1 O        0.0410     0.2000     0.4880 O.2   1 <1>  -0.5700 
  2 C        0.5730     1.2290     0.1210 C.2   1 <1>   0.5440 
  3 N       -0.2310     2.2540    -0.2800 N.am  1 <1>  -0.7300 
  4 C        2.0200     1.3570     0.0950 C.ar  1 <1>   0.0860 
  5 C       -1.7030     2.2440    -0.2320 C.3   1 <1>   0.3200 
  6 C        2.8340     0.2270     0.0120 C.ar  1 <1>  -0.1500 
  7 C        2.6560     2.5990     0.1530 C.ar  1 <1>  -0.1500 
  8 C       -2.1900     3.6730    -0.0820 C.2   1 <1>  -0.0400 
  9 C        4.2200     0.3190    -0.0240 C.ar  1 <1>   0.0830 
 10 C        4.0330     2.7110     0.1160 C.ar  1 <1>  -0.1500 
 11 O       -1.8670     4.5620    -1.0050 O.3   1 <1>  -0.2800 
 12 C       -2.9370     4.2480     0.8850 C.2   1 <1>  -0.1500 
 13 O        5.0240    -0.7800    -0.1050 O.3   1 <1>  -0.3630 
 14 C        4.8300     1.5750     0.0260 C.ar  1 <1>   0.0830 
 15 C       -2.4000     5.7140    -0.6510 C.2   1 <1>  -0.0100 
 16 C       -3.0760     5.5910     0.5100 C.2   1 <1>  -0.1500 
 17 C        4.5010    -2.0890    -0.0680 C.3   1 <1>   0.0400 
 18 O        6.1880     1.6340    -0.0150 O.3   1 <1>  -0.3630 
 19 C        6.8930     2.8520     0.0420 C.3   1 <1>   0.1200 
 20 C        8.3880     2.5400    -0.0210 C.3   1 <1>  -0.1600 
 21 C        9.2310     3.8190     0.0360 C.3   1 <1>  -0.2400 
 22 H        0.1550     3.1100    -0.6800 H     1 <1>   0.3700 
 23 H       -2.0410     1.6460     0.5970 H     1 <1>   0.0800 
 24 H       -2.0870     1.8230    -1.1450 H     1 <1>   0.0800 
 25 H        2.3450    -0.7280    -0.0260 H     1 <1>   0.1500 
 26 H        2.0660     3.4940     0.2360 H     1 <1>   0.1500 
 27 H        4.4680     3.6920     0.1630 H     1 <1>   0.1500 
 28 H       -3.3540     3.8030     1.7710 H     1 <1>   0.1500 
 29 H       -2.2510     6.5720    -1.2840 H     1 <1>   0.1500 
 30 H       -3.6180     6.3410     1.0590 H     1 <1>   0.1500 
 31 H        5.3250    -2.7780    -0.1060 H     1 <1>   0.0800 
 32 H        3.8630    -2.2350    -0.9210 H     1 <1>   0.0800 
 33 H        3.9560    -2.2220     0.8500 H     1 <1>   0.0800 
 34 H        6.6470     3.3430     0.9670 H     1 <1>   0.0800 
 35 H        6.5950     3.4560    -0.7970 H     1 <1>   0.0800 
 36 H        8.6000     2.0150    -0.9370 H     1 <1>   0.0800 
 37 H        8.6510     1.9030     0.8060 H     1 <1>   0.0800 
 38 H        8.9970     4.4620    -0.7940 H     1 <1>   0.0800 
 39 H       10.2770     3.5700    -0.0100 H     1 <1>   0.0800 
 40 H        9.0470     4.3510     0.9530 H     1 <1>   0.0800 
@<TRIPOS>BOND
  1   1   2  2   
  2   2   3  am  
  3   2   4  1   
  4   3   5  1   
  5   3  22  1   
  6   4   6  ar  
  7   4   7  ar  
  8   5   8  1   
  9   5  23  1   
 10   5  24  1   
 11   6   9  ar  
 12   6  25  1   
 13   7  10  ar  
 14   7  26  1   
 15   8  11  1   
 16   8  12  2   
 17   9  13  1   
 18   9  14  ar  
 19  10  14  ar  
 20  10  27  1   
 21  11  15  1   
 22  12  16  1   
 23  12  28  1   
 24  13  17  1   
 25  14  18  1   
 26  15  16  2   
 27  15  29  1   
 28  16  30  1   
 29  17  31  1   
 30  17  32  1   
 31  17  33  1   
 32  18  19  1   
 33  19  20  1   
 34  19  34  1   
 35  19  35  1   
 36  20  21  1   
 37  20  36  1   
 38  20  37  1   
 39  21  38  1   
 40  21  39  1   
 41  21  40  1   
@<TRIPOS>SUBSTRUCTURE
  1 ****   7 GROUP 4 **** **** 0

# MOE 2024.06 (io_trps.svl 2023.06)
