@<TRIPOS>MOLECULE
NONAME
42 43 1 0 0 
SMALL
USER_CHARGES


@<TRIPOS>ATOM
  1 CL       1.0450    -2.2890    -3.6030 Cl    1 <1>  -0.1770 
  2 C        1.4750    -2.3920    -1.9150 C.ar  1 <1>   0.1770 
  3 C        2.8050    -2.3070    -1.5470 C.ar  1 <1>  -0.1500 
  4 C        0.4770    -2.5550    -0.9720 C.ar  1 <1>  -0.1500 
  5 C        3.1510    -2.3880    -0.2070 C.ar  1 <1>  -0.1440 
  6 C        0.8210    -2.6350     0.3660 C.ar  1 <1>  -0.1500 
  7 C        2.1530    -2.5520     0.7450 C.ar  1 <1>  -0.1500 
  8 C        4.6100    -2.2920     0.2090 C.3   1 <1>  -0.0160 
  9 C        5.0370    -0.8280     0.3110 C.3   1 <1>   0.1400 
 10 N        6.4550    -0.7410     0.7320 N.am  1 <1>  -0.7300 
 11 C        7.5050    -0.6920    -0.1310 C.2   1 <1>   0.5690 
 12 O        7.3430    -0.7550    -1.3250 O.2   1 <1>  -0.5700 
 13 C        8.9160    -0.5590     0.4390 C.3   1 <1>  -0.0190 
 14 C        9.4540     0.8720     0.2540 C.3   1 <1>  -0.1600 
 15 C        9.8900    -1.5740    -0.1920 C.3   1 <1>  -0.1600 
 16 C       10.8790     1.0160     0.7960 C.3   1 <1>   0.1400 
 17 C       11.3090    -1.4100     0.3580 C.3   1 <1>   0.1400 
 18 N       11.7610    -0.0040     0.1630 N.am  1 <1>  -0.6600 
 19 C       12.8770     0.3740    -0.5410 C.2   1 <1>   0.5690 
 20 O       13.2280     1.5260    -0.6250 O.2   1 <1>  -0.5700 
 21 C       13.7280    -0.6540    -1.2490 C.3   1 <1>  -0.1790 
 22 H        3.5560    -2.1790    -2.3070 H     1 <1>   0.1500 
 23 H       -0.5490    -2.6180    -1.2850 H     1 <1>   0.1500 
 24 H        0.0560    -2.7630     1.1120 H     1 <1>   0.1500 
 25 H        2.4060    -2.6170     1.7890 H     1 <1>   0.1500 
 26 H        5.2220    -2.7900    -0.5230 H     1 <1>   0.0800 
 27 H        4.7510    -2.7800     1.1560 H     1 <1>   0.0800 
 28 H        4.4160    -0.3100     1.0210 H     1 <1>   0.0800 
 29 H        4.9170    -0.3530    -0.6500 H     1 <1>   0.0800 
 30 H        6.6200    -0.6980     1.7380 H     1 <1>   0.3700 
 31 H        8.8690    -0.7620     1.4940 H     1 <1>   0.0800 
 32 H        8.8110     1.5710     0.7570 H     1 <1>   0.0800 
 33 H        9.4550     1.1260    -0.7930 H     1 <1>   0.0800 
 34 H        9.9150    -1.4380    -1.2600 H     1 <1>   0.0800 
 35 H        9.5440    -2.5730     0.0010 H     1 <1>   0.0800 
 36 H       10.8880     0.8730     1.8620 H     1 <1>   0.0800 
 37 H       11.2380     2.0110     0.5930 H     1 <1>   0.0800 
 38 H       11.9630    -2.1060    -0.1340 H     1 <1>   0.0800 
 39 H       11.3210    -1.6340     1.4110 H     1 <1>   0.0800 
 40 H       14.1520    -1.3330    -0.5340 H     1 <1>   0.0800 
 41 H       14.5270    -0.1630    -1.7730 H     1 <1>   0.0800 
 42 H       13.1320    -1.1930    -1.9610 H     1 <1>   0.0800 
@<TRIPOS>BOND
  1   1   2  1   
  2   2   3  ar  
  3   2   4  ar  
  4   3   5  ar  
  5   3  22  1   
  6   4   6  ar  
  7   4  23  1   
  8   5   7  ar  
  9   5   8  1   
 10   6   7  ar  
 11   6  24  1   
 12   7  25  1   
 13   8   9  1   
 14   8  26  1   
 15   8  27  1   
 16   9  10  1   
 17   9  28  1   
 18   9  29  1   
 19  10  11  am  
 20  10  30  1   
 21  11  12  2   
 22  11  13  1   
 23  13  14  1   
 24  13  15  1   
 25  13  31  1   
 26  14  16  1   
 27  14  32  1   
 28  14  33  1   
 29  15  17  1   
 30  15  34  1   
 31  15  35  1   
 32  16  18  1   
 33  16  36  1   
 34  16  37  1   
 35  17  18  1   
 36  17  38  1   
 37  17  39  1   
 38  18  19  am  
 39  19  20  2   
 40  19  21  1   
 41  21  40  1   
 42  21  41  1   
 43  21  42  1   
@<TRIPOS>SUBSTRUCTURE
  1 ****  11 GROUP 4 **** **** 0

# MOE 2024.06 (io_trps.svl 2023.06)
