@<TRIPOS>MOLECULE
NONAME
38 39 1 0 0 
SMALL
USER_CHARGES


@<TRIPOS>ATOM
  1 S        0.0790     1.3720     1.5240 S.o2  1 <1>   1.4470 
  2 O       -0.1810     2.4210     2.4860 O.2   1 <1>  -0.6500 
  3 O        0.1070     0.0010     1.9870 O.2   1 <1>  -0.6500 
  4 N       -1.1550     1.4550     0.3650 N.am  1 <1>  -0.8490 
  5 C        1.5820     1.7430     0.5580 C.ar  1 <1>  -0.0090 
  6 C       -1.0870     0.3550    -0.6130 C.3   1 <1>   0.1960 
  7 C       -2.4810     1.4540     0.9980 C.3   1 <1>   0.1960 
  8 C        1.8850     3.0150     0.0620 C.ar  1 <1>  -0.1440 
  9 C        2.4640     0.7100     0.2640 C.ar  1 <1>  -0.1500 
 10 C       -2.2350     0.4540    -1.6340 C.3   1 <1>   0.1200 
 11 C       -3.6010     1.5190    -0.0570 C.3   1 <1>   0.1200 
 12 C        3.0350     3.2140    -0.6850 C.ar  1 <1>  -0.1500 
 13 C        0.9780     4.2140     0.3150 C.3   1 <1>  -0.0960 
 14 C        3.6230     0.8830    -0.4880 C.ar  1 <1>   0.0860 
 15 O       -3.4730     0.4750    -0.9810 O.3   1 <1>  -0.5600 
 16 C        3.8890     2.1650    -0.9580 C.ar  1 <1>  -0.1500 
 17 C        4.5000    -0.2390    -0.7720 C.2   1 <1>   0.5440 
 18 O        4.0400    -1.3500    -0.9410 O.2   1 <1>  -0.5700 
 19 N        5.8560    -0.0630    -0.8440 N.am  1 <1>  -0.7300 
 20 C        6.8490    -1.1300    -1.1330 C.3   1 <1>   0.0600 
 21 H       -1.1520    -0.5980    -0.1130 H     1 <1>   0.0800 
 22 H       -0.1490     0.3920    -1.1400 H     1 <1>   0.0800 
 23 H       -2.5710     2.3060     1.6520 H     1 <1>   0.0800 
 24 H       -2.6070     0.5640     1.5940 H     1 <1>   0.0800 
 25 H        2.2500    -0.2820     0.6300 H     1 <1>   0.1500 
 26 H       -2.2240    -0.3970    -2.2910 H     1 <1>   0.0800 
 27 H       -2.1400     1.3500    -2.2230 H     1 <1>   0.0800 
 28 H       -3.5650     2.4550    -0.5860 H     1 <1>   0.0800 
 29 H       -4.5630     1.4230     0.4150 H     1 <1>   0.0800 
 30 H        3.2710     4.1930    -1.0660 H     1 <1>   0.1500 
 31 H        1.0070     4.4860     1.3550 H     1 <1>   0.0800 
 32 H       -0.0370     3.9850     0.0430 H     1 <1>   0.0800 
 33 H        1.2890     5.0660    -0.2620 H     1 <1>   0.0800 
 34 H        4.7680     2.3410    -1.5540 H     1 <1>   0.1500 
 35 H        6.2450     0.8470    -0.5920 H     1 <1>   0.3700 
 36 H        6.3500    -2.0460    -1.4020 H     1 <1>   0.0800 
 37 H        7.4530    -1.3100    -0.2610 H     1 <1>   0.0800 
 38 H        7.4810    -0.8290    -1.9490 H     1 <1>   0.0800 
@<TRIPOS>BOND
  1   1   2  2   
  2   1   3  2   
  3   1   4  am  
  4   1   5  1   
  5   4   6  1   
  6   4   7  1   
  7   5   8  ar  
  8   5   9  ar  
  9   6  10  1   
 10   6  21  1   
 11   6  22  1   
 12   7  11  1   
 13   7  23  1   
 14   7  24  1   
 15   8  12  ar  
 16   8  13  1   
 17   9  14  ar  
 18   9  25  1   
 19  10  15  1   
 20  10  26  1   
 21  10  27  1   
 22  11  15  1   
 23  11  28  1   
 24  11  29  1   
 25  12  16  ar  
 26  12  30  1   
 27  13  31  1   
 28  13  32  1   
 29  13  33  1   
 30  14  16  ar  
 31  14  17  1   
 32  16  34  1   
 33  17  18  2   
 34  17  19  am  
 35  19  20  1   
 36  19  35  1   
 37  20  36  1   
 38  20  37  1   
 39  20  38  1   
@<TRIPOS>SUBSTRUCTURE
  1 ****   5 GROUP 4 **** **** 0

# MOE 2024.06 (io_trps.svl 2023.06)
