@<TRIPOS>MOLECULE
NONAME
34 35 1 0 0 
SMALL
USER_CHARGES


@<TRIPOS>ATOM
  1 CL      -1.2540     0.8970     3.1420 Cl    1 <1>  -0.1770 
  2 C       -1.5940     1.7080     1.6290 C.ar  1 <1>   0.1770 
  3 C       -0.5840     2.3290     0.9140 C.ar  1 <1>   0.1900 
  4 C       -2.8880     1.7210     1.1450 C.ar  1 <1>  -0.1500 
  5 F        0.6450     2.3190     1.3670 F     1 <1>  -0.1900 
  6 C       -0.8420     2.9670    -0.2840 C.ar  1 <1>  -0.1500 
  7 C       -3.1790     2.3600    -0.0600 C.ar  1 <1>   0.1170 
  8 C       -2.1430     2.9760    -0.7630 C.ar  1 <1>  -0.1500 
  9 N       -4.4700     2.4000    -0.6070 N.am  1 <1>  -0.5470 
 10 C       -5.6960     2.2710    -0.0320 C.2   1 <1>   0.6900 
 11 O       -5.8610     2.1020     1.1600 O.2   1 <1>  -0.5700 
 12 N       -6.7880     2.3050    -0.8440 N.am  1 <1>  -0.6600 
 13 C       -7.2170     1.0040    -1.4300 C.3   1 <1>   0.1400 
 14 C       -7.9360     3.1500    -0.3990 C.3   1 <1>   0.1400 
 15 C       -8.1070     0.2330    -0.4300 C.3   1 <1>   0.3430 
 16 C       -8.8320     2.3790     0.5930 C.3   1 <1>   0.3430 
 17 N       -9.2850     1.0510     0.0390 N.4   1 <1>  -0.9590 
 18 C      -10.0690     0.3010     1.0660 C.3   1 <1>   0.2630 
 19 H       -3.6550     1.2300     1.7130 H     1 <1>   0.1500 
 20 H       -0.0420     3.4430    -0.8230 H     1 <1>   0.1500 
 21 H       -2.3520     3.4730    -1.6930 H     1 <1>   0.1500 
 22 H       -4.5260     2.6900    -1.5800 H     1 <1>   0.3700 
 23 H       -6.3490     0.4090    -1.6620 H     1 <1>   0.0800 
 24 H       -7.7520     1.1780    -2.3470 H     1 <1>   0.0800 
 25 H       -8.5100     3.4620    -1.2540 H     1 <1>   0.0800 
 26 H       -7.5590     4.0360     0.0840 H     1 <1>   0.0800 
 27 H       -7.4990    -0.0370     0.4190 H     1 <1>   0.0800 
 28 H       -8.4520    -0.6780    -0.8910 H     1 <1>   0.0800 
 29 H       -9.6870     2.9850     0.8440 H     1 <1>   0.0800 
 30 H       -8.2660     2.2180     1.4970 H     1 <1>   0.0800 
 31 H       -9.8890     1.2360    -0.7740 H     1 <1>   0.4500 
 32 H       -9.4560     0.0980     1.9290 H     1 <1>   0.0800 
 33 H      -10.4170    -0.6370     0.6620 H     1 <1>   0.0800 
 34 H      -10.9250     0.8770     1.3790 H     1 <1>   0.0800 
@<TRIPOS>BOND
  1   1   2  1   
  2   2   3  ar  
  3   2   4  ar  
  4   3   5  1   
  5   3   6  ar  
  6   4   7  ar  
  7   4  19  1   
  8   6   8  ar  
  9   6  20  1   
 10   7   8  ar  
 11   7   9  1   
 12   8  21  1   
 13   9  10  am  
 14   9  22  1   
 15  10  11  2   
 16  10  12  am  
 17  12  13  1   
 18  12  14  1   
 19  13  15  1   
 20  13  23  1   
 21  13  24  1   
 22  14  16  1   
 23  14  25  1   
 24  14  26  1   
 25  15  17  1   
 26  15  27  1   
 27  15  28  1   
 28  16  17  1   
 29  16  29  1   
 30  16  30  1   
 31  17  18  1   
 32  17  31  1   
 33  18  32  1   
 34  18  33  1   
 35  18  34  1   
@<TRIPOS>SUBSTRUCTURE
  1 ****  10 GROUP 4 **** **** 0

# MOE 2024.06 (io_trps.svl 2023.06)
