@<TRIPOS>MOLECULE
NONAME
50 52 1 0 0 
SMALL
USER_CHARGES


@<TRIPOS>ATOM
  1 O        0.2110     0.3170    -1.3690 O.2   1 <1>  -0.5700 
  2 C        1.1070    -0.3490    -0.9030 C.2   1 <1>   0.5690 
  3 N        2.0910     0.2210    -0.1260 N.am  1 <1>  -0.6600 
  4 C        1.1140    -1.8370    -1.2500 C.3   1 <1>   0.1810 
  5 C        2.0340     1.6650     0.2650 C.3   1 <1>   0.1400 
  6 C        3.2510    -0.5130     0.4700 C.3   1 <1>   0.1400 
  7 O        1.1260    -2.6460    -0.0820 O.3   1 <1>  -0.3620 
  8 C        3.3600     2.3750    -0.0410 C.3   1 <1>   0.1400 
  9 C        4.5820     0.2070     0.1920 C.3   1 <1>   0.1400 
 10 C        1.3220    -3.9840    -0.1610 C.ar  1 <1>   0.0820 
 11 N        4.5150     1.6510     0.5780 N.am  1 <1>  -0.6600 
 12 C        1.3420    -4.6970    -1.3560 C.ar  1 <1>  -0.1500 
 13 C        1.5150    -4.6570     1.0350 C.ar  1 <1>  -0.1500 
 14 C        5.4360     2.3120     1.3570 C.2   1 <1>   0.5690 
 15 C        1.5660    -6.0630    -1.3440 C.ar  1 <1>  -0.1500 
 16 C        1.7380    -6.0220     1.0430 C.ar  1 <1>  -0.1500 
 17 O        5.3140     3.4880     1.6090 O.2   1 <1>  -0.5700 
 18 C        6.6470     1.6020     1.9530 C.3   1 <1>   0.0440 
 19 C        1.7680    -6.7320    -0.1470 C.ar  1 <1>  -0.1430 
 20 C        7.6090     1.0330     0.9120 C.ar  1 <1>  -0.1430 
 21 C        2.0110    -8.2310    -0.1390 C.3   1 <1>  -0.0970 
 22 C        8.1350    -0.2410     1.0660 C.ar  1 <1>  -0.1500 
 23 C        7.9700     1.7850    -0.1970 C.ar  1 <1>  -0.1500 
 24 C        9.0020    -0.7610     0.1190 C.ar  1 <1>  -0.1500 
 25 C        8.8360     1.2670    -1.1430 C.ar  1 <1>  -0.1500 
 26 C        9.3520    -0.0070    -0.9870 C.ar  1 <1>  -0.1500 
 27 H        1.9890    -2.0580    -1.8310 H     1 <1>   0.0800 
 28 H        0.2310    -2.0780    -1.8120 H     1 <1>   0.0800 
 29 H        1.8310     1.7360     1.3190 H     1 <1>   0.0800 
 30 H        1.2400     2.1690    -0.2570 H     1 <1>   0.0800 
 31 H        3.3210    -1.5120     0.0810 H     1 <1>   0.0800 
 32 H        3.1050    -0.5870     1.5340 H     1 <1>   0.0800 
 33 H        3.3050     3.3860     0.3220 H     1 <1>   0.0800 
 34 H        3.5010     2.4170    -1.1070 H     1 <1>   0.0800 
 35 H        4.8100     0.1370    -0.8570 H     1 <1>   0.0800 
 36 H        5.3590    -0.3030     0.7290 H     1 <1>   0.0800 
 37 H        1.1820    -4.2140    -2.3010 H     1 <1>   0.1500 
 38 H        1.4890    -4.1060     1.9570 H     1 <1>   0.1500 
 39 H        1.5800    -6.6070    -2.2720 H     1 <1>   0.1500 
 40 H        1.8860    -6.5300     1.9800 H     1 <1>   0.1500 
 41 H        6.2920     0.8240     2.6020 H     1 <1>   0.0800 
 42 H        7.1870     2.3030     2.5620 H     1 <1>   0.0800 
 43 H        2.6200    -8.5090     0.7030 H     1 <1>   0.0800 
 44 H        2.5180    -8.5350    -1.0370 H     1 <1>   0.0800 
 45 H        1.0730    -8.7510    -0.0760 H     1 <1>   0.0800 
 46 H        7.8770    -0.8380     1.9230 H     1 <1>   0.1500 
 47 H        7.5780     2.7800    -0.3290 H     1 <1>   0.1500 
 48 H        9.4070    -1.7500     0.2440 H     1 <1>   0.1500 
 49 H        9.1100     1.8570    -2.0000 H     1 <1>   0.1500 
 50 H       10.0270    -0.4090    -1.7220 H     1 <1>   0.1500 
@<TRIPOS>BOND
  1   1   2  2   
  2   2   3  am  
  3   2   4  1   
  4   3   5  1   
  5   3   6  1   
  6   4   7  1   
  7   4  27  1   
  8   4  28  1   
  9   5   8  1   
 10   5  29  1   
 11   5  30  1   
 12   6   9  1   
 13   6  31  1   
 14   6  32  1   
 15   7  10  1   
 16   8  11  1   
 17   8  33  1   
 18   8  34  1   
 19   9  11  1   
 20   9  35  1   
 21   9  36  1   
 22  10  12  ar  
 23  10  13  ar  
 24  11  14  am  
 25  12  15  ar  
 26  12  37  1   
 27  13  16  ar  
 28  13  38  1   
 29  14  17  2   
 30  14  18  1   
 31  15  19  ar  
 32  15  39  1   
 33  16  19  ar  
 34  16  40  1   
 35  18  20  1   
 36  18  41  1   
 37  18  42  1   
 38  19  21  1   
 39  20  22  ar  
 40  20  23  ar  
 41  21  43  1   
 42  21  44  1   
 43  21  45  1   
 44  22  24  ar  
 45  22  46  1   
 46  23  25  ar  
 47  23  47  1   
 48  24  26  ar  
 49  24  48  1   
 50  25  26  ar  
 51  25  49  1   
 52  26  50  1   
@<TRIPOS>SUBSTRUCTURE
  1 ****   6 GROUP 4 **** **** 0

# MOE 2024.06 (io_trps.svl 2023.06)
