@<TRIPOS>MOLECULE
NONAME
54 56 1 0 0 
SMALL
USER_CHARGES


@<TRIPOS>ATOM
  1 O        0.1780     0.5680     1.4470 O.2   1 <1>  -0.5700 
  2 C        0.0490     1.7780     1.4780 C.2   1 <1>   0.5440 
  3 N        1.1370     2.5660     1.8020 N.am  1 <1>  -0.6600 
  4 C       -1.2390     2.3520     1.1480 C.ar  1 <1>   0.0860 
  5 C        2.4480     1.9660     2.1730 C.3   1 <1>   0.1400 
  6 C        1.1750     4.0410     1.5980 C.3   1 <1>   0.1400 
  7 C       -1.7720     2.2080    -0.1290 C.ar  1 <1>  -0.1500 
  8 C       -1.9790     3.0660     2.0850 C.ar  1 <1>  -0.1500 
  9 C        3.4750     2.2760     1.0790 C.3   1 <1>  -0.1600 
 10 C        2.1890     4.3730     0.5010 C.3   1 <1>  -0.1600 
 11 C       -2.9950     2.7650    -0.4890 C.ar  1 <1>   0.0820 
 12 C       -3.1960     3.6260     1.7500 C.ar  1 <1>  -0.1500 
 13 C        3.5830     3.7890     0.8120 C.3   1 <1>  -0.0190 
 14 O       -3.4830     2.6160    -1.7560 O.3   1 <1>  -0.3630 
 15 C       -3.7210     3.4930     0.4740 C.ar  1 <1>   0.0820 
 16 C        4.5990     4.0740    -0.2960 C.2   1 <1>   0.5690 
 17 C       -2.8390     1.8190    -2.7270 C.3   1 <1>   0.0400 
 18 O       -4.9250     4.1070     0.3060 O.3   1 <1>  -0.3620 
 19 O        4.2310     4.0850    -1.4450 O.2   1 <1>  -0.5700 
 20 N        5.8960     4.2850     0.0870 N.am  1 <1>  -0.5470 
 21 C       -5.6960     4.0250    -0.8710 C.3   1 <1>   0.0400 
 22 C        7.0490     4.5800    -0.6580 C.ar  1 <1>   0.1170 
 23 C        8.2910     4.3620    -0.0700 C.ar  1 <1>  -0.1500 
 24 C        7.0140     5.0970    -1.9500 C.ar  1 <1>  -0.1500 
 25 C        9.4670     4.6430    -0.7450 C.ar  1 <1>  -0.1440 
 26 C        8.1830     5.3810    -2.6310 C.ar  1 <1>  -0.1500 
 27 C        9.4080     5.1550    -2.0300 C.ar  1 <1>  -0.1500 
 28 C       10.8170     4.3990    -0.0930 C.3   1 <1>  -0.0970 
 29 H        2.3620     0.9000     2.2970 H     1 <1>   0.0800 
 30 H        2.7690     2.3810     3.1120 H     1 <1>   0.0800 
 31 H        1.4590     4.5160     2.5210 H     1 <1>   0.0800 
 32 H        0.2100     4.4210     1.3110 H     1 <1>   0.0800 
 33 H       -1.1860     1.6410    -0.8270 H     1 <1>   0.1500 
 34 H       -1.5930     3.1770     3.0830 H     1 <1>   0.1500 
 35 H        3.1780     1.7690     0.1760 H     1 <1>   0.0800 
 36 H        4.4320     1.8830     1.3720 H     1 <1>   0.0800 
 37 H        2.2610     5.4400     0.3910 H     1 <1>   0.0800 
 38 H        1.8260     3.9750    -0.4320 H     1 <1>   0.0800 
 39 H       -3.7570     4.1770     2.4840 H     1 <1>   0.1500 
 40 H        3.9360     4.2630     1.7110 H     1 <1>   0.0800 
 41 H       -3.4380     1.8300    -3.6190 H     1 <1>   0.0800 
 42 H       -2.7570     0.8120    -2.3550 H     1 <1>   0.0800 
 43 H       -1.8690     2.2350    -2.9350 H     1 <1>   0.0800 
 44 H        6.0710     4.1680     1.0810 H     1 <1>   0.3700 
 45 H       -6.6170     4.5530    -0.7060 H     1 <1>   0.0800 
 46 H       -5.8980     2.9900    -1.0830 H     1 <1>   0.0800 
 47 H       -5.1500     4.4830    -1.6770 H     1 <1>   0.0800 
 48 H        8.3370     3.9640     0.9260 H     1 <1>   0.1500 
 49 H        6.0720     5.2850    -2.4320 H     1 <1>   0.1500 
 50 H        8.1380     5.7780    -3.6300 H     1 <1>   0.1500 
 51 H       10.3130     5.3790    -2.5670 H     1 <1>   0.1500 
 52 H       10.7160     3.7840     0.7830 H     1 <1>   0.0800 
 53 H       11.2580     5.3370     0.1920 H     1 <1>   0.0800 
 54 H       11.4740     3.9010    -0.7830 H     1 <1>   0.0800 
@<TRIPOS>BOND
  1   1   2  2   
  2   2   3  am  
  3   2   4  1   
  4   3   5  1   
  5   3   6  1   
  6   4   7  ar  
  7   4   8  ar  
  8   5   9  1   
  9   5  29  1   
 10   5  30  1   
 11   6  10  1   
 12   6  31  1   
 13   6  32  1   
 14   7  11  ar  
 15   7  33  1   
 16   8  12  ar  
 17   8  34  1   
 18   9  13  1   
 19   9  35  1   
 20   9  36  1   
 21  10  13  1   
 22  10  37  1   
 23  10  38  1   
 24  11  14  1   
 25  11  15  ar  
 26  12  15  ar  
 27  12  39  1   
 28  13  16  1   
 29  13  40  1   
 30  14  17  1   
 31  15  18  1   
 32  16  19  2   
 33  16  20  am  
 34  17  41  1   
 35  17  42  1   
 36  17  43  1   
 37  18  21  1   
 38  20  22  1   
 39  20  44  1   
 40  21  45  1   
 41  21  46  1   
 42  21  47  1   
 43  22  23  ar  
 44  22  24  ar  
 45  23  25  ar  
 46  23  48  1   
 47  24  26  ar  
 48  24  49  1   
 49  25  27  ar  
 50  25  28  1   
 51  26  27  ar  
 52  26  50  1   
 53  27  51  1   
 54  28  52  1   
 55  28  53  1   
 56  28  54  1   
@<TRIPOS>SUBSTRUCTURE
  1 ****  10 GROUP 4 **** **** 0

# MOE 2024.06 (io_trps.svl 2023.06)
