@<TRIPOS>MOLECULE
NONAME
36 36 1 0 0 
SMALL
USER_CHARGES


@<TRIPOS>ATOM
  1 S       -0.7810    -0.8250    -1.2280 S.3   1 <1>  -0.3710 
  2 C        0.9660    -1.1650    -1.1920 C.2   1 <1>   0.6500 
  3 C       -1.0900     0.5000     0.0280 C.3   1 <1>   0.0700 
  4 O        1.4300    -1.9790    -1.9350 O.2   1 <1>  -0.5700 
  5 C        1.8040    -0.3930    -0.2000 C.3   1 <1>  -0.1790 
  6 C       -2.5890     0.7980     0.1160 C.3   1 <1>  -0.0990 
  7 C       -2.8510     1.9820     1.0370 C.2   1 <1>   0.5690 
  8 O       -2.0720     2.1240     1.9550 O.2   1 <1>  -0.5700 
  9 N       -3.8760     2.8680     0.7820 N.am  1 <1>  -0.6600 
 10 C       -5.2250     2.4390     0.2080 C.3   1 <1>   0.1140 
 11 C       -3.8650     4.3410     1.0590 C.3   1 <1>   0.2200 
 12 C       -5.5870     0.9320     0.1600 C.2   1 <1>   0.9060 
 13 C       -5.4040     3.1380    -1.1540 C.3   1 <1>  -0.1600 
 14 C       -4.0300     5.0760    -0.2830 C.3   1 <1>  -0.1600 
 15 C       -2.6240     4.8790     1.7770 C.3   1 <1>  -0.2400 
 16 O       -5.4880     0.3070    -0.9060 O.co2 1 <1>  -0.9000 
 17 O       -5.9910     0.3820     1.1910 O.co2 1 <1>  -0.9000 
 18 C       -5.3130     4.6640    -1.0190 C.3   1 <1>  -0.1600 
 19 H       -0.5480     1.3750    -0.2840 H     1 <1>   0.0800 
 20 H       -0.7220     0.1490     0.9760 H     1 <1>   0.0800 
 21 H        1.4780    -0.6060     0.8000 H     1 <1>   0.0800 
 22 H        1.7320     0.6590    -0.3960 H     1 <1>   0.0800 
 23 H        2.8310    -0.6920    -0.2970 H     1 <1>   0.0800 
 24 H       -3.1050    -0.0650     0.4960 H     1 <1>   0.0800 
 25 H       -2.9600     1.0220    -0.8670 H     1 <1>   0.0800 
 26 H       -5.9740     2.8410     0.8630 H     1 <1>   0.0800 
 27 H       -4.7170     4.5640     1.6790 H     1 <1>   0.0800 
 28 H       -6.3630     2.8690    -1.5610 H     1 <1>   0.0800 
 29 H       -4.6530     2.7720    -1.8320 H     1 <1>   0.0800 
 30 H       -3.1770     4.8590    -0.9020 H     1 <1>   0.0800 
 31 H       -4.0530     6.1370    -0.1120 H     1 <1>   0.0800 
 32 H       -2.6950     5.9440     1.8920 H     1 <1>   0.0800 
 33 H       -1.7340     4.6520     1.2190 H     1 <1>   0.0800 
 34 H       -2.5540     4.4480     2.7600 H     1 <1>   0.0800 
 35 H       -6.1670     5.0170    -0.4660 H     1 <1>   0.0800 
 36 H       -5.3380     5.1160    -1.9950 H     1 <1>   0.0800 
@<TRIPOS>BOND
  1   1   2  1   
  2   1   3  1   
  3   2   4  2   
  4   2   5  1   
  5   3   6  1   
  6   3  19  1   
  7   3  20  1   
  8   5  21  1   
  9   5  22  1   
 10   5  23  1   
 11   6   7  1   
 12   6  24  1   
 13   6  25  1   
 14   7   8  2   
 15   7   9  am  
 16   9  10  1   
 17   9  11  1   
 18  10  12  1   
 19  10  13  1   
 20  10  26  1   
 21  11  14  1   
 22  11  15  1   
 23  11  27  1   
 24  12  16  ar  
 25  12  17  ar  
 26  13  18  1   
 27  13  28  1   
 28  13  29  1   
 29  14  18  1   
 30  14  30  1   
 31  14  31  1   
 32  15  32  1   
 33  15  33  1   
 34  15  34  1   
 35  18  35  1   
 36  18  36  1   
@<TRIPOS>SUBSTRUCTURE
  1 ****   6 GROUP 4 **** **** 0

# MOE 2024.06 (io_trps.svl 2023.06)
