@<TRIPOS>MOLECULE
NONAME
51 53 1 0 0 
SMALL
USER_CHARGES


@<TRIPOS>ATOM
  1 O        0.1390    -1.8360     0.7250 O.2   1 <1>  -0.5700 
  2 C       -0.4050    -2.6170    -0.0220 C.2   1 <1>   0.4950 
  3 C       -1.8230    -2.6370    -0.2490 C.2   1 <1>   0.0290 
  4 C        0.5360    -3.6190    -0.6770 C.3   1 <1>  -0.0990 
  5 C       -2.2630    -3.3910    -1.3880 C.2   1 <1>   0.4950 
  6 C       -2.6270    -1.9400     0.6410 C.2   1 <1>  -0.0500 
  7 C        0.0630    -4.1070    -2.0510 C.3   1 <1>   0.0000 
  8 O       -3.2770    -3.1980    -2.0150 O.2   1 <1>  -0.5700 
  9 C       -1.4050    -4.5250    -1.9190 C.3   1 <1>  -0.0990 
 10 N       -3.9710    -1.7770     0.8120 N.pl3 1 <1>  -0.8690 
 11 C        0.9070    -5.3120    -2.4930 C.3   1 <1>  -0.2400 
 12 C        0.2190    -2.9910    -3.1000 C.3   1 <1>  -0.2400 
 13 C       -5.1600    -2.2990     0.0670 C.3   1 <1>   0.2090 
 14 C       -5.4430    -3.7910     0.3400 C.3   1 <1>   0.2070 
 15 C       -6.6750    -4.2320    -0.4590 C.ar  1 <1>  -0.1440 
 16 C       -5.5480    -4.1490     1.8320 C.ar  1 <1>  -0.1440 
 17 C       -7.9180    -4.4310     0.1290 C.ar  1 <1>  -0.1500 
 18 C       -6.5470    -4.4350    -1.8270 C.ar  1 <1>  -0.1500 
 19 C       -5.0760    -5.3820     2.2600 C.ar  1 <1>  -0.1500 
 20 C       -6.1080    -3.2880     2.7700 C.ar  1 <1>  -0.1500 
 21 C       -9.0050    -4.8230    -0.6330 C.ar  1 <1>  -0.1500 
 22 C       -7.6320    -4.8260    -2.5910 C.ar  1 <1>  -0.1500 
 23 C       -5.1510    -5.7460     3.5940 C.ar  1 <1>  -0.1500 
 24 C       -6.1830    -3.6490     4.1040 C.ar  1 <1>  -0.1500 
 25 C       -8.8640    -5.0210    -1.9940 C.ar  1 <1>  -0.1500 
 26 C       -5.7030    -4.8780     4.5180 C.ar  1 <1>  -0.1500 
 27 H        1.5120    -3.1750    -0.7680 H     1 <1>   0.0800 
 28 H        0.6300    -4.4520    -0.0040 H     1 <1>   0.0800 
 29 H       -2.0780    -1.4090     1.4050 H     1 <1>   0.1500 
 30 H       -1.4990    -5.3600    -1.2500 H     1 <1>   0.0800 
 31 H       -1.7790    -4.8360    -2.8800 H     1 <1>   0.0800 
 32 H       -4.2750    -1.2280     1.6280 H     1 <1>   0.4000 
 33 H        1.9460    -5.0390    -2.5660 H     1 <1>   0.0800 
 34 H        0.5850    -5.6670    -3.4570 H     1 <1>   0.0800 
 35 H        0.8210    -6.1220    -1.7900 H     1 <1>   0.0800 
 36 H       -0.1390    -3.3230    -4.0590 H     1 <1>   0.0800 
 37 H        1.2540    -2.7170    -3.2080 H     1 <1>   0.0800 
 38 H       -0.3290    -2.1050    -2.8300 H     1 <1>   0.0800 
 39 H       -6.0230    -1.7300     0.3620 H     1 <1>   0.0800 
 40 H       -5.0390    -2.1240    -0.9840 H     1 <1>   0.0800 
 41 H       -4.6060    -4.3350    -0.0540 H     1 <1>   0.0800 
 42 H       -8.0580    -4.2890     1.1850 H     1 <1>   0.1500 
 43 H       -5.5960    -4.2870    -2.3110 H     1 <1>   0.1500 
 44 H       -4.6490    -6.0710     1.5530 H     1 <1>   0.1500 
 45 H       -6.4950    -2.3310     2.4730 H     1 <1>   0.1500 
 46 H       -9.9610    -4.9750    -0.1640 H     1 <1>   0.1500 
 47 H       -7.5160    -4.9790    -3.6500 H     1 <1>   0.1500 
 48 H       -4.7800    -6.7040     3.9110 H     1 <1>   0.1500 
 49 H       -6.6160    -2.9730     4.8210 H     1 <1>   0.1500 
 50 H       -9.7090    -5.3250    -2.5870 H     1 <1>   0.1500 
 51 H       -5.7610    -5.1590     5.5540 H     1 <1>   0.1500 
@<TRIPOS>BOND
  1   1   2  2   
  2   2   3  1   
  3   2   4  1   
  4   3   5  1   
  5   3   6  2   
  6   4   7  1   
  7   4  27  1   
  8   4  28  1   
  9   5   8  2   
 10   5   9  1   
 11   6  10  1   
 12   6  29  1   
 13   7   9  1   
 14   7  11  1   
 15   7  12  1   
 16   9  30  1   
 17   9  31  1   
 18  10  13  1   
 19  10  32  1   
 20  11  33  1   
 21  11  34  1   
 22  11  35  1   
 23  12  36  1   
 24  12  37  1   
 25  12  38  1   
 26  13  14  1   
 27  13  39  1   
 28  13  40  1   
 29  14  15  1   
 30  14  16  1   
 31  14  41  1   
 32  15  17  ar  
 33  15  18  ar  
 34  16  19  ar  
 35  16  20  ar  
 36  17  21  ar  
 37  17  42  1   
 38  18  22  ar  
 39  18  43  1   
 40  19  23  ar  
 41  19  44  1   
 42  20  24  ar  
 43  20  45  1   
 44  21  25  ar  
 45  21  46  1   
 46  22  25  ar  
 47  22  47  1   
 48  23  26  ar  
 49  23  48  1   
 50  24  26  ar  
 51  24  49  1   
 52  25  50  1   
 53  26  51  1   
@<TRIPOS>SUBSTRUCTURE
  1 ****  14 GROUP 4 **** **** 0

# MOE 2024.06 (io_trps.svl 2023.06)
