@<TRIPOS>MOLECULE
NONAME
42 44 1 0 0 
SMALL
USER_CHARGES


@<TRIPOS>ATOM
  1 S       -0.5640    -0.0230     0.3500 S.o2  1 <1>   1.4470 
  2 O       -1.0790    -0.2510     1.6840 O.2   1 <1>  -0.6500 
  3 O       -0.2550    -1.1540    -0.4960 O.2   1 <1>  -0.6500 
  4 N       -1.7250     0.9000    -0.4670 N.am  1 <1>  -0.8490 
  5 C        0.8740     1.0850     0.4120 C.ar  1 <1>  -0.0090 
  6 C       -2.2430     2.0090     0.3610 C.3   1 <1>   0.1960 
  7 C       -2.8510     0.0570    -0.9150 C.3   1 <1>   0.1960 
  8 C        1.4730     1.4210     1.6250 C.ar  1 <1>  -0.1500 
  9 C        1.4050     1.6220    -0.7590 C.ar  1 <1>  -0.1500 
 10 C       -3.2640     2.8840    -0.3920 C.3   1 <1>   0.2090 
 11 C       -3.9180     0.8470    -1.7010 C.3   1 <1>   0.2090 
 12 C        2.5670     2.2710     1.6760 C.ar  1 <1>  -0.1500 
 13 C        2.4980     2.4740    -0.7300 C.ar  1 <1>  -0.1500 
 14 N       -4.3700     2.0760    -0.9830 N.pl3 1 <1>  -0.8380 
 15 C        3.0590     2.7840     0.4920 C.ar  1 <1>   0.1900 
 16 C       -5.5910     2.0420    -0.3090 C.ar  1 <1>   0.1000 
 17 F        4.0870     3.5860     0.5300 F     1 <1>  -0.1900 
 18 C       -6.6850     2.7720    -0.7760 C.ar  1 <1>  -0.1440 
 19 C       -5.7370     1.2800     0.8460 C.ar  1 <1>  -0.1500 
 20 C       -7.8880     2.7300    -0.0910 C.ar  1 <1>  -0.1500 
 21 C       -6.5660     3.6160    -2.0370 C.3   1 <1>  -0.0970 
 22 C       -6.9390     1.2410     1.5260 C.ar  1 <1>  -0.1500 
 23 C       -8.0190     1.9680     1.0570 C.ar  1 <1>  -0.1500 
 24 H       -1.4270     2.6370     0.6760 H     1 <1>   0.0800 
 25 H       -2.7170     1.6200     1.2470 H     1 <1>   0.0800 
 26 H       -3.3170    -0.4110    -0.0650 H     1 <1>   0.0800 
 27 H       -2.4800    -0.7270    -1.5530 H     1 <1>   0.0800 
 28 H        1.0800     1.0120     2.5420 H     1 <1>   0.1500 
 29 H        0.9530     1.3670    -1.7040 H     1 <1>   0.1500 
 30 H       -2.7620     3.4140    -1.1820 H     1 <1>   0.0800 
 31 H       -3.6780     3.6130     0.2830 H     1 <1>   0.0800 
 32 H       -4.7660     0.2110    -1.8870 H     1 <1>   0.0800 
 33 H       -3.5090     1.1340    -2.6530 H     1 <1>   0.0800 
 34 H        3.0310     2.5320     2.6100 H     1 <1>   0.1500 
 35 H        2.9080     2.8880    -1.6340 H     1 <1>   0.1500 
 36 H       -4.9030     0.7160     1.2150 H     1 <1>   0.1500 
 37 H       -8.7340     3.2910    -0.4470 H     1 <1>   0.1500 
 38 H       -6.2810     2.9910    -2.8640 H     1 <1>   0.0800 
 39 H       -5.8100     4.3670    -1.8980 H     1 <1>   0.0800 
 40 H       -7.4950     4.1000    -2.2730 H     1 <1>   0.0800 
 41 H       -7.0370     0.6470     2.4180 H     1 <1>   0.1500 
 42 H       -8.9570     1.9410     1.5830 H     1 <1>   0.1500 
@<TRIPOS>BOND
  1   1   2  2   
  2   1   3  2   
  3   1   4  am  
  4   1   5  1   
  5   4   6  1   
  6   4   7  1   
  7   5   8  ar  
  8   5   9  ar  
  9   6  10  1   
 10   6  24  1   
 11   6  25  1   
 12   7  11  1   
 13   7  26  1   
 14   7  27  1   
 15   8  12  ar  
 16   8  28  1   
 17   9  13  ar  
 18   9  29  1   
 19  10  14  1   
 20  10  30  1   
 21  10  31  1   
 22  11  14  1   
 23  11  32  1   
 24  11  33  1   
 25  12  15  ar  
 26  12  34  1   
 27  13  15  ar  
 28  13  35  1   
 29  14  16  1   
 30  15  17  1   
 31  16  18  ar  
 32  16  19  ar  
 33  18  20  ar  
 34  18  21  1   
 35  19  22  ar  
 36  19  36  1   
 37  20  23  ar  
 38  20  37  1   
 39  21  38  1   
 40  21  39  1   
 41  21  40  1   
 42  22  23  ar  
 43  22  41  1   
 44  23  42  1   
@<TRIPOS>SUBSTRUCTURE
  1 ****   6 GROUP 4 **** **** 0

# MOE 2024.06 (io_trps.svl 2023.06)
