@<TRIPOS>MOLECULE
NONAME
33 33 1 0 0 
SMALL
USER_CHARGES


@<TRIPOS>ATOM
  1 S        0.0330     0.4670    -0.1710 S.3   1 <1>  -0.3320 
  2 C       -1.3240    -0.6990     0.0450 C.ar  1 <1>   0.1020 
  3 C        1.5930    -0.4920     0.0700 C.3   1 <1>   0.0700 
  4 C       -2.6070    -0.2080    -0.1230 C.ar  1 <1>  -0.1500 
  5 C       -1.1100    -2.0320     0.3660 C.ar  1 <1>  -0.1500 
  6 C        2.7690     0.4700    -0.1000 C.3   1 <1>  -0.0990 
  7 C       -3.6900    -1.0560     0.0300 C.ar  1 <1>  -0.1500 
  8 C       -2.1980    -2.8750     0.5170 C.ar  1 <1>  -0.1500 
  9 C        4.0850    -0.2680    -0.0010 C.2   1 <1>   0.5690 
 10 C       -3.4850    -2.3890     0.3490 C.ar  1 <1>  -0.1500 
 11 O        4.2610    -1.0360     0.9120 O.2   1 <1>  -0.5700 
 12 N        5.0350    -0.0400    -0.9420 N.am  1 <1>  -0.7300 
 13 C        6.3480    -0.7340    -0.9980 C.3   1 <1>   0.1400 
 14 C        7.3020    -0.1730     0.0560 C.3   1 <1>   0.1200 
 15 O        8.5710    -0.7020    -0.1740 O.3   1 <1>  -0.5600 
 16 C        9.5140    -0.3320     0.7800 C.3   1 <1>   0.0400 
 17 H        1.6120    -1.2730    -0.6700 H     1 <1>   0.0800 
 18 H        1.5710    -0.9110     1.0610 H     1 <1>   0.0800 
 19 H       -2.7510     0.8280    -0.3700 H     1 <1>   0.1500 
 20 H       -0.1220    -2.4240     0.5010 H     1 <1>   0.1500 
 21 H        2.7360     1.2160     0.6720 H     1 <1>   0.0800 
 22 H        2.6950     0.9570    -1.0540 H     1 <1>   0.0800 
 23 H       -4.6910    -0.6800    -0.1000 H     1 <1>   0.1500 
 24 H       -2.0450    -3.9110     0.7650 H     1 <1>   0.1500 
 25 H       -4.3280    -3.0470     0.4670 H     1 <1>   0.1500 
 26 H        4.8610     0.6360    -1.6880 H     1 <1>   0.3700 
 27 H        6.7750    -0.6050    -1.9770 H     1 <1>   0.0800 
 28 H        6.2020    -1.7860    -0.8160 H     1 <1>   0.0800 
 29 H        6.9750    -0.4620     1.0400 H     1 <1>   0.0800 
 30 H        7.3630     0.8980    -0.0220 H     1 <1>   0.0800 
 31 H       10.4530    -0.7830     0.5130 H     1 <1>   0.0800 
 32 H        9.2010    -0.6910     1.7460 H     1 <1>   0.0800 
 33 H        9.6130     0.7390     0.7860 H     1 <1>   0.0800 
@<TRIPOS>BOND
  1   1   2  1   
  2   1   3  1   
  3   2   4  ar  
  4   2   5  ar  
  5   3   6  1   
  6   3  17  1   
  7   3  18  1   
  8   4   7  ar  
  9   4  19  1   
 10   5   8  ar  
 11   5  20  1   
 12   6   9  1   
 13   6  21  1   
 14   6  22  1   
 15   7  10  ar  
 16   7  23  1   
 17   8  10  ar  
 18   8  24  1   
 19   9  11  2   
 20   9  12  am  
 21  10  25  1   
 22  12  13  1   
 23  12  26  1   
 24  13  14  1   
 25  13  27  1   
 26  13  28  1   
 27  14  15  1   
 28  14  29  1   
 29  14  30  1   
 30  15  16  1   
 31  16  31  1   
 32  16  32  1   
 33  16  33  1   
@<TRIPOS>SUBSTRUCTURE
  1 ****   3 GROUP 4 **** **** 0

# MOE 2024.06 (io_trps.svl 2023.06)
