@<TRIPOS>MOLECULE
NONAME
31 31 1 0 0 
SMALL
USER_CHARGES


@<TRIPOS>ATOM
  1 CL       1.8580     2.2700    -2.3290 Cl    1 <1>  -0.1770 
  2 C        0.9470     2.8040    -0.9330 C.ar  1 <1>   0.1770 
  3 C        1.4070     2.5990     0.3720 C.ar  1 <1>   0.0860 
  4 C       -0.2580     3.4310    -1.1990 C.ar  1 <1>  -0.1500 
  5 C        2.6670     1.9600     0.7090 C.2   1 <1>   0.5440 
  6 C        0.5740     3.0520     1.3970 C.ar  1 <1>  -0.1500 
  7 C       -1.0580     3.8750    -0.1610 C.ar  1 <1>  -0.1430 
  8 O        2.7660     1.3130     1.7340 O.2   1 <1>  -0.5700 
  9 N        3.7760     2.0900    -0.0760 N.am  1 <1>  -0.7300 
 10 C       -0.6320     3.6790     1.1410 C.ar  1 <1>  -0.1500 
 11 C       -2.3820     4.5650    -0.4370 C.3   1 <1>  -0.0970 
 12 C        5.1000     1.4870     0.1920 C.3   1 <1>   0.1400 
 13 C        6.2210     2.3920    -0.3440 C.3   1 <1>  -0.0800 
 14 C        6.1300     2.5940    -1.8660 C.3   1 <1>  -0.2400 
 15 C        7.5890     1.7950     0.0110 C.3   1 <1>  -0.2400 
 16 H       -0.5640     3.5670    -2.2210 H     1 <1>   0.1500 
 17 H        0.8850     2.9070     2.4190 H     1 <1>   0.1500 
 18 H        3.6770     2.5140    -1.0010 H     1 <1>   0.3700 
 19 H       -1.2410     4.0150     1.9630 H     1 <1>   0.1500 
 20 H       -2.7100     4.3750    -1.4430 H     1 <1>   0.0800 
 21 H       -2.2750     5.6260    -0.3030 H     1 <1>   0.0800 
 22 H       -3.1370     4.2040     0.2390 H     1 <1>   0.0800 
 23 H        5.1470     0.5200    -0.2800 H     1 <1>   0.0800 
 24 H        5.2210     1.3480     1.2540 H     1 <1>   0.0800 
 25 H        6.1410     3.3500     0.1430 H     1 <1>   0.0800 
 26 H        6.1570     1.6470    -2.3750 H     1 <1>   0.0800 
 27 H        6.9550     3.1920    -2.2110 H     1 <1>   0.0800 
 28 H        5.2210     3.1030    -2.1330 H     1 <1>   0.0800 
 29 H        7.7170     0.8330    -0.4540 H     1 <1>   0.0800 
 30 H        7.6780     1.6760     1.0770 H     1 <1>   0.0800 
 31 H        8.3790     2.4450    -0.3220 H     1 <1>   0.0800 
@<TRIPOS>BOND
  1   1   2  1   
  2   2   3  ar  
  3   2   4  ar  
  4   3   5  1   
  5   3   6  ar  
  6   4   7  ar  
  7   4  16  1   
  8   5   8  2   
  9   5   9  am  
 10   6  10  ar  
 11   6  17  1   
 12   7  10  ar  
 13   7  11  1   
 14   9  12  1   
 15   9  18  1   
 16  10  19  1   
 17  11  20  1   
 18  11  21  1   
 19  11  22  1   
 20  12  13  1   
 21  12  23  1   
 22  12  24  1   
 23  13  14  1   
 24  13  15  1   
 25  13  25  1   
 26  14  26  1   
 27  14  27  1   
 28  14  28  1   
 29  15  29  1   
 30  15  30  1   
 31  15  31  1   
@<TRIPOS>SUBSTRUCTURE
  1 ****   3 GROUP 4 **** **** 0

# MOE 2024.06 (io_trps.svl 2023.06)
