@<TRIPOS>MOLECULE
NONAME
39 42 1 0 0 
SMALL
USER_CHARGES


@<TRIPOS>ATOM
  1 O        0.1200     0.6050    -1.1750 O.2   1 <1>  -0.5700 
  2 C       -0.3140     1.7160    -1.0130 C.2   1 <1>   0.5690 
  3 N        0.4290     2.8510    -0.7590 N.am  1 <1>  -0.2370 
  4 C       -1.8050     2.0020    -1.0750 C.3   1 <1>  -0.0190 
  5 C        1.8340     2.8630    -0.6370 C.ar  1 <1>   0.1170 
  6 C       -0.3680     3.9700    -0.6190 C.2   1 <1>   0.5690 
  7 C       -1.8450     3.6520    -0.7840 C.3   1 <1>  -0.0190 
  8 C       -2.7260     1.2760     0.0890 C.3   1 <1>   0.0580 
  9 C        2.6090     3.7960    -1.3180 C.ar  1 <1>  -0.1500 
 10 C        2.4930     1.9390     0.1680 C.ar  1 <1>  -0.1500 
 11 O        0.0120     5.0900    -0.3970 O.2   1 <1>  -0.5700 
 12 C       -2.7870     3.8930     0.5520 C.3   1 <1>   0.0580 
 13 C       -3.7440     1.6800     1.2910 C.2   1 <1>  -0.2880 
 14 C       -2.7170     2.5880     0.3050 C.3   1 <1>  -0.1600 
 15 C        3.9860     3.8000    -1.2000 C.ar  1 <1>  -0.1500 
 16 C        3.8700     1.9460     0.2840 C.ar  1 <1>  -0.1500 
 17 C       -3.7760     3.0560     1.5340 C.2   1 <1>  -0.2880 
 18 C        4.6600     2.8750    -0.4000 C.ar  1 <1>   0.0860 
 19 C        6.1070     2.8890    -0.2940 C.2   1 <1>   0.6340 
 20 O        6.8050     3.7060    -0.8580 O.2   1 <1>  -0.5700 
 21 O        6.6880     1.9460     0.4530 O.3   1 <1>  -0.4300 
 22 C        8.0790     1.9250     0.6950 C.3   1 <1>   0.3200 
 23 C        8.3630     2.7090     1.9330 C.1   1 <1>  -0.2000 
 24 C        8.5870     3.3380     2.9170 C.1   1 <1>  -0.1770 
 25 H       -2.1690     1.7650    -2.0620 H     1 <1>   0.0800 
 26 H       -2.2290     4.1940    -1.6330 H     1 <1>   0.0800 
 27 H       -2.0270     0.6200     0.5920 H     1 <1>   0.0800 
 28 H        2.1310     4.5300    -1.9430 H     1 <1>   0.1500 
 29 H        1.9220     1.2030     0.7070 H     1 <1>   0.1500 
 30 H       -2.1140     4.3680     1.2540 H     1 <1>   0.0800 
 31 H       -4.2910     0.8950     1.7880 H     1 <1>   0.1500 
 32 H       -3.6480     2.7040    -0.4750 H     1 <1>   0.0800 
 33 H       -1.7990     2.4830     1.0230 H     1 <1>   0.0800 
 34 H        4.5580     4.5380    -1.7390 H     1 <1>   0.1500 
 35 H        4.3410     1.2130     0.9160 H     1 <1>   0.1500 
 36 H       -4.3540     3.5980     2.2660 H     1 <1>   0.1500 
 37 H        8.6100     2.3210    -0.1530 H     1 <1>   0.0800 
 38 H        8.3670     0.8990     0.8390 H     1 <1>   0.0800 
 39 H        8.7870     3.9120     3.8050 H     1 <1>   0.1770 
@<TRIPOS>BOND
  1   1   2  2   
  2   2   3  am  
  3   2   4  1   
  4   3   5  1   
  5   3   6  am  
  6   4   7  1   
  7   4   8  1   
  8   4  25  1   
  9   5   9  ar  
 10   5  10  ar  
 11   6   7  1   
 12   6  11  2   
 13   7  12  1   
 14   7  26  1   
 15   8  13  1   
 16   8  14  1   
 17   8  27  1   
 18   9  15  ar  
 19   9  28  1   
 20  10  16  ar  
 21  10  29  1   
 22  12  14  1   
 23  12  17  1   
 24  12  30  1   
 25  13  17  2   
 26  13  31  1   
 27  14  32  1   
 28  14  33  1   
 29  15  18  ar  
 30  15  34  1   
 31  16  18  ar  
 32  16  35  1   
 33  17  36  1   
 34  18  19  1   
 35  19  20  2   
 36  19  21  1   
 37  21  22  1   
 38  22  23  1   
 39  22  37  1   
 40  22  38  1   
 41  23  24  3   
 42  24  39  1   
@<TRIPOS>SUBSTRUCTURE
  1 ****   5 GROUP 4 **** **** 0

# MOE 2024.06 (io_trps.svl 2023.06)
