@<TRIPOS>MOLECULE
NONAME
40 42 1 0 0 
SMALL
USER_CHARGES


@<TRIPOS>ATOM
  1 O       -1.1300     0.6150     0.2930 O.3   1 <1>  -0.2800 
  2 C       -1.4460     1.3970    -0.7230 C.2   1 <1>  -0.0400 
  3 C        0.0140     1.0440     0.7840 C.2   1 <1>  -0.0400 
  4 C       -0.5060     2.3520    -0.8980 C.2   1 <1>  -0.1500 
  5 C       -2.7390     1.1180    -1.4610 C.3   1 <1>   0.5230 
  6 C        0.4540     2.1170     0.0940 C.2   1 <1>  -0.1500 
  7 C        0.6250     0.3150     1.9630 C.3   1 <1>  -0.0600 
  8 N       -3.8190     0.9810    -0.4480 N.4   1 <1>  -0.9590 
  9 C       -5.0890     0.4070    -1.0190 C.3   1 <1>   0.3430 
 10 C       -4.0700     2.2780     0.2810 C.3   1 <1>   0.3430 
 11 C       -6.1900     0.2340     0.0480 C.3   1 <1>   0.2090 
 12 C       -5.1670     2.1520     1.3600 C.3   1 <1>   0.2090 
 13 N       -6.3960     1.4950     0.8200 N.pl3 1 <1>  -0.8380 
 14 C       -7.5460     2.2400     0.5610 C.ar  1 <1>   0.1000 
 15 C       -7.4960     3.4880    -0.0550 C.ar  1 <1>  -0.1500 
 16 C       -8.7870     1.7260     0.9140 C.ar  1 <1>  -0.1500 
 17 C       -8.6550     4.1960    -0.3150 C.ar  1 <1>  -0.1500 
 18 C       -9.9490     2.4300     0.6560 C.ar  1 <1>  -0.1500 
 19 C       -9.8850     3.6680     0.0400 C.ar  1 <1>  -0.1500 
 20 H       -0.4520     3.1450    -1.6250 H     1 <1>   0.1500 
 21 H       -2.6320     0.1970    -2.0110 H     1 <1>   0.0800 
 22 H       -2.9580     1.9150    -2.1510 H     1 <1>   0.0800 
 23 H        1.3520     2.6920     0.2450 H     1 <1>   0.1500 
 24 H       -0.0460     0.3440     2.8010 H     1 <1>   0.0800 
 25 H        1.5540     0.7770     2.2440 H     1 <1>   0.0800 
 26 H        0.8140    -0.7100     1.7000 H     1 <1>   0.0800 
 27 H       -3.4390     0.3260     0.2510 H     1 <1>   0.4500 
 28 H       -4.8910    -0.5490    -1.4740 H     1 <1>   0.0800 
 29 H       -5.4710     1.0650    -1.7830 H     1 <1>   0.0800 
 30 H       -4.3790     3.0310    -0.4230 H     1 <1>   0.0800 
 31 H       -3.1600     2.6170     0.7490 H     1 <1>   0.0800 
 32 H       -5.9210    -0.5560     0.7280 H     1 <1>   0.0800 
 33 H       -7.1090    -0.0500    -0.4360 H     1 <1>   0.0800 
 34 H       -5.4150     3.1280     1.7410 H     1 <1>   0.0800 
 35 H       -4.7950     1.5710     2.1860 H     1 <1>   0.0800 
 36 H       -6.5540     3.9110    -0.3400 H     1 <1>   0.1500 
 37 H       -8.8380     0.7700     1.4020 H     1 <1>   0.1500 
 38 H       -8.6070     5.1600    -0.7910 H     1 <1>   0.1500 
 39 H      -10.9030     2.0190     0.9370 H     1 <1>   0.1500 
 40 H      -10.7880     4.2180    -0.1610 H     1 <1>   0.1500 
@<TRIPOS>BOND
  1   1   2  1   
  2   1   3  1   
  3   2   4  2   
  4   2   5  1   
  5   3   6  2   
  6   3   7  1   
  7   4   6  1   
  8   4  20  1   
  9   5   8  1   
 10   5  21  1   
 11   5  22  1   
 12   6  23  1   
 13   7  24  1   
 14   7  25  1   
 15   7  26  1   
 16   8   9  1   
 17   8  10  1   
 18   8  27  1   
 19   9  11  1   
 20   9  28  1   
 21   9  29  1   
 22  10  12  1   
 23  10  30  1   
 24  10  31  1   
 25  11  13  1   
 26  11  32  1   
 27  11  33  1   
 28  12  13  1   
 29  12  34  1   
 30  12  35  1   
 31  13  14  1   
 32  14  15  ar  
 33  14  16  ar  
 34  15  17  ar  
 35  15  36  1   
 36  16  18  ar  
 37  16  37  1   
 38  17  19  ar  
 39  17  38  1   
 40  18  19  ar  
 41  18  39  1   
 42  19  40  1   
@<TRIPOS>SUBSTRUCTURE
  1 ****  10 GROUP 4 **** **** 0

# MOE 2024.06 (io_trps.svl 2023.06)
