@<TRIPOS>MOLECULE
NONAME
42 43 1 0 0 
SMALL
USER_CHARGES


@<TRIPOS>ATOM
  1 S        0.1520    -0.2170     1.0740 S.o2  1 <1>   1.4470 
  2 O        0.7240    -0.4110     2.3890 O.2   1 <1>  -0.6500 
  3 O       -0.0660     1.1250     0.5820 O.2   1 <1>  -0.6500 
  4 N        1.1970    -0.9760    -0.0240 N.am  1 <1>  -0.8490 
  5 C       -1.3810    -1.1730     0.9020 C.ar  1 <1>  -0.0090 
  6 C        2.3820    -0.1380    -0.2920 C.3   1 <1>   0.1960 
  7 C        1.6160    -2.3130     0.4380 C.3   1 <1>   0.1960 
  8 C       -1.8840    -1.9280     1.9580 C.ar  1 <1>  -0.1500 
  9 C       -2.0800    -1.1830    -0.3010 C.ar  1 <1>  -0.1500 
 10 C        3.3150    -0.7750    -1.3370 C.3   1 <1>   0.1400 
 11 C        2.5110    -3.0210    -0.5950 C.3   1 <1>   0.1400 
 12 C       -3.0440    -2.6710     1.8180 C.ar  1 <1>  -0.1500 
 13 C       -3.2420    -1.9210    -0.4560 C.ar  1 <1>  -0.1500 
 14 N        3.6820    -2.1650    -0.9430 N.am  1 <1>  -0.6600 
 15 C       -3.7170    -2.6640     0.6110 C.ar  1 <1>   0.1010 
 16 C        4.9840    -2.5600    -0.7990 C.2   1 <1>   0.7800 
 17 S       -5.2150    -3.6570     0.5030 S.3   1 <1>  -0.3320 
 18 O        5.9220    -1.8220    -1.0350 O.2   1 <1>  -0.5700 
 19 O        5.2110    -3.8030    -0.3740 O.3   1 <1>  -0.4300 
 20 C       -5.9040    -3.4010    -1.1920 C.3   1 <1>  -0.0100 
 21 C        6.5260    -4.2750    -0.1910 C.3   1 <1>   0.1200 
 22 C        6.4450    -5.7090     0.3220 C.3   1 <1>  -0.2400 
 23 H        2.9320     0.0230     0.6210 H     1 <1>   0.0800 
 24 H        2.0700     0.8240    -0.6610 H     1 <1>   0.0800 
 25 H        0.7480    -2.9250     0.6130 H     1 <1>   0.0800 
 26 H        2.1580    -2.2330     1.3660 H     1 <1>   0.0800 
 27 H       -1.3650    -1.9340     2.9020 H     1 <1>   0.1500 
 28 H       -1.7040    -0.6020    -1.1270 H     1 <1>   0.1500 
 29 H        4.1960    -0.1660    -1.4430 H     1 <1>   0.0800 
 30 H        2.8150    -0.7990    -2.2900 H     1 <1>   0.0800 
 31 H        1.9400    -3.2150    -1.4850 H     1 <1>   0.0800 
 32 H        2.8320    -3.9660    -0.1950 H     1 <1>   0.0800 
 33 H       -3.4280    -3.2520     2.6380 H     1 <1>   0.1500 
 34 H       -3.7560    -1.9040    -1.3970 H     1 <1>   0.1500 
 35 H       -6.8080    -3.9780    -1.2640 H     1 <1>   0.0800 
 36 H       -5.1750    -3.7460    -1.9030 H     1 <1>   0.0800 
 37 H       -6.1090    -2.3530    -1.3130 H     1 <1>   0.0800 
 38 H        7.0220    -3.6370     0.5210 H     1 <1>   0.0800 
 39 H        7.0400    -4.2290    -1.1370 H     1 <1>   0.0800 
 40 H        5.9180    -5.7390     1.2580 H     1 <1>   0.0800 
 41 H        7.4370    -6.0950     0.4740 H     1 <1>   0.0800 
 42 H        5.9420    -6.3320    -0.3970 H     1 <1>   0.0800 
@<TRIPOS>BOND
  1   1   2  2   
  2   1   3  2   
  3   1   4  am  
  4   1   5  1   
  5   4   6  1   
  6   4   7  1   
  7   5   8  ar  
  8   5   9  ar  
  9   6  10  1   
 10   6  23  1   
 11   6  24  1   
 12   7  11  1   
 13   7  25  1   
 14   7  26  1   
 15   8  12  ar  
 16   8  27  1   
 17   9  13  ar  
 18   9  28  1   
 19  10  14  1   
 20  10  29  1   
 21  10  30  1   
 22  11  14  1   
 23  11  31  1   
 24  11  32  1   
 25  12  15  ar  
 26  12  33  1   
 27  13  15  ar  
 28  13  34  1   
 29  14  16  am  
 30  15  17  1   
 31  16  18  2   
 32  16  19  1   
 33  17  20  1   
 34  19  21  1   
 35  20  35  1   
 36  20  36  1   
 37  20  37  1   
 38  21  22  1   
 39  21  38  1   
 40  21  39  1   
 41  22  40  1   
 42  22  41  1   
 43  22  42  1   
@<TRIPOS>SUBSTRUCTURE
  1 ****   7 GROUP 4 **** **** 0

# MOE 2024.06 (io_trps.svl 2023.06)
