@<TRIPOS>MOLECULE
NONAME
58 61 1 0 0 
SMALL
USER_CHARGES


@<TRIPOS>ATOM
  1 N      -17.4610     0.7680    -2.3740 N.ar  1 <1>  -0.6200 
  2 C      -16.2750     0.5600    -2.9210 C.ar  1 <1>   0.1600 
  3 C      -17.7520    -0.0080    -1.3430 C.ar  1 <1>   0.1600 
  4 C      -15.3590    -0.3810    -2.4790 C.ar  1 <1>  -0.1500 
  5 C      -16.9100    -0.9780    -0.8250 C.ar  1 <1>  -0.1500 
  6 C      -15.6680    -1.1790    -1.3960 C.ar  1 <1>  -0.1430 
  7 C      -14.6930    -2.2180    -0.8660 C.3   1 <1>   0.2540 
  8 N      -13.5170    -1.5600    -0.2570 N.3   1 <1>  -0.8100 
  9 C      -13.8940    -0.7060     0.8990 C.3   1 <1>   0.1100 
 10 C      -12.5000    -2.5520     0.1560 C.3   1 <1>   0.1100 
 11 C      -12.6610    -0.0500     1.5640 C.3   1 <1>   0.3430 
 12 C      -11.2450    -1.8700     0.7590 C.3   1 <1>   0.3430 
 13 N      -11.4020    -0.3670     0.7940 N.4   1 <1>  -0.9590 
 14 C      -10.1850     0.4110     1.1840 C.3   1 <1>   0.4230 
 15 C      -10.4570     1.9190     1.0620 C.3   1 <1>  -0.1600 
 16 C       -8.9950     0.0230     0.2920 C.3   1 <1>  -0.1600 
 17 C       -9.2040     2.7570     1.3220 C.3   1 <1>   0.3430 
 18 C       -7.7640     0.8870     0.5640 C.3   1 <1>   0.3430 
 19 N       -8.1120     2.3270     0.4130 N.4   1 <1>  -0.9590 
 20 C       -6.9010     3.1900     0.5760 C.3   1 <1>   0.4860 
 21 C       -5.9310     2.8530    -0.5380 C.ar  1 <1>  -0.1430 
 22 C       -4.7810     2.1240    -0.2650 C.ar  1 <1>  -0.1500 
 23 C       -6.1900     3.2600    -1.8400 C.ar  1 <1>  -0.1500 
 24 C       -3.9100     1.7910    -1.2870 C.ar  1 <1>  -0.1500 
 25 C       -5.3170     2.9240    -2.8600 C.ar  1 <1>  -0.1500 
 26 C       -4.1790     2.1870    -2.5840 C.ar  1 <1>  -0.1500 
 27 H      -16.0190     1.1730    -3.7680 H     1 <1>   0.1500 
 28 H      -18.7180     0.1370    -0.8880 H     1 <1>   0.1500 
 29 H      -14.4150    -0.4830    -2.9800 H     1 <1>   0.1500 
 30 H      -17.2350    -1.5620     0.0160 H     1 <1>   0.1500 
 31 H      -14.3730    -2.8370    -1.6880 H     1 <1>   0.0800 
 32 H      -15.1820    -2.8490    -0.1430 H     1 <1>   0.0800 
 33 H      -14.4290    -1.2870     1.6320 H     1 <1>   0.0800 
 34 H      -14.5550     0.0780     0.5670 H     1 <1>   0.0800 
 35 H      -12.2010    -3.1370    -0.6980 H     1 <1>   0.0800 
 36 H      -12.9180    -3.2300     0.8820 H     1 <1>   0.0800 
 37 H      -12.5750    -0.4030     2.5790 H     1 <1>   0.0800 
 38 H      -12.8300     1.0130     1.5980 H     1 <1>   0.0800 
 39 H      -10.3980    -2.1450     0.1530 H     1 <1>   0.0800 
 40 H      -11.0760    -2.2510     1.7520 H     1 <1>   0.0800 
 41 H      -11.6790    -0.1500    -0.1790 H     1 <1>   0.4500 
 42 H       -9.9360     0.1840     2.2100 H     1 <1>   0.0800 
 43 H      -11.1910     2.2220     1.7860 H     1 <1>   0.0800 
 44 H      -10.8340     2.1530     0.0820 H     1 <1>   0.0800 
 45 H       -9.2590     0.1150    -0.7480 H     1 <1>   0.0800 
 46 H       -8.7070    -0.9950     0.4780 H     1 <1>   0.0800 
 47 H       -8.8920     2.6390     2.3480 H     1 <1>   0.0800 
 48 H       -9.4300     3.8010     1.1590 H     1 <1>   0.0800 
 49 H       -6.9830     0.6200    -0.1330 H     1 <1>   0.0800 
 50 H       -7.3980     0.7020     1.5620 H     1 <1>   0.0800 
 51 H       -8.3950     2.4750    -0.5670 H     1 <1>   0.4500 
 52 H       -6.4380     3.0200     1.5340 H     1 <1>   0.0800 
 53 H       -7.1690     4.2320     0.5050 H     1 <1>   0.0800 
 54 H       -4.5410     1.8100     0.7370 H     1 <1>   0.1500 
 55 H       -7.0600     3.8440    -2.0830 H     1 <1>   0.1500 
 56 H       -3.0170     1.2250    -1.0770 H     1 <1>   0.1500 
 57 H       -5.5160     3.2380    -3.8710 H     1 <1>   0.1500 
 58 H       -3.5000     1.9280    -3.3790 H     1 <1>   0.1500 
@<TRIPOS>BOND
  1   1   2  ar  
  2   1   3  ar  
  3   2   4  ar  
  4   2  27  1   
  5   3   5  ar  
  6   3  28  1   
  7   4   6  ar  
  8   4  29  1   
  9   5   6  ar  
 10   5  30  1   
 11   6   7  1   
 12   7   8  1   
 13   7  31  1   
 14   7  32  1   
 15   8   9  1   
 16   8  10  1   
 17   9  11  1   
 18   9  33  1   
 19   9  34  1   
 20  10  12  1   
 21  10  35  1   
 22  10  36  1   
 23  11  13  1   
 24  11  37  1   
 25  11  38  1   
 26  12  13  1   
 27  12  39  1   
 28  12  40  1   
 29  13  14  1   
 30  13  41  1   
 31  14  15  1   
 32  14  16  1   
 33  14  42  1   
 34  15  17  1   
 35  15  43  1   
 36  15  44  1   
 37  16  18  1   
 38  16  45  1   
 39  16  46  1   
 40  17  19  1   
 41  17  47  1   
 42  17  48  1   
 43  18  19  1   
 44  18  49  1   
 45  18  50  1   
 46  19  20  1   
 47  19  51  1   
 48  20  21  1   
 49  20  52  1   
 50  20  53  1   
 51  21  22  ar  
 52  21  23  ar  
 53  22  24  ar  
 54  22  54  1   
 55  23  25  ar  
 56  23  55  1   
 57  24  26  ar  
 58  24  56  1   
 59  25  26  ar  
 60  25  57  1   
 61  26  58  1   
@<TRIPOS>SUBSTRUCTURE
  1 ****  13 GROUP 4 **** **** 0

# MOE 2024.06 (io_trps.svl 2023.06)
