@<TRIPOS>MOLECULE
NONAME
46 48 1 0 0 
SMALL
USER_CHARGES


@<TRIPOS>ATOM
  1 O       -0.4950    -0.3590     1.9180 O.2   1 <1>  -0.5700 
  2 C       -0.7760    -1.4150     1.4080 C.2   1 <1>   0.5690 
  3 N        0.0760    -2.2520     0.7770 N.am  1 <1>  -0.6600 
  4 C       -2.1750    -1.9620     1.4020 C.3   1 <1>  -0.0990 
  5 C        1.5170    -1.9630     0.5540 C.3   1 <1>   0.2200 
  6 C       -0.6140    -3.4560     0.2660 C.3   1 <1>   0.1400 
  7 C       -1.9750    -3.4300     0.9790 C.3   1 <1>  -0.0190 
  8 C        1.8530    -1.9270    -0.9350 C.3   1 <1>  -0.1600 
  9 C        2.4000    -3.0750     1.1200 C.3   1 <1>  -0.1600 
 10 C       -3.1050    -4.0110     0.1420 C.2   1 <1>   0.5690 
 11 C        2.2610    -3.3500    -1.3250 C.3   1 <1>  -0.1600 
 12 C        2.7100    -4.0400    -0.0330 C.3   1 <1>  -0.1600 
 13 O       -2.8420    -4.7390    -0.7840 O.2   1 <1>  -0.5700 
 14 N       -4.3860    -3.7110     0.4780 N.am  1 <1>  -0.7300 
 15 C       -5.5830    -4.1880    -0.2340 C.3   1 <1>   0.2200 
 16 C       -6.3390    -2.9780    -0.7920 C.3   1 <1>  -0.1600 
 17 C       -6.4540    -4.9880     0.7410 C.3   1 <1>  -0.1600 
 18 C       -7.6570    -3.4060    -1.4560 C.3   1 <1>  -0.1600 
 19 C       -7.7720    -5.4190     0.0810 C.3   1 <1>  -0.1600 
 20 C       -8.5310    -4.2110    -0.4850 C.3   1 <1>  -0.1600 
 21 H       -2.7460    -1.4140     0.6750 H     1 <1>   0.0800 
 22 H       -2.6230    -1.8760     2.3740 H     1 <1>   0.0800 
 23 H        1.7590    -1.0200     1.0160 H     1 <1>   0.0800 
 24 H       -0.0730    -4.3540     0.5030 H     1 <1>   0.0800 
 25 H       -0.7310    -3.3680    -0.8010 H     1 <1>   0.0800 
 26 H       -1.8820    -4.0320     1.8640 H     1 <1>   0.0800 
 27 H        2.7020    -1.2790    -1.0690 H     1 <1>   0.0800 
 28 H        1.0390    -1.5480    -1.5270 H     1 <1>   0.0800 
 29 H        1.9400    -3.5660     1.9590 H     1 <1>   0.0800 
 30 H        3.3220    -2.6320     1.4510 H     1 <1>   0.0800 
 31 H        3.0470    -3.3400    -2.0610 H     1 <1>   0.0800 
 32 H        1.4150    -3.8720    -1.7380 H     1 <1>   0.0800 
 33 H        2.1770    -4.9660     0.0960 H     1 <1>   0.0800 
 34 H        3.7650    -4.2550    -0.0630 H     1 <1>   0.0800 
 35 H       -4.5790    -3.1060     1.2750 H     1 <1>   0.3700 
 36 H       -5.2920    -4.8280    -1.0510 H     1 <1>   0.0800 
 37 H       -5.7220    -2.4800    -1.5200 H     1 <1>   0.0800 
 38 H       -6.5580    -2.2880     0.0030 H     1 <1>   0.0800 
 39 H       -6.6770    -4.3860     1.6040 H     1 <1>   0.0800 
 40 H       -5.9150    -5.8620     1.0610 H     1 <1>   0.0800 
 41 H       -7.4390    -4.0090    -2.3220 H     1 <1>   0.0800 
 42 H       -8.1940    -2.5350    -1.7880 H     1 <1>   0.0800 
 43 H       -8.3880    -5.9290     0.8020 H     1 <1>   0.0800 
 44 H       -7.5600    -6.1110    -0.7180 H     1 <1>   0.0800 
 45 H       -9.4170    -4.5500    -0.9940 H     1 <1>   0.0800 
 46 H       -8.8430    -3.5750     0.3260 H     1 <1>   0.0800 
@<TRIPOS>BOND
  1   1   2  2   
  2   2   3  am  
  3   2   4  1   
  4   3   5  1   
  5   3   6  1   
  6   4   7  1   
  7   4  21  1   
  8   4  22  1   
  9   5   8  1   
 10   5   9  1   
 11   5  23  1   
 12   6   7  1   
 13   6  24  1   
 14   6  25  1   
 15   7  10  1   
 16   7  26  1   
 17   8  11  1   
 18   8  27  1   
 19   8  28  1   
 20   9  12  1   
 21   9  29  1   
 22   9  30  1   
 23  10  13  2   
 24  10  14  am  
 25  11  12  1   
 26  11  31  1   
 27  11  32  1   
 28  12  33  1   
 29  12  34  1   
 30  14  15  1   
 31  14  35  1   
 32  15  16  1   
 33  15  17  1   
 34  15  36  1   
 35  16  18  1   
 36  16  37  1   
 37  16  38  1   
 38  17  19  1   
 39  17  39  1   
 40  17  40  1   
 41  18  20  1   
 42  18  41  1   
 43  18  42  1   
 44  19  20  1   
 45  19  43  1   
 46  19  44  1   
 47  20  45  1   
 48  20  46  1   
@<TRIPOS>SUBSTRUCTURE
  1 ****   7 GROUP 4 **** **** 0

# MOE 2024.06 (io_trps.svl 2023.06)
