@<TRIPOS>MOLECULE
NONAME
35 36 1 0 0 
SMALL
USER_CHARGES


@<TRIPOS>ATOM
  1 O       -1.2700     2.5110    -2.7300 O.2   1 <1>  -0.5700 
  2 C       -1.1560     3.1440    -1.7080 C.2   1 <1>   0.5690 
  3 N       -1.8670     2.9140    -0.5650 N.am  1 <1>  -0.5470 
  4 C       -0.1490     4.2940    -1.6540 C.3   1 <1>   0.1710 
  5 C       -2.8550     1.9830    -0.2090 C.ar  1 <1>   0.1170 
  6 N        0.3160     4.6230    -0.2720 N.3   1 <1>  -0.8100 
  7 C       -3.4320     1.0950    -1.1120 C.ar  1 <1>  -0.1500 
  8 C       -3.2830     1.9460     1.1120 C.ar  1 <1>  -0.1500 
  9 C        0.9800     5.9410    -0.2410 C.3   1 <1>   0.1100 
 10 C        1.2600     3.5960     0.2290 C.3   1 <1>   0.1100 
 11 C       -4.4030     0.1990    -0.7030 C.ar  1 <1>  -0.1500 
 12 C       -4.2540     1.0510     1.5240 C.ar  1 <1>  -0.1500 
 13 C        1.5290     6.2520     1.1630 C.3   1 <1>   0.1200 
 14 C        1.8030     3.9740     1.6200 C.3   1 <1>   0.1200 
 15 C       -4.8210     0.1710     0.6170 C.ar  1 <1>  -0.1430 
 16 O        2.3970     5.2400     1.5850 O.3   1 <1>  -0.5600 
 17 C       -5.8850    -0.8150     1.0640 C.3   1 <1>  -0.0970 
 18 H       -1.5510     3.5370     0.1840 H     1 <1>   0.3700 
 19 H       -0.6350     5.1540    -2.0780 H     1 <1>   0.0800 
 20 H        0.6930     4.0500    -2.2790 H     1 <1>   0.0800 
 21 H       -3.1280     1.0980    -2.1410 H     1 <1>   0.1500 
 22 H       -2.8540     2.6220     1.8280 H     1 <1>   0.1500 
 23 H        0.2740     6.7050    -0.5180 H     1 <1>   0.0800 
 24 H        1.7950     5.9630    -0.9450 H     1 <1>   0.0800 
 25 H        2.0910     3.4940    -0.4480 H     1 <1>   0.0800 
 26 H        0.7650     2.6420     0.2950 H     1 <1>   0.0800 
 27 H       -4.8310    -0.4780    -1.4210 H     1 <1>   0.1500 
 28 H       -4.5660     1.0410     2.5530 H     1 <1>   0.1500 
 29 H        0.7250     6.3360     1.8730 H     1 <1>   0.0800 
 30 H        2.0820     7.1750     1.1530 H     1 <1>   0.0800 
 31 H        2.5510     3.2680     1.9320 H     1 <1>   0.0800 
 32 H        1.0090     3.9840     2.3460 H     1 <1>   0.0800 
 33 H       -5.4220    -1.7370     1.3650 H     1 <1>   0.0800 
 34 H       -6.5710    -1.0160     0.2600 H     1 <1>   0.0800 
 35 H       -6.4430    -0.4180     1.8930 H     1 <1>   0.0800 
@<TRIPOS>BOND
  1   1   2  2   
  2   2   3  am  
  3   2   4  1   
  4   3   5  1   
  5   3  18  1   
  6   4   6  1   
  7   4  19  1   
  8   4  20  1   
  9   5   7  ar  
 10   5   8  ar  
 11   6   9  1   
 12   6  10  1   
 13   7  11  ar  
 14   7  21  1   
 15   8  12  ar  
 16   8  22  1   
 17   9  13  1   
 18   9  23  1   
 19   9  24  1   
 20  10  14  1   
 21  10  25  1   
 22  10  26  1   
 23  11  15  ar  
 24  11  27  1   
 25  12  15  ar  
 26  12  28  1   
 27  13  16  1   
 28  13  29  1   
 29  13  30  1   
 30  14  16  1   
 31  14  31  1   
 32  14  32  1   
 33  15  17  1   
 34  17  33  1   
 35  17  34  1   
 36  17  35  1   
@<TRIPOS>SUBSTRUCTURE
  1 ****   3 GROUP 4 **** **** 0

# MOE 2024.06 (io_trps.svl 2023.06)
