@<TRIPOS>MOLECULE
NONAME
42 43 1 0 0 
SMALL
USER_CHARGES


@<TRIPOS>ATOM
  1 N        0.1560    -1.2300     3.2580 N.1   1 <1>  -0.5570 
  2 C        0.1970    -2.2790     2.8110 C.1   1 <1>   0.3570 
  3 C        0.2130    -3.6590     2.2220 C.3   1 <1>   0.5340 
  4 N        1.4170    -3.8920     1.3430 N.pl3 1 <1>  -0.4870 
  5 C       -1.0880    -4.0670     1.5080 C.ar  1 <1>  -0.1440 
  6 N        2.1420    -5.0440     1.4850 N.2   1 <1>  -0.5030 
  7 C        1.8050    -3.1390     0.1130 C.3   1 <1>   0.2700 
  8 C       -1.2170    -5.3790     1.0690 C.ar  1 <1>  -0.1500 
  9 C       -2.1470    -3.1910     1.2810 C.ar  1 <1>  -0.1500 
 10 C        2.9240    -5.1790     0.5090 C.2   1 <1>   0.3280 
 11 C        2.8380    -4.0840    -0.5210 C.3   1 <1>  -0.0990 
 12 C        2.4650    -1.8090     0.4950 C.3   1 <1>  -0.2400 
 13 C        0.6240    -2.9020    -0.8320 C.3   1 <1>  -0.2400 
 14 C       -2.3610    -5.8020     0.4190 C.ar  1 <1>  -0.1500 
 15 C       -3.2910    -3.6190     0.6310 C.ar  1 <1>  -0.1500 
 16 C        3.8920    -6.3210     0.3030 C.3   1 <1>  -0.1790 
 17 C       -3.4140    -4.9300     0.1880 C.ar  1 <1>   0.1000 
 18 N       -4.5550    -5.3850    -0.4680 N.pl3 1 <1>  -0.8380 
 19 C       -5.1650    -4.5350    -1.5230 C.3   1 <1>   0.1290 
 20 C       -5.5190    -6.1780     0.3360 C.3   1 <1>   0.1290 
 21 H        0.3170    -4.3250     3.0590 H     1 <1>   0.0800 
 22 H       -0.4130    -6.0790     1.2280 H     1 <1>   0.1500 
 23 H       -2.1060    -2.1640     1.6010 H     1 <1>   0.1500 
 24 H        3.7930    -3.6140    -0.6580 H     1 <1>   0.0800 
 25 H        2.4960    -4.4850    -1.4570 H     1 <1>   0.0800 
 26 H        3.2330    -1.9710     1.2310 H     1 <1>   0.0800 
 27 H        1.7440    -1.1170     0.8870 H     1 <1>   0.0800 
 28 H        2.9100    -1.3550    -0.3710 H     1 <1>   0.0800 
 29 H        0.1270    -3.8300    -1.0560 H     1 <1>   0.0800 
 30 H        0.9700    -2.4720    -1.7540 H     1 <1>   0.0800 
 31 H       -0.0820    -2.2190    -0.3970 H     1 <1>   0.0800 
 32 H       -2.4490    -6.8160     0.0760 H     1 <1>   0.1500 
 33 H       -4.1010    -2.9340     0.4700 H     1 <1>   0.1500 
 34 H        4.8970    -5.9450     0.2540 H     1 <1>   0.0800 
 35 H        3.6580    -6.8390    -0.6090 H     1 <1>   0.0800 
 36 H        3.8180    -7.0110     1.1240 H     1 <1>   0.0800 
 37 H       -4.4020    -3.9490    -2.0050 H     1 <1>   0.0800 
 38 H       -5.8970    -3.8760    -1.0910 H     1 <1>   0.0800 
 39 H       -5.6370    -5.1600    -2.2610 H     1 <1>   0.0800 
 40 H       -5.0090    -6.6610     1.1510 H     1 <1>   0.0800 
 41 H       -5.9740    -6.9300    -0.2830 H     1 <1>   0.0800 
 42 H       -6.2820    -5.5340     0.7370 H     1 <1>   0.0800 
@<TRIPOS>BOND
  1   1   2  3   
  2   2   3  1   
  3   3   4  1   
  4   3   5  1   
  5   3  21  1   
  6   4   6  1   
  7   4   7  1   
  8   5   8  ar  
  9   5   9  ar  
 10   6  10  2   
 11   7  11  1   
 12   7  12  1   
 13   7  13  1   
 14   8  14  ar  
 15   8  22  1   
 16   9  15  ar  
 17   9  23  1   
 18  10  11  1   
 19  10  16  1   
 20  11  24  1   
 21  11  25  1   
 22  12  26  1   
 23  12  27  1   
 24  12  28  1   
 25  13  29  1   
 26  13  30  1   
 27  13  31  1   
 28  14  17  ar  
 29  14  32  1   
 30  15  17  ar  
 31  15  33  1   
 32  16  34  1   
 33  16  35  1   
 34  16  36  1   
 35  17  18  1   
 36  18  19  1   
 37  18  20  1   
 38  19  37  1   
 39  19  38  1   
 40  19  39  1   
 41  20  40  1   
 42  20  41  1   
 43  20  42  1   
@<TRIPOS>SUBSTRUCTURE
  1 ****   5 GROUP 4 **** **** 0

# MOE 2024.06 (io_trps.svl 2023.06)
