@<TRIPOS>MOLECULE
NONAME
43 45 1 0 0 
SMALL
USER_CHARGES


@<TRIPOS>ATOM
  1 CL       0.8050     0.3010    -1.1810 Cl    1 <1>  -0.1770 
  2 C        2.1450     1.1870    -0.4940 C.ar  1 <1>   0.1770 
  3 C        2.9560     0.5730     0.4430 C.ar  1 <1>  -0.1500 
  4 C        2.3740     2.4900    -0.8950 C.ar  1 <1>  -0.1500 
  5 C        4.0190     1.2760     0.9820 C.ar  1 <1>  -0.1500 
  6 C        3.4390     3.1860    -0.3500 C.ar  1 <1>  -0.1500 
  7 C        4.2770     2.5840     0.5850 C.ar  1 <1>   0.1000 
  8 N        5.3550     3.2690     1.1270 N.pl3 1 <1>  -0.8690 
  9 C        6.3860     3.7820     0.2210 C.3   1 <1>   0.2890 
 10 C        7.6810     3.0100     0.4510 C.3   1 <1>  -0.1600 
 11 C        6.5770     5.2680     0.5070 C.3   1 <1>  -0.1600 
 12 C        8.8090     3.6000    -0.3890 C.3   1 <1>   0.3430 
 13 C        7.7180     5.8350    -0.3300 C.3   1 <1>   0.3430 
 14 N        8.9640     5.0540    -0.0810 N.4   1 <1>  -0.9590 
 15 C       10.1270     5.6440    -0.8020 C.3   1 <1>   0.4860 
 16 C       11.3900     4.9650    -0.3120 C.ar  1 <1>  -0.1430 
 17 C       11.8970     5.2540     0.9480 C.ar  1 <1>  -0.1500 
 18 C       12.0460     4.0450    -1.1180 C.ar  1 <1>  -0.1500 
 19 C       13.0390     4.6180     1.4000 C.ar  1 <1>  -0.1500 
 20 C       13.1880     3.4100    -0.6620 C.ar  1 <1>  -0.1500 
 21 C       13.6840     3.6950     0.5970 C.ar  1 <1>  -0.1500 
 22 H        2.7520    -0.4400     0.7420 H     1 <1>   0.1500 
 23 H        1.7230     2.9470    -1.6180 H     1 <1>   0.1500 
 24 H        4.6510     0.8060     1.7130 H     1 <1>   0.1500 
 25 H        3.6160     4.2040    -0.6410 H     1 <1>   0.1500 
 26 H        5.7460     2.8160     1.9600 H     1 <1>   0.4000 
 27 H        6.0680     3.6500    -0.8020 H     1 <1>   0.0800 
 28 H        7.5350     1.9820     0.1670 H     1 <1>   0.0800 
 29 H        7.9590     3.0380     1.4890 H     1 <1>   0.0800 
 30 H        6.7820     5.4230     1.5510 H     1 <1>   0.0800 
 31 H        5.6690     5.7910     0.2660 H     1 <1>   0.0800 
 32 H        8.5860     3.4680    -1.4360 H     1 <1>   0.0800 
 33 H        9.7260     3.0740    -0.1700 H     1 <1>   0.0800 
 34 H        7.8700     6.8710    -0.0700 H     1 <1>   0.0800 
 35 H        7.4560     5.7830    -1.3750 H     1 <1>   0.0800 
 36 H        9.1950     5.1190     0.9190 H     1 <1>   0.4500 
 37 H       10.1940     6.7010    -0.6010 H     1 <1>   0.0800 
 38 H       10.0200     5.5030    -1.8660 H     1 <1>   0.0800 
 39 H       11.4210     5.9760     1.5900 H     1 <1>   0.1500 
 40 H       11.6850     3.8100    -2.1050 H     1 <1>   0.1500 
 41 H       13.4340     4.8410     2.3780 H     1 <1>   0.1500 
 42 H       13.6980     2.6960    -1.2870 H     1 <1>   0.1500 
 43 H       14.5740     3.2020     0.9500 H     1 <1>   0.1500 
@<TRIPOS>BOND
  1   1   2  1   
  2   2   3  ar  
  3   2   4  ar  
  4   3   5  ar  
  5   3  22  1   
  6   4   6  ar  
  7   4  23  1   
  8   5   7  ar  
  9   5  24  1   
 10   6   7  ar  
 11   6  25  1   
 12   7   8  1   
 13   8   9  1   
 14   8  26  1   
 15   9  10  1   
 16   9  11  1   
 17   9  27  1   
 18  10  12  1   
 19  10  28  1   
 20  10  29  1   
 21  11  13  1   
 22  11  30  1   
 23  11  31  1   
 24  12  14  1   
 25  12  32  1   
 26  12  33  1   
 27  13  14  1   
 28  13  34  1   
 29  13  35  1   
 30  14  15  1   
 31  14  36  1   
 32  15  16  1   
 33  15  37  1   
 34  15  38  1   
 35  16  17  ar  
 36  16  18  ar  
 37  17  19  ar  
 38  17  39  1   
 39  18  20  ar  
 40  18  40  1   
 41  19  21  ar  
 42  19  41  1   
 43  20  21  ar  
 44  20  42  1   
 45  21  43  1   
@<TRIPOS>SUBSTRUCTURE
  1 ****  10 GROUP 4 **** **** 0

# MOE 2024.06 (io_trps.svl 2023.06)
