@<TRIPOS>MOLECULE
NONAME
50 53 1 0 0 
SMALL
USER_CHARGES


@<TRIPOS>ATOM
  1 O       -0.4480    -0.0040    -0.7080 O.2   1 <1>  -0.5700 
  2 C       -1.5380    -0.5450    -0.8520 C.2   1 <1>   0.6160 
  3 N       -1.8150    -1.8320    -0.3650 N.am  1 <1>  -0.1150 
  4 C       -2.5810     0.1320    -1.5320 C.2   1 <1>  -0.1360 
  5 N       -3.0600    -2.4340    -0.5160 N.2   1 <1>  -0.5120 
  6 C       -0.8360    -2.5700     0.3450 C.ar  1 <1>   0.1170 
  7 C       -3.7900    -0.4670    -1.6670 C.2   1 <1>  -0.1360 
  8 C       -3.9880    -1.7620    -1.1180 C.2   1 <1>   0.5860 
  9 C        0.4170    -2.8310    -0.2020 C.ar  1 <1>  -0.1500 
 10 C       -1.1190    -3.0660     1.6140 C.ar  1 <1>  -0.1500 
 11 O       -5.1950    -2.3400    -1.2600 O.3   1 <1>  -0.2320 
 12 C        1.3610    -3.5600     0.5000 C.ar  1 <1>  -0.1500 
 13 C       -0.1790    -3.7960     2.3190 C.ar  1 <1>  -0.1500 
 14 C       -6.2820    -1.8070    -0.6900 C.ar  1 <1>   0.7030 
 15 C        1.0640    -4.0430     1.7620 C.ar  1 <1>  -0.1500 
 16 N       -7.4090    -2.2950    -1.1130 N.ar  1 <1>  -0.6200 
 17 N       -6.1270    -0.8620     0.1980 N.ar  1 <1>  -0.6200 
 18 C       -8.4660    -1.7560    -0.5590 C.ar  1 <1>   0.7200 
 19 C       -7.2500    -0.4050     0.6920 C.ar  1 <1>   0.7200 
 20 N       -8.4420    -0.8110     0.3430 N.ar  1 <1>  -0.6200 
 21 N       -9.6950    -2.2230    -0.9660 N.pl3 1 <1>  -0.8380 
 22 N       -7.1600     0.5840     1.6500 N.pl3 1 <1>  -0.8380 
 23 C       -9.8810    -3.4530    -1.8000 C.3   1 <1>   0.2090 
 24 C      -10.9970    -1.6150    -0.5440 C.3   1 <1>   0.2090 
 25 C       -5.8680     1.2300     2.0220 C.3   1 <1>   0.1290 
 26 C       -8.3380     1.0200     2.4550 C.3   1 <1>   0.1290 
 27 C      -10.8780    -4.4170    -1.1300 C.3   1 <1>   0.1200 
 28 C      -11.9230    -2.6860     0.0590 C.3   1 <1>   0.1200 
 29 O      -12.0800    -3.7670    -0.8190 O.3   1 <1>  -0.5600 
 30 H       -2.3600     1.1100    -1.9150 H     1 <1>   0.1500 
 31 H       -4.6130     0.0040    -2.1710 H     1 <1>   0.1500 
 32 H        0.6540    -2.4560    -1.1810 H     1 <1>   0.1500 
 33 H       -2.0870    -2.8790     2.0430 H     1 <1>   0.1500 
 34 H        2.3270    -3.7490     0.0640 H     1 <1>   0.1500 
 35 H       -0.4150    -4.1710     3.3000 H     1 <1>   0.1500 
 36 H        1.7970    -4.6090     2.3100 H     1 <1>   0.1500 
 37 H       -8.9520    -3.9730    -1.9510 H     1 <1>   0.0800 
 38 H      -10.2590    -3.1700    -2.7670 H     1 <1>   0.0800 
 39 H      -11.4750    -1.1810    -1.4040 H     1 <1>   0.0800 
 40 H      -10.8540    -0.8320     0.1780 H     1 <1>   0.0800 
 41 H       -5.4030     0.6730     2.8170 H     1 <1>   0.0800 
 42 H       -6.0400     2.2400     2.3510 H     1 <1>   0.0800 
 43 H       -5.2000     1.2610     1.1790 H     1 <1>   0.0800 
 44 H       -9.0590     0.2240     2.5410 H     1 <1>   0.0800 
 45 H       -8.8050     1.8650     1.9810 H     1 <1>   0.0800 
 46 H       -8.0280     1.2970     3.4470 H     1 <1>   0.0800 
 47 H      -10.4570    -4.8150    -0.2240 H     1 <1>   0.0800 
 48 H      -11.1060    -5.2310    -1.7930 H     1 <1>   0.0800 
 49 H      -12.8960    -2.2710     0.2460 H     1 <1>   0.0800 
 50 H      -11.5170    -3.0510     0.9860 H     1 <1>   0.0800 
@<TRIPOS>BOND
  1   1   2  2   
  2   2   3  am  
  3   2   4  1   
  4   3   5  1   
  5   3   6  1   
  6   4   7  2   
  7   4  30  1   
  8   5   8  2   
  9   6   9  ar  
 10   6  10  ar  
 11   7   8  1   
 12   7  31  1   
 13   8  11  1   
 14   9  12  ar  
 15   9  32  1   
 16  10  13  ar  
 17  10  33  1   
 18  11  14  1   
 19  12  15  ar  
 20  12  34  1   
 21  13  15  ar  
 22  13  35  1   
 23  14  16  ar  
 24  14  17  ar  
 25  15  36  1   
 26  16  18  ar  
 27  17  19  ar  
 28  18  20  ar  
 29  18  21  1   
 30  19  20  ar  
 31  19  22  1   
 32  21  23  1   
 33  21  24  1   
 34  22  25  1   
 35  22  26  1   
 36  23  27  1   
 37  23  37  1   
 38  23  38  1   
 39  24  28  1   
 40  24  39  1   
 41  24  40  1   
 42  25  41  1   
 43  25  42  1   
 44  25  43  1   
 45  26  44  1   
 46  26  45  1   
 47  26  46  1   
 48  27  29  1   
 49  27  47  1   
 50  27  48  1   
 51  28  29  1   
 52  28  49  1   
 53  28  50  1   
@<TRIPOS>SUBSTRUCTURE
  1 ****  14 GROUP 4 **** **** 0

# MOE 2024.06 (io_trps.svl 2023.06)
