@<TRIPOS>MOLECULE
NONAME
57 59 1 0 0 
SMALL
USER_CHARGES


@<TRIPOS>ATOM
  1 O       -4.4560     0.8500    -1.2800 O.2   1 <1>  -0.5700 
  2 C       -5.4510     0.1920    -1.1090 C.2   1 <1>   0.5690 
  3 N       -6.6270     0.8340    -1.3560 N.am  1 <1>  -0.7300 
  4 C       -5.3200    -1.2820    -0.6330 C.3   1 <1>   0.0610 
  5 C       -8.0520     0.4390    -1.2490 C.3   1 <1>   0.1400 
  6 C       -3.8310    -1.6360    -0.3540 C.3   1 <1>  -0.1600 
  7 C       -5.8170    -2.2640    -1.7250 C.3   1 <1>  -0.1600 
  8 C       -6.0950    -1.5330     0.6880 C.3   1 <1>  -0.1600 
  9 C       -8.6690     1.0480     0.0230 C.3   1 <1>   0.3430 
 10 C       -3.6580    -3.0960     0.1100 C.3   1 <1>   0.0000 
 11 C       -5.6900    -3.7310    -1.2650 C.3   1 <1>   0.0000 
 12 C       -5.9570    -2.9960     1.1440 C.3   1 <1>  -0.0800 
 13 N      -10.0860     0.6010     0.2610 N.4   1 <1>  -0.9590 
 14 C       -4.2050    -4.0320    -0.9860 C.3   1 <1>  -0.1600 
 15 C       -4.4740    -3.3080     1.3980 C.3   1 <1>  -0.1600 
 16 C       -2.1760    -3.3960     0.3680 C.3   1 <1>  -0.2400 
 17 C       -6.4910    -3.9250     0.0380 C.3   1 <1>  -0.1600 
 18 C       -6.2190    -4.6720    -2.3550 C.3   1 <1>  -0.2400 
 19 C      -10.7540     1.4740     1.2670 C.3   1 <1>   0.3430 
 20 C      -10.1450    -0.8290     0.6810 C.3   1 <1>   0.3430 
 21 C      -11.1310     2.8020     0.6210 C.3   1 <1>  -0.2400 
 22 C      -11.5360    -1.3840     0.4010 C.3   1 <1>  -0.2400 
 23 H       -6.4600     1.7730    -1.7340 H     1 <1>   0.3700 
 24 H       -8.1370    -0.6280    -1.2310 H     1 <1>   0.0800 
 25 H       -8.5730     0.8040    -2.1180 H     1 <1>   0.0800 
 26 H       -3.4390    -0.9720     0.3970 H     1 <1>   0.0800 
 27 H       -3.2530    -1.4770    -1.2480 H     1 <1>   0.0800 
 28 H       -5.2340    -2.1170    -2.6180 H     1 <1>   0.0800 
 29 H       -6.8380    -2.0700    -1.9840 H     1 <1>   0.0800 
 30 H       -5.7120    -0.8810     1.4550 H     1 <1>   0.0800 
 31 H       -7.1350    -1.3210     0.5710 H     1 <1>   0.0800 
 32 H       -8.6390     2.1200    -0.0760 H     1 <1>   0.0800 
 33 H       -8.0610     0.7770     0.8710 H     1 <1>   0.0800 
 34 H       -6.5140    -3.1530     2.0520 H     1 <1>   0.0800 
 35 H      -10.6170     0.6930    -0.6160 H     1 <1>   0.4500 
 36 H       -4.0940    -5.0550    -0.6740 H     1 <1>   0.0800 
 37 H       -3.6320    -3.9040    -1.8880 H     1 <1>   0.0800 
 38 H       -4.0970    -2.6700     2.1790 H     1 <1>   0.0800 
 39 H       -4.3710    -4.3250     1.7330 H     1 <1>   0.0800 
 40 H       -1.6000    -3.2490    -0.5280 H     1 <1>   0.0800 
 41 H       -2.0480    -4.4140     0.6920 H     1 <1>   0.0800 
 42 H       -1.7870    -2.7450     1.1310 H     1 <1>   0.0800 
 43 H       -6.4070    -4.9480     0.3640 H     1 <1>   0.0800 
 44 H       -7.5330    -3.7260    -0.1370 H     1 <1>   0.0800 
 45 H       -5.6630    -4.5420    -3.2660 H     1 <1>   0.0800 
 46 H       -7.2560    -4.4750    -2.5580 H     1 <1>   0.0800 
 47 H       -6.1220    -5.6980    -2.0440 H     1 <1>   0.0800 
 48 H      -10.1030     1.6400     2.1120 H     1 <1>   0.0800 
 49 H      -11.6540     1.0020     1.6270 H     1 <1>   0.0800 
 50 H       -9.9090    -0.9210     1.7300 H     1 <1>   0.0800 
 51 H       -9.4280    -1.4110     0.1260 H     1 <1>   0.0800 
 52 H      -10.2640     3.3610     0.3200 H     1 <1>   0.0800 
 53 H      -11.6670     3.3990     1.3380 H     1 <1>   0.0800 
 54 H      -11.7770     2.6480    -0.2250 H     1 <1>   0.0800 
 55 H      -12.2880    -0.8890     0.9890 H     1 <1>   0.0800 
 56 H      -11.5560    -2.4280     0.6620 H     1 <1>   0.0800 
 57 H      -11.7790    -1.3020    -0.6430 H     1 <1>   0.0800 
@<TRIPOS>BOND
  1   1   2  2   
  2   2   3  am  
  3   2   4  1   
  4   3   5  1   
  5   3  23  1   
  6   4   6  1   
  7   4   7  1   
  8   4   8  1   
  9   5   9  1   
 10   5  24  1   
 11   5  25  1   
 12   6  10  1   
 13   6  26  1   
 14   6  27  1   
 15   7  11  1   
 16   7  28  1   
 17   7  29  1   
 18   8  12  1   
 19   8  30  1   
 20   8  31  1   
 21   9  13  1   
 22   9  32  1   
 23   9  33  1   
 24  10  14  1   
 25  10  15  1   
 26  10  16  1   
 27  11  14  1   
 28  11  17  1   
 29  11  18  1   
 30  12  15  1   
 31  12  17  1   
 32  12  34  1   
 33  13  19  1   
 34  13  20  1   
 35  13  35  1   
 36  14  36  1   
 37  14  37  1   
 38  15  38  1   
 39  15  39  1   
 40  16  40  1   
 41  16  41  1   
 42  16  42  1   
 43  17  43  1   
 44  17  44  1   
 45  18  45  1   
 46  18  46  1   
 47  18  47  1   
 48  19  21  1   
 49  19  48  1   
 50  19  49  1   
 51  20  22  1   
 52  20  50  1   
 53  20  51  1   
 54  21  52  1   
 55  21  53  1   
 56  21  54  1   
 57  22  55  1   
 58  22  56  1   
 59  22  57  1   
@<TRIPOS>SUBSTRUCTURE
  1 ****   8 GROUP 4 **** **** 0

# MOE 2024.06 (io_trps.svl 2023.06)
