@<TRIPOS>MOLECULE
NONAME
52 55 1 0 0 
SMALL
USER_CHARGES


@<TRIPOS>ATOM
  1 S       -0.3920     0.0460     1.4830 S.3   1 <1>  -0.0800 
  2 C        1.1930     0.4810     0.8770 C.2   1 <1>   0.1660 
  3 C       -1.1680     1.2500     0.4550 C.2   1 <1>  -0.1400 
  4 N        2.3260    -0.1220     1.3000 N.2   1 <1>  -0.5760 
  5 C        1.1040     1.4750    -0.0420 C.2   1 <1>  -0.0860 
  6 C       -0.2450     1.9070    -0.2750 C.2   1 <1>  -0.1500 
  7 C       -2.6800     1.3450     0.5570 C.3   1 <1>   0.0200 
  8 C        3.4040     0.3240     0.7490 C.2   1 <1>   0.6510 
  9 C        2.3200     1.9260    -0.6220 C.2   1 <1>   0.7160 
 10 C       -3.2560     2.4170    -0.3720 C.3   1 <1>  -0.2400 
 11 S        4.9290    -0.4370     1.2760 S.3   1 <1>  -0.3710 
 12 N        3.4870     1.3220    -0.2000 N.am  1 <1>  -0.4200 
 13 O        2.3430     2.8110    -1.4660 O.2   1 <1>  -0.5700 
 14 C        4.3970    -1.8200     2.4060 C.3   1 <1>   0.1310 
 15 C        4.7700     1.7110    -0.8360 C.3   1 <1>   0.2780 
 16 C        5.5450    -2.7920     2.6490 C.2   1 <1>   0.5690 
 17 C        5.0630     0.7630    -1.9870 C.2   1 <1>  -0.2880 
 18 O        5.9470    -2.8890     3.7850 O.2   1 <1>  -0.5700 
 19 N        6.0870    -3.5370     1.6300 N.am  1 <1>  -0.6600 
 20 C        6.1030    -0.0740    -2.0580 C.2   1 <1>  -0.3000 
 21 C        5.6380    -3.4800     0.2060 C.3   1 <1>   0.2840 
 22 C        7.2150    -4.4780     1.8690 C.3   1 <1>   0.1400 
 23 C        5.6390    -4.8480    -0.4720 C.ar  1 <1>  -0.1430 
 24 C        6.7600    -5.8990     1.5400 C.3   1 <1>  -0.0170 
 25 C        6.1670    -5.9810     0.1410 C.ar  1 <1>  -0.1430 
 26 C        5.0990    -4.9550    -1.7450 C.ar  1 <1>  -0.1500 
 27 C        6.1460    -7.1980    -0.5220 C.ar  1 <1>  -0.1500 
 28 C        5.0820    -6.1710    -2.4040 C.ar  1 <1>  -0.1500 
 29 C        5.6060    -7.2940    -1.7910 C.ar  1 <1>  -0.1500 
 30 H       -0.4440     2.6940    -0.9840 H     1 <1>   0.1500 
 31 H       -2.9480     1.5730     1.5740 H     1 <1>   0.0800 
 32 H       -3.1080     0.3890     0.3070 H     1 <1>   0.0800 
 33 H       -2.8530     3.3820    -0.1210 H     1 <1>   0.0800 
 34 H       -4.3260     2.4540    -0.2720 H     1 <1>   0.0800 
 35 H       -3.0140     2.1920    -1.3950 H     1 <1>   0.0800 
 36 H        3.5670    -2.3270     1.9510 H     1 <1>   0.0800 
 37 H        4.0820    -1.3690     3.3290 H     1 <1>   0.0800 
 38 H        5.5690     1.6920    -0.1170 H     1 <1>   0.0800 
 39 H        4.7160     2.7200    -1.2090 H     1 <1>   0.0800 
 40 H        4.3260     0.8370    -2.7700 H     1 <1>   0.1500 
 41 H        6.2880    -0.7320    -2.8900 H     1 <1>   0.1500 
 42 H        6.8580    -0.1730    -1.2950 H     1 <1>   0.1500 
 43 H        6.2990    -2.8240    -0.3340 H     1 <1>   0.0800 
 44 H        4.6440    -3.0770     0.1430 H     1 <1>   0.0800 
 45 H        7.5470    -4.4310     2.8920 H     1 <1>   0.0800 
 46 H        8.0410    -4.2050     1.2360 H     1 <1>   0.0800 
 47 H        6.0220    -6.2070     2.2590 H     1 <1>   0.0800 
 48 H        7.6020    -6.5610     1.6220 H     1 <1>   0.0800 
 49 H        4.6870    -4.0890    -2.2330 H     1 <1>   0.1500 
 50 H        6.5490    -8.0770    -0.0510 H     1 <1>   0.1500 
 51 H        4.6610    -6.2450    -3.3910 H     1 <1>   0.1500 
 52 H        5.5930    -8.2420    -2.3010 H     1 <1>   0.1500 
@<TRIPOS>BOND
  1   1   2  1   
  2   1   3  1   
  3   2   4  1   
  4   2   5  2   
  5   3   6  2   
  6   3   7  1   
  7   4   8  2   
  8   5   6  1   
  9   5   9  1   
 10   6  30  1   
 11   7  10  1   
 12   7  31  1   
 13   7  32  1   
 14   8  11  1   
 15   8  12  1   
 16   9  12  am  
 17   9  13  2   
 18  10  33  1   
 19  10  34  1   
 20  10  35  1   
 21  11  14  1   
 22  12  15  1   
 23  14  16  1   
 24  14  36  1   
 25  14  37  1   
 26  15  17  1   
 27  15  38  1   
 28  15  39  1   
 29  16  18  2   
 30  16  19  am  
 31  17  20  2   
 32  17  40  1   
 33  19  21  1   
 34  19  22  1   
 35  20  41  1   
 36  20  42  1   
 37  21  23  1   
 38  21  43  1   
 39  21  44  1   
 40  22  24  1   
 41  22  45  1   
 42  22  46  1   
 43  23  25  ar  
 44  23  26  ar  
 45  24  25  1   
 46  24  47  1   
 47  24  48  1   
 48  25  27  ar  
 49  26  28  ar  
 50  26  49  1   
 51  27  29  ar  
 52  27  50  1   
 53  28  29  ar  
 54  28  51  1   
 55  29  52  1   
@<TRIPOS>SUBSTRUCTURE
  1 ****   8 GROUP 4 **** **** 0

# MOE 2024.06 (io_trps.svl 2023.06)
