@<TRIPOS>MOLECULE
NONAME
44 46 1 0 0 
SMALL
USER_CHARGES


@<TRIPOS>ATOM
  1 O        1.0460     3.4920    -1.1510 O.2   1 <1>  -0.5700 
  2 C        0.2690     2.7080    -0.6600 C.2   1 <1>   0.5690 
  3 N        0.6290     1.6500     0.1210 N.am  1 <1>  -0.5470 
  4 C       -1.2280     2.8730    -0.9360 C.3   1 <1>   0.1710 
  5 C        1.8840     1.1110     0.4420 C.ar  1 <1>   0.1170 
  6 N       -2.0990     2.0360    -0.0570 N.3   1 <1>  -0.8100 
  7 C        2.8770     1.8580     1.0860 C.ar  1 <1>  -0.1430 
  8 C        2.1310    -0.2300     0.1320 C.ar  1 <1>  -0.1430 
  9 C       -3.4320     1.8440    -0.6600 C.3   1 <1>   0.2530 
 10 C       -2.2350     2.6210     1.2880 C.3   1 <1>   0.1100 
 11 C        4.0940     1.2690     1.3850 C.ar  1 <1>  -0.1500 
 12 C        2.6710     3.3130     1.4880 C.3   1 <1>  -0.0970 
 13 C        3.3530    -0.8010     0.4450 C.ar  1 <1>  -0.1500 
 14 C        1.0750    -1.0850    -0.5590 C.3   1 <1>  -0.0970 
 15 C       -4.3840     1.0920     0.2670 C.ar  1 <1>  -0.1430 
 16 C       -2.8760     1.5960     2.2280 C.3   1 <1>  -0.0170 
 17 C        4.3350    -0.0540     1.0670 C.ar  1 <1>  -0.1500 
 18 C       -4.1350     0.9870     1.6310 C.ar  1 <1>  -0.1430 
 19 C       -5.5300     0.5160    -0.2620 C.ar  1 <1>  -0.1500 
 20 C       -5.0290     0.3110     2.4470 C.ar  1 <1>  -0.1500 
 21 C       -6.4200    -0.1570     0.5560 C.ar  1 <1>  -0.1500 
 22 C       -6.1700    -0.2590     1.9120 C.ar  1 <1>  -0.1500 
 23 H       -0.1840     1.0790     0.3720 H     1 <1>   0.3700 
 24 H       -1.3820     2.5910    -1.9630 H     1 <1>   0.0800 
 25 H       -1.4890     3.9120    -0.8370 H     1 <1>   0.0800 
 26 H       -3.3250     1.2880    -1.5760 H     1 <1>   0.0800 
 27 H       -3.8660     2.8010    -0.8930 H     1 <1>   0.0800 
 28 H       -2.8500     3.5050     1.2420 H     1 <1>   0.0800 
 29 H       -1.2710     2.8980     1.6790 H     1 <1>   0.0800 
 30 H        4.8660     1.8400     1.8700 H     1 <1>   0.1500 
 31 H        2.8770     3.9520     0.6480 H     1 <1>   0.0800 
 32 H        3.3300     3.5840     2.2930 H     1 <1>   0.0800 
 33 H        1.6610     3.4790     1.8140 H     1 <1>   0.0800 
 34 H        3.5510    -1.8300     0.2050 H     1 <1>   0.1500 
 35 H        0.2060    -1.1780     0.0670 H     1 <1>   0.0800 
 36 H        1.4500    -2.0710    -0.7670 H     1 <1>   0.0800 
 37 H        0.7880    -0.6310    -1.4910 H     1 <1>   0.0800 
 38 H       -3.1090     2.0740     3.1620 H     1 <1>   0.0800 
 39 H       -2.1680     0.8110     2.4240 H     1 <1>   0.0800 
 40 H        5.2840    -0.5010     1.3040 H     1 <1>   0.1500 
 41 H       -5.7360     0.5900    -1.3150 H     1 <1>   0.1500 
 42 H       -4.8370     0.2250     3.5020 H     1 <1>   0.1500 
 43 H       -7.3070    -0.6010     0.1390 H     1 <1>   0.1500 
 44 H       -6.8610    -0.7820     2.5500 H     1 <1>   0.1500 
@<TRIPOS>BOND
  1   1   2  2   
  2   2   3  am  
  3   2   4  1   
  4   3   5  1   
  5   3  23  1   
  6   4   6  1   
  7   4  24  1   
  8   4  25  1   
  9   5   7  ar  
 10   5   8  ar  
 11   6   9  1   
 12   6  10  1   
 13   7  11  ar  
 14   7  12  1   
 15   8  13  ar  
 16   8  14  1   
 17   9  15  1   
 18   9  26  1   
 19   9  27  1   
 20  10  16  1   
 21  10  28  1   
 22  10  29  1   
 23  11  17  ar  
 24  11  30  1   
 25  12  31  1   
 26  12  32  1   
 27  12  33  1   
 28  13  17  ar  
 29  13  34  1   
 30  14  35  1   
 31  14  36  1   
 32  14  37  1   
 33  15  18  ar  
 34  15  19  ar  
 35  16  18  1   
 36  16  38  1   
 37  16  39  1   
 38  17  40  1   
 39  18  20  ar  
 40  19  21  ar  
 41  19  41  1   
 42  20  22  ar  
 43  20  42  1   
 44  21  22  ar  
 45  21  43  1   
 46  22  44  1   
@<TRIPOS>SUBSTRUCTURE
  1 ****   6 GROUP 4 **** **** 0

# MOE 2024.06 (io_trps.svl 2023.06)
