@<TRIPOS>MOLECULE
NONAME
51 54 1 0 0 
SMALL
USER_CHARGES


@<TRIPOS>ATOM
  1 S        0.8970     0.2380    -0.3970 S.o2  1 <1>   1.4470 
  2 O        1.2550     0.9570    -1.5970 O.2   1 <1>  -0.6500 
  3 O        1.8810    -0.5420     0.3160 O.2   1 <1>  -0.6500 
  4 N        0.3500     1.4430     0.7220 N.am  1 <1>  -0.6930 
  5 C       -0.6000    -0.7540    -0.6460 C.ar  1 <1>  -0.0090 
  6 C       -0.8020     2.1970     0.4870 C.ar  1 <1>   0.1990 
  7 C        1.2720     1.8120     1.8440 C.3   1 <1>   0.2570 
  8 C       -1.5180    -0.4280    -1.6390 C.ar  1 <1>  -0.1500 
  9 C       -0.8860    -1.8410     0.1720 C.ar  1 <1>  -0.1500 
 10 C       -0.8560     3.3070    -0.3620 C.ar  1 <1>   0.1900 
 11 C       -1.9840     1.8320     1.1200 C.ar  1 <1>  -0.1500 
 12 C        2.6280     2.4070     1.4370 C.2   1 <1>   0.5690 
 13 C       -2.6800    -1.1600    -1.8120 C.ar  1 <1>  -0.1500 
 14 C       -2.0450    -2.5800     0.0050 C.ar  1 <1>  -0.1500 
 15 F        0.2290     3.7030    -0.9810 F     1 <1>  -0.1900 
 16 C       -2.0150     4.0240    -0.5840 C.ar  1 <1>  -0.1500 
 17 C       -3.1580     2.5380     0.9100 C.ar  1 <1>  -0.1500 
 18 O        3.4670     2.4850     2.3010 O.2   1 <1>  -0.5700 
 19 N        2.8230     2.8180     0.1500 N.am  1 <1>  -0.7300 
 20 C       -2.9440    -2.2380    -0.9880 C.ar  1 <1>  -0.1500 
 21 C       -3.1770     3.6330     0.0590 C.ar  1 <1>  -0.1500 
 22 C        4.0190     3.2830    -0.5980 C.3   1 <1>   0.2200 
 23 C        4.7360     2.1360    -1.3400 C.3   1 <1>  -0.0800 
 24 C        5.1580     3.9510     0.1970 C.3   1 <1>  -0.1600 
 25 C        6.0680     2.7960    -1.6650 C.3   1 <1>  -0.1600 
 26 C        5.1980     1.0450    -0.3560 C.3   1 <1>  -0.1600 
 27 C        6.3950     3.1330    -0.2190 C.3   1 <1>  -0.0800 
 28 C        6.3070     1.7490     0.4450 C.3   1 <1>  -0.1600 
 29 H        1.4660     0.9340     2.4340 H     1 <1>   0.0800 
 30 H        0.7840     2.5260     2.4810 H     1 <1>   0.0800 
 31 H       -1.3220     0.4120    -2.2850 H     1 <1>   0.1500 
 32 H       -0.1920    -2.1160     0.9490 H     1 <1>   0.1500 
 33 H       -1.9850     0.9820     1.7790 H     1 <1>   0.1500 
 34 H       -3.3770    -0.8910    -2.5880 H     1 <1>   0.1500 
 35 H       -2.2470    -3.4200     0.6480 H     1 <1>   0.1500 
 36 H       -2.0060     4.8710    -1.2480 H     1 <1>   0.1500 
 37 H       -4.0630     2.2340     1.4090 H     1 <1>   0.1500 
 38 H        2.0400     2.6450    -0.4940 H     1 <1>   0.3700 
 39 H       -3.8460    -2.8110    -1.1210 H     1 <1>   0.1500 
 40 H       -4.0930     4.1770    -0.1010 H     1 <1>   0.1500 
 41 H        3.6780     3.9920    -1.3340 H     1 <1>   0.0800 
 42 H        4.1940     1.7670    -2.1930 H     1 <1>   0.0800 
 43 H        5.0220     3.9580     1.2590 H     1 <1>   0.0800 
 44 H        5.2720     4.9670    -0.1360 H     1 <1>   0.0800 
 45 H        5.9640     3.6700    -2.2850 H     1 <1>   0.0800 
 46 H        6.7770     2.1130    -2.1040 H     1 <1>   0.0800 
 47 H        5.6060     0.2090    -0.8980 H     1 <1>   0.0800 
 48 H        4.4060     0.6860     0.2760 H     1 <1>   0.0800 
 49 H        7.3320     3.6390    -0.0580 H     1 <1>   0.0800 
 50 H        7.2370     1.2180     0.3410 H     1 <1>   0.0800 
 51 H        6.0550     1.8240     1.4900 H     1 <1>   0.0800 
@<TRIPOS>BOND
  1   1   2  2   
  2   1   3  2   
  3   1   4  am  
  4   1   5  1   
  5   4   6  1   
  6   4   7  1   
  7   5   8  ar  
  8   5   9  ar  
  9   6  10  ar  
 10   6  11  ar  
 11   7  12  1   
 12   7  29  1   
 13   7  30  1   
 14   8  13  ar  
 15   8  31  1   
 16   9  14  ar  
 17   9  32  1   
 18  10  15  1   
 19  10  16  ar  
 20  11  17  ar  
 21  11  33  1   
 22  12  18  2   
 23  12  19  am  
 24  13  20  ar  
 25  13  34  1   
 26  14  20  ar  
 27  14  35  1   
 28  16  21  ar  
 29  16  36  1   
 30  17  21  ar  
 31  17  37  1   
 32  19  22  1   
 33  19  38  1   
 34  20  39  1   
 35  21  40  1   
 36  22  23  1   
 37  22  24  1   
 38  22  41  1   
 39  23  25  1   
 40  23  26  1   
 41  23  42  1   
 42  24  27  1   
 43  24  43  1   
 44  24  44  1   
 45  25  27  1   
 46  25  45  1   
 47  25  46  1   
 48  26  28  1   
 49  26  47  1   
 50  26  48  1   
 51  27  28  1   
 52  27  49  1   
 53  28  50  1   
 54  28  51  1   
@<TRIPOS>SUBSTRUCTURE
  1 ****   4 GROUP 4 **** **** 0

# MOE 2024.06 (io_trps.svl 2023.06)
