@<TRIPOS>MOLECULE
NONAME
43 45 1 0 0 
SMALL
USER_CHARGES


@<TRIPOS>ATOM
  1 S        0.3280    -0.5790    -1.2940 S.o2  1 <1>   1.4470 
  2 O        0.8470    -1.0130    -2.5740 O.2   1 <1>  -0.6500 
  3 O        0.1870     0.8350    -1.0250 O.2   1 <1>  -0.6500 
  4 N        1.3650    -1.2000    -0.1080 N.am  1 <1>  -0.8490 
  5 C       -1.2410    -1.4160    -0.9340 C.ar  1 <1>  -0.0090 
  6 C        1.6840    -2.6250    -0.3300 C.3   1 <1>   0.1960 
  7 C        2.6250    -0.4370    -0.0520 C.3   1 <1>   0.1960 
  8 C       -1.8360    -2.2680    -1.8600 C.ar  1 <1>  -0.1500 
  9 C       -1.8780    -1.2320     0.2900 C.ar  1 <1>  -0.1500 
 10 C        2.5810    -3.2120     0.7810 C.3   1 <1>   0.2090 
 11 C        3.5460    -0.9100     1.0890 C.3   1 <1>   0.2090 
 12 C       -3.0230    -2.9200    -1.5730 C.ar  1 <1>  -0.1500 
 13 C       -3.0660    -1.8770     0.5910 C.ar  1 <1>  -0.1500 
 14 N        3.8010    -2.3820     1.0370 N.pl3 1 <1>  -0.8380 
 15 C       -3.6320    -2.7220    -0.3490 C.ar  1 <1>   0.1010 
 16 C        5.0790    -2.8280     0.6610 C.ar  1 <1>   0.1000 
 17 S       -5.1710    -3.6060    -0.0450 S.3   1 <1>  -0.3310 
 18 C        5.4070    -3.4380    -0.5580 C.ar  1 <1>   0.1900 
 19 C        6.1210    -2.6520     1.5640 C.ar  1 <1>  -0.1500 
 20 C       -5.7610    -3.0930     1.6280 C.3   1 <1>  -0.0100 
 21 F        4.4830    -3.6310    -1.4690 F     1 <1>  -0.1900 
 22 C        6.6870    -3.8520    -0.8700 C.ar  1 <1>  -0.1500 
 23 C        7.4130    -3.0590     1.2690 C.ar  1 <1>  -0.1500 
 24 C        7.7000    -3.6590     0.0540 C.ar  1 <1>  -0.1500 
 25 H        2.1810    -2.7440    -1.2780 H     1 <1>   0.0800 
 26 H        0.7750    -3.1980    -0.3670 H     1 <1>   0.0800 
 27 H        2.4090     0.6070     0.1020 H     1 <1>   0.0800 
 28 H        3.1510    -0.5300    -0.9880 H     1 <1>   0.0800 
 29 H       -1.3660    -2.4250    -2.8170 H     1 <1>   0.1500 
 30 H       -1.4300    -0.5740     1.0160 H     1 <1>   0.1500 
 31 H        2.8720    -4.2130     0.5160 H     1 <1>   0.0800 
 32 H        2.0100    -3.2700     1.6910 H     1 <1>   0.0800 
 33 H        3.0860    -0.6690     2.0320 H     1 <1>   0.0800 
 34 H        4.4790    -0.3780     1.0310 H     1 <1>   0.0800 
 35 H       -3.4780    -3.5780    -2.2930 H     1 <1>   0.1500 
 36 H       -3.5280    -1.7120     1.5440 H     1 <1>   0.1500 
 37 H        5.9070    -2.1940     2.5120 H     1 <1>   0.1500 
 38 H       -6.6890    -3.6020     1.8140 H     1 <1>   0.0800 
 39 H       -5.9060    -2.0280     1.6180 H     1 <1>   0.0800 
 40 H       -5.0160    -3.3830     2.3470 H     1 <1>   0.0800 
 41 H        6.8870    -4.3130    -1.8200 H     1 <1>   0.1500 
 42 H        8.1980    -2.9100     1.9910 H     1 <1>   0.1500 
 43 H        8.7050    -3.9740    -0.1700 H     1 <1>   0.1500 
@<TRIPOS>BOND
  1   1   2  2   
  2   1   3  2   
  3   1   4  am  
  4   1   5  1   
  5   4   6  1   
  6   4   7  1   
  7   5   8  ar  
  8   5   9  ar  
  9   6  10  1   
 10   6  25  1   
 11   6  26  1   
 12   7  11  1   
 13   7  27  1   
 14   7  28  1   
 15   8  12  ar  
 16   8  29  1   
 17   9  13  ar  
 18   9  30  1   
 19  10  14  1   
 20  10  31  1   
 21  10  32  1   
 22  11  14  1   
 23  11  33  1   
 24  11  34  1   
 25  12  15  ar  
 26  12  35  1   
 27  13  15  ar  
 28  13  36  1   
 29  14  16  1   
 30  15  17  1   
 31  16  18  ar  
 32  16  19  ar  
 33  17  20  1   
 34  18  21  1   
 35  18  22  ar  
 36  19  23  ar  
 37  19  37  1   
 38  20  38  1   
 39  20  39  1   
 40  20  40  1   
 41  22  24  ar  
 42  22  41  1   
 43  23  24  ar  
 44  23  42  1   
 45  24  43  1   
@<TRIPOS>SUBSTRUCTURE
  1 ****   6 GROUP 4 **** **** 0

# MOE 2024.06 (io_trps.svl 2023.06)
