@<TRIPOS>MOLECULE
NONAME
32 31 1 0 0 
SMALL
USER_CHARGES


@<TRIPOS>ATOM
  1 F       -0.3150     0.5410     1.9510 F     1 <1>  -0.3400 
  2 C        0.8880     0.9300     1.5370 C.3   1 <1>   1.0200 
  3 F        1.4930     1.3700     2.6320 F     1 <1>  -0.3400 
  4 F        1.5120    -0.2010     1.2150 F     1 <1>  -0.3400 
  5 C        0.8010     1.9290     0.3240 C.3   1 <1>   0.3000 
  6 N        2.0300     1.9850    -0.5970 N.am  1 <1>  -0.7300 
  7 C        0.4510     3.3140     0.9600 C.3   1 <1>   1.0200 
  8 C       -0.3520     1.5170    -0.6580 C.3   1 <1>  -0.1600 
  9 C        3.3170     2.0860    -0.2100 C.2   1 <1>   0.6900 
 10 F        0.2030     4.2210     0.0180 F     1 <1>  -0.3400 
 11 F       -0.6510     3.2880     1.7040 F     1 <1>  -0.3400 
 12 F        1.3900     3.8630     1.7170 F     1 <1>  -0.3400 
 13 C       -0.2070     0.1430    -1.3440 C.3   1 <1>  -0.2400 
 14 O        3.5930     2.1290     0.9650 O.2   1 <1>  -0.5700 
 15 N        4.2530     2.1410    -1.1840 N.am  1 <1>  -0.7300 
 16 C        5.7160     2.2630    -1.0310 C.3   1 <1>   0.2200 
 17 C        6.2760     1.0420    -0.3060 C.3   1 <1>  -0.2400 
 18 C        6.0700     3.5680    -0.3210 C.3   1 <1>  -0.2400 
 19 H        1.8290     2.0990    -1.5860 H     1 <1>   0.3700 
 20 H       -0.4390     2.2610    -1.4320 H     1 <1>   0.0800 
 21 H       -1.2950     1.5230    -0.1360 H     1 <1>   0.0800 
 22 H        0.7190     0.0630    -1.8860 H     1 <1>   0.0800 
 23 H       -1.0130     0.0010    -2.0430 H     1 <1>   0.0800 
 24 H       -0.2540    -0.6580    -0.6270 H     1 <1>   0.0800 
 25 H        3.9530     1.9710    -2.1390 H     1 <1>   0.3700 
 26 H        6.1480     2.2940    -2.0180 H     1 <1>   0.0800 
 27 H        5.9110     0.9980     0.7050 H     1 <1>   0.0800 
 28 H        7.3480     1.0960    -0.2730 H     1 <1>   0.0800 
 29 H        5.9960     0.1410    -0.8220 H     1 <1>   0.0800 
 30 H        5.7130     3.5620     0.6930 H     1 <1>   0.0800 
 31 H        5.6390     4.4040    -0.8420 H     1 <1>   0.0800 
 32 H        7.1370     3.6940    -0.2980 H     1 <1>   0.0800 
@<TRIPOS>BOND
  1   1   2  1   
  2   2   3  1   
  3   2   4  1   
  4   2   5  1   
  5   5   6  1   
  6   5   7  1   
  7   5   8  1   
  8   6   9  am  
  9   6  19  1   
 10   7  10  1   
 11   7  11  1   
 12   7  12  1   
 13   8  13  1   
 14   8  20  1   
 15   8  21  1   
 16   9  14  2   
 17   9  15  am  
 18  13  22  1   
 19  13  23  1   
 20  13  24  1   
 21  15  16  1   
 22  15  25  1   
 23  16  17  1   
 24  16  18  1   
 25  16  26  1   
 26  17  27  1   
 27  17  28  1   
 28  17  29  1   
 29  18  30  1   
 30  18  31  1   
 31  18  32  1   
@<TRIPOS>SUBSTRUCTURE
  1 ****   6 GROUP 4 **** **** 0

# MOE 2024.06 (io_trps.svl 2023.06)
