@<TRIPOS>MOLECULE
NONAME
55 56 1 0 0 
SMALL
USER_CHARGES


@<TRIPOS>ATOM
  1 S        1.3560    -0.8270     2.5760 S.o2  1 <1>   1.4470 
  2 O        2.4260    -1.6090     3.1540 O.2   1 <1>  -0.6500 
  3 O        0.9330     0.4070     3.1950 O.2   1 <1>  -0.6500 
  4 N        1.9090    -0.4000     1.0280 N.am  1 <1>  -0.8490 
  5 C       -0.0750    -1.8650     2.1700 C.ar  1 <1>  -0.0090 
  6 C        2.8060     0.7720     1.0460 C.3   1 <1>   0.1960 
  7 C        2.5400    -1.5230     0.3030 C.3   1 <1>   0.1960 
  8 C       -0.8380    -1.5840     1.0480 C.ar  1 <1>  -0.1500 
  9 C       -0.4350    -2.9670     2.9300 C.ar  1 <1>  -0.1500 
 10 C        3.2990     1.1530    -0.3760 C.3   1 <1>   0.3430 
 11 C        2.8380    -1.1530    -1.1730 C.3   1 <1>   0.3430 
 12 C       -1.8890    -2.3860     0.6150 C.ar  1 <1>   0.0860 
 13 C       -1.4920    -3.7740     2.5470 C.ar  1 <1>  -0.1500 
 14 N        2.6360     0.3190    -1.4420 N.4   1 <1>  -0.9590 
 15 C       -2.2110    -3.5050     1.3930 C.ar  1 <1>  -0.1430 
 16 C       -2.5390    -2.0110    -0.6290 C.2   1 <1>   0.5440 
 17 C        2.9930     0.7400    -2.8190 C.3   1 <1>   0.3430 
 18 C       -3.3260    -4.4670     0.9980 C.3   1 <1>  -0.0970 
 19 O       -1.8580    -1.7090    -1.5920 O.2   1 <1>  -0.5700 
 20 N       -3.8980    -1.9480    -0.7250 N.am  1 <1>  -0.7300 
 21 C        2.0090     0.1320    -3.8120 C.3   1 <1>  -0.2400 
 22 C       -4.6720    -1.6350    -1.9480 C.3   1 <1>   0.1400 
 23 C       -5.7300    -2.7210    -2.2050 C.3   1 <1>  -0.0800 
 24 C       -6.4660    -2.4310    -3.5190 C.3   1 <1>  -0.2400 
 25 C       -6.7490    -2.8270    -1.0590 C.3   1 <1>  -0.2400 
 26 H        3.6540     0.5780     1.6820 H     1 <1>   0.0800 
 27 H        2.2820     1.6170     1.4630 H     1 <1>   0.0800 
 28 H        1.8940    -2.3840     0.3150 H     1 <1>   0.0800 
 29 H        3.4580    -1.8060     0.7930 H     1 <1>   0.0800 
 30 H       -0.6060    -0.7120     0.4630 H     1 <1>   0.1500 
 31 H        0.1220    -3.2050     3.8220 H     1 <1>   0.1500 
 32 H        4.3670     1.0190    -0.4210 H     1 <1>   0.0800 
 33 H        3.0950     2.1970    -0.5450 H     1 <1>   0.0800 
 34 H        2.1830    -1.7270    -1.8070 H     1 <1>   0.0800 
 35 H        3.8500    -1.4380    -1.4080 H     1 <1>   0.0800 
 36 H       -1.7440    -4.6260     3.1570 H     1 <1>   0.1500 
 37 H        1.6230     0.4690    -1.3060 H     1 <1>   0.4500 
 38 H        3.9990     0.4320    -3.0570 H     1 <1>   0.0800 
 39 H        2.9420     1.8150    -2.8930 H     1 <1>   0.0800 
 40 H       -3.3170    -4.6440    -0.0630 H     1 <1>   0.0800 
 41 H       -4.2810    -4.0620     1.2780 H     1 <1>   0.0800 
 42 H       -3.2040    -5.4160     1.4890 H     1 <1>   0.0800 
 43 H       -4.4620    -2.1200     0.1080 H     1 <1>   0.3700 
 44 H        2.0970    -0.9380    -3.8510 H     1 <1>   0.0800 
 45 H        2.2210     0.5120    -4.7950 H     1 <1>   0.0800 
 46 H        0.9970     0.4020    -3.5640 H     1 <1>   0.0800 
 47 H       -4.0060    -1.5750    -2.7930 H     1 <1>   0.0800 
 48 H       -5.1480    -0.6770    -1.8290 H     1 <1>   0.0800 
 49 H       -5.2220    -3.6650    -2.3130 H     1 <1>   0.0800 
 50 H       -6.9910    -1.4940    -3.4630 H     1 <1>   0.0800 
 51 H       -7.1780    -3.2110    -3.7290 H     1 <1>   0.0800 
 52 H       -5.7680    -2.3860    -4.3370 H     1 <1>   0.0800 
 53 H       -7.2410    -1.8830    -0.9020 H     1 <1>   0.0800 
 54 H       -6.2710    -3.1250    -0.1450 H     1 <1>   0.0800 
 55 H       -7.4950    -3.5650    -1.2950 H     1 <1>   0.0800 
@<TRIPOS>BOND
  1   1   2  2   
  2   1   3  2   
  3   1   4  am  
  4   1   5  1   
  5   4   6  1   
  6   4   7  1   
  7   5   8  ar  
  8   5   9  ar  
  9   6  10  1   
 10   6  26  1   
 11   6  27  1   
 12   7  11  1   
 13   7  28  1   
 14   7  29  1   
 15   8  12  ar  
 16   8  30  1   
 17   9  13  ar  
 18   9  31  1   
 19  10  14  1   
 20  10  32  1   
 21  10  33  1   
 22  11  14  1   
 23  11  34  1   
 24  11  35  1   
 25  12  15  ar  
 26  12  16  1   
 27  13  15  ar  
 28  13  36  1   
 29  14  17  1   
 30  14  37  1   
 31  15  18  1   
 32  16  19  2   
 33  16  20  am  
 34  17  21  1   
 35  17  38  1   
 36  17  39  1   
 37  18  40  1   
 38  18  41  1   
 39  18  42  1   
 40  20  22  1   
 41  20  43  1   
 42  21  44  1   
 43  21  45  1   
 44  21  46  1   
 45  22  23  1   
 46  22  47  1   
 47  22  48  1   
 48  23  24  1   
 49  23  25  1   
 50  23  49  1   
 51  24  50  1   
 52  24  51  1   
 53  24  52  1   
 54  25  53  1   
 55  25  54  1   
 56  25  55  1   
@<TRIPOS>SUBSTRUCTURE
  1 ****   8 GROUP 4 **** **** 0

# MOE 2024.06 (io_trps.svl 2023.06)
