@<TRIPOS>MOLECULE
NONAME
34 34 1 0 0 
SMALL
USER_CHARGES


@<TRIPOS>ATOM
  1 O       -0.6010    -0.3110    -0.2340 O.3   1 <1>  -0.5600 
  2 C       -0.6680     0.0060    -1.5900 C.3   1 <1>   0.3200 
  3 C        0.6960    -0.4720     0.2440 C.3   1 <1>   0.1200 
  4 C       -2.1100     0.1600    -1.9310 C.1   1 <1>  -0.2000 
  5 C        0.6200    -0.8060     1.7320 C.3   1 <1>   0.0400 
  6 C       -3.2780     0.2670    -2.1290 C.1   1 <1>  -0.2000 
  7 C        1.9890    -0.9820     2.2820 C.1   1 <1>   0.3570 
  8 C       -4.7550     0.3720    -2.2390 C.3   1 <1>   0.5430 
  9 N        3.0450    -1.1120     2.6810 N.1   1 <1>  -0.5570 
 10 N       -5.2880     0.4260    -0.8550 N.4   1 <1>  -0.9590 
 11 C       -5.0960    -0.8720    -0.1390 C.3   1 <1>   0.3430 
 12 C       -6.7030     0.8890    -0.8240 C.3   1 <1>   0.3430 
 13 C       -5.5190    -0.7180     1.3230 C.3   1 <1>  -0.1600 
 14 C       -7.1510     1.0730     0.6270 C.3   1 <1>  -0.1600 
 15 C       -6.9600    -0.2080     1.4500 C.3   1 <1>  -0.1600 
 16 H       -0.2270    -0.7940    -2.1600 H     1 <1>   0.0800 
 17 H       -0.1380     0.9260    -1.7640 H     1 <1>   0.0800 
 18 H        1.2420     0.4450     0.0920 H     1 <1>   0.0800 
 19 H        1.1710    -1.2740    -0.2980 H     1 <1>   0.0800 
 20 H        0.0700    -1.7170     1.8750 H     1 <1>   0.0800 
 21 H        0.1350    -0.0080     2.2620 H     1 <1>   0.0800 
 22 H       -5.1550    -0.4770    -2.7680 H     1 <1>   0.0800 
 23 H       -5.0080     1.2730    -2.7750 H     1 <1>   0.0800 
 24 H       -4.7080     1.1170    -0.3620 H     1 <1>   0.4500 
 25 H       -4.0600    -1.1710    -0.1800 H     1 <1>   0.0800 
 26 H       -5.6900    -1.6400    -0.6070 H     1 <1>   0.0800 
 27 H       -7.3360     0.1610    -1.3040 H     1 <1>   0.0800 
 28 H       -6.8000     1.8260    -1.3490 H     1 <1>   0.0800 
 29 H       -4.8440    -0.0420     1.8180 H     1 <1>   0.0800 
 30 H       -5.4330    -1.6720     1.8150 H     1 <1>   0.0800 
 31 H       -8.1910     1.3520     0.6410 H     1 <1>   0.0800 
 32 H       -6.5970     1.8810     1.0730 H     1 <1>   0.0800 
 33 H       -7.1900    -0.0160     2.4850 H     1 <1>   0.0800 
 34 H       -7.6410    -0.9660     1.0990 H     1 <1>   0.0800 
@<TRIPOS>BOND
  1   1   2  1   
  2   1   3  1   
  3   2   4  1   
  4   2  16  1   
  5   2  17  1   
  6   3   5  1   
  7   3  18  1   
  8   3  19  1   
  9   4   6  3   
 10   5   7  1   
 11   5  20  1   
 12   5  21  1   
 13   6   8  1   
 14   7   9  3   
 15   8  10  1   
 16   8  22  1   
 17   8  23  1   
 18  10  11  1   
 19  10  12  1   
 20  10  24  1   
 21  11  13  1   
 22  11  25  1   
 23  11  26  1   
 24  12  14  1   
 25  12  27  1   
 26  12  28  1   
 27  13  15  1   
 28  13  29  1   
 29  13  30  1   
 30  14  15  1   
 31  14  31  1   
 32  14  32  1   
 33  15  33  1   
 34  15  34  1   
@<TRIPOS>SUBSTRUCTURE
  1 ****   4 GROUP 4 **** **** 0

# MOE 2024.06 (io_trps.svl 2023.06)
