@<TRIPOS>MOLECULE
NONAME
46 47 1 0 0 
SMALL
USER_CHARGES


@<TRIPOS>ATOM
  1 O       -1.7110    -1.0950     0.9610 O.2   1 <1>  -0.5700 
  2 C       -1.1710    -2.1520     0.7170 C.2   1 <1>   0.7800 
  3 O       -0.2920    -2.6280     1.5910 O.3   1 <1>  -0.4300 
  4 N       -1.4890    -2.8920    -0.3960 N.am  1 <1>  -0.6600 
  5 C        1.0240    -2.9080     1.1760 C.3   1 <1>   0.1200 
  6 C       -1.6060    -4.3670    -0.3270 C.3   1 <1>   0.1400 
  7 C       -2.2240    -2.2620    -1.5160 C.3   1 <1>   0.1400 
  8 C        1.7400    -3.6060     2.3270 C.3   1 <1>  -0.2400 
  9 C       -3.0830    -4.7120    -0.1170 C.3   1 <1>  -0.1600 
 10 C       -3.7140    -2.5540    -1.3330 C.3   1 <1>  -0.1600 
 11 C       -3.9630    -4.0620    -1.2020 C.3   1 <1>   0.4230 
 12 N       -5.4210    -4.3080    -0.9770 N.4   1 <1>  -0.9590 
 13 C       -5.9260    -3.8430     0.3730 C.3   1 <1>   0.3430 
 14 C       -5.7940    -5.7490    -1.2220 C.3   1 <1>   0.3430 
 15 C       -7.4400    -4.0630     0.5240 C.3   1 <1>   0.1400 
 16 C       -7.3090    -6.0040    -1.0670 C.3   1 <1>   0.1400 
 17 N       -7.7960    -5.4910     0.2490 N.am  1 <1>  -0.6600 
 18 C       -8.4260    -6.2460     1.2070 C.2   1 <1>   0.5690 
 19 O       -8.5940    -5.8260     2.3230 O.2   1 <1>  -0.5700 
 20 C       -8.9210    -7.6400     0.9010 C.3   1 <1>  -0.1790 
 21 H        1.5040    -1.9750     0.9350 H     1 <1>   0.0800 
 22 H        1.0010    -3.5370     0.3030 H     1 <1>   0.0800 
 23 H       -1.0240    -4.7560     0.4920 H     1 <1>   0.0800 
 24 H       -1.2340    -4.7990    -1.2400 H     1 <1>   0.0800 
 25 H       -1.8640    -2.6590    -2.4500 H     1 <1>   0.0800 
 26 H       -2.0530    -1.1970    -1.5190 H     1 <1>   0.0800 
 27 H        1.7540    -2.9690     3.1930 H     1 <1>   0.0800 
 28 H        2.7550    -3.8230     2.0460 H     1 <1>   0.0800 
 29 H        1.2470    -4.5300     2.5690 H     1 <1>   0.0800 
 30 H       -3.3530    -4.3630     0.8630 H     1 <1>   0.0800 
 31 H       -3.1850    -5.7810    -0.1390 H     1 <1>   0.0800 
 32 H       -4.2450    -2.1620    -2.1820 H     1 <1>   0.0800 
 33 H       -4.0370    -2.0260    -0.4540 H     1 <1>   0.0800 
 34 H       -3.6850    -4.5060    -2.1450 H     1 <1>   0.0800 
 35 H       -5.9220    -3.7480    -1.6770 H     1 <1>   0.4500 
 36 H       -5.7110    -2.7970     0.5130 H     1 <1>   0.0800 
 37 H       -5.4310    -4.3890     1.1600 H     1 <1>   0.0800 
 38 H       -5.2760    -6.3790    -0.5180 H     1 <1>   0.0800 
 39 H       -5.4900    -6.0430    -2.2130 H     1 <1>   0.0800 
 40 H       -7.9740    -3.4260    -0.1580 H     1 <1>   0.0800 
 41 H       -7.7340    -3.7800     1.5210 H     1 <1>   0.0800 
 42 H       -7.4920    -7.0590    -1.1590 H     1 <1>   0.0800 
 43 H       -7.8450    -5.5100    -1.8590 H     1 <1>   0.0800 
 44 H       -8.0900    -8.3100     0.7880 H     1 <1>   0.0800 
 45 H       -9.5170    -7.6350     0.0080 H     1 <1>   0.0800 
 46 H       -9.5330    -7.9890     1.7130 H     1 <1>   0.0800 
@<TRIPOS>BOND
  1   1   2  2   
  2   2   3  1   
  3   2   4  am  
  4   3   5  1   
  5   4   6  1   
  6   4   7  1   
  7   5   8  1   
  8   5  21  1   
  9   5  22  1   
 10   6   9  1   
 11   6  23  1   
 12   6  24  1   
 13   7  10  1   
 14   7  25  1   
 15   7  26  1   
 16   8  27  1   
 17   8  28  1   
 18   8  29  1   
 19   9  11  1   
 20   9  30  1   
 21   9  31  1   
 22  10  11  1   
 23  10  32  1   
 24  10  33  1   
 25  11  12  1   
 26  11  34  1   
 27  12  13  1   
 28  12  14  1   
 29  12  35  1   
 30  13  15  1   
 31  13  36  1   
 32  13  37  1   
 33  14  16  1   
 34  14  38  1   
 35  14  39  1   
 36  15  17  1   
 37  15  40  1   
 38  15  41  1   
 39  16  17  1   
 40  16  42  1   
 41  16  43  1   
 42  17  18  am  
 43  18  19  2   
 44  18  20  1   
 45  20  44  1   
 46  20  45  1   
 47  20  46  1   
@<TRIPOS>SUBSTRUCTURE
  1 ****   9 GROUP 4 **** **** 0

# MOE 2024.06 (io_trps.svl 2023.06)
