@<TRIPOS>MOLECULE
NONAME
51 53 1 0 0 
SMALL
USER_CHARGES


@<TRIPOS>ATOM
  1 BR       1.7150    -1.6680    -2.6110 Br    1 <1>  -0.1110 
  2 C        0.5040    -2.6820    -1.5010 C.ar  1 <1>   0.1110 
  3 C        0.8530    -2.9840    -0.1920 C.ar  1 <1>   0.0820 
  4 C       -0.6940    -3.0780    -2.0620 C.ar  1 <1>  -0.1500 
  5 O        2.0550    -2.5480     0.2680 O.3   1 <1>  -0.3630 
  6 C       -0.0490    -3.7140     0.5750 C.ar  1 <1>  -0.1500 
  7 C       -1.5890    -3.8030    -1.2900 C.ar  1 <1>  -0.1430 
  8 C        2.5300    -2.8790     1.5550 C.3   1 <1>   0.0400 
  9 C       -1.2660    -4.1220     0.0290 C.ar  1 <1>   0.0830 
 10 C       -2.9130    -4.2460    -1.8840 C.3   1 <1>   0.4870 
 11 O       -2.1920    -4.8270     0.7370 O.3   1 <1>  -0.3630 
 12 N       -4.0080    -3.6400    -1.0910 N.4   1 <1>  -0.9590 
 13 C       -1.8930    -5.3680     2.0100 C.3   1 <1>   0.0400 
 14 C       -5.3330    -4.2370    -1.3890 C.3   1 <1>   0.4860 
 15 C       -4.0500    -2.1520    -1.1690 C.3   1 <1>   0.3430 
 16 C       -6.3980    -3.6200    -0.4970 C.ar  1 <1>  -0.1430 
 17 C       -4.9330    -1.6000    -0.0470 C.3   1 <1>  -0.0170 
 18 C       -6.2260    -2.3880     0.1200 C.ar  1 <1>  -0.1430 
 19 C       -7.5820    -4.3110    -0.3040 C.ar  1 <1>  -0.1500 
 20 C       -7.2360    -1.8700     0.9150 C.ar  1 <1>  -0.1500 
 21 C       -8.6000    -3.8080     0.4870 C.ar  1 <1>   0.0830 
 22 C       -8.4310    -2.5600     1.1120 C.ar  1 <1>   0.0830 
 23 O       -9.6880    -4.6290     0.5610 O.3   1 <1>  -0.3630 
 24 O       -9.4190    -2.0390     1.8960 O.3   1 <1>  -0.3620 
 25 C      -10.8400    -4.3380     1.3200 C.3   1 <1>   0.0400 
 26 C       -9.3150    -0.7820     2.5300 C.3   1 <1>   0.0400 
 27 H       -0.9000    -2.8160    -3.0860 H     1 <1>   0.1500 
 28 H        0.1980    -3.9570     1.5890 H     1 <1>   0.1500 
 29 H        3.5090    -2.4490     1.6690 H     1 <1>   0.0800 
 30 H        2.5920    -3.9500     1.6410 H     1 <1>   0.0800 
 31 H        1.8640    -2.4670     2.2920 H     1 <1>   0.0800 
 32 H       -2.9730    -5.3210    -1.8330 H     1 <1>   0.0800 
 33 H       -2.9830    -3.9430    -2.9160 H     1 <1>   0.0800 
 34 H       -3.7830    -3.8870    -0.1120 H     1 <1>   0.4500 
 35 H       -1.7180    -4.5640     2.7040 H     1 <1>   0.0800 
 36 H       -1.0250    -6.0000     1.9300 H     1 <1>   0.0800 
 37 H       -2.7350    -5.9510     2.3370 H     1 <1>   0.0800 
 38 H       -5.3040    -5.3010    -1.2200 H     1 <1>   0.0800 
 39 H       -5.5950    -4.0610    -2.4200 H     1 <1>   0.0800 
 40 H       -4.4540    -1.8520    -2.1230 H     1 <1>   0.0800 
 41 H       -3.0580    -1.7400    -1.0730 H     1 <1>   0.0800 
 42 H       -5.1580    -0.5690    -0.2580 H     1 <1>   0.0800 
 43 H       -4.3830    -1.6290     0.8770 H     1 <1>   0.0800 
 44 H       -7.7450    -5.2680    -0.7700 H     1 <1>   0.1500 
 45 H       -7.0730    -0.9180     1.3820 H     1 <1>   0.1500 
 46 H      -11.5310    -5.1540     1.2070 H     1 <1>   0.0800 
 47 H      -11.2830    -3.4310     0.9480 H     1 <1>   0.0800 
 48 H      -10.5610    -4.2350     2.3530 H     1 <1>   0.0800 
 49 H      -10.2270    -0.6060     3.0720 H     1 <1>   0.0800 
 50 H       -9.1860    -0.0210     1.7810 H     1 <1>   0.0800 
 51 H       -8.4860    -0.8020     3.2140 H     1 <1>   0.0800 
@<TRIPOS>BOND
  1   1   2  1   
  2   2   3  ar  
  3   2   4  ar  
  4   3   5  1   
  5   3   6  ar  
  6   4   7  ar  
  7   4  27  1   
  8   5   8  1   
  9   6   9  ar  
 10   6  28  1   
 11   7   9  ar  
 12   7  10  1   
 13   8  29  1   
 14   8  30  1   
 15   8  31  1   
 16   9  11  1   
 17  10  12  1   
 18  10  32  1   
 19  10  33  1   
 20  11  13  1   
 21  12  14  1   
 22  12  15  1   
 23  12  34  1   
 24  13  35  1   
 25  13  36  1   
 26  13  37  1   
 27  14  16  1   
 28  14  38  1   
 29  14  39  1   
 30  15  17  1   
 31  15  40  1   
 32  15  41  1   
 33  16  18  ar  
 34  16  19  ar  
 35  17  18  1   
 36  17  42  1   
 37  17  43  1   
 38  18  20  ar  
 39  19  21  ar  
 40  19  44  1   
 41  20  22  ar  
 42  20  45  1   
 43  21  22  ar  
 44  21  23  1   
 45  22  24  1   
 46  23  25  1   
 47  24  26  1   
 48  25  46  1   
 49  25  47  1   
 50  25  48  1   
 51  26  49  1   
 52  26  50  1   
 53  26  51  1   
@<TRIPOS>SUBSTRUCTURE
  1 ****  12 GROUP 4 **** **** 0

# MOE 2024.06 (io_trps.svl 2023.06)
