@<TRIPOS>MOLECULE
NONAME
46 47 1 0 0 
SMALL
USER_CHARGES


@<TRIPOS>ATOM
  1 O       -1.1620    -0.1320    -0.3520 O.3   1 <1>  -0.5600 
  2 C       -1.2200     0.9030     0.5870 C.3   1 <1>   0.1200 
  3 C       -2.2790    -0.9720    -0.3740 C.3   1 <1>   0.1200 
  4 C       -2.4410     1.8020     0.3130 C.3   1 <1>   0.3430 
  5 C       -3.5510    -0.1610    -0.6900 C.3   1 <1>   0.3430 
  6 N       -3.7160     1.0050     0.2520 N.4   1 <1>  -0.9590 
  7 C       -4.8650     1.8780    -0.1150 C.3   1 <1>   0.3430 
  8 C       -6.1910     1.1600     0.1490 C.3   1 <1>  -0.1600 
  9 C       -7.3810     2.0920    -0.1180 C.3   1 <1>  -0.1600 
 10 C       -8.7100     1.3710     0.1470 C.3   1 <1>  -0.1600 
 11 C       -9.9090     2.2850    -0.1120 C.3   1 <1>   0.1200 
 12 O      -11.0780     1.5460     0.1500 O.3   1 <1>  -0.3630 
 13 C      -12.3090     2.0980     0.0050 C.ar  1 <1>   0.0820 
 14 C      -13.3940     1.2870     0.2870 C.ar  1 <1>  -0.1500 
 15 C      -12.5250     3.4120    -0.4040 C.ar  1 <1>  -0.1500 
 16 C      -14.6890     1.7640     0.1680 C.ar  1 <1>   0.0820 
 17 C      -13.8170     3.8950    -0.5250 C.ar  1 <1>  -0.1500 
 18 O      -15.6910     0.8980     0.4650 O.3   1 <1>  -0.3630 
 19 C      -14.8980     3.0780    -0.2420 C.ar  1 <1>  -0.1500 
 20 C      -17.0440     1.2840     0.3760 C.3   1 <1>   0.0400 
 21 H       -0.3120     1.4740     0.4990 H     1 <1>   0.0800 
 22 H       -1.2620     0.4750     1.5740 H     1 <1>   0.0800 
 23 H       -2.3590    -1.4690     0.5780 H     1 <1>   0.0800 
 24 H       -2.1140    -1.7140    -1.1350 H     1 <1>   0.0800 
 25 H       -2.2820     2.3080    -0.6260 H     1 <1>   0.0800 
 26 H       -2.5100     2.5520     1.0850 H     1 <1>   0.0800 
 27 H       -4.4070    -0.8120    -0.6290 H     1 <1>   0.0800 
 28 H       -3.4790     0.1970    -1.7040 H     1 <1>   0.0800 
 29 H       -3.8880     0.6250     1.1920 H     1 <1>   0.4500 
 30 H       -4.8010     2.1590    -1.1540 H     1 <1>   0.0800 
 31 H       -4.8370     2.7780     0.4780 H     1 <1>   0.0800 
 32 H       -6.2290     0.8380     1.1760 H     1 <1>   0.0800 
 33 H       -6.2810     0.3000    -0.4900 H     1 <1>   0.0800 
 34 H       -7.3610     2.4260    -1.1430 H     1 <1>   0.0800 
 35 H       -7.3180     2.9590     0.5190 H     1 <1>   0.0800 
 36 H       -8.7470     1.0410     1.1710 H     1 <1>   0.0800 
 37 H       -8.7910     0.5100    -0.4940 H     1 <1>   0.0800 
 38 H       -9.9350     2.6040    -1.1400 H     1 <1>   0.0800 
 39 H       -9.8930     3.1360     0.5460 H     1 <1>   0.0800 
 40 H      -13.2320     0.2740     0.6030 H     1 <1>   0.1500 
 41 H      -11.7080     4.0700    -0.6310 H     1 <1>   0.1500 
 42 H      -13.9820     4.9110    -0.8420 H     1 <1>   0.1500 
 43 H      -15.8880     3.4790    -0.3440 H     1 <1>   0.1500 
 44 H      -17.6500     0.4410     0.6560 H     1 <1>   0.0800 
 45 H      -17.2590     1.5680    -0.6390 H     1 <1>   0.0800 
 46 H      -17.2180     2.1010     1.0530 H     1 <1>   0.0800 
@<TRIPOS>BOND
  1   1   2  1   
  2   1   3  1   
  3   2   4  1   
  4   2  21  1   
  5   2  22  1   
  6   3   5  1   
  7   3  23  1   
  8   3  24  1   
  9   4   6  1   
 10   4  25  1   
 11   4  26  1   
 12   5   6  1   
 13   5  27  1   
 14   5  28  1   
 15   6   7  1   
 16   6  29  1   
 17   7   8  1   
 18   7  30  1   
 19   7  31  1   
 20   8   9  1   
 21   8  32  1   
 22   8  33  1   
 23   9  10  1   
 24   9  34  1   
 25   9  35  1   
 26  10  11  1   
 27  10  36  1   
 28  10  37  1   
 29  11  12  1   
 30  11  38  1   
 31  11  39  1   
 32  12  13  1   
 33  13  14  ar  
 34  13  15  ar  
 35  14  16  ar  
 36  14  40  1   
 37  15  17  ar  
 38  15  41  1   
 39  16  18  1   
 40  16  19  ar  
 41  17  19  ar  
 42  17  42  1   
 43  18  20  1   
 44  19  43  1   
 45  20  44  1   
 46  20  45  1   
 47  20  46  1   
@<TRIPOS>SUBSTRUCTURE
  1 ****  10 GROUP 4 **** **** 0

# MOE 2024.06 (io_trps.svl 2023.06)
