@<TRIPOS>MOLECULE
NONAME
33 33 1 0 0 
SMALL
USER_CHARGES


@<TRIPOS>ATOM
  1 F       -0.7690     0.4890    -1.0910 F     1 <1>  -0.1900 
  2 C       -0.4330     1.5580    -0.4100 C.ar  1 <1>   0.1900 
  3 C       -1.4360     2.4560    -0.0310 C.ar  1 <1>   0.1170 
  4 C        0.9020     1.7360    -0.1080 C.ar  1 <1>  -0.1500 
  5 N       -2.7750     2.1980    -0.3860 N.am  1 <1>  -0.5470 
  6 C       -1.0400     3.5910     0.6790 C.ar  1 <1>  -0.1500 
  7 C        1.2370     2.8710     0.6030 C.ar  1 <1>   0.1900 
  8 C       -3.9520     2.6660     0.1160 C.2   1 <1>   0.6900 
  9 C        0.2930     3.8010     1.0000 C.ar  1 <1>  -0.1500 
 10 F        2.4920     3.0740     0.9080 F     1 <1>  -0.1900 
 11 O       -3.9930     3.3980     1.0840 O.2   1 <1>  -0.5700 
 12 N       -5.0910     2.2720    -0.5020 N.am  1 <1>  -0.7300 
 13 C       -6.4540     2.6610    -0.0990 C.3   1 <1>   0.2200 
 14 C       -7.2420     1.3610     0.1350 C.3   1 <1>  -0.1600 
 15 C       -7.0390     3.5670    -1.1990 C.3   1 <1>  -0.1600 
 16 C       -8.6760     1.5720     0.6390 C.3   1 <1>  -0.2400 
 17 C       -7.9400     4.6780    -0.6390 C.3   1 <1>  -0.2400 
 18 H        1.6480     1.0260    -0.4100 H     1 <1>   0.1500 
 19 H       -2.8870     1.4250    -1.0360 H     1 <1>   0.3700 
 20 H       -1.7700     4.3190     0.9840 H     1 <1>   0.1500 
 21 H        0.5970     4.6740     1.5510 H     1 <1>   0.1500 
 22 H       -5.0360     1.7550    -1.3740 H     1 <1>   0.3700 
 23 H       -6.4010     3.2120     0.8270 H     1 <1>   0.0800 
 24 H       -6.7160     0.7820     0.8740 H     1 <1>   0.0800 
 25 H       -7.2750     0.7880    -0.7750 H     1 <1>   0.0800 
 26 H       -7.5900     2.9780    -1.9100 H     1 <1>   0.0800 
 27 H       -6.2350     4.0520    -1.7250 H     1 <1>   0.0800 
 28 H       -8.6800     2.2040     1.5100 H     1 <1>   0.0800 
 29 H       -9.1130     0.6250     0.9030 H     1 <1>   0.0800 
 30 H       -9.2870     2.0190    -0.1250 H     1 <1>   0.0800 
 31 H       -8.7850     4.2750    -0.1140 H     1 <1>   0.0800 
 32 H       -8.3030     5.2940    -1.4430 H     1 <1>   0.0800 
 33 H       -7.3810     5.3010     0.0380 H     1 <1>   0.0800 
@<TRIPOS>BOND
  1   1   2  1   
  2   2   3  ar  
  3   2   4  ar  
  4   3   5  1   
  5   3   6  ar  
  6   4   7  ar  
  7   4  18  1   
  8   5   8  am  
  9   5  19  1   
 10   6   9  ar  
 11   6  20  1   
 12   7   9  ar  
 13   7  10  1   
 14   8  11  2   
 15   8  12  am  
 16   9  21  1   
 17  12  13  1   
 18  12  22  1   
 19  13  14  1   
 20  13  15  1   
 21  13  23  1   
 22  14  16  1   
 23  14  24  1   
 24  14  25  1   
 25  15  17  1   
 26  15  26  1   
 27  15  27  1   
 28  16  28  1   
 29  16  29  1   
 30  16  30  1   
 31  17  31  1   
 32  17  32  1   
 33  17  33  1   
@<TRIPOS>SUBSTRUCTURE
  1 ****   5 GROUP 4 **** **** 0

# MOE 2024.06 (io_trps.svl 2023.06)
