@<TRIPOS>MOLECULE
NONAME
43 44 1 0 0 
SMALL
USER_CHARGES


@<TRIPOS>ATOM
  1 N        0.6310     1.5110     0.5410 N.4   1 <1>  -0.9590 
  2 C        0.5340     0.0590     0.9740 C.3   1 <1>   0.3430 
  3 C        0.1960     1.6960    -0.8730 C.3   1 <1>   0.3430 
  4 C        2.0440     2.0390     0.7510 C.3   1 <1>   0.3430 
  5 C       -0.8920    -0.5400     1.1280 C.3   1 <1>   0.3430 
  6 C       -1.3080     1.9490    -0.9980 C.3   1 <1>  -0.1600 
  7 C        3.1250     1.5780    -0.2600 C.3   1 <1>   0.0630 
  8 N       -1.8430    -0.3020    -0.0230 N.4   1 <1>  -0.9590 
  9 C       -2.2600     1.1250    -0.1270 C.3   1 <1>   0.3430 
 10 C        3.2060     0.0590    -0.3640 C.ar  1 <1>  -0.1430 
 11 C        4.4950     2.1580     0.1170 C.3   1 <1>  -0.2400 
 12 C       -3.0640    -1.1580     0.1630 C.3   1 <1>   0.2630 
 13 C        2.8770    -0.5710    -1.5580 C.ar  1 <1>  -0.1500 
 14 C        3.5820    -0.7160     0.7270 C.ar  1 <1>  -0.1500 
 15 C        2.8910    -1.9510    -1.6490 C.ar  1 <1>  -0.1500 
 16 C        3.5950    -2.0960     0.6340 C.ar  1 <1>  -0.1500 
 17 C        3.2430    -2.7150    -0.5510 C.ar  1 <1>  -0.1500 
 18 H        0.0370     2.0910     1.1510 H     1 <1>   0.4500 
 19 H        1.0460    -0.0630     1.9150 H     1 <1>   0.0800 
 20 H        1.0560    -0.5580     0.2620 H     1 <1>   0.0800 
 21 H        0.4720     0.8250    -1.4460 H     1 <1>   0.0800 
 22 H        0.7120     2.5400    -1.3050 H     1 <1>   0.0800 
 23 H        2.3770     1.7620     1.7390 H     1 <1>   0.0800 
 24 H        2.0190     3.1160     0.7230 H     1 <1>   0.0800 
 25 H       -1.3290    -0.1510     2.0340 H     1 <1>   0.0800 
 26 H       -0.7790    -1.6030     1.2720 H     1 <1>   0.0800 
 27 H       -1.5800     1.8000    -2.0280 H     1 <1>   0.0800 
 28 H       -1.4950     2.9900    -0.7970 H     1 <1>   0.0800 
 29 H        2.8870     1.9850    -1.2270 H     1 <1>   0.0800 
 30 H       -1.4130    -0.6030    -0.9120 H     1 <1>   0.4500 
 31 H       -3.2470     1.1860    -0.5610 H     1 <1>   0.0800 
 32 H       -2.3190     1.5560     0.8600 H     1 <1>   0.0800 
 33 H        4.8000     1.8480     1.1010 H     1 <1>   0.0800 
 34 H        4.4750     3.2340     0.0890 H     1 <1>   0.0800 
 35 H        5.2400     1.8220    -0.5850 H     1 <1>   0.0800 
 36 H       -3.5770    -0.8960     1.0750 H     1 <1>   0.0800 
 37 H       -2.7910    -2.2010     0.2100 H     1 <1>   0.0800 
 38 H       -3.7460    -1.0260    -0.6630 H     1 <1>   0.0800 
 39 H        2.6210     0.0000    -2.4340 H     1 <1>   0.1500 
 40 H        3.8770    -0.2610     1.6570 H     1 <1>   0.1500 
 41 H        2.6440    -2.4370    -2.5790 H     1 <1>   0.1500 
 42 H        3.8940    -2.6940     1.4800 H     1 <1>   0.1500 
 43 H        3.2640    -3.7900    -0.6260 H     1 <1>   0.1500 
@<TRIPOS>BOND
  1   1   2  1   
  2   1   3  1   
  3   1   4  1   
  4   1  18  1   
  5   2   5  1   
  6   2  19  1   
  7   2  20  1   
  8   3   6  1   
  9   3  21  1   
 10   3  22  1   
 11   4   7  1   
 12   4  23  1   
 13   4  24  1   
 14   5   8  1   
 15   5  25  1   
 16   5  26  1   
 17   6   9  1   
 18   6  27  1   
 19   6  28  1   
 20   7  10  1   
 21   7  11  1   
 22   7  29  1   
 23   8   9  1   
 24   8  12  1   
 25   8  30  1   
 26   9  31  1   
 27   9  32  1   
 28  10  13  ar  
 29  10  14  ar  
 30  11  33  1   
 31  11  34  1   
 32  11  35  1   
 33  12  36  1   
 34  12  37  1   
 35  12  38  1   
 36  13  15  ar  
 37  13  39  1   
 38  14  16  ar  
 39  14  40  1   
 40  15  17  ar  
 41  15  41  1   
 42  16  17  ar  
 43  16  42  1   
 44  17  43  1   
@<TRIPOS>SUBSTRUCTURE
  1 ****   2 GROUP 4 **** **** 0

# MOE 2024.06 (io_trps.svl 2023.06)
