@<TRIPOS>MOLECULE
NONAME
52 53 1 0 0 
SMALL
USER_CHARGES


@<TRIPOS>ATOM
  1 O       -3.6360     1.5780    -0.0920 O.3   1 <1>  -0.5600 
  2 C       -4.4580     2.5130     0.5820 C.3   1 <1>   0.5670 
  3 C       -3.8770     0.2100     0.0880 C.3   1 <1>   0.0400 
  4 C       -4.3430     3.8600    -0.1830 C.ar  1 <1>  -0.1440 
  5 C       -5.9320     2.0360     0.5590 C.ar  1 <1>  -0.1440 
  6 C       -3.8790     2.6760     2.0150 C.3   1 <1>   0.0400 
  7 C       -3.7510     3.9490    -1.4410 C.ar  1 <1>  -0.1500 
  8 C       -4.8510     5.0290     0.3770 C.ar  1 <1>  -0.1500 
  9 C       -6.6510     2.1170    -0.6300 C.ar  1 <1>  -0.1500 
 10 C       -6.5790     1.5090     1.6760 C.ar  1 <1>  -0.1500 
 11 C       -2.5640     3.3900     2.0430 C.1   1 <1>  -0.2000 
 12 C       -3.6490     5.1600    -2.1030 C.ar  1 <1>  -0.1500 
 13 C       -4.7450     6.2430    -0.2780 C.ar  1 <1>  -0.1500 
 14 C       -7.9680     1.7010    -0.7030 C.ar  1 <1>  -0.1500 
 15 C       -7.8970     1.0910     1.6050 C.ar  1 <1>  -0.1500 
 16 C       -1.5970     4.0680     1.9260 C.1   1 <1>  -0.2000 
 17 C       -4.1410     6.3120    -1.5190 C.ar  1 <1>  -0.1500 
 18 C       -8.5940     1.1870     0.4160 C.ar  1 <1>  -0.1500 
 19 C       -0.4950     5.0020     1.5990 C.3   1 <1>   0.5430 
 20 N       -0.3590     4.9890     0.1230 N.4   1 <1>  -0.9590 
 21 C        0.4420     3.8170    -0.3220 C.3   1 <1>   0.3430 
 22 C        0.1520     6.2910    -0.3730 C.3   1 <1>   0.3430 
 23 C       -0.4090     2.9570    -1.2420 C.3   1 <1>  -0.2400 
 24 C       -0.0100     6.3890    -1.8850 C.3   1 <1>  -0.2400 
 25 H       -4.7980    -0.0600    -0.4000 H     1 <1>   0.0800 
 26 H       -3.9240    -0.0270     1.1360 H     1 <1>   0.0800 
 27 H       -3.0680    -0.3340    -0.3660 H     1 <1>   0.0800 
 28 H       -3.7710     1.7190     2.4880 H     1 <1>   0.0800 
 29 H       -4.5690     3.2490     2.6060 H     1 <1>   0.0800 
 30 H       -3.3740     3.0670    -1.9310 H     1 <1>   0.1500 
 31 H       -5.3470     5.0050     1.3320 H     1 <1>   0.1500 
 32 H       -6.1860     2.5080    -1.5190 H     1 <1>   0.1500 
 33 H       -6.0820     1.4050     2.6220 H     1 <1>   0.1500 
 34 H       -3.2010     5.2020    -3.0820 H     1 <1>   0.1500 
 35 H       -5.1470     7.1340     0.1740 H     1 <1>   0.1500 
 36 H       -8.5040     1.7770    -1.6330 H     1 <1>   0.1500 
 37 H       -8.3830     0.6890     2.4770 H     1 <1>   0.1500 
 38 H       -4.0710     7.2550    -2.0340 H     1 <1>   0.1500 
 39 H       -9.6190     0.8640     0.3610 H     1 <1>   0.1500 
 40 H        0.4220     4.6980     2.0760 H     1 <1>   0.0800 
 41 H       -0.7630     5.9880     1.9430 H     1 <1>   0.0800 
 42 H       -1.3240     4.8520    -0.2250 H     1 <1>   0.4500 
 43 H        0.7480     3.2260     0.5270 H     1 <1>   0.0800 
 44 H        1.3270     4.1450    -0.8440 H     1 <1>   0.0800 
 45 H        1.1920     6.4080    -0.1070 H     1 <1>   0.0800 
 46 H       -0.4050     7.0940     0.0840 H     1 <1>   0.0800 
 47 H       -1.2520     2.5570    -0.7080 H     1 <1>   0.0800 
 48 H        0.1760     2.1280    -1.5970 H     1 <1>   0.0800 
 49 H       -0.7500     3.5150    -2.0950 H     1 <1>   0.0800 
 50 H        0.5980     5.6640    -2.3950 H     1 <1>   0.0800 
 51 H        0.3040     7.3650    -2.2100 H     1 <1>   0.0800 
 52 H       -1.0390     6.2630    -2.1650 H     1 <1>   0.0800 
@<TRIPOS>BOND
  1   1   2  1   
  2   1   3  1   
  3   2   4  1   
  4   2   5  1   
  5   2   6  1   
  6   3  25  1   
  7   3  26  1   
  8   3  27  1   
  9   4   7  ar  
 10   4   8  ar  
 11   5   9  ar  
 12   5  10  ar  
 13   6  11  1   
 14   6  28  1   
 15   6  29  1   
 16   7  12  ar  
 17   7  30  1   
 18   8  13  ar  
 19   8  31  1   
 20   9  14  ar  
 21   9  32  1   
 22  10  15  ar  
 23  10  33  1   
 24  11  16  3   
 25  12  17  ar  
 26  12  34  1   
 27  13  17  ar  
 28  13  35  1   
 29  14  18  ar  
 30  14  36  1   
 31  15  18  ar  
 32  15  37  1   
 33  16  19  1   
 34  17  38  1   
 35  18  39  1   
 36  19  20  1   
 37  19  40  1   
 38  19  41  1   
 39  20  21  1   
 40  20  22  1   
 41  20  42  1   
 42  21  23  1   
 43  21  43  1   
 44  21  44  1   
 45  22  24  1   
 46  22  45  1   
 47  22  46  1   
 48  23  47  1   
 49  23  48  1   
 50  23  49  1   
 51  24  50  1   
 52  24  51  1   
 53  24  52  1   
@<TRIPOS>SUBSTRUCTURE
  1 ****   4 GROUP 4 **** **** 0

# MOE 2024.06 (io_trps.svl 2023.06)
