@<TRIPOS>MOLECULE
NONAME
34 35 1 0 0 
SMALL
USER_CHARGES


@<TRIPOS>ATOM
  1 O       -2.1140    -0.2110    -1.4890 O.2   1 <1>  -0.5200 
  2 N       -2.2530    -0.5490    -0.3080 N.pl3 1 <1>   0.8000 
  3 O       -2.4310     0.2630     0.6070 O.2   1 <1>  -0.5200 
  4 C       -2.1060    -1.9740     0.0400 C.3   1 <1>   0.0800 
  5 C       -0.6870    -2.3100     0.5540 C.3   1 <1>  -0.0800 
  6 C        0.4020    -2.0560    -0.5420 C.3   1 <1>   0.0420 
  7 C       -0.7010    -3.7400     1.1260 C.3   1 <1>  -0.2400 
  8 C        1.4000    -3.1720    -0.7680 C.2   1 <1>   0.5690 
  9 C        1.4110    -0.9890    -0.1360 C.2   1 <1>   0.3280 
 10 O        1.0990    -4.2350    -1.2610 O.2   1 <1>  -0.5700 
 11 N        2.6460    -2.7320    -0.3800 N.am  1 <1>  -0.1150 
 12 N        2.6000    -1.3940    -0.0380 N.2   1 <1>  -0.5120 
 13 C        0.9730     0.4420     0.1010 C.3   1 <1>  -0.1790 
 14 C        3.8550    -3.4690    -0.3680 C.ar  1 <1>   0.1170 
 15 C        3.8690    -4.8400    -0.1170 C.ar  1 <1>  -0.1500 
 16 C        5.0730    -2.8350    -0.6000 C.ar  1 <1>  -0.1500 
 17 C        5.0560    -5.5510    -0.1020 C.ar  1 <1>  -0.1500 
 18 C        6.2630    -3.5410    -0.5860 C.ar  1 <1>  -0.1500 
 19 C        6.2550    -4.9020    -0.3380 C.ar  1 <1>  -0.1500 
 20 H       -2.3360    -2.5610    -0.8310 H     1 <1>   0.0800 
 21 H       -2.8340    -2.1950     0.7980 H     1 <1>   0.0800 
 22 H       -0.4880    -1.6660     1.3950 H     1 <1>   0.0800 
 23 H       -0.0240    -1.8060    -1.4950 H     1 <1>   0.0800 
 24 H       -0.9380    -4.4630     0.3640 H     1 <1>   0.0800 
 25 H       -1.4340    -3.8260     1.9090 H     1 <1>   0.0800 
 26 H        0.2560    -3.9900     1.5520 H     1 <1>   0.0800 
 27 H        1.8360     1.0600     0.2760 H     1 <1>   0.0800 
 28 H        0.4540     0.8190    -0.7610 H     1 <1>   0.0800 
 29 H        0.3320     0.5090     0.9600 H     1 <1>   0.0800 
 30 H        2.9470    -5.3590     0.0690 H     1 <1>   0.1500 
 31 H        5.0860    -1.7770    -0.7940 H     1 <1>   0.1500 
 32 H        5.0460    -6.6090     0.0910 H     1 <1>   0.1500 
 33 H        7.1930    -3.0320    -0.7690 H     1 <1>   0.1500 
 34 H        7.1790    -5.4540    -0.3270 H     1 <1>   0.1500 
@<TRIPOS>BOND
  1   1   2  2   
  2   2   3  2   
  3   2   4  1   
  4   4   5  1   
  5   4  20  1   
  6   4  21  1   
  7   5   6  1   
  8   5   7  1   
  9   5  22  1   
 10   6   8  1   
 11   6   9  1   
 12   6  23  1   
 13   7  24  1   
 14   7  25  1   
 15   7  26  1   
 16   8  10  2   
 17   8  11  am  
 18   9  12  2   
 19   9  13  1   
 20  11  12  1   
 21  11  14  1   
 22  13  27  1   
 23  13  28  1   
 24  13  29  1   
 25  14  15  ar  
 26  14  16  ar  
 27  15  17  ar  
 28  15  30  1   
 29  16  18  ar  
 30  16  31  1   
 31  17  19  ar  
 32  17  32  1   
 33  18  19  ar  
 34  18  33  1   
 35  19  34  1   
@<TRIPOS>SUBSTRUCTURE
  1 ****   8 GROUP 4 **** **** 0

# MOE 2024.06 (io_trps.svl 2023.06)
