@<TRIPOS>MOLECULE
NONAME
30 31 1 0 0 
SMALL
USER_CHARGES


@<TRIPOS>ATOM
  1 S        0.0640     0.2070     0.5420 S.o2  1 <1>   1.5000 
  2 O        0.0080    -1.0480    -0.1780 O.2   1 <1>  -0.6500 
  3 O        0.1430     0.1610     1.9880 O.2   1 <1>  -0.6500 
  4 N       -1.3330     1.0970     0.1410 N.am  1 <1>  -0.8490 
  5 C        1.4190     1.1740    -0.1720 C.2   1 <1>  -0.0220 
  6 C       -1.6600     2.1710     1.1050 C.3   1 <1>   0.2760 
  7 C       -2.4700     0.1780    -0.0400 C.3   1 <1>   0.1960 
  8 S        2.8980     1.3660     0.7680 S.3   1 <1>  -0.0800 
  9 C        1.5620     1.8040    -1.3580 C.2   1 <1>  -0.1500 
 10 C       -2.9160     2.9370     0.6520 C.3   1 <1>  -0.1600 
 11 C       -0.5260     3.1950     1.2370 C.3   1 <1>  -0.2400 
 12 C       -3.7220     0.9080    -0.5280 C.3   1 <1>  -0.1600 
 13 C        3.6550     2.3170    -0.4960 C.2   1 <1>  -0.1100 
 14 C        2.8230     2.4550    -1.5430 C.2   1 <1>  -0.1500 
 15 C       -4.1190     2.0170     0.4420 C.3   1 <1>  -0.1600 
 16 H       -1.8540     1.7350     2.0730 H     1 <1>   0.0800 
 17 H       -2.6790    -0.3270     0.8890 H     1 <1>   0.0800 
 18 H       -2.2270    -0.5680    -0.7780 H     1 <1>   0.0800 
 19 H        0.8070     1.8350    -2.1250 H     1 <1>   0.1500 
 20 H       -2.7000     3.4540    -0.2670 H     1 <1>   0.0800 
 21 H       -3.1720     3.6760     1.3900 H     1 <1>   0.0800 
 22 H       -0.2230     3.5540     0.2690 H     1 <1>   0.0800 
 23 H        0.3180     2.7830     1.7570 H     1 <1>   0.0800 
 24 H       -0.8600     4.0360     1.8170 H     1 <1>   0.0800 
 25 H       -4.5300     0.2040    -0.6240 H     1 <1>   0.0800 
 26 H       -3.5270     1.3210    -1.5030 H     1 <1>   0.0800 
 27 H        4.6540     2.6740    -0.3180 H     1 <1>   0.1500 
 28 H        3.0420     2.9920    -2.4500 H     1 <1>   0.1500 
 29 H       -4.9490     2.5770     0.0450 H     1 <1>   0.0800 
 30 H       -4.4180     1.5890     1.3840 H     1 <1>   0.0800 
@<TRIPOS>BOND
  1   1   2  2   
  2   1   3  2   
  3   1   4  am  
  4   1   5  1   
  5   4   6  1   
  6   4   7  1   
  7   5   8  1   
  8   5   9  2   
  9   6  10  1   
 10   6  11  1   
 11   6  16  1   
 12   7  12  1   
 13   7  17  1   
 14   7  18  1   
 15   8  13  1   
 16   9  14  1   
 17   9  19  1   
 18  10  15  1   
 19  10  20  1   
 20  10  21  1   
 21  11  22  1   
 22  11  23  1   
 23  11  24  1   
 24  12  15  1   
 25  12  25  1   
 26  12  26  1   
 27  13  14  2   
 28  13  27  1   
 29  14  28  1   
 30  15  29  1   
 31  15  30  1   
@<TRIPOS>SUBSTRUCTURE
  1 ****   4 GROUP 4 **** **** 0

# MOE 2024.06 (io_trps.svl 2023.06)
