@<TRIPOS>MOLECULE
NONAME
47 48 1 0 0 
SMALL
USER_CHARGES


@<TRIPOS>ATOM
  1 CL       0.0070     0.9700     0.2990 Cl    1 <1>  -0.1770 
  2 C       -1.6560     1.4870     0.1810 C.ar  1 <1>   0.1770 
  3 C       -2.6680     0.5720     0.4070 C.ar  1 <1>  -0.1500 
  4 C       -1.9360     2.8030    -0.1370 C.ar  1 <1>  -0.1500 
  5 C       -3.9890     0.9790     0.3150 C.ar  1 <1>  -0.1500 
  6 C       -3.2570     3.2080    -0.2290 C.ar  1 <1>  -0.1500 
  7 C       -4.2870     2.3040    -0.0050 C.ar  1 <1>   0.0830 
  8 O       -5.5500     2.7870    -0.1160 O.3   1 <1>  -0.3630 
  9 C       -6.6710     1.9660     0.0920 C.3   1 <1>   0.1200 
 10 C       -7.9090     2.8400    -0.1090 C.3   1 <1>  -0.1600 
 11 C       -9.1870     2.0340     0.1140 C.3   1 <1>   0.3430 
 12 N      -10.3850     2.8630    -0.1980 N.4   1 <1>  -0.9590 
 13 C      -10.6140     3.9400     0.8130 C.3   1 <1>   0.3430 
 14 C      -11.5920     2.0020    -0.3580 C.3   1 <1>   0.3430 
 15 C      -11.7640     4.8350     0.3550 C.3   1 <1>  -0.1600 
 16 C      -12.7650     2.8490    -0.8470 C.3   1 <1>  -0.1600 
 17 C      -13.0540     4.0340     0.0940 C.3   1 <1>  -0.0190 
 18 C      -14.1460     4.9340    -0.4780 C.2   1 <1>   0.6590 
 19 O      -14.0140     5.4690    -1.5470 O.2   1 <1>  -0.5700 
 20 O      -15.2270     5.0820     0.2710 O.3   1 <1>  -0.4300 
 21 C      -16.3050     5.8890    -0.1470 C.3   1 <1>   0.1200 
 22 C      -17.3770     5.8450     0.9360 C.3   1 <1>  -0.2400 
 23 H       -2.4180    -0.4450     0.6530 H     1 <1>   0.1500 
 24 H       -1.1320     3.4950    -0.3090 H     1 <1>   0.1500 
 25 H       -4.7590     0.2550     0.4940 H     1 <1>   0.1500 
 26 H       -3.4950     4.2270    -0.4760 H     1 <1>   0.1500 
 27 H       -6.6230     1.5790     1.0960 H     1 <1>   0.0800 
 28 H       -6.6370     1.1620    -0.6250 H     1 <1>   0.0800 
 29 H       -7.8920     3.2230    -1.1140 H     1 <1>   0.0800 
 30 H       -7.8550     3.6560     0.5880 H     1 <1>   0.0800 
 31 H       -9.2320     1.6860     1.1340 H     1 <1>   0.0800 
 32 H       -9.1690     1.1730    -0.5350 H     1 <1>   0.0800 
 33 H      -10.2220     3.3260    -1.1040 H     1 <1>   0.4500 
 34 H       -9.7270     4.5410     0.9280 H     1 <1>   0.0800 
 35 H      -10.8530     3.5020     1.7680 H     1 <1>   0.0800 
 36 H      -11.8440     1.5440     0.5850 H     1 <1>   0.0800 
 37 H      -11.3960     1.2190    -1.0740 H     1 <1>   0.0800 
 38 H      -11.4690     5.3600    -0.5380 H     1 <1>   0.0800 
 39 H      -11.9540     5.5770     1.1120 H     1 <1>   0.0800 
 40 H      -13.6420     2.2290    -0.9160 H     1 <1>   0.0800 
 41 H      -12.5510     3.2090    -1.8390 H     1 <1>   0.0800 
 42 H      -13.4100     3.6450     1.0330 H     1 <1>   0.0800 
 43 H      -16.6810     5.5020    -1.0800 H     1 <1>   0.0800 
 44 H      -15.9440     6.8940    -0.2940 H     1 <1>   0.0800 
 45 H      -17.7230     4.8360     1.0770 H     1 <1>   0.0800 
 46 H      -18.2130     6.4530     0.6410 H     1 <1>   0.0800 
 47 H      -16.9870     6.2260     1.8620 H     1 <1>   0.0800 
@<TRIPOS>BOND
  1   1   2  1   
  2   2   3  ar  
  3   2   4  ar  
  4   3   5  ar  
  5   3  23  1   
  6   4   6  ar  
  7   4  24  1   
  8   5   7  ar  
  9   5  25  1   
 10   6   7  ar  
 11   6  26  1   
 12   7   8  1   
 13   8   9  1   
 14   9  10  1   
 15   9  27  1   
 16   9  28  1   
 17  10  11  1   
 18  10  29  1   
 19  10  30  1   
 20  11  12  1   
 21  11  31  1   
 22  11  32  1   
 23  12  13  1   
 24  12  14  1   
 25  12  33  1   
 26  13  15  1   
 27  13  34  1   
 28  13  35  1   
 29  14  16  1   
 30  14  36  1   
 31  14  37  1   
 32  15  17  1   
 33  15  38  1   
 34  15  39  1   
 35  16  17  1   
 36  16  40  1   
 37  16  41  1   
 38  17  18  1   
 39  17  42  1   
 40  18  19  2   
 41  18  20  1   
 42  20  21  1   
 43  21  22  1   
 44  21  43  1   
 45  21  44  1   
 46  22  45  1   
 47  22  46  1   
 48  22  47  1   
@<TRIPOS>SUBSTRUCTURE
  1 ****  10 GROUP 4 **** **** 0

# MOE 2024.06 (io_trps.svl 2023.06)
