@<TRIPOS>MOLECULE
NONAME
43 45 1 0 0 
SMALL
USER_CHARGES


@<TRIPOS>ATOM
  1 CL       0.6480    -1.0650     0.4530 Cl    1 <1>  -0.1770 
  2 C        2.2920    -0.5810     0.1310 C.ar  1 <1>   0.1770 
  3 C        2.9730     0.1810     1.0600 C.ar  1 <1>  -0.1500 
  4 C        2.8960    -0.9640    -1.0510 C.ar  1 <1>  -0.1500 
  5 C        4.2770     0.5630     0.7980 C.ar  1 <1>  -0.1500 
  6 C        4.2010    -0.5770    -1.3010 C.ar  1 <1>  -0.1500 
  7 C        4.9250     0.1950    -0.3870 C.ar  1 <1>   0.0540 
  8 C        6.2960     0.5950    -0.6620 C.2   1 <1>   0.4620 
  9 N        6.9690     0.2950    -1.7160 N.2   1 <1>  -0.4100 
 10 N        7.0150     1.3390     0.1850 N.2   1 <1>  -0.5650 
 11 O        8.1440     0.8270    -1.6040 O.3   1 <1>  -0.0190 
 12 C        8.1090     1.4360    -0.4470 C.2   1 <1>   0.2980 
 13 C        9.3440     2.1770     0.0220 C.3   1 <1>   0.0200 
 14 C       10.4770     1.2030     0.3700 C.3   1 <1>  -0.0990 
 15 C       11.7280     1.9550     0.7600 C.2   1 <1>   0.5690 
 16 O       11.7060     2.6380     1.7540 O.2   1 <1>  -0.5700 
 17 N       12.8250     1.8460    -0.0270 N.am  1 <1>  -0.7300 
 18 C       14.1110     2.5190     0.2180 C.3   1 <1>   0.2200 
 19 C       14.4190     3.4440    -0.9630 C.3   1 <1>  -0.1600 
 20 C       15.2000     1.4560     0.3930 C.3   1 <1>  -0.1600 
 21 C       15.8030     4.0930    -0.8130 C.3   1 <1>  -0.1600 
 22 C       16.5860     2.1010     0.5450 C.3   1 <1>  -0.1600 
 23 C       16.8980     3.0310    -0.6350 C.3   1 <1>  -0.1600 
 24 H        2.4850     0.4700     1.9730 H     1 <1>   0.1500 
 25 H        2.3490    -1.5580    -1.7610 H     1 <1>   0.1500 
 26 H        4.8040     1.1570     1.5250 H     1 <1>   0.1500 
 27 H        4.6680    -0.8780    -2.2240 H     1 <1>   0.1500 
 28 H        9.0950     2.7620     0.8910 H     1 <1>   0.0800 
 29 H        9.6620     2.8520    -0.7530 H     1 <1>   0.0800 
 30 H       10.6840     0.5640    -0.4690 H     1 <1>   0.0800 
 31 H       10.1780     0.5860     1.1970 H     1 <1>   0.0800 
 32 H       12.8090     1.2500    -0.8530 H     1 <1>   0.3700 
 33 H       14.0480     3.1080     1.1200 H     1 <1>   0.0800 
 34 H       13.6710     4.2150    -1.0140 H     1 <1>   0.0800 
 35 H       14.3960     2.8820    -1.8790 H     1 <1>   0.0800 
 36 H       15.2110     0.8040    -0.4640 H     1 <1>   0.0800 
 37 H       14.9850     0.8680     1.2680 H     1 <1>   0.0800 
 38 H       15.7990     4.7460     0.0440 H     1 <1>   0.0800 
 39 H       16.0190     4.6920    -1.6820 H     1 <1>   0.0800 
 40 H       17.3370     1.3330     0.6080 H     1 <1>   0.0800 
 41 H       16.6160     2.6660     1.4610 H     1 <1>   0.0800 
 42 H       17.8450     3.5150    -0.4710 H     1 <1>   0.0800 
 43 H       16.9790     2.4490    -1.5370 H     1 <1>   0.0800 
@<TRIPOS>BOND
  1   1   2  1   
  2   2   3  ar  
  3   2   4  ar  
  4   3   5  ar  
  5   3  24  1   
  6   4   6  ar  
  7   4  25  1   
  8   5   7  ar  
  9   5  26  1   
 10   6   7  ar  
 11   6  27  1   
 12   7   8  1   
 13   8   9  2   
 14   8  10  1   
 15   9  11  1   
 16  10  12  2   
 17  11  12  1   
 18  12  13  1   
 19  13  14  1   
 20  13  28  1   
 21  13  29  1   
 22  14  15  1   
 23  14  30  1   
 24  14  31  1   
 25  15  16  2   
 26  15  17  am  
 27  17  18  1   
 28  17  32  1   
 29  18  19  1   
 30  18  20  1   
 31  18  33  1   
 32  19  21  1   
 33  19  34  1   
 34  19  35  1   
 35  20  22  1   
 36  20  36  1   
 37  20  37  1   
 38  21  23  1   
 39  21  38  1   
 40  21  39  1   
 41  22  23  1   
 42  22  40  1   
 43  22  41  1   
 44  23  42  1   
 45  23  43  1   
@<TRIPOS>SUBSTRUCTURE
  1 ****  13 GROUP 4 **** **** 0

# MOE 2024.06 (io_trps.svl 2023.06)
