@<TRIPOS>MOLECULE
NONAME
46 46 1 0 0 
SMALL
USER_CHARGES


@<TRIPOS>ATOM
  1 O       -1.6010     0.4380     0.5900 O.3   1 <1>  -0.3630 
  2 C       -0.9880     1.5910     0.2040 C.ar  1 <1>   0.0830 
  3 C       -0.8380    -0.6720     1.0290 C.3   1 <1>   0.0400 
  4 C       -1.7670     2.5500    -0.4390 C.ar  1 <1>  -0.1440 
  5 C        0.3610     1.8450     0.4330 C.ar  1 <1>  -0.1500 
  6 C       -1.1960     3.7450    -0.8490 C.ar  1 <1>  -0.1500 
  7 C       -3.2350     2.2850    -0.6920 C.3   1 <1>   0.4870 
  8 C        0.9220     3.0410     0.0240 C.ar  1 <1>  -0.1500 
  9 C        0.1460     3.9890    -0.6160 C.ar  1 <1>  -0.1500 
 10 N       -3.9010     2.0830     0.6310 N.4   1 <1>  -0.9590 
 11 C       -5.2160     1.3530     0.5790 C.3   1 <1>   0.3430 
 12 C       -3.8830     3.3290     1.4690 C.3   1 <1>   0.2630 
 13 C       -6.3840     2.1350    -0.0870 C.3   1 <1>   0.3430 
 14 N       -7.7230     1.4340    -0.0540 N.4   1 <1>  -0.9590 
 15 C       -7.7610     0.1630    -0.8410 C.3   1 <1>   0.3430 
 16 C       -8.7920     2.3630    -0.5300 C.3   1 <1>   0.3430 
 17 C       -7.6250    -1.0150     0.1140 C.3   1 <1>  -0.2400 
 18 C      -10.1430     1.8960     0.0000 C.3   1 <1>  -0.2400 
 19 H       -0.3490    -0.4220     1.9540 H     1 <1>   0.0800 
 20 H       -0.1150    -0.9240     0.2730 H     1 <1>   0.0800 
 21 H       -1.5020    -1.5040     1.1850 H     1 <1>   0.0800 
 22 H        0.9950     1.1330     0.9290 H     1 <1>   0.1500 
 23 H       -1.7750     4.4990    -1.3560 H     1 <1>   0.1500 
 24 H       -3.3210     1.3940    -1.2930 H     1 <1>   0.0800 
 25 H       -3.6770     3.1120    -1.2230 H     1 <1>   0.0800 
 26 H        1.9670     3.2350     0.2010 H     1 <1>   0.1500 
 27 H        0.5920     4.9170    -0.9360 H     1 <1>   0.1500 
 28 H       -3.2140     1.4390     1.0820 H     1 <1>   0.4500 
 29 H       -5.5050     1.1060     1.5870 H     1 <1>   0.0800 
 30 H       -5.0710     0.4280     0.0440 H     1 <1>   0.0800 
 31 H       -4.4880     4.1010     1.0240 H     1 <1>   0.0800 
 32 H       -2.8730     3.7000     1.5600 H     1 <1>   0.0800 
 33 H       -4.2510     3.1210     2.4610 H     1 <1>   0.0800 
 34 H       -6.1250     2.3380    -1.1130 H     1 <1>   0.0800 
 35 H       -6.4830     3.0800     0.4220 H     1 <1>   0.0800 
 36 H       -7.9840     1.1990     0.9160 H     1 <1>   0.4500 
 37 H       -6.9770     0.1460    -1.5810 H     1 <1>   0.0800 
 38 H       -8.7040     0.0750    -1.3600 H     1 <1>   0.0800 
 39 H       -8.8080     2.4010    -1.6090 H     1 <1>   0.0800 
 40 H       -8.6070     3.3600    -0.1610 H     1 <1>   0.0800 
 41 H       -6.6850    -1.0140     0.6330 H     1 <1>   0.0800 
 42 H       -7.6840    -1.9300    -0.4510 H     1 <1>   0.0800 
 43 H       -8.4330    -1.0240     0.8250 H     1 <1>   0.0800 
 44 H      -10.4130     0.9300    -0.3870 H     1 <1>   0.0800 
 45 H      -10.9020     2.5920    -0.3130 H     1 <1>   0.0800 
 46 H      -10.1480     1.8700     1.0750 H     1 <1>   0.0800 
@<TRIPOS>BOND
  1   1   2  1   
  2   1   3  1   
  3   2   4  ar  
  4   2   5  ar  
  5   3  19  1   
  6   3  20  1   
  7   3  21  1   
  8   4   6  ar  
  9   4   7  1   
 10   5   8  ar  
 11   5  22  1   
 12   6   9  ar  
 13   6  23  1   
 14   7  10  1   
 15   7  24  1   
 16   7  25  1   
 17   8   9  ar  
 18   8  26  1   
 19   9  27  1   
 20  10  11  1   
 21  10  12  1   
 22  10  28  1   
 23  11  13  1   
 24  11  29  1   
 25  11  30  1   
 26  12  31  1   
 27  12  32  1   
 28  12  33  1   
 29  13  14  1   
 30  13  34  1   
 31  13  35  1   
 32  14  15  1   
 33  14  16  1   
 34  14  36  1   
 35  15  17  1   
 36  15  37  1   
 37  15  38  1   
 38  16  18  1   
 39  16  39  1   
 40  16  40  1   
 41  17  41  1   
 42  17  42  1   
 43  17  43  1   
 44  18  44  1   
 45  18  45  1   
 46  18  46  1   
@<TRIPOS>SUBSTRUCTURE
  1 ****  10 GROUP 4 **** **** 0

# MOE 2024.06 (io_trps.svl 2023.06)
