@<TRIPOS>MOLECULE
NONAME
40 41 1 0 0 
SMALL
USER_CHARGES


@<TRIPOS>ATOM
  1 F       -2.2310     1.1720    -2.9580 F     1 <1>  -0.1900 
  2 C       -2.5410     1.3970    -1.7080 C.ar  1 <1>   0.1900 
  3 C       -1.8420     2.3340    -0.9670 C.ar  1 <1>   0.1900 
  4 C       -3.5820     0.6800    -1.1460 C.ar  1 <1>  -0.1500 
  5 F       -0.8610     3.0100    -1.5060 F     1 <1>  -0.1900 
  6 C       -2.1710     2.5720     0.3540 C.ar  1 <1>  -0.1500 
  7 C       -3.9280     0.9170     0.1810 C.ar  1 <1>  -0.1440 
  8 C       -3.2170     1.8590     0.9240 C.ar  1 <1>  -0.1500 
  9 C       -5.0760     0.1510     0.8170 C.3   1 <1>   0.4870 
 10 N       -6.3630     0.6420     0.2480 N.4   1 <1>  -0.9590 
 11 C       -6.6090     2.0760     0.5800 C.3   1 <1>   0.3430 
 12 C       -7.5010    -0.2290     0.6520 C.3   1 <1>   0.3430 
 13 C       -7.8510     2.5640    -0.1630 C.3   1 <1>  -0.1600 
 14 C       -8.7630     0.2060    -0.0910 C.3   1 <1>  -0.1600 
 15 C       -9.0870     1.6950     0.1380 C.3   1 <1>  -0.0190 
 16 C      -10.2780     2.1320    -0.7100 C.2   1 <1>   0.6590 
 17 O      -10.2540     2.0390    -1.9090 O.2   1 <1>  -0.5700 
 18 O      -11.3170     2.6140    -0.0470 O.3   1 <1>  -0.4300 
 19 C      -12.4760     3.0530    -0.7190 C.3   1 <1>   0.1200 
 20 C      -13.4720     3.5430     0.3280 C.3   1 <1>  -0.2400 
 21 H       -4.0930    -0.0470    -1.7540 H     1 <1>   0.1500 
 22 H       -1.6150     3.3010     0.9200 H     1 <1>   0.1500 
 23 H       -3.4640     2.0480     1.9560 H     1 <1>   0.1500 
 24 H       -5.0640     0.2890     1.8860 H     1 <1>   0.0800 
 25 H       -4.9560    -0.9000     0.6090 H     1 <1>   0.0800 
 26 H       -6.2730     0.5900    -0.7750 H     1 <1>   0.4500 
 27 H       -5.7620     2.6780     0.2870 H     1 <1>   0.0800 
 28 H       -6.7540     2.1890     1.6430 H     1 <1>   0.0800 
 29 H       -7.6640    -0.1530     1.7160 H     1 <1>   0.0800 
 30 H       -7.2860    -1.2590     0.4140 H     1 <1>   0.0800 
 31 H       -7.6500     2.5660    -1.2210 H     1 <1>   0.0800 
 32 H       -8.0530     3.5820     0.1230 H     1 <1>   0.0800 
 33 H       -9.5920    -0.3930     0.2440 H     1 <1>   0.0800 
 34 H       -8.6370     0.0140    -1.1430 H     1 <1>   0.0800 
 35 H       -9.3560     1.8300     1.1720 H     1 <1>   0.0800 
 36 H      -12.8810     2.2270    -1.2800 H     1 <1>   0.0800 
 37 H      -12.2020     3.8470    -1.3930 H     1 <1>   0.0800 
 38 H      -13.7310     2.7440     0.9980 H     1 <1>   0.0800 
 39 H      -14.3680     3.8850    -0.1580 H     1 <1>   0.0800 
 40 H      -13.0530     4.3620     0.8850 H     1 <1>   0.0800 
@<TRIPOS>BOND
  1   1   2  1   
  2   2   3  ar  
  3   2   4  ar  
  4   3   5  1   
  5   3   6  ar  
  6   4   7  ar  
  7   4  21  1   
  8   6   8  ar  
  9   6  22  1   
 10   7   8  ar  
 11   7   9  1   
 12   8  23  1   
 13   9  10  1   
 14   9  24  1   
 15   9  25  1   
 16  10  11  1   
 17  10  12  1   
 18  10  26  1   
 19  11  13  1   
 20  11  27  1   
 21  11  28  1   
 22  12  14  1   
 23  12  29  1   
 24  12  30  1   
 25  13  15  1   
 26  13  31  1   
 27  13  32  1   
 28  14  15  1   
 29  14  33  1   
 30  14  34  1   
 31  15  16  1   
 32  15  35  1   
 33  16  17  2   
 34  16  18  1   
 35  18  19  1   
 36  19  20  1   
 37  19  36  1   
 38  19  37  1   
 39  20  38  1   
 40  20  39  1   
 41  20  40  1   
@<TRIPOS>SUBSTRUCTURE
  1 ****  11 GROUP 4 **** **** 0

# MOE 2024.06 (io_trps.svl 2023.06)
