@<TRIPOS>MOLECULE
NONAME
33 33 1 0 0 
SMALL
USER_CHARGES


@<TRIPOS>ATOM
  1 CL      -0.6380     0.6500     3.0240 Cl    1 <1>  -0.1770 
  2 C       -1.3900     1.8350     1.9860 C.ar  1 <1>   0.1770 
  3 C       -2.0540     1.4170     0.8510 C.ar  1 <1>  -0.1500 
  4 C       -1.3050     3.1730     2.3210 C.ar  1 <1>  -0.1500 
  5 C       -2.6560     2.3540     0.0230 C.ar  1 <1>   0.1990 
  6 C       -1.9000     4.1180     1.5010 C.ar  1 <1>  -0.1500 
  7 N       -3.3330     1.9620    -1.1270 N.am  1 <1>  -0.7570 
  8 C       -2.5760     3.7140     0.3520 C.ar  1 <1>   0.0830 
  9 S       -4.6400     0.8540    -1.1730 S.o2  1 <1>   1.3330 
 10 O       -3.1920     4.5950    -0.4950 O.3   1 <1>  -0.3630 
 11 O       -5.1480     0.9450    -2.5190 O.2   1 <1>  -0.6500 
 12 O       -4.1780    -0.3950    -0.6190 O.2   1 <1>  -0.6500 
 13 C       -5.8140     1.6180    -0.0500 C.3   1 <1>  -0.0550 
 14 C       -3.0460     5.9900    -0.3290 C.3   1 <1>   0.0400 
 15 C       -7.1420     0.8520     0.0710 C.3   1 <1>  -0.1600 
 16 C       -8.1000     1.5510     1.0430 C.3   1 <1>  -0.1600 
 17 C       -9.4180     0.7820     1.1580 C.3   1 <1>  -0.2400 
 18 H       -2.0940     0.3700     0.6110 H     1 <1>   0.1500 
 19 H       -0.7800     3.4660     3.2130 H     1 <1>   0.1500 
 20 H       -1.8250     5.1530     1.7770 H     1 <1>   0.1500 
 21 H       -3.4970     2.7100    -1.7980 H     1 <1>   0.4200 
 22 H       -6.0200     2.6150    -0.3880 H     1 <1>   0.0800 
 23 H       -5.3680     1.6880     0.9230 H     1 <1>   0.0800 
 24 H       -3.5620     6.4790    -1.1360 H     1 <1>   0.0800 
 25 H       -2.0000     6.2390    -0.3630 H     1 <1>   0.0800 
 26 H       -3.4830     6.2800     0.6100 H     1 <1>   0.0800 
 27 H       -6.9410    -0.1490     0.4160 H     1 <1>   0.0800 
 28 H       -7.5990     0.7820    -0.9020 H     1 <1>   0.0800 
 29 H       -8.3040     2.5500     0.6980 H     1 <1>   0.0800 
 30 H       -7.6450     1.6180     2.0170 H     1 <1>   0.0800 
 31 H       -9.9040     0.7190     0.2000 H     1 <1>   0.0800 
 32 H      -10.0790     1.2840     1.8430 H     1 <1>   0.0800 
 33 H       -9.2430    -0.2150     1.5230 H     1 <1>   0.0800 
@<TRIPOS>BOND
  1   1   2  1   
  2   2   3  ar  
  3   2   4  ar  
  4   3   5  ar  
  5   3  18  1   
  6   4   6  ar  
  7   4  19  1   
  8   5   7  1   
  9   5   8  ar  
 10   6   8  ar  
 11   6  20  1   
 12   7   9  am  
 13   7  21  1   
 14   8  10  1   
 15   9  11  2   
 16   9  12  2   
 17   9  13  1   
 18  10  14  1   
 19  13  15  1   
 20  13  22  1   
 21  13  23  1   
 22  14  24  1   
 23  14  25  1   
 24  14  26  1   
 25  15  16  1   
 26  15  27  1   
 27  15  28  1   
 28  16  17  1   
 29  16  29  1   
 30  16  30  1   
 31  17  31  1   
 32  17  32  1   
 33  17  33  1   
@<TRIPOS>SUBSTRUCTURE
  1 ****   5 GROUP 4 **** **** 0

# MOE 2024.06 (io_trps.svl 2023.06)
