@<TRIPOS>MOLECULE
NONAME
44 46 1 0 0 
SMALL
USER_CHARGES


@<TRIPOS>ATOM
  1 CL       0.3050     0.5950    -1.5520 Cl    1 <1>  -0.1770 
  2 C        1.8430     1.0920    -0.8930 C.ar  1 <1>   0.1770 
  3 C        2.9450     0.2810    -1.0650 C.ar  1 <1>  -0.1500 
  4 C        1.9290     2.2910    -0.2110 C.ar  1 <1>  -0.1500 
  5 C        4.1760     0.6610    -0.5430 C.ar  1 <1>   0.1000 
  6 C        3.1510     2.6810     0.3100 C.ar  1 <1>  -0.1500 
  7 N        5.2810    -0.1700    -0.7120 N.pl3 1 <1>  -0.8380 
  8 C        4.2620     1.8710     0.1440 C.ar  1 <1>  -0.1500 
  9 C        6.6150     0.3850    -1.0950 C.3   1 <1>   0.2090 
 10 C        5.2740    -1.5210    -0.0750 C.3   1 <1>   0.2090 
 11 C        7.6350     0.2480     0.0550 C.3   1 <1>   0.3430 
 12 C        6.3170    -1.6110     1.0590 C.3   1 <1>   0.3430 
 13 N        7.6850    -1.1500     0.6270 N.4   1 <1>  -0.9590 
 14 C        8.6860    -1.2630     1.7220 C.3   1 <1>   0.4860 
 15 C       10.0520    -0.9390     1.1530 C.ar  1 <1>  -0.1430 
 16 C       10.6520    -1.8030     0.2500 C.ar  1 <1>  -0.1500 
 17 C       10.7100     0.2280     1.5180 C.ar  1 <1>  -0.1500 
 18 C       11.8860    -1.5060    -0.3010 C.ar  1 <1>   0.0830 
 19 C       11.9470     0.5280     0.9740 C.ar  1 <1>  -0.1500 
 20 O       12.3830    -2.4050    -1.1840 O.3   1 <1>  -0.3630 
 21 C       12.5360    -0.3320     0.0650 C.ar  1 <1>  -0.1500 
 22 C       13.6690    -2.2490    -1.7440 C.3   1 <1>   0.0400 
 23 H        2.8500    -0.6390    -1.6090 H     1 <1>   0.1500 
 24 H        1.0530     2.9050    -0.0930 H     1 <1>   0.1500 
 25 H        3.2330     3.6140     0.8420 H     1 <1>   0.1500 
 26 H        5.2000     2.1850     0.5570 H     1 <1>   0.1500 
 27 H        6.5150     1.4220    -1.3690 H     1 <1>   0.0800 
 28 H        6.9770    -0.1400    -1.9620 H     1 <1>   0.0800 
 29 H        5.4820    -2.2660    -0.8240 H     1 <1>   0.0800 
 30 H        4.2960    -1.7280     0.3280 H     1 <1>   0.0800 
 31 H        7.3610     0.9430     0.8310 H     1 <1>   0.0800 
 32 H        8.6090     0.5310    -0.3110 H     1 <1>   0.0800 
 33 H        6.3640    -2.6290     1.4100 H     1 <1>   0.0800 
 34 H        5.9720    -0.9970     1.8750 H     1 <1>   0.0800 
 35 H        8.0090    -1.7620    -0.1330 H     1 <1>   0.4500 
 36 H        8.6950    -2.2660     2.1180 H     1 <1>   0.0800 
 37 H        8.4460    -0.5800     2.5210 H     1 <1>   0.0800 
 38 H       10.1840    -2.7260    -0.0450 H     1 <1>   0.1500 
 39 H       10.2760     0.9130     2.2270 H     1 <1>   0.1500 
 40 H       12.4580     1.4320     1.2600 H     1 <1>   0.1500 
 41 H       13.4960    -0.0750    -0.3440 H     1 <1>   0.1500 
 42 H       13.8610    -3.0930    -2.3830 H     1 <1>   0.0800 
 43 H       14.3960    -2.2210    -0.9510 H     1 <1>   0.0800 
 44 H       13.6930    -1.3420    -2.3210 H     1 <1>   0.0800 
@<TRIPOS>BOND
  1   1   2  1   
  2   2   3  ar  
  3   2   4  ar  
  4   3   5  ar  
  5   3  23  1   
  6   4   6  ar  
  7   4  24  1   
  8   5   7  1   
  9   5   8  ar  
 10   6   8  ar  
 11   6  25  1   
 12   7   9  1   
 13   7  10  1   
 14   8  26  1   
 15   9  11  1   
 16   9  27  1   
 17   9  28  1   
 18  10  12  1   
 19  10  29  1   
 20  10  30  1   
 21  11  13  1   
 22  11  31  1   
 23  11  32  1   
 24  12  13  1   
 25  12  33  1   
 26  12  34  1   
 27  13  14  1   
 28  13  35  1   
 29  14  15  1   
 30  14  36  1   
 31  14  37  1   
 32  15  16  ar  
 33  15  17  ar  
 34  16  18  ar  
 35  16  38  1   
 36  17  19  ar  
 37  17  39  1   
 38  18  20  1   
 39  18  21  ar  
 40  19  21  ar  
 41  19  40  1   
 42  20  22  1   
 43  21  41  1   
 44  22  42  1   
 45  22  43  1   
 46  22  44  1   
@<TRIPOS>SUBSTRUCTURE
  1 ****  11 GROUP 4 **** **** 0

# MOE 2024.06 (io_trps.svl 2023.06)
