@<TRIPOS>MOLECULE
NONAME
34 34 1 0 0 
SMALL
USER_CHARGES


@<TRIPOS>ATOM
  1 F       -1.0140     0.5020    -1.3060 F     1 <1>  -0.1900 
  2 C       -1.9270     1.0820    -0.5710 C.ar  1 <1>   0.1900 
  3 C       -1.5830     2.1930     0.1840 C.ar  1 <1>  -0.1440 
  4 C       -3.2010     0.5530    -0.5860 C.ar  1 <1>  -0.1500 
  5 C       -2.5800     2.7810     0.9470 C.ar  1 <1>  -0.1500 
  6 C       -0.1690     2.7530     0.1810 C.3   1 <1>  -0.0960 
  7 C       -4.1970     1.1420     0.1820 C.ar  1 <1>   0.1170 
  8 C       -3.8650     2.2620     0.9430 C.ar  1 <1>  -0.1500 
  9 N       -5.4880     0.5920     0.1410 N.am  1 <1>  -0.5470 
 10 C       -6.5570     0.7240     0.9850 C.2   1 <1>   0.5690 
 11 O       -6.5310     1.3640     2.0060 O.2   1 <1>  -0.5700 
 12 C       -7.8350    -0.0160     0.6260 C.3   1 <1>  -0.0990 
 13 C       -8.7890     0.7320    -0.3340 C.3   1 <1>   0.0000 
 14 C      -10.0400    -0.1320    -0.5530 C.3   1 <1>  -0.2400 
 15 C       -8.1320     0.9880    -1.6990 C.3   1 <1>  -0.2400 
 16 C       -9.2240     2.0760     0.2710 C.3   1 <1>  -0.2400 
 17 H       -3.4060    -0.3100    -1.1890 H     1 <1>   0.1500 
 18 H       -2.3640     3.6450     1.5510 H     1 <1>   0.1500 
 19 H        0.5220     2.0030     0.5260 H     1 <1>   0.0800 
 20 H       -0.0910     3.6110     0.8230 H     1 <1>   0.0800 
 21 H        0.1080     3.0440    -0.8170 H     1 <1>   0.0800 
 22 H       -4.6170     2.7440     1.5410 H     1 <1>   0.1500 
 23 H       -5.6610    -0.0160    -0.6560 H     1 <1>   0.3700 
 24 H       -8.3550    -0.2180     1.5460 H     1 <1>   0.0800 
 25 H       -7.5710    -0.9680     0.2040 H     1 <1>   0.0800 
 26 H       -9.7780    -1.0790    -0.9900 H     1 <1>   0.0800 
 27 H      -10.7330     0.3630    -1.2110 H     1 <1>   0.0800 
 28 H      -10.5410    -0.3160     0.3820 H     1 <1>   0.0800 
 29 H       -7.7880     0.0670    -2.1360 H     1 <1>   0.0800 
 30 H       -7.3000     1.6630    -1.6070 H     1 <1>   0.0800 
 31 H       -8.8390     1.4350    -2.3750 H     1 <1>   0.0800 
 32 H       -9.6790     1.9270     1.2350 H     1 <1>   0.0800 
 33 H       -9.9360     2.5680    -0.3680 H     1 <1>   0.0800 
 34 H       -8.3810     2.7320     0.3980 H     1 <1>   0.0800 
@<TRIPOS>BOND
  1   1   2  1   
  2   2   3  ar  
  3   2   4  ar  
  4   3   5  ar  
  5   3   6  1   
  6   4   7  ar  
  7   4  17  1   
  8   5   8  ar  
  9   5  18  1   
 10   6  19  1   
 11   6  20  1   
 12   6  21  1   
 13   7   8  ar  
 14   7   9  1   
 15   8  22  1   
 16   9  10  am  
 17   9  23  1   
 18  10  11  2   
 19  10  12  1   
 20  12  13  1   
 21  12  24  1   
 22  12  25  1   
 23  13  14  1   
 24  13  15  1   
 25  13  16  1   
 26  14  26  1   
 27  14  27  1   
 28  14  28  1   
 29  15  29  1   
 30  15  30  1   
 31  15  31  1   
 32  16  32  1   
 33  16  33  1   
 34  16  34  1   
@<TRIPOS>SUBSTRUCTURE
  1 ****   9 GROUP 4 **** **** 0

# MOE 2024.06 (io_trps.svl 2023.06)
