@<TRIPOS>MOLECULE
NONAME
51 52 1 0 0 
SMALL
USER_CHARGES


@<TRIPOS>ATOM
  1 CL       0.0160     0.0290    -0.0270 Cl    1 <1>  -0.1770 
  2 C        1.5060     0.9360     0.0180 C.ar  1 <1>   0.1770 
  3 C        2.2940     1.0020    -1.1140 C.ar  1 <1>  -0.1500 
  4 C        1.8760     1.5740     1.1870 C.ar  1 <1>  -0.1500 
  5 C        3.4750     1.7240    -1.0760 C.ar  1 <1>  -0.1500 
  6 C        3.0580     2.2950     1.2200 C.ar  1 <1>  -0.1500 
  7 C        3.8590     2.3760     0.0890 C.ar  1 <1>  -0.1430 
  8 C        5.1590     3.1700     0.1230 C.3   1 <1>   0.0890 
  9 S        6.6320     2.1400     0.1750 S.o2  1 <1>   1.0900 
 10 O        6.7680     1.4370    -1.0800 O.2   1 <1>  -0.6500 
 11 O        6.6650     1.4060     1.4210 O.2   1 <1>  -0.6500 
 12 C        7.9550     3.3410     0.2210 C.3   1 <1>  -0.0550 
 13 C        9.2930     2.6680     0.5210 C.3   1 <1>   0.2000 
 14 O        9.2850     2.3000     1.8580 O.3   1 <1>  -0.6800 
 15 C       10.4800     3.6070     0.2590 C.3   1 <1>   0.1200 
 16 O       11.6920     2.8910     0.3660 O.3   1 <1>  -0.3630 
 17 C       12.8890     3.4980     0.1720 C.ar  1 <1>   0.0830 
 18 C       14.0160     2.7040     0.2760 C.ar  1 <1>  -0.1500 
 19 C       13.0410     4.8480    -0.1200 C.ar  1 <1>  -0.1500 
 20 C       15.2780     3.2400     0.0900 C.ar  1 <1>  -0.1500 
 21 C       14.3060     5.3780    -0.3050 C.ar  1 <1>  -0.1500 
 22 C       15.4490     4.5910    -0.2060 C.ar  1 <1>  -0.1430 
 23 C       16.8360     5.2350    -0.4220 C.3   1 <1>   0.1430 
 24 C       17.0530     6.3470     0.6160 C.3   1 <1>  -0.2400 
 25 C       17.9980     4.2370    -0.2800 C.3   1 <1>  -0.2400 
 26 C       16.9110     5.8340    -1.8350 C.3   1 <1>  -0.2400 
 27 H        1.9880     0.4920    -2.0100 H     1 <1>   0.1500 
 28 H        1.2470     1.5030     2.0560 H     1 <1>   0.1500 
 29 H        4.0940     1.7670    -1.9570 H     1 <1>   0.1500 
 30 H        3.3470     2.7850     2.1350 H     1 <1>   0.1500 
 31 H        5.1440     3.8140     0.9810 H     1 <1>   0.0800 
 32 H        5.1900     3.7950    -0.7480 H     1 <1>   0.0800 
 33 H        7.7720     4.0890     0.9680 H     1 <1>   0.0800 
 34 H        8.0170     3.8260    -0.7340 H     1 <1>   0.0800 
 35 H        9.4060     1.7790    -0.0780 H     1 <1>   0.0800 
 36 H        8.5770     1.6330     2.0270 H     1 <1>   0.4000 
 37 H       10.4890     4.4090     0.9760 H     1 <1>   0.0800 
 38 H       10.4260     4.0040    -0.7390 H     1 <1>   0.0800 
 39 H       13.8980     1.6610     0.5050 H     1 <1>   0.1500 
 40 H       12.1940     5.5010    -0.2060 H     1 <1>   0.1500 
 41 H       16.1140     2.5750     0.1830 H     1 <1>   0.1500 
 42 H       14.3910     6.4260    -0.5300 H     1 <1>   0.1500 
 43 H       16.3240     7.1280     0.5060 H     1 <1>   0.0800 
 44 H       16.9660     5.9430     1.6090 H     1 <1>   0.0800 
 45 H       18.0300     6.7840     0.5070 H     1 <1>   0.0800 
 46 H       17.9070     3.4480    -1.0050 H     1 <1>   0.0800 
 47 H       18.0070     3.8070     0.7060 H     1 <1>   0.0800 
 48 H       18.9410     4.7270    -0.4380 H     1 <1>   0.0800 
 49 H       16.7250     5.0680    -2.5670 H     1 <1>   0.0800 
 50 H       17.8830     6.2550    -2.0180 H     1 <1>   0.0800 
 51 H       16.1810     6.6100    -1.9670 H     1 <1>   0.0800 
@<TRIPOS>BOND
  1   1   2  1   
  2   2   3  ar  
  3   2   4  ar  
  4   3   5  ar  
  5   3  27  1   
  6   4   6  ar  
  7   4  28  1   
  8   5   7  ar  
  9   5  29  1   
 10   6   7  ar  
 11   6  30  1   
 12   7   8  1   
 13   8   9  1   
 14   8  31  1   
 15   8  32  1   
 16   9  10  2   
 17   9  11  2   
 18   9  12  1   
 19  12  13  1   
 20  12  33  1   
 21  12  34  1   
 22  13  14  1   
 23  13  15  1   
 24  13  35  1   
 25  14  36  1   
 26  15  16  1   
 27  15  37  1   
 28  15  38  1   
 29  16  17  1   
 30  17  18  ar  
 31  17  19  ar  
 32  18  20  ar  
 33  18  39  1   
 34  19  21  ar  
 35  19  40  1   
 36  20  22  ar  
 37  20  41  1   
 38  21  22  ar  
 39  21  42  1   
 40  22  23  1   
 41  23  24  1   
 42  23  25  1   
 43  23  26  1   
 44  24  43  1   
 45  24  44  1   
 46  24  45  1   
 47  25  46  1   
 48  25  47  1   
 49  25  48  1   
 50  26  49  1   
 51  26  50  1   
 52  26  51  1   
@<TRIPOS>SUBSTRUCTURE
  1 ****  13 GROUP 4 **** **** 0

# MOE 2024.06 (io_trps.svl 2023.06)
