@<TRIPOS>MOLECULE
NONAME
49 50 1 0 0 
SMALL
USER_CHARGES


@<TRIPOS>ATOM
  1 S       -0.9810    -0.9580     2.8440 S.3   1 <1>  -0.0800 
  2 C        0.0690    -1.5440     1.5710 C.2   1 <1>   0.1040 
  3 C       -2.1350    -0.3260     1.6880 C.2   1 <1>  -0.1400 
  4 N        1.2510    -2.1960     1.8880 N.am  1 <1>  -0.4940 
  5 C       -0.4500    -1.2580     0.3360 C.2   1 <1>  -0.0860 
  6 C       -1.7240    -0.5620     0.4260 C.2   1 <1>  -0.1810 
  7 C       -3.3490     0.3530     2.2930 C.3   1 <1>  -0.0600 
  8 C        1.9210    -2.4380     3.0620 C.2   1 <1>   0.5690 
  9 C        0.2420    -1.6390    -0.8700 C.2   1 <1>   0.8060 
 10 C       -2.5420    -0.1420    -0.7910 C.3   1 <1>   0.0210 
 11 O        1.5300    -2.1000     4.1500 O.2   1 <1>  -0.5700 
 12 C        3.2480    -3.1760     2.9800 C.3   1 <1>   0.0440 
 13 O        1.0330    -2.5660    -0.9070 O.2   1 <1>  -0.5700 
 14 O        0.0520    -0.9420    -1.9970 O.3   1 <1>  -0.4300 
 15 C       -2.1640     1.2730    -1.2390 C.3   1 <1>  -0.2400 
 16 C        3.8360    -3.1690     1.5720 C.ar  1 <1>  -0.1430 
 17 C        0.7660    -1.2280    -3.1850 C.3   1 <1>   0.0400 
 18 C        3.6460    -4.2520     0.7270 C.ar  1 <1>  -0.1500 
 19 C        4.5320    -2.0610     1.1130 C.ar  1 <1>  -0.1500 
 20 C        4.1330    -4.2280    -0.5680 C.ar  1 <1>   0.0830 
 21 C        5.0350    -2.0360    -0.1770 C.ar  1 <1>  -0.1500 
 22 O        3.8690    -5.2960    -1.3570 O.3   1 <1>  -0.3620 
 23 C        4.8520    -3.1170    -1.0220 C.ar  1 <1>   0.0830 
 24 C        2.8730    -5.0890    -2.3330 C.3   1 <1>   0.0400 
 25 O        5.3850    -3.0310    -2.2670 O.3   1 <1>  -0.3630 
 26 C        6.3300    -4.0150    -2.6290 C.3   1 <1>   0.0400 
 27 H        1.7520    -2.5560     1.0640 H     1 <1>   0.3700 
 28 H       -3.9110    -0.3570     2.8720 H     1 <1>   0.0800 
 29 H       -3.9860     0.7630     1.5330 H     1 <1>   0.0800 
 30 H       -3.0310     1.1510     2.9400 H     1 <1>   0.0800 
 31 H       -3.5880    -0.1560    -0.5410 H     1 <1>   0.0800 
 32 H       -2.4140    -0.8420    -1.5970 H     1 <1>   0.0800 
 33 H        3.0930    -4.1850     3.3130 H     1 <1>   0.0800 
 34 H        3.9380    -2.7120     3.6610 H     1 <1>   0.0800 
 35 H       -2.3560     1.9730    -0.4460 H     1 <1>   0.0800 
 36 H       -2.7440     1.5560    -2.0990 H     1 <1>   0.0800 
 37 H       -1.1210     1.3250    -1.4930 H     1 <1>   0.0800 
 38 H        0.4650    -0.5240    -3.9410 H     1 <1>   0.0800 
 39 H        0.5350    -2.2310    -3.4990 H     1 <1>   0.0800 
 40 H        1.8210    -1.1330    -2.9900 H     1 <1>   0.0800 
 41 H        3.1050    -5.1220     1.0560 H     1 <1>   0.1500 
 42 H        4.6830    -1.2080     1.7540 H     1 <1>   0.1500 
 43 H        5.5760    -1.1780    -0.5340 H     1 <1>   0.1500 
 44 H        2.7640    -5.9950    -2.9010 H     1 <1>   0.0800 
 45 H        3.1720    -4.2810    -2.9760 H     1 <1>   0.0800 
 46 H        1.9490    -4.8490    -1.8380 H     1 <1>   0.0800 
 47 H        6.8320    -3.6870    -3.5210 H     1 <1>   0.0800 
 48 H        5.8240    -4.9440    -2.8180 H     1 <1>   0.0800 
 49 H        7.0390    -4.1300    -1.8280 H     1 <1>   0.0800 
@<TRIPOS>BOND
  1   1   2  1   
  2   1   3  1   
  3   2   4  1   
  4   2   5  2   
  5   3   6  2   
  6   3   7  1   
  7   4   8  am  
  8   4  27  1   
  9   5   6  1   
 10   5   9  1   
 11   6  10  1   
 12   7  28  1   
 13   7  29  1   
 14   7  30  1   
 15   8  11  2   
 16   8  12  1   
 17   9  13  2   
 18   9  14  1   
 19  10  15  1   
 20  10  31  1   
 21  10  32  1   
 22  12  16  1   
 23  12  33  1   
 24  12  34  1   
 25  14  17  1   
 26  15  35  1   
 27  15  36  1   
 28  15  37  1   
 29  16  18  ar  
 30  16  19  ar  
 31  17  38  1   
 32  17  39  1   
 33  17  40  1   
 34  18  20  ar  
 35  18  41  1   
 36  19  21  ar  
 37  19  42  1   
 38  20  22  1   
 39  20  23  ar  
 40  21  23  ar  
 41  21  43  1   
 42  22  24  1   
 43  23  25  1   
 44  24  44  1   
 45  24  45  1   
 46  24  46  1   
 47  25  26  1   
 48  26  47  1   
 49  26  48  1   
 50  26  49  1   
@<TRIPOS>SUBSTRUCTURE
  1 ****  13 GROUP 4 **** **** 0

# MOE 2024.06 (io_trps.svl 2023.06)
