@<TRIPOS>MOLECULE
NONAME
34 35 1 0 0 
SMALL
USER_CHARGES


@<TRIPOS>ATOM
  1 S        0.1050     0.2160     0.8910 S.o2  1 <1>   1.4470 
  2 O        0.3390     0.3560     2.3110 O.2   1 <1>  -0.6500 
  3 O        0.1490     1.3710     0.0250 O.2   1 <1>  -0.6500 
  4 N        1.2890    -0.8000     0.2770 N.am  1 <1>  -0.9140 
  5 C       -1.4220    -0.7210     0.6070 C.ar  1 <1>  -0.0090 
  6 C        2.5690    -0.7380     0.9490 C.3   1 <1>   0.2760 
  7 C       -1.5880    -1.9910     1.1510 C.ar  1 <1>  -0.1500 
  8 C       -2.4610    -0.1960    -0.1570 C.ar  1 <1>  -0.1500 
  9 C        3.3130     0.5470     0.5900 C.3   1 <1>  -0.1600 
 10 C        3.4570    -1.8120     0.3320 C.3   1 <1>  -0.1600 
 11 C       -2.7490    -2.7160     0.9390 C.ar  1 <1>  -0.1500 
 12 C       -3.6270    -0.9100    -0.3780 C.ar  1 <1>  -0.1500 
 13 C        3.8970     0.3140    -0.8070 C.3   1 <1>  -0.1600 
 14 C        4.0110    -1.2070    -0.9650 C.3   1 <1>  -0.1600 
 15 C       -3.7630    -2.1720     0.1750 C.ar  1 <1>   0.1010 
 16 S       -5.2410    -3.1720    -0.0600 S.3   1 <1>  -0.3310 
 17 C       -6.3970    -2.1800    -1.1050 C.3   1 <1>  -0.0100 
 18 H        1.4540    -0.4470    -0.6620 H     1 <1>   0.4200 
 19 H        2.4590    -0.8790     2.0130 H     1 <1>   0.0800 
 20 H       -0.7970    -2.4160     1.7460 H     1 <1>   0.1500 
 21 H       -2.3540     0.7870    -0.5860 H     1 <1>   0.1500 
 22 H        4.1260     0.6660     1.2860 H     1 <1>   0.0800 
 23 H        2.7050     1.4320     0.6450 H     1 <1>   0.0800 
 24 H        2.9280    -2.7340     0.1680 H     1 <1>   0.0800 
 25 H        4.2750    -2.0030     1.0040 H     1 <1>   0.0800 
 26 H       -2.8690    -3.6980     1.3620 H     1 <1>   0.1500 
 27 H       -4.4060    -0.4740    -0.9720 H     1 <1>   0.1500 
 28 H        4.8550     0.7960    -0.9090 H     1 <1>   0.0800 
 29 H        3.2300     0.7100    -1.5540 H     1 <1>   0.0800 
 30 H        3.4200    -1.5320    -1.8040 H     1 <1>   0.0800 
 31 H        5.0320    -1.5110    -1.1220 H     1 <1>   0.0800 
 32 H       -7.2860    -2.7670    -1.2510 H     1 <1>   0.0800 
 33 H       -5.9110    -1.9850    -2.0440 H     1 <1>   0.0800 
 34 H       -6.6220    -1.2700    -0.5790 H     1 <1>   0.0800 
@<TRIPOS>BOND
  1   1   2  2   
  2   1   3  2   
  3   1   4  am  
  4   1   5  1   
  5   4   6  1   
  6   4  18  1   
  7   5   7  ar  
  8   5   8  ar  
  9   6   9  1   
 10   6  10  1   
 11   6  19  1   
 12   7  11  ar  
 13   7  20  1   
 14   8  12  ar  
 15   8  21  1   
 16   9  13  1   
 17   9  22  1   
 18   9  23  1   
 19  10  14  1   
 20  10  24  1   
 21  10  25  1   
 22  11  15  ar  
 23  11  26  1   
 24  12  15  ar  
 25  12  27  1   
 26  13  14  1   
 27  13  28  1   
 28  13  29  1   
 29  14  30  1   
 30  14  31  1   
 31  15  16  1   
 32  16  17  1   
 33  17  32  1   
 34  17  33  1   
 35  17  34  1   
@<TRIPOS>SUBSTRUCTURE
  1 ****   5 GROUP 4 **** **** 0

# MOE 2024.06 (io_trps.svl 2023.06)
