@<TRIPOS>MOLECULE
NONAME
47 49 1 0 0 
SMALL
USER_CHARGES


@<TRIPOS>ATOM
  1 CL       0.0210     1.2370     0.9600 Cl    1 <1>  -0.1770 
  2 C       -1.0440     0.0410     0.2610 C.ar  1 <1>   0.1770 
  3 C       -0.8130    -1.3070     0.4910 C.ar  1 <1>  -0.1440 
  4 C       -2.0970     0.4720    -0.5230 C.ar  1 <1>  -0.1500 
  5 C       -1.6720    -2.2360    -0.0810 C.ar  1 <1>  -0.1500 
  6 C        0.3500    -1.7540     1.3530 C.3   1 <1>   0.4870 
  7 C       -2.9430    -0.4630    -1.0920 C.ar  1 <1>  -0.1500 
  8 C       -2.7300    -1.8130    -0.8700 C.ar  1 <1>  -0.1500 
  9 N        1.4560    -2.2120     0.4680 N.4   1 <1>  -0.9590 
 10 C        2.4900    -2.9730     1.2570 C.3   1 <1>   0.3430 
 11 C        2.0750    -1.0440    -0.2660 C.3   1 <1>   0.3430 
 12 C        3.6910    -3.3910     0.3850 C.3   1 <1>   0.1400 
 13 C        3.2850    -1.4610    -1.1290 C.3   1 <1>   0.1400 
 14 N        4.2750    -2.1990    -0.2960 N.am  1 <1>  -0.6600 
 15 C        5.1700    -1.4480     0.4100 C.2   1 <1>   0.6900 
 16 O        5.0070    -1.3190     1.6080 O.2   1 <1>  -0.5700 
 17 N        6.1790    -0.8500    -0.2780 N.am  1 <1>  -0.5470 
 18 C        7.1730     0.0610     0.1140 C.ar  1 <1>   0.1170 
 19 C        8.3520     0.1570    -0.6320 C.ar  1 <1>  -0.1430 
 20 C        7.0120     0.8940     1.2180 C.ar  1 <1>  -0.1500 
 21 C        9.3310     1.0670    -0.2640 C.ar  1 <1>  -0.1500 
 22 C        8.5960    -0.7270    -1.8490 C.3   1 <1>  -0.0970 
 23 C        7.9930     1.7980     1.5790 C.ar  1 <1>  -0.1500 
 24 C        9.1550     1.8860     0.8370 C.ar  1 <1>  -0.1500 
 25 H       -2.2550     1.5240    -0.6850 H     1 <1>   0.1500 
 26 H       -1.5400    -3.2930     0.0820 H     1 <1>   0.1500 
 27 H        0.0240    -2.5640     1.9840 H     1 <1>   0.0800 
 28 H        0.6860    -0.9490     1.9870 H     1 <1>   0.0800 
 29 H       -3.7700    -0.1410    -1.7060 H     1 <1>   0.1500 
 30 H       -3.3970    -2.5350    -1.3120 H     1 <1>   0.1500 
 31 H        1.0440    -2.8380    -0.2340 H     1 <1>   0.4500 
 32 H        2.0480    -3.8530     1.6960 H     1 <1>   0.0800 
 33 H        2.8620    -2.3550     2.0600 H     1 <1>   0.0800 
 34 H        2.4100    -0.3090     0.4480 H     1 <1>   0.0800 
 35 H        1.3380    -0.5750    -0.8980 H     1 <1>   0.0800 
 36 H        3.3890    -4.1180    -0.3480 H     1 <1>   0.0800 
 37 H        4.4410    -3.8470     1.0120 H     1 <1>   0.0800 
 38 H        3.7420    -0.5780    -1.5440 H     1 <1>   0.0800 
 39 H        2.9640    -2.0820    -1.9470 H     1 <1>   0.0800 
 40 H        6.3130    -1.2430    -1.2040 H     1 <1>   0.3700 
 41 H        6.1150     0.8450     1.8050 H     1 <1>   0.1500 
 42 H       10.2420     1.1470    -0.8310 H     1 <1>   0.1500 
 43 H        7.8750    -0.5080    -2.6160 H     1 <1>   0.0800 
 44 H        8.5230    -1.7640    -1.5740 H     1 <1>   0.0800 
 45 H        9.5780    -0.5600    -2.2550 H     1 <1>   0.0800 
 46 H        7.8520     2.4320     2.4370 H     1 <1>   0.1500 
 47 H        9.9220     2.5880     1.1160 H     1 <1>   0.1500 
@<TRIPOS>BOND
  1   1   2  1   
  2   2   3  ar  
  3   2   4  ar  
  4   3   5  ar  
  5   3   6  1   
  6   4   7  ar  
  7   4  25  1   
  8   5   8  ar  
  9   5  26  1   
 10   6   9  1   
 11   6  27  1   
 12   6  28  1   
 13   7   8  ar  
 14   7  29  1   
 15   8  30  1   
 16   9  10  1   
 17   9  11  1   
 18   9  31  1   
 19  10  12  1   
 20  10  32  1   
 21  10  33  1   
 22  11  13  1   
 23  11  34  1   
 24  11  35  1   
 25  12  14  1   
 26  12  36  1   
 27  12  37  1   
 28  13  14  1   
 29  13  38  1   
 30  13  39  1   
 31  14  15  am  
 32  15  16  2   
 33  15  17  am  
 34  17  18  1   
 35  17  40  1   
 36  18  19  ar  
 37  18  20  ar  
 38  19  21  ar  
 39  19  22  1   
 40  20  23  ar  
 41  20  41  1   
 42  21  24  ar  
 43  21  42  1   
 44  22  43  1   
 45  22  44  1   
 46  22  45  1   
 47  23  24  ar  
 48  23  46  1   
 49  24  47  1   
@<TRIPOS>SUBSTRUCTURE
  1 ****  11 GROUP 4 **** **** 0

# MOE 2024.06 (io_trps.svl 2023.06)
