@<TRIPOS>MOLECULE
NONAME
51 53 1 0 0 
SMALL
USER_CHARGES


@<TRIPOS>ATOM
  1 O       -0.9300    -0.3970    -1.9960 O.2   1 <1>  -0.5700 
  2 C       -1.6100    -0.7400    -1.0560 C.2   1 <1>   0.5690 
  3 N       -1.2920    -1.8600    -0.3200 N.am  1 <1>  -0.6600 
  4 C       -2.8280     0.1050    -0.7390 C.3   1 <1>   0.0420 
  5 C       -2.1610    -2.3450     0.7980 C.3   1 <1>   0.5800 
  6 C       -0.2020    -2.7620    -0.8260 C.3   1 <1>   0.1400 
  7 C       -2.5340     1.5340    -0.2880 C.2   1 <1>   0.5690 
  8 C       -3.8120    -0.5960     0.2100 C.3   1 <1>   0.0630 
  9 O       -2.9910    -3.3520     0.2630 O.3   1 <1>  -0.3630 
 10 C       -3.0440    -1.2260     1.3650 C.3   1 <1>  -0.1600 
 11 C       -1.3520    -2.9740     1.9330 C.3   1 <1>  -0.2400 
 12 C       -0.7560    -3.8010    -1.8070 C.3   1 <1>   0.1200 
 13 O       -3.4570     2.2930    -0.4840 O.2   1 <1>  -0.5700 
 14 N       -1.3720     2.0070     0.3030 N.am  1 <1>  -0.6600 
 15 C       -4.5460    -1.7050    -0.5330 C.ar  1 <1>  -0.1440 
 16 C       -4.0840    -3.0180    -0.4670 C.ar  1 <1>   0.0820 
 17 O        0.3010    -4.4710    -2.4070 O.3   1 <1>  -0.6800 
 18 C       -0.2650     1.1780     0.8760 C.3   1 <1>   0.1400 
 19 C       -1.1130     3.4850     0.2820 C.3   1 <1>   0.1400 
 20 C       -5.6730    -1.4200    -1.2870 C.ar  1 <1>  -0.1500 
 21 C       -4.7460    -4.0270    -1.1470 C.ar  1 <1>  -0.1500 
 22 C        0.1310     1.6360     2.2800 C.3   1 <1>  -0.2400 
 23 C        0.0090     3.8130    -0.7020 C.3   1 <1>  -0.2400 
 24 C       -6.3330    -2.4300    -1.9670 C.ar  1 <1>  -0.1500 
 25 C       -5.8700    -3.7330    -1.8980 C.ar  1 <1>  -0.1500 
 26 H       -3.3360     0.2180    -1.6790 H     1 <1>   0.0800 
 27 H        0.3010    -3.2570    -0.0180 H     1 <1>   0.0800 
 28 H        0.5350    -2.1670    -1.3370 H     1 <1>   0.0800 
 29 H       -4.5310     0.1110     0.5900 H     1 <1>   0.0800 
 30 H       -2.4570    -0.4930     1.8840 H     1 <1>   0.0800 
 31 H       -3.7370    -1.6430     2.0740 H     1 <1>   0.0800 
 32 H       -1.9970    -3.1840     2.7670 H     1 <1>   0.0800 
 33 H       -0.5860    -2.2960     2.2620 H     1 <1>   0.0800 
 34 H       -0.9100    -3.9020     1.6240 H     1 <1>   0.0800 
 35 H       -1.3390    -3.3290    -2.5790 H     1 <1>   0.0800 
 36 H       -1.3560    -4.5300    -1.2910 H     1 <1>   0.0800 
 37 H        0.7530    -3.8850    -3.0460 H     1 <1>   0.4000 
 38 H        0.5860     1.2050     0.2160 H     1 <1>   0.0800 
 39 H       -0.5680     0.1590     0.9690 H     1 <1>   0.0800 
 40 H       -0.8680     3.8380     1.2670 H     1 <1>   0.0800 
 41 H       -1.9950     4.0230    -0.0240 H     1 <1>   0.0800 
 42 H       -6.0430    -0.4100    -1.3500 H     1 <1>   0.1500 
 43 H       -4.3780    -5.0350    -1.0850 H     1 <1>   0.1500 
 44 H        0.6510     2.5750     2.2480 H     1 <1>   0.0800 
 45 H        0.7940     0.9120     2.7170 H     1 <1>   0.0800 
 46 H       -0.7410     1.7220     2.9040 H     1 <1>   0.0800 
 47 H        0.9460     3.4100    -0.3670 H     1 <1>   0.0800 
 48 H        0.1130     4.8800    -0.7830 H     1 <1>   0.0800 
 49 H       -0.2280     3.4190    -1.6740 H     1 <1>   0.0800 
 50 H       -7.2080    -2.2010    -2.5510 H     1 <1>   0.1500 
 51 H       -6.3840    -4.5170    -2.4270 H     1 <1>   0.1500 
@<TRIPOS>BOND
  1   1   2  2   
  2   2   3  am  
  3   2   4  1   
  4   3   5  1   
  5   3   6  1   
  6   4   7  1   
  7   4   8  1   
  8   4  26  1   
  9   5   9  1   
 10   5  10  1   
 11   5  11  1   
 12   6  12  1   
 13   6  27  1   
 14   6  28  1   
 15   7  13  2   
 16   7  14  am  
 17   8  10  1   
 18   8  15  1   
 19   8  29  1   
 20   9  16  1   
 21  10  30  1   
 22  10  31  1   
 23  11  32  1   
 24  11  33  1   
 25  11  34  1   
 26  12  17  1   
 27  12  35  1   
 28  12  36  1   
 29  14  18  1   
 30  14  19  1   
 31  15  16  ar  
 32  15  20  ar  
 33  16  21  ar  
 34  17  37  1   
 35  18  22  1   
 36  18  38  1   
 37  18  39  1   
 38  19  23  1   
 39  19  40  1   
 40  19  41  1   
 41  20  24  ar  
 42  20  42  1   
 43  21  25  ar  
 44  21  43  1   
 45  22  44  1   
 46  22  45  1   
 47  22  46  1   
 48  23  47  1   
 49  23  48  1   
 50  23  49  1   
 51  24  25  ar  
 52  24  50  1   
 53  25  51  1   
@<TRIPOS>SUBSTRUCTURE
  1 ****   2 GROUP 4 **** **** 0

# MOE 2024.06 (io_trps.svl 2023.06)
