@<TRIPOS>MOLECULE
NONAME
43 45 1 0 0 
SMALL
USER_CHARGES


@<TRIPOS>ATOM
  1 CL       3.3710    -2.1650     3.5820 Cl    1 <1>  -0.1770 
  2 C        3.2500    -1.7760     1.8860 C.ar  1 <1>   0.1770 
  3 C        4.2850    -1.0940     1.2750 C.ar  1 <1>  -0.1500 
  4 C        2.1260    -2.1570     1.1790 C.ar  1 <1>  -0.1500 
  5 C        4.2040    -0.7870    -0.0750 C.ar  1 <1>  -0.1440 
  6 C        2.0400    -1.8490    -0.1670 C.ar  1 <1>  -0.1500 
  7 C        3.0750    -1.1670    -0.7900 C.ar  1 <1>  -0.1500 
  8 C        5.3460    -0.0490    -0.7570 C.3   1 <1>   0.2540 
  9 N        6.5930    -0.8340    -0.6570 N.3   1 <1>  -0.8100 
 10 C        6.4850    -2.1470    -1.3490 C.3   1 <1>   0.1100 
 11 C        7.7660    -0.0790    -1.1510 C.3   1 <1>   0.1100 
 12 C        7.8040    -2.9540    -1.3000 C.3   1 <1>   0.3430 
 13 C        9.0860    -0.8690    -0.9540 C.3   1 <1>   0.3430 
 14 N        8.8200    -2.2540    -0.4450 N.4   1 <1>  -0.9590 
 15 C       10.0420    -3.0500    -0.1650 C.3   1 <1>   0.4860 
 16 C        9.6420    -4.3650     0.4800 C.ar  1 <1>  -0.1430 
 17 C        9.7810    -5.5550    -0.2240 C.ar  1 <1>  -0.1500 
 18 C        9.1300    -4.3860     1.7730 C.ar  1 <1>  -0.1500 
 19 C        9.4050    -6.7560     0.3550 C.ar  1 <1>  -0.1500 
 20 C        8.7520    -5.5850     2.3540 C.ar  1 <1>  -0.1500 
 21 C        8.8930    -6.7580     1.6370 C.ar  1 <1>   0.1770 
 22 CL       8.4150    -8.2690     2.3660 Cl    1 <1>  -0.1770 
 23 H        5.1460    -0.8100     1.8520 H     1 <1>   0.1500 
 24 H        1.3330    -2.6860     1.6780 H     1 <1>   0.1500 
 25 H        1.1680    -2.1370    -0.7300 H     1 <1>   0.1500 
 26 H        2.9900    -0.9340    -1.8370 H     1 <1>   0.1500 
 27 H        5.4780     0.9010    -0.2660 H     1 <1>   0.0800 
 28 H        5.1070     0.1390    -1.7910 H     1 <1>   0.0800 
 29 H        6.1970    -2.0020    -2.3770 H     1 <1>   0.0800 
 30 H        5.7140    -2.7370    -0.8810 H     1 <1>   0.0800 
 31 H        7.8410     0.8570    -0.6230 H     1 <1>   0.0800 
 32 H        7.6410     0.1490    -2.1960 H     1 <1>   0.0800 
 33 H        8.1850    -3.0790    -2.3000 H     1 <1>   0.0800 
 34 H        7.5940    -3.9340    -0.9020 H     1 <1>   0.0800 
 35 H        9.7060    -0.3360    -0.2510 H     1 <1>   0.0800 
 36 H        9.6150    -0.9110    -1.8920 H     1 <1>   0.0800 
 37 H        8.3090    -2.1090     0.4390 H     1 <1>   0.4500 
 38 H       10.6910    -2.5080     0.5040 H     1 <1>   0.0800 
 39 H       10.5780    -3.2400    -1.0810 H     1 <1>   0.0800 
 40 H       10.1840    -5.5660    -1.2240 H     1 <1>   0.1500 
 41 H        9.0220    -3.4790     2.3440 H     1 <1>   0.1500 
 42 H        9.5080    -7.6860    -0.1770 H     1 <1>   0.1500 
 43 H        8.3530    -5.6180     3.3530 H     1 <1>   0.1500 
@<TRIPOS>BOND
  1   1   2  1   
  2   2   3  ar  
  3   2   4  ar  
  4   3   5  ar  
  5   3  23  1   
  6   4   6  ar  
  7   4  24  1   
  8   5   7  ar  
  9   5   8  1   
 10   6   7  ar  
 11   6  25  1   
 12   7  26  1   
 13   8   9  1   
 14   8  27  1   
 15   8  28  1   
 16   9  10  1   
 17   9  11  1   
 18  10  12  1   
 19  10  29  1   
 20  10  30  1   
 21  11  13  1   
 22  11  31  1   
 23  11  32  1   
 24  12  14  1   
 25  12  33  1   
 26  12  34  1   
 27  13  14  1   
 28  13  35  1   
 29  13  36  1   
 30  14  15  1   
 31  14  37  1   
 32  15  16  1   
 33  15  38  1   
 34  15  39  1   
 35  16  17  ar  
 36  16  18  ar  
 37  17  19  ar  
 38  17  40  1   
 39  18  20  ar  
 40  18  41  1   
 41  19  21  ar  
 42  19  42  1   
 43  20  21  ar  
 44  20  43  1   
 45  21  22  1   
@<TRIPOS>SUBSTRUCTURE
  1 ****  10 GROUP 4 **** **** 0

# MOE 2024.06 (io_trps.svl 2023.06)
