@<TRIPOS>MOLECULE
NONAME
51 53 1 0 0 
SMALL
USER_CHARGES


@<TRIPOS>ATOM
  1 O      -10.8570     1.9100    -1.2070 O.3   1 <1>  -0.6800 
  2 C      -10.9130     0.7620    -0.4340 C.3   1 <1>   0.2000 
  3 C       -9.6570     0.6610     0.4600 C.3   1 <1>  -0.0800 
  4 C      -11.0230    -0.4300    -1.3890 C.3   1 <1>  -0.1600 
  5 C       -9.6790    -0.6670     1.2400 C.3   1 <1>  -0.1600 
  6 C       -9.4990     1.8250     1.4560 C.3   1 <1>   0.3430 
  7 C      -11.0270    -1.7550    -0.6130 C.3   1 <1>  -0.1600 
  8 C       -9.7950    -1.8700     0.2930 C.3   1 <1>  -0.1600 
  9 N       -9.3560     3.1340     0.7620 N.4   1 <1>  -0.9590 
 10 C       -7.9540     3.6360     0.6610 C.3   1 <1>   0.4860 
 11 C      -10.2930     4.1550     1.2940 C.3   1 <1>   0.4860 
 12 C       -7.1030     2.6400    -0.1000 C.ar  1 <1>  -0.1440 
 13 C      -10.1700     5.4300     0.4830 C.ar  1 <1>  -0.1440 
 14 C       -7.2360     2.5250    -1.4760 C.ar  1 <1>  -0.1500 
 15 C       -6.1960     1.8310     0.5710 C.ar  1 <1>  -0.1500 
 16 C       -9.6040     6.5640     1.0490 C.ar  1 <1>  -0.1500 
 17 C      -10.6090     5.4710    -0.8330 C.ar  1 <1>  -0.1500 
 18 C       -6.4790     1.6000    -2.1730 C.ar  1 <1>  -0.1500 
 19 C       -5.4410     0.9060    -0.1290 C.ar  1 <1>  -0.1500 
 20 C       -9.4690     7.7220     0.3030 C.ar  1 <1>  -0.1500 
 21 C      -10.4730     6.6300    -1.5770 C.ar  1 <1>  -0.1500 
 22 C       -5.5840     0.7890    -1.4990 C.ar  1 <1>  -0.1500 
 23 C       -9.9020     7.7540    -1.0100 C.ar  1 <1>  -0.1500 
 24 H      -11.4700     1.8090    -1.9670 H     1 <1>   0.4000 
 25 H      -11.8010     0.8160     0.1750 H     1 <1>   0.0800 
 26 H       -8.7940     0.6200    -0.1800 H     1 <1>   0.0800 
 27 H      -10.1860    -0.4290    -2.0670 H     1 <1>   0.0800 
 28 H      -11.9320    -0.3620    -1.9620 H     1 <1>   0.0800 
 29 H      -10.5100    -0.6800     1.9250 H     1 <1>   0.0800 
 30 H       -8.7740    -0.7700     1.8150 H     1 <1>   0.0800 
 31 H       -8.6350     1.6470     2.0750 H     1 <1>   0.0800 
 32 H      -10.3660     1.8430     2.0950 H     1 <1>   0.0800 
 33 H      -11.0390    -2.5780    -1.3070 H     1 <1>   0.0800 
 34 H      -11.9190    -1.8200    -0.0140 H     1 <1>   0.0800 
 35 H       -9.8570    -2.7790     0.8680 H     1 <1>   0.0800 
 36 H       -8.9090    -1.9320    -0.3170 H     1 <1>   0.0800 
 37 H       -9.6710     2.9410    -0.2090 H     1 <1>   0.4500 
 38 H       -7.5430     3.7920     1.6440 H     1 <1>   0.0800 
 39 H       -7.9320     4.5760     0.1330 H     1 <1>   0.0800 
 40 H      -10.0700     4.3590     2.3280 H     1 <1>   0.0800 
 41 H      -11.3060     3.7910     1.2280 H     1 <1>   0.0800 
 42 H       -7.9270     3.1480    -2.0190 H     1 <1>   0.1500 
 43 H       -6.0650     1.9080     1.6360 H     1 <1>   0.1500 
 44 H       -9.2640     6.5650     2.0710 H     1 <1>   0.1500 
 45 H      -11.0610     4.6090    -1.2930 H     1 <1>   0.1500 
 46 H       -6.5840     1.5100    -3.2410 H     1 <1>   0.1500 
 47 H       -4.7370     0.2770     0.3900 H     1 <1>   0.1500 
 48 H       -9.0300     8.6020     0.7420 H     1 <1>   0.1500 
 49 H      -10.8140     6.6610    -2.5990 H     1 <1>   0.1500 
 50 H       -4.9950     0.0700    -2.0430 H     1 <1>   0.1500 
 51 H       -9.7980     8.6560    -1.5900 H     1 <1>   0.1500 
@<TRIPOS>BOND
  1   1   2  1   
  2   1  24  1   
  3   2   3  1   
  4   2   4  1   
  5   2  25  1   
  6   3   5  1   
  7   3   6  1   
  8   3  26  1   
  9   4   7  1   
 10   4  27  1   
 11   4  28  1   
 12   5   8  1   
 13   5  29  1   
 14   5  30  1   
 15   6   9  1   
 16   6  31  1   
 17   6  32  1   
 18   7   8  1   
 19   7  33  1   
 20   7  34  1   
 21   8  35  1   
 22   8  36  1   
 23   9  10  1   
 24   9  11  1   
 25   9  37  1   
 26  10  12  1   
 27  10  38  1   
 28  10  39  1   
 29  11  13  1   
 30  11  40  1   
 31  11  41  1   
 32  12  14  ar  
 33  12  15  ar  
 34  13  16  ar  
 35  13  17  ar  
 36  14  18  ar  
 37  14  42  1   
 38  15  19  ar  
 39  15  43  1   
 40  16  20  ar  
 41  16  44  1   
 42  17  21  ar  
 43  17  45  1   
 44  18  22  ar  
 45  18  46  1   
 46  19  22  ar  
 47  19  47  1   
 48  20  23  ar  
 49  20  48  1   
 50  21  23  ar  
 51  21  49  1   
 52  22  50  1   
 53  23  51  1   
@<TRIPOS>SUBSTRUCTURE
  1 ****   9 GROUP 4 **** **** 0

# MOE 2024.06 (io_trps.svl 2023.06)
