@<TRIPOS>MOLECULE
NONAME
42 45 1 0 0 
SMALL
USER_CHARGES


@<TRIPOS>ATOM
  1 S        0.9740     0.8580    -2.3700 S.3   1 <1>  -0.0800 
  2 C        0.0880     1.8190    -1.1780 C.2   1 <1>  -0.0450 
  3 C        2.4230     0.8410    -1.3880 C.2   1 <1>  -0.1100 
  4 C       -1.2810     2.1870    -1.4380 C.2   1 <1>   0.7150 
  5 C        0.9140     2.0730    -0.1300 C.2   1 <1>  -0.1500 
  6 C        2.2250     1.5230    -0.2460 C.2   1 <1>  -0.1500 
  7 O       -1.8040     2.0070    -2.5230 O.2   1 <1>  -0.5700 
  8 N       -2.0040     2.7500    -0.4350 N.am  1 <1>  -0.7300 
  9 C       -3.1850     3.6700    -0.5870 C.3   1 <1>   0.1140 
 10 C       -2.8850     4.9740     0.1860 C.2   1 <1>   0.9060 
 11 C       -4.5040     2.9640    -0.1450 C.3   1 <1>   0.0000 
 12 O       -3.4010     6.0450    -0.1610 O.co2 1 <1>  -0.9000 
 13 O       -2.0670     4.9150     1.1240 O.co2 1 <1>  -0.9000 
 14 C       -4.4710     2.5580     1.3510 C.3   1 <1>  -0.1600 
 15 C       -4.7430     1.6850    -0.9890 C.3   1 <1>  -0.1600 
 16 C       -5.7210     3.9000    -0.3600 C.3   1 <1>  -0.1600 
 17 C       -5.7820     1.8600     1.7640 C.3   1 <1>  -0.0800 
 18 C       -6.0530     0.9830    -0.5860 C.3   1 <1>  -0.0800 
 19 C       -7.0380     3.2130     0.0440 C.3   1 <1>  -0.0800 
 20 C       -5.9800     0.5990     0.9030 C.3   1 <1>  -0.1600 
 21 C       -6.9620     2.8220     1.5320 C.3   1 <1>  -0.1600 
 22 C       -7.2320     1.9470    -0.8080 C.3   1 <1>  -0.1600 
 23 H        3.2800     0.3170    -1.7740 H     1 <1>   0.1500 
 24 H        0.6350     2.6480     0.7380 H     1 <1>   0.1500 
 25 H        2.9560     1.6660     0.5310 H     1 <1>   0.1500 
 26 H       -1.4930     3.0700     0.3990 H     1 <1>   0.3700 
 27 H       -3.2760     3.9440    -1.6220 H     1 <1>   0.0800 
 28 H       -4.3230     3.4310     1.9630 H     1 <1>   0.0800 
 29 H       -3.6430     1.8960     1.5320 H     1 <1>   0.0800 
 30 H       -3.9280     0.9970    -0.8530 H     1 <1>   0.0800 
 31 H       -4.7720     1.9420    -2.0330 H     1 <1>   0.0800 
 32 H       -5.7680     4.2020    -1.3910 H     1 <1>   0.0800 
 33 H       -5.6070     4.7950     0.2280 H     1 <1>   0.0800 
 34 H       -5.7330     1.5890     2.8040 H     1 <1>   0.0800 
 35 H       -6.1870     0.0990    -1.1850 H     1 <1>   0.0800 
 36 H       -7.8600     3.8890    -0.1130 H     1 <1>   0.0800 
 37 H       -6.8850     0.0960     1.1960 H     1 <1>   0.0800 
 38 H       -5.1600    -0.0800     1.0620 H     1 <1>   0.0800 
 39 H       -7.8810     2.3530     1.8340 H     1 <1>   0.0800 
 40 H       -6.8310     3.7060     2.1310 H     1 <1>   0.0800 
 41 H       -8.1550     1.4640    -0.5400 H     1 <1>   0.0800 
 42 H       -7.2900     2.2150    -1.8480 H     1 <1>   0.0800 
@<TRIPOS>BOND
  1   1   2  1   
  2   1   3  1   
  3   2   4  1   
  4   2   5  2   
  5   3   6  2   
  6   3  23  1   
  7   4   7  2   
  8   4   8  am  
  9   5   6  1   
 10   5  24  1   
 11   6  25  1   
 12   8   9  1   
 13   8  26  1   
 14   9  10  1   
 15   9  11  1   
 16   9  27  1   
 17  10  12  ar  
 18  10  13  ar  
 19  11  14  1   
 20  11  15  1   
 21  11  16  1   
 22  14  17  1   
 23  14  28  1   
 24  14  29  1   
 25  15  18  1   
 26  15  30  1   
 27  15  31  1   
 28  16  19  1   
 29  16  32  1   
 30  16  33  1   
 31  17  20  1   
 32  17  21  1   
 33  17  34  1   
 34  18  20  1   
 35  18  22  1   
 36  18  35  1   
 37  19  21  1   
 38  19  22  1   
 39  19  36  1   
 40  20  37  1   
 41  20  38  1   
 42  21  39  1   
 43  21  40  1   
 44  22  41  1   
 45  22  42  1   
@<TRIPOS>SUBSTRUCTURE
  1 ****   8 GROUP 4 **** **** 0

# MOE 2024.06 (io_trps.svl 2023.06)
