@<TRIPOS>MOLECULE
NONAME
52 53 1 0 0 
SMALL
USER_CHARGES


@<TRIPOS>ATOM
  1 O       -2.1860    -2.6990    -0.6000 O.3   1 <1>  -0.3630 
  2 C       -3.2580    -3.1240     0.0980 C.ar  1 <1>   0.0830 
  3 C       -1.1820    -2.0810     0.1760 C.3   1 <1>   0.1200 
  4 C       -3.3300    -4.4360     0.5600 C.ar  1 <1>  -0.1440 
  5 C       -4.2860    -2.2280     0.3480 C.ar  1 <1>  -0.1500 
  6 C        0.0570    -1.8380    -0.6960 C.3   1 <1>   0.2000 
  7 C       -4.4390    -4.8220     1.2980 C.ar  1 <1>  -0.1500 
  8 C       -2.2340    -5.4550     0.2710 C.3   1 <1>   0.1220 
  9 C       -5.3880    -2.6280     1.0820 C.ar  1 <1>  -0.1500 
 10 O        0.2880    -2.9590    -1.4990 O.3   1 <1>  -0.6800 
 11 C        1.3110    -1.5450     0.1570 C.3   1 <1>   0.3430 
 12 C       -5.4620    -3.9240     1.5590 C.ar  1 <1>  -0.1500 
 13 C       -1.1510    -5.4160     1.3390 C.2   1 <1>  -0.2880 
 14 N        2.5500    -2.0040    -0.5530 N.4   1 <1>  -0.9590 
 15 C        0.1610    -5.3040     1.1090 C.2   1 <1>  -0.3000 
 16 C        3.3470    -2.9250     0.2980 C.3   1 <1>   0.4230 
 17 C        3.3660    -0.9280    -1.1720 C.3   1 <1>   0.4230 
 18 C        4.6080    -2.2530     0.8790 C.3   1 <1>  -0.1600 
 19 C        3.7070    -4.1400    -0.5480 C.3   1 <1>  -0.2400 
 20 C        3.9500    -0.0070    -0.0850 C.3   1 <1>  -0.1600 
 21 C        2.5600    -0.1560    -2.2130 C.3   1 <1>  -0.2400 
 22 C        4.3900    -0.7640     1.1830 C.3   1 <1>  -0.1600 
 23 H       -0.9460    -2.7310     1.0010 H     1 <1>   0.0800 
 24 H       -1.5710    -1.1550     0.5610 H     1 <1>   0.0800 
 25 H       -4.2240    -1.2250    -0.0320 H     1 <1>   0.1500 
 26 H       -0.1400    -1.0080    -1.3520 H     1 <1>   0.0800 
 27 H       -4.5170    -5.8280     1.6730 H     1 <1>   0.1500 
 28 H       -1.8080    -5.2740    -0.7000 H     1 <1>   0.0800 
 29 H       -2.6640    -6.4400     0.2480 H     1 <1>   0.0800 
 30 H       -6.1860    -1.9340     1.2800 H     1 <1>   0.1500 
 31 H       -0.5890    -3.2890    -1.8100 H     1 <1>   0.4000 
 32 H        1.2140    -2.0780     1.0880 H     1 <1>   0.0800 
 33 H        1.3650    -0.4950     0.3890 H     1 <1>   0.0800 
 34 H       -6.3180    -4.2370     2.1320 H     1 <1>   0.1500 
 35 H       -1.5610    -5.5030     2.3330 H     1 <1>   0.1500 
 36 H        2.1580    -2.5870    -1.3160 H     1 <1>   0.4500 
 37 H        0.9040    -5.2940     1.8880 H     1 <1>   0.1500 
 38 H        0.5940    -5.2270     0.1270 H     1 <1>   0.1500 
 39 H        2.7320    -3.2600     1.1180 H     1 <1>   0.0800 
 40 H        4.1930    -1.3980    -1.6810 H     1 <1>   0.0800 
 41 H        5.4290    -2.3510     0.1880 H     1 <1>   0.0800 
 42 H        4.8950    -2.7710     1.7770 H     1 <1>   0.0800 
 43 H        4.3180    -3.8620    -1.3880 H     1 <1>   0.0800 
 44 H        2.8180    -4.6310    -0.9000 H     1 <1>   0.0800 
 45 H        4.2590    -4.8450     0.0490 H     1 <1>   0.0800 
 46 H        3.2460     0.7600     0.1830 H     1 <1>   0.0800 
 47 H        4.8050     0.4920    -0.5090 H     1 <1>   0.0800 
 48 H        1.7790     0.4270    -1.7610 H     1 <1>   0.0800 
 49 H        2.1380    -0.8300    -2.9370 H     1 <1>   0.0800 
 50 H        3.2130     0.5210    -2.7340 H     1 <1>   0.0800 
 51 H        5.2940    -0.3280     1.5760 H     1 <1>   0.0800 
 52 H        3.6310    -0.6690     1.9410 H     1 <1>   0.0800 
@<TRIPOS>BOND
  1   1   2  1   
  2   1   3  1   
  3   2   4  ar  
  4   2   5  ar  
  5   3   6  1   
  6   3  23  1   
  7   3  24  1   
  8   4   7  ar  
  9   4   8  1   
 10   5   9  ar  
 11   5  25  1   
 12   6  10  1   
 13   6  11  1   
 14   6  26  1   
 15   7  12  ar  
 16   7  27  1   
 17   8  13  1   
 18   8  28  1   
 19   8  29  1   
 20   9  12  ar  
 21   9  30  1   
 22  10  31  1   
 23  11  14  1   
 24  11  32  1   
 25  11  33  1   
 26  12  34  1   
 27  13  15  2   
 28  13  35  1   
 29  14  16  1   
 30  14  17  1   
 31  14  36  1   
 32  15  37  1   
 33  15  38  1   
 34  16  18  1   
 35  16  19  1   
 36  16  39  1   
 37  17  20  1   
 38  17  21  1   
 39  17  40  1   
 40  18  22  1   
 41  18  41  1   
 42  18  42  1   
 43  19  43  1   
 44  19  44  1   
 45  19  45  1   
 46  20  22  1   
 47  20  46  1   
 48  20  47  1   
 49  21  48  1   
 50  21  49  1   
 51  21  50  1   
 52  22  51  1   
 53  22  52  1   
@<TRIPOS>SUBSTRUCTURE
  1 ****   3 GROUP 4 **** **** 0

# MOE 2024.06 (io_trps.svl 2023.06)
