@<TRIPOS>MOLECULE
NONAME
39 39 1 0 0 
SMALL
USER_CHARGES


@<TRIPOS>ATOM
  1 N        0.0150     0.3590    -0.1780 N.4   1 <1>  -0.9590 
  2 C        1.0050     0.0820    -1.2680 C.3   1 <1>   0.4860 
  3 C       -1.2860    -0.3610    -0.4310 C.3   1 <1>   0.3430 
  4 C       -0.1300     1.8470     0.0030 C.3   1 <1>   0.2630 
  5 C        2.3700     0.5180    -0.7810 C.ar  1 <1>  -0.1440 
  6 C       -2.3020    -0.2950     0.7490 C.3   1 <1>   0.3430 
  7 C        3.0570    -0.2470     0.1520 C.ar  1 <1>  -0.1500 
  8 C        2.9420     1.6880    -1.2600 C.ar  1 <1>  -0.1500 
  9 N       -3.6100    -1.0110     0.4990 N.4   1 <1>  -0.9590 
 10 C        4.2950     0.1610     0.6200 C.ar  1 <1>  -0.1430 
 11 C        4.1790     2.0950    -0.7950 C.ar  1 <1>  -0.1500 
 12 C       -4.5790    -0.7260     1.6130 C.3   1 <1>   0.2630 
 13 C       -3.4650    -2.5020     0.3610 C.3   1 <1>   0.2630 
 14 C        4.8510     1.3350     0.1440 C.ar  1 <1>  -0.1500 
 15 C        5.0560    -0.6700     1.6390 C.3   1 <1>  -0.0970 
 16 H        0.4860    -0.0010     0.6680 H     1 <1>   0.4500 
 17 H        0.7450     0.6170    -2.1670 H     1 <1>   0.0800 
 18 H        1.0380    -0.9720    -1.4920 H     1 <1>   0.0800 
 19 H       -1.0710    -1.3980    -0.6330 H     1 <1>   0.0800 
 20 H       -1.7500     0.0590    -1.3090 H     1 <1>   0.0800 
 21 H       -0.5340     2.3010    -0.8880 H     1 <1>   0.0800 
 22 H        0.8320     2.2930     0.2040 H     1 <1>   0.0800 
 23 H       -0.7790     2.0720     0.8330 H     1 <1>   0.0800 
 24 H       -2.5150     0.7420     0.9520 H     1 <1>   0.0800 
 25 H       -1.8400    -0.7160     1.6270 H     1 <1>   0.0800 
 26 H        2.6470    -1.1710     0.5210 H     1 <1>   0.1500 
 27 H        2.4440     2.2950    -1.9970 H     1 <1>   0.1500 
 28 H       -4.0550    -0.6530    -0.3650 H     1 <1>   0.4500 
 29 H        4.6270     3.0030    -1.1650 H     1 <1>   0.1500 
 30 H       -4.1960    -1.0930     2.5520 H     1 <1>   0.0800 
 31 H       -5.5250    -1.2070     1.4200 H     1 <1>   0.0800 
 32 H       -4.7530     0.3350     1.7030 H     1 <1>   0.0800 
 33 H       -3.0340    -2.9250     1.2550 H     1 <1>   0.0800 
 34 H       -2.8370    -2.7510    -0.4790 H     1 <1>   0.0800 
 35 H       -4.4310    -2.9570     0.2040 H     1 <1>   0.0800 
 36 H        5.8160     1.6590     0.4970 H     1 <1>   0.1500 
 37 H        4.3990    -1.3400     2.1630 H     1 <1>   0.0800 
 38 H        5.5310    -0.0300     2.3610 H     1 <1>   0.0800 
 39 H        5.8150    -1.2490     1.1430 H     1 <1>   0.0800 
@<TRIPOS>BOND
  1   1   2  1   
  2   1   3  1   
  3   1   4  1   
  4   1  16  1   
  5   2   5  1   
  6   2  17  1   
  7   2  18  1   
  8   3   6  1   
  9   3  19  1   
 10   3  20  1   
 11   4  21  1   
 12   4  22  1   
 13   4  23  1   
 14   5   7  ar  
 15   5   8  ar  
 16   6   9  1   
 17   6  24  1   
 18   6  25  1   
 19   7  10  ar  
 20   7  26  1   
 21   8  11  ar  
 22   8  27  1   
 23   9  12  1   
 24   9  13  1   
 25   9  28  1   
 26  10  14  ar  
 27  10  15  1   
 28  11  14  ar  
 29  11  29  1   
 30  12  30  1   
 31  12  31  1   
 32  12  32  1   
 33  13  33  1   
 34  13  34  1   
 35  13  35  1   
 36  14  36  1   
 37  15  37  1   
 38  15  38  1   
 39  15  39  1   
@<TRIPOS>SUBSTRUCTURE
  1 ****   1 GROUP 4 **** **** 0

# MOE 2024.06 (io_trps.svl 2023.06)
