@<TRIPOS>MOLECULE
NONAME
29 30 1 0 0 
SMALL
USER_CHARGES


@<TRIPOS>ATOM
  1 F       -0.2210     0.5570     0.2310 F     1 <1>  -0.1900 
  2 C        0.5120     1.6380     0.1140 C.ar  1 <1>   0.1900 
  3 C       -0.1130     2.8820     0.1550 C.ar  1 <1>   0.1170 
  4 C        1.8740     1.4820    -0.0450 C.ar  1 <1>  -0.1500 
  5 N       -1.5120     2.9470     0.3200 N.am  1 <1>  -0.5470 
  6 C        0.7110     3.9980     0.0260 C.ar  1 <1>  -0.1500 
  7 C        2.6640     2.6110    -0.1710 C.ar  1 <1>  -0.1500 
  8 C       -2.3940     3.9930     0.3890 C.2   1 <1>   0.5770 
  9 C        2.0900     3.8820    -0.1360 C.ar  1 <1>  -0.1440 
 10 O       -2.0580     5.1500     0.3270 O.2   1 <1>  -0.5700 
 11 C       -3.8700     3.6610     0.5750 C.3   1 <1>   0.0530 
 12 C        2.9420     5.1560    -0.2730 C.3   1 <1>   1.1640 
 13 C       -4.4160     2.5300    -0.3400 C.3   1 <1>   0.0000 
 14 C       -4.8680     4.6090    -0.1480 C.3   1 <1>   0.0000 
 15 F        4.2380     4.9060    -0.4280 F     1 <1>  -0.3400 
 16 F        2.8430     5.9410     0.7910 F     1 <1>  -0.3400 
 17 F        2.5810     5.8900    -1.3170 F     1 <1>  -0.3400 
 18 C       -5.7270     3.3520    -0.4400 C.3   1 <1>   0.0000 
 19 H        2.3050     0.4960    -0.0700 H     1 <1>   0.1500 
 20 H       -1.9440     2.0250     0.3980 H     1 <1>   0.3700 
 21 H        0.2780     4.9820     0.0510 H     1 <1>   0.1500 
 22 H        3.7280     2.4870    -0.2950 H     1 <1>   0.1500 
 23 H       -4.1370     3.5070     1.6070 H     1 <1>   0.0000 
 24 H       -4.5310     1.5840     0.1580 H     1 <1>   0.0000 
 25 H       -3.9030     2.4610    -1.2850 H     1 <1>   0.0000 
 26 H       -4.4660     5.0470    -1.0460 H     1 <1>   0.0000 
 27 H       -5.3440     5.3200     0.5040 H     1 <1>   0.0000 
 28 H       -6.4200     3.1270     0.3530 H     1 <1>   0.0000 
 29 H       -6.1720     3.3450    -1.4190 H     1 <1>   0.0000 
@<TRIPOS>BOND
  1   1   2  1   
  2   2   3  ar  
  3   2   4  ar  
  4   3   5  1   
  5   3   6  ar  
  6   4   7  ar  
  7   4  19  1   
  8   5   8  am  
  9   5  20  1   
 10   6   9  ar  
 11   6  21  1   
 12   7   9  ar  
 13   7  22  1   
 14   8  10  2   
 15   8  11  1   
 16   9  12  1   
 17  11  13  1   
 18  11  14  1   
 19  11  23  1   
 20  12  15  1   
 21  12  16  1   
 22  12  17  1   
 23  13  18  1   
 24  13  24  1   
 25  13  25  1   
 26  14  18  1   
 27  14  26  1   
 28  14  27  1   
 29  18  28  1   
 30  18  29  1   
@<TRIPOS>SUBSTRUCTURE
  1 ****   3 GROUP 4 **** **** 0

# MOE 2024.06 (io_trps.svl 2023.06)
