@<TRIPOS>MOLECULE
NONAME
51 53 1 0 0 
SMALL
USER_CHARGES


@<TRIPOS>ATOM
  1 O       -1.3280    -0.0200    -1.0220 O.2   1 <1>  -0.5700 
  2 C       -2.2520     0.7740    -0.9900 C.2   1 <1>   0.7150 
  3 N       -3.5180     0.3170    -1.3030 N.am  1 <1>  -0.6600 
  4 C       -2.0180     2.1600    -0.6380 C.2   1 <1>   0.0550 
  5 C       -3.7350    -1.0190    -1.9340 C.3   1 <1>   0.1400 
  6 C       -4.7580     0.8820    -0.6930 C.3   1 <1>   0.1400 
  7 O       -1.1300     2.4940     0.2950 O.3   1 <1>  -0.2800 
  8 C       -2.5800     3.3070    -1.1180 C.2   1 <1>  -0.1500 
  9 C       -4.3940    -1.9870    -0.9380 C.3   1 <1>   0.1100 
 10 C       -5.4070    -0.1390     0.2590 C.3   1 <1>   0.1100 
 11 C       -1.1120     3.8010     0.4210 C.2   1 <1>  -0.0100 
 12 C       -1.9930     4.3680    -0.4290 C.2   1 <1>  -0.1500 
 13 N       -5.6620    -1.4380    -0.4090 N.3   1 <1>  -0.8100 
 14 C       -6.2900    -2.4040     0.5440 C.3   1 <1>   0.1710 
 15 C       -7.7570    -2.0990     0.8520 C.2   1 <1>   0.5690 
 16 O       -8.2250    -2.4670     1.9020 O.2   1 <1>  -0.5700 
 17 N       -8.4420    -1.4090    -0.1080 N.am  1 <1>  -0.5470 
 18 C       -9.7590    -0.9400    -0.2090 C.ar  1 <1>   0.1170 
 19 C      -10.0980    -0.1500    -1.3000 C.ar  1 <1>  -0.1500 
 20 C      -10.7490    -1.2260     0.7250 C.ar  1 <1>  -0.1500 
 21 C      -11.3810     0.3430    -1.4530 C.ar  1 <1>  -0.1500 
 22 C      -12.0330    -0.7330     0.5740 C.ar  1 <1>  -0.1500 
 23 C      -12.3640     0.0570    -0.5160 C.ar  1 <1>  -0.1430 
 24 C      -13.7870     0.5910    -0.6670 C.3   1 <1>   0.0630 
 25 C      -14.4390     0.0570    -1.9460 C.3   1 <1>  -0.2400 
 26 C      -13.8020     2.1230    -0.6460 C.3   1 <1>  -0.2400 
 27 H       -2.8020    -1.4360    -2.2740 H     1 <1>   0.0800 
 28 H       -4.3730    -0.9050    -2.7920 H     1 <1>   0.0800 
 29 H       -5.4540     1.1340    -1.4740 H     1 <1>   0.0800 
 30 H       -4.5400     1.7760    -0.1380 H     1 <1>   0.0800 
 31 H       -3.3280     3.3990    -1.8850 H     1 <1>   0.1500 
 32 H       -3.7060    -2.1790    -0.1320 H     1 <1>   0.0800 
 33 H       -4.5880    -2.9180    -1.4420 H     1 <1>   0.0800 
 34 H       -6.3330     0.2730     0.6240 H     1 <1>   0.0800 
 35 H       -4.7550    -0.2840     1.1050 H     1 <1>   0.0800 
 36 H       -0.4430     4.2460     1.1370 H     1 <1>   0.1500 
 37 H       -2.2120     5.4120    -0.5690 H     1 <1>   0.1500 
 38 H       -5.7370    -2.4270     1.4660 H     1 <1>   0.0800 
 39 H       -6.2610    -3.3920     0.1190 H     1 <1>   0.0800 
 40 H       -7.8180    -1.1530    -0.8790 H     1 <1>   0.3700 
 41 H       -9.3540     0.0840    -2.0380 H     1 <1>   0.1500 
 42 H      -10.5250    -1.8370     1.5800 H     1 <1>   0.1500 
 43 H      -11.6130     0.9520    -2.3080 H     1 <1>   0.1500 
 44 H      -12.7740    -0.9730     1.3160 H     1 <1>   0.1500 
 45 H      -14.3750     0.2470     0.1680 H     1 <1>   0.0800 
 46 H      -13.9200     0.4120    -2.8180 H     1 <1>   0.0800 
 47 H      -15.4650     0.3760    -2.0030 H     1 <1>   0.0800 
 48 H      -14.4140    -1.0180    -1.9460 H     1 <1>   0.0800 
 49 H      -13.2680     2.5230    -1.4900 H     1 <1>   0.0800 
 50 H      -13.3340     2.4790     0.2540 H     1 <1>   0.0800 
 51 H      -14.8130     2.4870    -0.6740 H     1 <1>   0.0800 
@<TRIPOS>BOND
  1   1   2  2   
  2   2   3  am  
  3   2   4  1   
  4   3   5  1   
  5   3   6  1   
  6   4   7  1   
  7   4   8  2   
  8   5   9  1   
  9   5  27  1   
 10   5  28  1   
 11   6  10  1   
 12   6  29  1   
 13   6  30  1   
 14   7  11  1   
 15   8  12  1   
 16   8  31  1   
 17   9  13  1   
 18   9  32  1   
 19   9  33  1   
 20  10  13  1   
 21  10  34  1   
 22  10  35  1   
 23  11  12  2   
 24  11  36  1   
 25  12  37  1   
 26  13  14  1   
 27  14  15  1   
 28  14  38  1   
 29  14  39  1   
 30  15  16  2   
 31  15  17  am  
 32  17  18  1   
 33  17  40  1   
 34  18  19  ar  
 35  18  20  ar  
 36  19  21  ar  
 37  19  41  1   
 38  20  22  ar  
 39  20  42  1   
 40  21  23  ar  
 41  21  43  1   
 42  22  23  ar  
 43  22  44  1   
 44  23  24  1   
 45  24  25  1   
 46  24  26  1   
 47  24  45  1   
 48  25  46  1   
 49  25  47  1   
 50  25  48  1   
 51  26  49  1   
 52  26  50  1   
 53  26  51  1   
@<TRIPOS>SUBSTRUCTURE
  1 ****  10 GROUP 4 **** **** 0

# MOE 2024.06 (io_trps.svl 2023.06)
