@<TRIPOS>MOLECULE
NONAME
43 45 1 0 0 
SMALL
USER_CHARGES


@<TRIPOS>ATOM
  1 O        0.4540    -0.7130    -2.4730 O.2   1 <1>  -0.5700 
  2 C        0.7850    -1.2660    -1.4540 C.2   1 <1>   0.5690 
  3 N       -0.1130    -1.7590    -0.5670 N.am  1 <1>  -0.7300 
  4 C        2.2550    -1.4040    -1.1350 C.3   1 <1>  -0.0990 
  5 C       -1.5750    -1.7050    -0.7140 C.3   1 <1>   0.2200 
  6 C        2.7970    -0.1190    -0.4870 C.3   1 <1>  -0.0160 
  7 C       -2.1620    -0.9930     0.4980 C.3   1 <1>  -0.1600 
  8 C       -2.1300    -3.1180    -0.5920 C.3   1 <1>  -0.1600 
  9 C        4.2690    -0.1830    -0.0740 C.ar  1 <1>   0.1670 
 10 C       -2.2220    -2.0450     1.6120 C.3   1 <1>  -0.1600 
 11 C       -2.2020    -3.4100     0.9120 C.3   1 <1>  -0.1600 
 12 N        4.8540    -1.3430    -0.0440 N.ar  1 <1>  -0.6200 
 13 C        4.9290     1.0350     0.2730 C.ar  1 <1>   0.3930 
 14 C        6.1590    -1.3090     0.3330 C.ar  1 <1>   0.3100 
 15 O        4.2070     2.1760     0.2220 O.3   1 <1>  -0.3630 
 16 N        6.1790     1.1020     0.6390 N.ar  1 <1>  -0.6200 
 17 C        6.8110    -0.0970     0.6690 C.ar  1 <1>   0.3100 
 18 C        6.8860    -2.5070     0.3920 C.ar  1 <1>  -0.1500 
 19 C        4.7810     3.4300     0.5380 C.3   1 <1>   0.0400 
 20 C        8.1620    -0.1450     1.0480 C.ar  1 <1>  -0.1500 
 21 C        8.2050    -2.5240     0.7660 C.ar  1 <1>  -0.1500 
 22 C        8.8500    -1.3300     1.0980 C.ar  1 <1>  -0.1500 
 23 H        0.2050    -2.2190     0.2850 H     1 <1>   0.3700 
 24 H        2.7900    -1.6020    -2.0450 H     1 <1>   0.0800 
 25 H        2.3960    -2.2410    -0.4760 H     1 <1>   0.0800 
 26 H       -1.8510    -1.2330    -1.6430 H     1 <1>   0.0800 
 27 H        2.2130     0.1090     0.3870 H     1 <1>   0.0800 
 28 H        2.6640     0.6880    -1.1870 H     1 <1>   0.0800 
 29 H       -3.1630    -0.6830     0.2560 H     1 <1>   0.0800 
 30 H       -1.5920    -0.1230     0.7740 H     1 <1>   0.0800 
 31 H       -1.5360    -3.8360    -1.1300 H     1 <1>   0.0800 
 32 H       -3.1270    -3.1270    -0.9970 H     1 <1>   0.0800 
 33 H       -3.1110    -1.9210     2.2080 H     1 <1>   0.0800 
 34 H       -1.3610    -1.9510     2.2520 H     1 <1>   0.0800 
 35 H       -1.3310    -3.9630     1.2200 H     1 <1>   0.0800 
 36 H       -3.0800    -3.9870     1.1490 H     1 <1>   0.0800 
 37 H        6.3720    -3.4150     0.1330 H     1 <1>   0.1500 
 38 H        4.0270     4.1870     0.4240 H     1 <1>   0.0800 
 39 H        5.5990     3.6180    -0.1350 H     1 <1>   0.0800 
 40 H        5.1310     3.4060     1.5550 H     1 <1>   0.0800 
 41 H        8.6430     0.7830     1.3000 H     1 <1>   0.1500 
 42 H        8.7550    -3.4500     0.8090 H     1 <1>   0.1500 
 43 H        9.8860    -1.3540     1.3900 H     1 <1>   0.1500 
@<TRIPOS>BOND
  1   1   2  2   
  2   2   3  am  
  3   2   4  1   
  4   3   5  1   
  5   3  23  1   
  6   4   6  1   
  7   4  24  1   
  8   4  25  1   
  9   5   7  1   
 10   5   8  1   
 11   5  26  1   
 12   6   9  1   
 13   6  27  1   
 14   6  28  1   
 15   7  10  1   
 16   7  29  1   
 17   7  30  1   
 18   8  11  1   
 19   8  31  1   
 20   8  32  1   
 21   9  12  ar  
 22   9  13  ar  
 23  10  11  1   
 24  10  33  1   
 25  10  34  1   
 26  11  35  1   
 27  11  36  1   
 28  12  14  ar  
 29  13  15  1   
 30  13  16  ar  
 31  14  17  ar  
 32  14  18  ar  
 33  15  19  1   
 34  16  17  ar  
 35  17  20  ar  
 36  18  21  ar  
 37  18  37  1   
 38  19  38  1   
 39  19  39  1   
 40  19  40  1   
 41  20  22  ar  
 42  20  41  1   
 43  21  22  ar  
 44  21  42  1   
 45  22  43  1   
@<TRIPOS>SUBSTRUCTURE
  1 ****   6 GROUP 4 **** **** 0

# MOE 2024.06 (io_trps.svl 2023.06)
