@<TRIPOS>MOLECULE
NONAME
38 39 1 0 0 
SMALL
USER_CHARGES


@<TRIPOS>ATOM
  1 CL      -0.5730    -0.1030    -1.1710 Cl    1 <1>  -0.1770 
  2 C       -0.3150    -1.7000    -0.5000 C.ar  1 <1>   0.1770 
  3 C       -1.4020    -2.4800    -0.1100 C.ar  1 <1>   0.0820 
  4 C        0.9870    -2.1510    -0.3720 C.ar  1 <1>  -0.1500 
  5 O       -2.6510    -1.9670    -0.2670 O.3   1 <1>  -0.3630 
  6 C       -1.1600    -3.7460     0.4210 C.ar  1 <1>  -0.1500 
  7 C        1.2220    -3.4100     0.1560 C.ar  1 <1>  -0.1500 
  8 C       -3.8050    -2.6850     0.0980 C.3   1 <1>   0.1200 
  9 C        0.1450    -4.1880     0.5440 C.ar  1 <1>   0.1770 
 10 C       -5.0100    -1.7980    -0.2210 C.3   1 <1>  -0.1600 
 11 CL       0.4420    -5.7740     1.2090 Cl    1 <1>  -0.1770 
 12 C       -6.3400    -2.4820     0.1300 C.3   1 <1>  -0.1600 
 13 C       -7.5160    -1.5590    -0.1980 C.3   1 <1>   0.3430 
 14 N       -8.8010    -2.1880     0.2090 N.4   1 <1>  -0.9590 
 15 C       -9.1950    -3.3640    -0.6090 C.3   1 <1>   0.3430 
 16 C       -9.9450    -1.2470     0.1310 C.3   1 <1>   0.3430 
 17 C      -10.6910    -3.5110    -0.3680 C.3   1 <1>  -0.1600 
 18 C      -11.1740    -2.1440     0.1240 C.3   1 <1>  -0.1600 
 19 H        1.8020    -1.5220    -0.6840 H     1 <1>   0.1500 
 20 H       -1.9500    -4.3960     0.7400 H     1 <1>   0.1500 
 21 H        2.2230    -3.7860     0.2660 H     1 <1>   0.1500 
 22 H       -3.7520    -2.9020     1.1510 H     1 <1>   0.0800 
 23 H       -3.8320    -3.5970    -0.4740 H     1 <1>   0.0800 
 24 H       -4.9900    -1.5620    -1.2720 H     1 <1>   0.0800 
 25 H       -4.9150    -0.8810     0.3360 H     1 <1>   0.0800 
 26 H       -6.3450    -2.7150     1.1810 H     1 <1>   0.0800 
 27 H       -6.4170    -3.3960    -0.4330 H     1 <1>   0.0800 
 28 H       -7.5280    -1.3440    -1.2550 H     1 <1>   0.0800 
 29 H       -7.3860    -0.6290     0.3320 H     1 <1>   0.0800 
 30 H       -8.7300    -2.4990     1.1870 H     1 <1>   0.4500 
 31 H       -8.6550    -4.2520    -0.3220 H     1 <1>   0.0800 
 32 H       -9.0170    -3.1580    -1.6530 H     1 <1>   0.0800 
 33 H       -9.9000    -0.6930    -0.7930 H     1 <1>   0.0800 
 34 H       -9.9570    -0.5590     0.9620 H     1 <1>   0.0800 
 35 H      -10.8690    -4.2650     0.3790 H     1 <1>   0.0800 
 36 H      -11.1880    -3.8080    -1.2760 H     1 <1>   0.0800 
 37 H      -11.9360    -1.7340    -0.5170 H     1 <1>   0.0800 
 38 H      -11.5730    -2.2240     1.1210 H     1 <1>   0.0800 
@<TRIPOS>BOND
  1   1   2  1   
  2   2   3  ar  
  3   2   4  ar  
  4   3   5  1   
  5   3   6  ar  
  6   4   7  ar  
  7   4  19  1   
  8   5   8  1   
  9   6   9  ar  
 10   6  20  1   
 11   7   9  ar  
 12   7  21  1   
 13   8  10  1   
 14   8  22  1   
 15   8  23  1   
 16   9  11  1   
 17  10  12  1   
 18  10  24  1   
 19  10  25  1   
 20  12  13  1   
 21  12  26  1   
 22  12  27  1   
 23  13  14  1   
 24  13  28  1   
 25  13  29  1   
 26  14  15  1   
 27  14  16  1   
 28  14  30  1   
 29  15  17  1   
 30  15  31  1   
 31  15  32  1   
 32  16  18  1   
 33  16  33  1   
 34  16  34  1   
 35  17  18  1   
 36  17  35  1   
 37  17  36  1   
 38  18  37  1   
 39  18  38  1   
@<TRIPOS>SUBSTRUCTURE
  1 ****   8 GROUP 4 **** **** 0

# MOE 2024.06 (io_trps.svl 2023.06)
