@<TRIPOS>MOLECULE
NONAME
44 46 1 0 0 
SMALL
USER_CHARGES


@<TRIPOS>ATOM
  1 CL      -2.8940    -2.3820    -2.1690 Cl    1 <1>  -0.1770 
  2 C       -1.4160    -2.5030    -1.2450 C.ar  1 <1>   0.1770 
  3 C       -1.3830    -2.1890     0.1100 C.ar  1 <1>  -0.0090 
  4 C       -0.2890    -2.9290    -1.9300 C.ar  1 <1>  -0.1500 
  5 S       -2.8600    -1.6400     0.9930 S.o2  1 <1>   1.4470 
  6 C       -0.1630    -2.3150     0.7680 C.ar  1 <1>  -0.1500 
  7 C        0.9150    -3.0500    -1.2590 C.ar  1 <1>  -0.1500 
  8 O       -3.4090    -0.4820     0.3230 O.2   1 <1>  -0.6500 
  9 O       -2.5550    -1.5490     2.4050 O.2   1 <1>  -0.6500 
 10 N       -3.9390    -2.9360     0.8120 N.am  1 <1>  -0.8490 
 11 C        0.9630    -2.7410     0.0860 C.ar  1 <1>   0.1770 
 12 C       -5.3390    -2.5130     0.9700 C.3   1 <1>   0.1960 
 13 C       -3.6310    -4.0570     1.7040 C.3   1 <1>   0.1960 
 14 CL       2.4730    -2.8910     0.9440 Cl    1 <1>  -0.1770 
 15 C       -6.2870    -3.6550     0.5790 C.3   1 <1>  -0.0190 
 16 C       -4.5010    -5.2660     1.3420 C.3   1 <1>  -0.1600 
 17 C       -7.7400    -3.2150     0.7380 C.2   1 <1>   0.5690 
 18 C       -5.9940    -4.9170     1.4100 C.3   1 <1>  -0.1600 
 19 O       -8.0400    -2.5860     1.7270 O.2   1 <1>  -0.5700 
 20 N       -8.6780    -3.5370    -0.2060 N.am  1 <1>  -0.6600 
 21 C       -8.4750    -4.3490    -1.4260 C.3   1 <1>   0.1400 
 22 C      -10.0870    -3.1080    -0.0830 C.3   1 <1>   0.1400 
 23 C       -9.8810    -4.6360    -1.9400 C.3   1 <1>  -0.1600 
 24 C      -10.7270    -3.4780    -1.4170 C.3   1 <1>  -0.1600 
 25 H       -0.3580    -3.1600    -2.9790 H     1 <1>   0.1500 
 26 H       -0.0830    -2.0810     1.8160 H     1 <1>   0.1500 
 27 H        1.8050    -3.3790    -1.7680 H     1 <1>   0.1500 
 28 H       -5.5450    -1.6710     0.3310 H     1 <1>   0.0800 
 29 H       -5.5170    -2.2080     1.9900 H     1 <1>   0.0800 
 30 H       -3.8080    -3.7720     2.7290 H     1 <1>   0.0800 
 31 H       -2.5930    -4.3300     1.6040 H     1 <1>   0.0800 
 32 H       -6.0950    -3.8660    -0.4550 H     1 <1>   0.0800 
 33 H       -4.2880    -6.0740     2.0180 H     1 <1>   0.0800 
 34 H       -4.2460    -5.5910     0.3480 H     1 <1>   0.0800 
 35 H       -6.5840    -5.7420     1.0490 H     1 <1>   0.0800 
 36 H       -6.2710    -4.7360     2.4360 H     1 <1>   0.0800 
 37 H       -7.9460    -5.2600    -1.2060 H     1 <1>   0.0800 
 38 H       -7.9250    -3.7680    -2.1480 H     1 <1>   0.0800 
 39 H      -10.1510    -2.0500     0.1110 H     1 <1>   0.0800 
 40 H      -10.5480    -3.6500     0.7250 H     1 <1>   0.0800 
 41 H      -10.2270    -5.5620    -1.5150 H     1 <1>   0.0800 
 42 H       -9.9080    -4.7110    -3.0130 H     1 <1>   0.0800 
 43 H      -10.6520    -2.6380    -2.0840 H     1 <1>   0.0800 
 44 H      -11.7620    -3.7440    -1.3020 H     1 <1>   0.0800 
@<TRIPOS>BOND
  1   1   2  1   
  2   2   3  ar  
  3   2   4  ar  
  4   3   5  1   
  5   3   6  ar  
  6   4   7  ar  
  7   4  25  1   
  8   5   8  2   
  9   5   9  2   
 10   5  10  am  
 11   6  11  ar  
 12   6  26  1   
 13   7  11  ar  
 14   7  27  1   
 15  10  12  1   
 16  10  13  1   
 17  11  14  1   
 18  12  15  1   
 19  12  28  1   
 20  12  29  1   
 21  13  16  1   
 22  13  30  1   
 23  13  31  1   
 24  15  17  1   
 25  15  18  1   
 26  15  32  1   
 27  16  18  1   
 28  16  33  1   
 29  16  34  1   
 30  17  19  2   
 31  17  20  am  
 32  18  35  1   
 33  18  36  1   
 34  20  21  1   
 35  20  22  1   
 36  21  23  1   
 37  21  37  1   
 38  21  38  1   
 39  22  24  1   
 40  22  39  1   
 41  22  40  1   
 42  23  24  1   
 43  23  41  1   
 44  23  42  1   
 45  24  43  1   
 46  24  44  1   
@<TRIPOS>SUBSTRUCTURE
  1 ****  10 GROUP 4 **** **** 0

# MOE 2024.06 (io_trps.svl 2023.06)
