@<TRIPOS>MOLECULE
NONAME
37 39 1 0 0 
SMALL
USER_CHARGES


@<TRIPOS>ATOM
  1 S       -0.0960     0.1140    -0.8830 S.3   1 <1>  -0.0800 
  2 C        0.9430     0.5500     0.4390 C.2   1 <1>   0.4420 
  3 C       -1.4330     0.5190     0.1330 C.2   1 <1>   0.2930 
  4 N        0.2810     0.9370     1.4680 N.2   1 <1>  -0.3380 
  5 N        2.3160     0.4750     0.3590 N.am  1 <1>  -0.4940 
  6 N       -1.0740     0.9180     1.2870 N.2   1 <1>  -0.3380 
  7 C       -2.8280     0.3590    -0.4470 C.3   1 <1>  -0.0150 
  8 C        3.1720     0.0950    -0.6430 C.2   1 <1>   0.5440 
  9 C       -3.9990     0.0460     0.4340 C.3   1 <1>  -0.2000 
 10 C       -3.4700    -0.9930    -0.5080 C.3   1 <1>  -0.2000 
 11 O        2.7500    -0.2630    -1.7210 O.2   1 <1>  -0.5700 
 12 C        4.5930     0.1380    -0.3710 C.ar  1 <1>   0.0860 
 13 C        5.2520    -0.9720     0.1700 C.ar  1 <1>  -0.1440 
 14 C        5.3350     1.2990    -0.6190 C.ar  1 <1>  -0.1430 
 15 C        6.6020    -0.9070     0.4690 C.ar  1 <1>  -0.1500 
 16 C        4.4990    -2.2720     0.4330 C.3   1 <1>  -0.0970 
 17 C        6.6850     1.3450    -0.3140 C.ar  1 <1>  -0.1500 
 18 C        4.6750     2.5270    -1.2350 C.3   1 <1>  -0.0970 
 19 C        7.3240     0.2480     0.2340 C.ar  1 <1>  -0.1430 
 20 C        8.8050     0.3080     0.5630 C.3   1 <1>  -0.0970 
 21 H        2.7780     0.7600     1.2190 H     1 <1>   0.3700 
 22 H       -2.9990     1.0280    -1.2720 H     1 <1>   0.1000 
 23 H       -4.9440     0.5150     0.2180 H     1 <1>   0.1000 
 24 H       -3.8300    -0.0740     1.4900 H     1 <1>   0.1000 
 25 H       -2.9420    -1.8370    -0.0970 H     1 <1>   0.1000 
 26 H       -4.0480    -1.2510    -1.3780 H     1 <1>   0.1000 
 27 H        7.1030    -1.7640     0.8850 H     1 <1>   0.1500 
 28 H        3.7550    -2.1240     1.1950 H     1 <1>   0.0800 
 29 H        5.1680    -3.0480     0.7580 H     1 <1>   0.0800 
 30 H        4.0130    -2.6050    -0.4680 H     1 <1>   0.0800 
 31 H        7.2500     2.2400    -0.5070 H     1 <1>   0.1500 
 32 H        5.4000     3.2930    -1.4450 H     1 <1>   0.0800 
 33 H        4.1930     2.2610    -2.1600 H     1 <1>   0.0800 
 34 H        3.9390     2.9320    -0.5630 H     1 <1>   0.0800 
 35 H        9.0330    -0.3350     1.3940 H     1 <1>   0.0800 
 36 H        9.0930     1.3110     0.8230 H     1 <1>   0.0800 
 37 H        9.3800    -0.0080    -0.2890 H     1 <1>   0.0800 
@<TRIPOS>BOND
  1   1   2  1   
  2   1   3  1   
  3   2   4  2   
  4   2   5  1   
  5   3   6  2   
  6   3   7  1   
  7   4   6  1   
  8   5   8  am  
  9   5  21  1   
 10   7   9  1   
 11   7  10  1   
 12   7  22  1   
 13   8  11  2   
 14   8  12  1   
 15   9  10  1   
 16   9  23  1   
 17   9  24  1   
 18  10  25  1   
 19  10  26  1   
 20  12  13  ar  
 21  12  14  ar  
 22  13  15  ar  
 23  13  16  1   
 24  14  17  ar  
 25  14  18  1   
 26  15  19  ar  
 27  15  27  1   
 28  16  28  1   
 29  16  29  1   
 30  16  30  1   
 31  17  19  ar  
 32  17  31  1   
 33  18  32  1   
 34  18  33  1   
 35  18  34  1   
 36  19  20  1   
 37  20  35  1   
 38  20  36  1   
 39  20  37  1   
@<TRIPOS>SUBSTRUCTURE
  1 ****   5 GROUP 4 **** **** 0

# MOE 2024.06 (io_trps.svl 2023.06)
