@<TRIPOS>MOLECULE
NONAME
43 45 1 0 0 
SMALL
USER_CHARGES


@<TRIPOS>ATOM
  1 S       -0.4330    -0.1690     0.6090 S.3   1 <1>  -0.0800 
  2 C        0.7500     1.1050     0.3240 C.2   1 <1>   0.1040 
  3 C       -1.7480     0.8930     0.1420 C.2   1 <1>  -0.1400 
  4 N        2.0950     0.8440     0.5730 N.am  1 <1>  -0.4940 
  5 C        0.1370     2.2420    -0.1050 C.2   1 <1>   0.0190 
  6 C       -1.2920     2.1100    -0.1910 C.2   1 <1>  -0.1810 
  7 C       -3.1760     0.3960     0.1490 C.3   1 <1>   0.0200 
  8 C        2.8700    -0.2120     0.1670 C.2   1 <1>   0.5690 
  9 C        0.8280     3.4390    -0.4730 C.1   1 <1>   0.5380 
 10 C       -2.2430     3.2170    -0.6260 C.3   1 <1>   0.0210 
 11 C       -4.0620     1.4070    -0.6030 C.3   1 <1>  -0.1600 
 12 O        2.4090    -1.1650    -0.4140 O.2   1 <1>  -0.5700 
 13 C        4.3820    -0.1360     0.4360 C.3   1 <1>   0.2110 
 14 N        1.3850     4.3830    -0.7960 N.1   1 <1>  -0.5570 
 15 C       -3.7000     2.8670    -0.2560 C.3   1 <1>  -0.1600 
 16 S        5.0700     1.3290    -0.4900 S.3   1 <1>  -0.2860 
 17 C        5.1770    -1.3880     0.0100 C.3   1 <1>  -0.1600 
 18 C        4.5740     2.7330     0.5120 C.2   1 <1>   0.2430 
 19 C        6.6510    -1.3510     0.4440 C.3   1 <1>  -0.2400 
 20 N        4.1510     2.6240     1.7220 N.2   1 <1>  -0.3380 
 21 N        4.5630     3.9830     0.0540 N.pl3 1 <1>   0.0480 
 22 N        3.8180     3.8590     2.1030 N.2   1 <1>  -0.3380 
 23 C        4.0680     4.6430     1.1060 C.2   1 <1>   0.0360 
 24 C        4.9080     4.4950    -1.2840 C.3   1 <1>   0.0160 
 25 H        2.6170     1.6080     1.0230 H     1 <1>   0.3700 
 26 H       -3.5050     0.3000     1.1690 H     1 <1>   0.0800 
 27 H       -3.2350    -0.5680    -0.3230 H     1 <1>   0.0800 
 28 H       -2.1610     3.3450    -1.6910 H     1 <1>   0.0800 
 29 H       -1.9740     4.1460    -0.1530 H     1 <1>   0.0800 
 30 H       -5.0950     1.2180    -0.3710 H     1 <1>   0.0800 
 31 H       -3.9300     1.2610    -1.6610 H     1 <1>   0.0800 
 32 H        4.5430     0.0490     1.4820 H     1 <1>   0.0800 
 33 H       -4.3670     3.5390    -0.7670 H     1 <1>   0.0800 
 34 H       -3.8340     3.0130     0.8020 H     1 <1>   0.0800 
 35 H        5.1120    -1.5040    -1.0580 H     1 <1>   0.0800 
 36 H        4.7150    -2.2520     0.4550 H     1 <1>   0.0800 
 37 H        7.1750    -0.5440    -0.0390 H     1 <1>   0.0800 
 38 H        7.1340    -2.2730     0.1730 H     1 <1>   0.0800 
 39 H        6.7290    -1.2260     1.5090 H     1 <1>   0.0800 
 40 H        3.8920     5.7050     1.1010 H     1 <1>   0.1500 
 41 H        5.8510     4.0830    -1.5940 H     1 <1>   0.0800 
 42 H        4.9770     5.5680    -1.2550 H     1 <1>   0.0800 
 43 H        4.1420     4.2060    -1.9810 H     1 <1>   0.0800 
@<TRIPOS>BOND
  1   1   2  1   
  2   1   3  1   
  3   2   4  1   
  4   2   5  2   
  5   3   6  2   
  6   3   7  1   
  7   4   8  am  
  8   4  25  1   
  9   5   6  1   
 10   5   9  1   
 11   6  10  1   
 12   7  11  1   
 13   7  26  1   
 14   7  27  1   
 15   8  12  2   
 16   8  13  1   
 17   9  14  3   
 18  10  15  1   
 19  10  28  1   
 20  10  29  1   
 21  11  15  1   
 22  11  30  1   
 23  11  31  1   
 24  13  16  1   
 25  13  17  1   
 26  13  32  1   
 27  15  33  1   
 28  15  34  1   
 29  16  18  1   
 30  17  19  1   
 31  17  35  1   
 32  17  36  1   
 33  18  20  2   
 34  18  21  1   
 35  19  37  1   
 36  19  38  1   
 37  19  39  1   
 38  20  22  1   
 39  21  23  1   
 40  21  24  1   
 41  22  23  2   
 42  23  40  1   
 43  24  41  1   
 44  24  42  1   
 45  24  43  1   
@<TRIPOS>SUBSTRUCTURE
  1 ****   4 GROUP 4 **** **** 0

# MOE 2024.06 (io_trps.svl 2023.06)
