@<TRIPOS>MOLECULE
NONAME
48 51 1 0 0 
SMALL
USER_CHARGES


@<TRIPOS>ATOM
  1 O        0.8220    -0.1470    -0.5120 O.3   1 <1>  -0.6800 
  2 C        1.7370     0.7250     0.0550 C.3   1 <1>   0.1200 
  3 C        3.1450     0.2610    -0.3300 C.3   1 <1>   0.1100 
  4 N        4.1910     1.1510     0.2240 N.3   1 <1>  -0.8100 
  5 C        4.3060     2.4110    -0.5370 C.3   1 <1>   0.1100 
  6 C        5.4870     0.4500     0.2770 C.3   1 <1>   0.1100 
  7 C        5.3980     3.3290     0.0490 C.3   1 <1>   0.3430 
  8 C        6.5900     1.3450     0.8760 C.3   1 <1>   0.3430 
  9 N        6.7390     2.6440     0.1270 N.4   1 <1>  -0.9590 
 10 C        7.8180     3.5260     0.6890 C.3   1 <1>   0.4230 
 11 C        7.9690     4.8290    -0.1440 C.3   1 <1>  -0.0800 
 12 C        9.1890     2.7960     0.7020 C.3   1 <1>  -0.0800 
 13 C        8.4220     4.5050    -1.5870 C.3   1 <1>  -0.1600 
 14 C        9.0320     5.7320     0.5130 C.3   1 <1>  -0.1600 
 15 C        9.6450     2.4650    -0.7380 C.3   1 <1>  -0.1600 
 16 C       10.2460     3.7100     1.3550 C.3   1 <1>  -0.1600 
 17 C        9.7730     3.7640    -1.5590 C.3   1 <1>  -0.0800 
 18 C       10.3910     5.0120     0.5490 C.3   1 <1>  -0.0800 
 19 C       10.8220     4.6720    -0.8900 C.3   1 <1>  -0.1600 
 20 H       -0.0900     0.0770    -0.2400 H     1 <1>   0.4000 
 21 H        1.6130     0.7000     1.1240 H     1 <1>   0.0800 
 22 H        1.5310     1.7110    -0.3220 H     1 <1>   0.0800 
 23 H        3.2310     0.2090    -1.4030 H     1 <1>   0.0800 
 24 H        3.2730    -0.7320     0.0680 H     1 <1>   0.0800 
 25 H        3.3680     2.9380    -0.5030 H     1 <1>   0.0800 
 26 H        4.5270     2.2010    -1.5700 H     1 <1>   0.0800 
 27 H        5.7760     0.1290    -0.7090 H     1 <1>   0.0800 
 28 H        5.3880    -0.4270     0.8940 H     1 <1>   0.0800 
 29 H        5.0900     3.6350     1.0350 H     1 <1>   0.0800 
 30 H        5.4660     4.2080    -0.5670 H     1 <1>   0.0800 
 31 H        7.5160     0.7960     0.8560 H     1 <1>   0.0800 
 32 H        6.3430     1.5450     1.9060 H     1 <1>   0.0800 
 33 H        7.0300     2.4200    -0.8300 H     1 <1>   0.4500 
 34 H        7.5620     3.7940     1.7010 H     1 <1>   0.0800 
 35 H        7.0510     5.3860    -0.1600 H     1 <1>   0.0800 
 36 H        9.1440     1.8990     1.2920 H     1 <1>   0.0800 
 37 H        8.5320     5.4210    -2.1440 H     1 <1>   0.0800 
 38 H        7.6880     3.9120    -2.1010 H     1 <1>   0.0800 
 39 H        8.7320     5.9940     1.5140 H     1 <1>   0.0800 
 40 H        9.1280     6.6500    -0.0430 H     1 <1>   0.0800 
 41 H        8.9580     1.7920    -1.2190 H     1 <1>   0.0800 
 42 H       10.6020     1.9700    -0.7080 H     1 <1>   0.0800 
 43 H       11.1960     3.2040     1.3910 H     1 <1>   0.0800 
 44 H        9.9650     3.9390     2.3690 H     1 <1>   0.0800 
 45 H       10.0870     3.5340    -2.5640 H     1 <1>   0.0800 
 46 H       11.1300     5.6470     1.0090 H     1 <1>   0.0800 
 47 H       10.9380     5.5780    -1.4590 H     1 <1>   0.0800 
 48 H       11.7780     4.1770    -0.8760 H     1 <1>   0.0800 
@<TRIPOS>BOND
  1   1   2  1   
  2   1  20  1   
  3   2   3  1   
  4   2  21  1   
  5   2  22  1   
  6   3   4  1   
  7   3  23  1   
  8   3  24  1   
  9   4   5  1   
 10   4   6  1   
 11   5   7  1   
 12   5  25  1   
 13   5  26  1   
 14   6   8  1   
 15   6  27  1   
 16   6  28  1   
 17   7   9  1   
 18   7  29  1   
 19   7  30  1   
 20   8   9  1   
 21   8  31  1   
 22   8  32  1   
 23   9  10  1   
 24   9  33  1   
 25  10  11  1   
 26  10  12  1   
 27  10  34  1   
 28  11  13  1   
 29  11  14  1   
 30  11  35  1   
 31  12  15  1   
 32  12  16  1   
 33  12  36  1   
 34  13  17  1   
 35  13  37  1   
 36  13  38  1   
 37  14  18  1   
 38  14  39  1   
 39  14  40  1   
 40  15  17  1   
 41  15  41  1   
 42  15  42  1   
 43  16  18  1   
 44  16  43  1   
 45  16  44  1   
 46  17  19  1   
 47  17  45  1   
 48  18  19  1   
 49  18  46  1   
 50  19  47  1   
 51  19  48  1   
@<TRIPOS>SUBSTRUCTURE
  1 ****   9 GROUP 4 **** **** 0

# MOE 2024.06 (io_trps.svl 2023.06)
