@<TRIPOS>MOLECULE
NONAME
37 38 1 0 0 
SMALL
USER_CHARGES


@<TRIPOS>ATOM
  1 O        2.0470     0.2640     2.9880 O.2   1 <1>  -0.5700 
  2 C        2.9590     0.7460     2.3500 C.2   1 <1>   0.7060 
  3 O        3.6850     0.0100     1.5240 O.3   1 <1>  -0.4300 
  4 C        3.4140     2.0690     2.3430 C.2   1 <1>  -0.1360 
  5 C        4.6680     0.8060     0.8670 C.3   1 <1>   0.4180 
  6 C        4.4480     2.2090     1.4980 C.2   1 <1>  -0.0380 
  7 C        4.3160     0.7260    -0.6300 C.3   1 <1>  -0.1600 
  8 C        6.0330     0.1600     1.1880 C.3   1 <1>  -0.1600 
  9 N        5.0880     3.4300     1.3220 N.pl3 1 <1>  -0.8690 
 10 C        4.3250    -0.7170    -1.1790 C.3   1 <1>  -0.1600 
 11 C        6.5140    -0.8560     0.1310 C.3   1 <1>  -0.1600 
 12 C        6.3210     3.9510     0.7070 C.3   1 <1>   0.3690 
 13 C        5.3420    -1.6380    -0.4760 C.3   1 <1>  -0.1600 
 14 C        6.0500     5.4320     0.4510 C.3   1 <1>  -0.2400 
 15 C        6.6660     3.2840    -0.6190 C.3   1 <1>  -0.2400 
 16 C        7.4550     3.8200     1.7200 C.3   1 <1>  -0.2400 
 17 H        2.9560     2.8150     2.9590 H     1 <1>   0.1500 
 18 H        5.0320     1.2880    -1.1890 H     1 <1>   0.0800 
 19 H        3.3580     1.1820    -0.8030 H     1 <1>   0.0800 
 20 H        5.9690    -0.3210     2.1480 H     1 <1>   0.0800 
 21 H        6.7800     0.9190     1.2780 H     1 <1>   0.0800 
 22 H        4.6640     4.2050     1.8410 H     1 <1>   0.4000 
 23 H        4.5380    -0.6830    -2.2330 H     1 <1>   0.0800 
 24 H        3.3440    -1.1470    -1.0630 H     1 <1>   0.0800 
 25 H        7.0260    -0.3350    -0.6600 H     1 <1>   0.0800 
 26 H        7.2160    -1.5370     0.5800 H     1 <1>   0.0800 
 27 H        4.8430    -2.1720     0.3150 H     1 <1>   0.0800 
 28 H        5.7090    -2.3700    -1.1750 H     1 <1>   0.0800 
 29 H        5.2260     5.5470    -0.2310 H     1 <1>   0.0800 
 30 H        6.9150     5.8980     0.0140 H     1 <1>   0.0800 
 31 H        5.8230     5.9440     1.3680 H     1 <1>   0.0800 
 32 H        7.5100     3.7770    -1.0650 H     1 <1>   0.0800 
 33 H        6.9340     2.2580    -0.4800 H     1 <1>   0.0800 
 34 H        5.8380     3.3660    -1.2980 H     1 <1>   0.0800 
 35 H        7.2020     4.3280     2.6330 H     1 <1>   0.0800 
 36 H        8.3540     4.2560     1.3260 H     1 <1>   0.0800 
 37 H        7.6540     2.7920     1.9450 H     1 <1>   0.0800 
@<TRIPOS>BOND
  1   1   2  2   
  2   2   3  1   
  3   2   4  1   
  4   3   5  1   
  5   4   6  2   
  6   4  17  1   
  7   5   6  1   
  8   5   7  1   
  9   5   8  1   
 10   6   9  1   
 11   7  10  1   
 12   7  18  1   
 13   7  19  1   
 14   8  11  1   
 15   8  20  1   
 16   8  21  1   
 17   9  12  1   
 18   9  22  1   
 19  10  13  1   
 20  10  23  1   
 21  10  24  1   
 22  11  13  1   
 23  11  25  1   
 24  11  26  1   
 25  12  14  1   
 26  12  15  1   
 27  12  16  1   
 28  13  27  1   
 29  13  28  1   
 30  14  29  1   
 31  14  30  1   
 32  14  31  1   
 33  15  32  1   
 34  15  33  1   
 35  15  34  1   
 36  16  35  1   
 37  16  36  1   
 38  16  37  1   
@<TRIPOS>SUBSTRUCTURE
  1 ****   5 GROUP 4 **** **** 0

# MOE 2024.06 (io_trps.svl 2023.06)
