@<TRIPOS>MOLECULE
NONAME
60 64 1 0 0 
SMALL
USER_CHARGES


@<TRIPOS>ATOM
  1 F        1.7020    -2.1740    -1.7190 F     1 <1>  -0.1900 
  2 C        1.4450    -2.3180    -0.4390 C.ar  1 <1>   0.1900 
  3 C        2.2610    -1.6770     0.5030 C.ar  1 <1>   0.1000 
  4 C        0.3690    -3.1070    -0.0850 C.ar  1 <1>  -0.1500 
  5 N        3.3610    -0.8690     0.1810 N.pl3 1 <1>  -0.8380 
  6 C        1.9410    -1.8660     1.8410 C.ar  1 <1>  -0.1500 
  7 C        0.0770    -3.2750     1.2580 C.ar  1 <1>  -0.1500 
  8 C        3.0210     0.4120    -0.5010 C.3   1 <1>   0.2090 
  9 C        4.5150    -1.5950    -0.4240 C.3   1 <1>   0.2090 
 10 C        0.8640    -2.6540     2.2160 C.ar  1 <1>  -0.1500 
 11 C        4.2620     1.3210    -0.6060 C.3   1 <1>   0.3430 
 12 C        5.7450    -0.6700    -0.5320 C.3   1 <1>   0.3430 
 13 N        5.4470     0.6290    -1.2600 N.4   1 <1>  -0.9590 
 14 C        6.6740     1.4670    -1.4330 C.3   1 <1>   0.4230 
 15 C        7.1630     2.0750    -0.1120 C.3   1 <1>  -0.1600 
 16 C        6.4270     2.5680    -2.4680 C.3   1 <1>  -0.1600 
 17 C        8.4170     2.9200    -0.3370 C.3   1 <1>   0.3430 
 18 C        7.6870     3.4120    -2.6790 C.3   1 <1>   0.3430 
 19 N        8.1490     3.9600    -1.3750 N.4   1 <1>  -0.9590 
 20 C        9.3330     4.8540    -1.5480 C.3   1 <1>   0.5240 
 21 C        9.4920     5.6110    -0.2530 C.2   1 <1>  -0.1810 
 22 C       10.4130     5.2530     0.7570 C.ar  1 <1>   0.0000 
 23 C        8.8040     6.6980     0.1770 C.2   1 <1>  -0.3020 
 24 C       10.2140     6.1540     1.7970 C.ar  1 <1>  -0.1520 
 25 C       11.3890     4.2570     0.8870 C.ar  1 <1>  -0.1500 
 26 N        9.2390     7.0430     1.4260 N.pl3 1 <1>   0.0330 
 27 C       10.9530     6.0660     2.9780 C.ar  1 <1>  -0.1500 
 28 C       12.1170     4.1710     2.0510 C.ar  1 <1>  -0.1500 
 29 C       11.8970     5.0730     3.0980 C.ar  1 <1>  -0.1500 
 30 H       -0.2300    -3.5800    -0.8430 H     1 <1>   0.1500 
 31 H        2.5430    -1.3900     2.5930 H     1 <1>   0.1500 
 32 H       -0.7580    -3.8860     1.5580 H     1 <1>   0.1500 
 33 H        2.2540     0.9170     0.0640 H     1 <1>   0.0800 
 34 H        2.6270     0.2130    -1.4830 H     1 <1>   0.0800 
 35 H        4.2460    -1.9640    -1.3990 H     1 <1>   0.0800 
 36 H        4.7590    -2.4440     0.1930 H     1 <1>   0.0800 
 37 H        0.6360    -2.7860     3.2600 H     1 <1>   0.1500 
 38 H        4.5250     1.6260     0.3930 H     1 <1>   0.0800 
 39 H        3.9930     2.2030    -1.1620 H     1 <1>   0.0800 
 40 H        6.5320    -1.2050    -1.0380 H     1 <1>   0.0800 
 41 H        6.0810    -0.4580     0.4690 H     1 <1>   0.0800 
 42 H        5.1200     0.3420    -2.1930 H     1 <1>   0.4500 
 43 H        7.4590     0.8320    -1.8150 H     1 <1>   0.0800 
 44 H        7.4120     1.2970     0.5880 H     1 <1>   0.0800 
 45 H        6.4130     2.7010     0.3350 H     1 <1>   0.0800 
 46 H        5.6290     3.2200    -2.1610 H     1 <1>   0.0800 
 47 H        6.1580     2.1260    -3.4110 H     1 <1>   0.0800 
 48 H        9.2340     2.2900    -0.6520 H     1 <1>   0.0800 
 49 H        8.7000     3.3890     0.5940 H     1 <1>   0.0800 
 50 H        7.4710     4.2190    -3.3630 H     1 <1>   0.0800 
 51 H        8.4650     2.8040    -3.1150 H     1 <1>   0.0800 
 52 H        7.4390     4.6010    -0.9910 H     1 <1>   0.4500 
 53 H        9.1590     5.5570    -2.3470 H     1 <1>   0.0800 
 54 H       10.2240     4.2880    -1.7670 H     1 <1>   0.0800 
 55 H        8.0310     7.2650    -0.3150 H     1 <1>   0.1500 
 56 H       11.5790     3.5710     0.0840 H     1 <1>   0.1500 
 57 H        8.9210     7.8360     1.9960 H     1 <1>   0.2700 
 58 H       10.7860     6.7680     3.7770 H     1 <1>   0.1500 
 59 H       12.8720     3.4130     2.1720 H     1 <1>   0.1500 
 60 H       12.4810     4.9850     3.9980 H     1 <1>   0.1500 
@<TRIPOS>BOND
  1   1   2  1   
  2   2   3  ar  
  3   2   4  ar  
  4   3   5  1   
  5   3   6  ar  
  6   4   7  ar  
  7   4  30  1   
  8   5   8  1   
  9   5   9  1   
 10   6  10  ar  
 11   6  31  1   
 12   7  10  ar  
 13   7  32  1   
 14   8  11  1   
 15   8  33  1   
 16   8  34  1   
 17   9  12  1   
 18   9  35  1   
 19   9  36  1   
 20  10  37  1   
 21  11  13  1   
 22  11  38  1   
 23  11  39  1   
 24  12  13  1   
 25  12  40  1   
 26  12  41  1   
 27  13  14  1   
 28  13  42  1   
 29  14  15  1   
 30  14  16  1   
 31  14  43  1   
 32  15  17  1   
 33  15  44  1   
 34  15  45  1   
 35  16  18  1   
 36  16  46  1   
 37  16  47  1   
 38  17  19  1   
 39  17  48  1   
 40  17  49  1   
 41  18  19  1   
 42  18  50  1   
 43  18  51  1   
 44  19  20  1   
 45  19  52  1   
 46  20  21  1   
 47  20  53  1   
 48  20  54  1   
 49  21  22  1   
 50  21  23  2   
 51  22  24  ar  
 52  22  25  ar  
 53  23  26  1   
 54  23  55  1   
 55  24  26  1   
 56  24  27  ar  
 57  25  28  ar  
 58  25  56  1   
 59  26  57  1   
 60  27  29  ar  
 61  27  58  1   
 62  28  29  ar  
 63  28  59  1   
 64  29  60  1   
@<TRIPOS>SUBSTRUCTURE
  1 ****  15 GROUP 4 **** **** 0

# MOE 2024.06 (io_trps.svl 2023.06)
