@<TRIPOS>MOLECULE
NONAME
40 41 1 0 0 
SMALL
USER_CHARGES


@<TRIPOS>ATOM
  1 CL      -1.4900     0.4590    -0.4160 Cl    1 <1>  -0.1770 
  2 C       -1.7610     1.9230     0.5090 C.ar  1 <1>   0.1770 
  3 C       -2.7990     2.7780     0.1400 C.ar  1 <1>   0.1170 
  4 C       -0.9340     2.1900     1.5820 C.ar  1 <1>  -0.1500 
  5 N       -3.6100     2.4500    -0.9640 N.am  1 <1>  -0.5470 
  6 C       -2.9720     3.9380     0.8900 C.ar  1 <1>  -0.1500 
  7 C       -1.1310     3.3450     2.3200 C.ar  1 <1>  -0.1500 
  8 C       -4.8980     2.7780    -1.2430 C.2   1 <1>   0.6900 
  9 C       -2.1490     4.2160     1.9690 C.ar  1 <1>  -0.1500 
 10 O       -5.5790     3.4410    -0.4870 O.2   1 <1>  -0.5700 
 11 N       -5.4540     2.2950    -2.3810 N.am  1 <1>  -0.7300 
 12 C       -6.7770     2.7080    -2.9400 C.3   1 <1>   0.1400 
 13 C       -7.9580     1.9740    -2.2670 C.3   1 <1>   0.3430 
 14 N       -8.0700     2.3170    -0.8190 N.4   1 <1>  -0.9590 
 15 C       -8.5180     1.1670     0.0120 C.3   1 <1>   0.3430 
 16 C       -8.8660     3.5520    -0.5760 C.3   1 <1>   0.3430 
 17 C       -8.4010     1.5300     1.4930 C.3   1 <1>  -0.1600 
 18 C       -8.7640     3.9490     0.8980 C.3   1 <1>  -0.1600 
 19 C       -9.1850     2.8050     1.8300 C.3   1 <1>  -0.1600 
 20 H       -0.1470     1.5030     1.8370 H     1 <1>   0.1500 
 21 H       -3.2090     1.7270    -1.5590 H     1 <1>   0.3700 
 22 H       -3.7480     4.6360     0.6340 H     1 <1>   0.1500 
 23 H       -0.4960     3.5660     3.1610 H     1 <1>   0.1500 
 24 H       -2.3010     5.1180     2.5390 H     1 <1>   0.1500 
 25 H       -4.8170     1.8650    -3.0570 H     1 <1>   0.3700 
 26 H       -6.7880     2.4900    -3.9940 H     1 <1>   0.0800 
 27 H       -6.8980     3.7720    -2.8270 H     1 <1>   0.0800 
 28 H       -7.7980     0.9150    -2.3790 H     1 <1>   0.0800 
 29 H       -8.8760     2.2250    -2.7710 H     1 <1>   0.0800 
 30 H       -7.1050     2.5600    -0.5050 H     1 <1>   0.4500 
 31 H       -7.9050     0.3040    -0.1930 H     1 <1>   0.0800 
 32 H       -9.5420     0.9250    -0.2210 H     1 <1>   0.0800 
 33 H       -9.8990     3.3790    -0.8330 H     1 <1>   0.0800 
 34 H       -8.4890     4.3580    -1.1840 H     1 <1>   0.0800 
 35 H       -7.3620     1.6640     1.7420 H     1 <1>   0.0800 
 36 H       -8.7720     0.7130     2.0870 H     1 <1>   0.0800 
 37 H       -9.3900     4.8050     1.0770 H     1 <1>   0.0800 
 38 H       -7.7500     4.2410     1.1140 H     1 <1>   0.0800 
 39 H       -9.0040     3.0840     2.8550 H     1 <1>   0.0800 
 40 H      -10.2410     2.6190     1.7200 H     1 <1>   0.0800 
@<TRIPOS>BOND
  1   1   2  1   
  2   2   3  ar  
  3   2   4  ar  
  4   3   5  1   
  5   3   6  ar  
  6   4   7  ar  
  7   4  20  1   
  8   5   8  am  
  9   5  21  1   
 10   6   9  ar  
 11   6  22  1   
 12   7   9  ar  
 13   7  23  1   
 14   8  10  2   
 15   8  11  am  
 16   9  24  1   
 17  11  12  1   
 18  11  25  1   
 19  12  13  1   
 20  12  26  1   
 21  12  27  1   
 22  13  14  1   
 23  13  28  1   
 24  13  29  1   
 25  14  15  1   
 26  14  16  1   
 27  14  30  1   
 28  15  17  1   
 29  15  31  1   
 30  15  32  1   
 31  16  18  1   
 32  16  33  1   
 33  16  34  1   
 34  17  19  1   
 35  17  35  1   
 36  17  36  1   
 37  18  19  1   
 38  18  37  1   
 39  18  38  1   
 40  19  39  1   
 41  19  40  1   
@<TRIPOS>SUBSTRUCTURE
  1 ****  10 GROUP 4 **** **** 0

# MOE 2024.06 (io_trps.svl 2023.06)
