@<TRIPOS>MOLECULE
NONAME
13 12 1 0 0 
SMALL
USER_CHARGES


@<TRIPOS>ATOM
  1 S       -0.7870     0.5050     0.7940 S.2   1 <1>  -1.1770 
  2 P       -0.8340    -1.4250     0.3750 P.3   1 <1>   1.4200 
  3 O       -2.0990    -1.6550    -0.6220 O.3   1 <1>  -0.5510 
  4 O        0.4210    -1.7180    -0.6170 O.3   1 <1>  -0.5510 
  5 O       -0.8620    -2.4530     1.4550 O.3   1 <1>  -0.7000 
  6 C       -3.3550    -1.2130    -0.2480 C.3   1 <1>   0.0400 
  7 C        1.6960    -1.3390    -0.2380 C.3   1 <1>   0.0400 
  8 H       -3.3260    -0.1410    -0.1420 H     1 <1>   0.0800 
  9 H       -3.6180    -1.6720     0.6890 H     1 <1>   0.0800 
 10 H       -4.0550    -1.4910    -1.0140 H     1 <1>   0.0800 
 11 H        2.3840    -1.6510    -1.0010 H     1 <1>   0.0800 
 12 H        1.9320    -1.8100     0.7000 H     1 <1>   0.0800 
 13 H        1.7210    -0.2670    -0.1320 H     1 <1>   0.0800 
@<TRIPOS>BOND
  1   1   2  2   
  2   2   3  1   
  3   2   4  1   
  4   2   5  1   
  5   3   6  1   
  6   4   7  1   
  7   6   8  1   
  8   6   9  1   
  9   6  10  1   
 10   7  11  1   
 11   7  12  1   
 12   7  13  1   
@<TRIPOS>SUBSTRUCTURE
  1 ****   2 GROUP 4 **** **** 0

# MOE 2024.06 (io_trps.svl 2023.06)
