@<TRIPOS>MOLECULE
NONAME
44 46 1 0 0 
SMALL
USER_CHARGES


@<TRIPOS>ATOM
  1 CL      -0.1570    -2.1710     2.8000 Cl    1 <1>  -0.1770 
  2 C       -1.2540    -1.8890     1.4590 C.ar  1 <1>   0.1770 
  3 C       -0.9510    -2.3670     0.1760 C.ar  1 <1>   0.1000 
  4 C       -2.4140    -1.1860     1.7180 C.ar  1 <1>  -0.1500 
  5 N        0.2060    -3.0850    -0.1520 N.pl3 1 <1>  -0.8380 
  6 C       -1.8670    -2.1050    -0.8360 C.ar  1 <1>  -0.1500 
  7 C       -3.3090    -0.9400     0.6910 C.ar  1 <1>  -0.1500 
  8 C        0.2990    -4.4690     0.4020 C.3   1 <1>   0.2090 
  9 C        1.4860    -2.3140    -0.1240 C.3   1 <1>   0.2090 
 10 C       -3.0320    -1.4010    -0.5850 C.ar  1 <1>  -0.1500 
 11 C        1.4580    -5.2510    -0.2510 C.3   1 <1>   0.3430 
 12 C        2.6330    -3.1200    -0.7680 C.3   1 <1>   0.3430 
 13 N        2.7670    -4.5070    -0.1810 N.4   1 <1>  -0.9590 
 14 C        3.8750    -5.2700    -0.8160 C.3   1 <1>   0.4860 
 15 C        5.1780    -4.5460    -0.5400 C.ar  1 <1>  -0.1430 
 16 C        5.7660    -4.6080     0.7160 C.ar  1 <1>  -0.1500 
 17 C        5.7900    -3.8080    -1.5440 C.ar  1 <1>  -0.1500 
 18 C        6.9460    -3.9300     0.9710 C.ar  1 <1>  -0.1500 
 19 C        6.9680    -3.1300    -1.2870 C.ar  1 <1>  -0.1500 
 20 C        7.5520    -3.1820    -0.0330 C.ar  1 <1>   0.0830 
 21 O        8.7030    -2.4870     0.1310 O.3   1 <1>  -0.3620 
 22 C        9.4300    -2.5340     1.3390 C.3   1 <1>   0.0400 
 23 H       -2.6160    -0.8340     2.7140 H     1 <1>   0.1500 
 24 H       -1.6600    -2.4600    -1.8290 H     1 <1>   0.1500 
 25 H       -4.2170    -0.3930     0.8830 H     1 <1>   0.1500 
 26 H       -0.6280    -4.9850     0.2190 H     1 <1>   0.0800 
 27 H        0.4480    -4.4290     1.4670 H     1 <1>   0.0800 
 28 H        1.7470    -2.0680     0.8900 H     1 <1>   0.0800 
 29 H        1.3550    -1.3900    -0.6620 H     1 <1>   0.0800 
 30 H       -3.7280    -1.2110    -1.3850 H     1 <1>   0.1500 
 31 H        1.1980    -5.4270    -1.2820 H     1 <1>   0.0800 
 32 H        1.5500    -6.2080     0.2360 H     1 <1>   0.0800 
 33 H        3.5550    -2.5750    -0.6390 H     1 <1>   0.0800 
 34 H        2.4380    -3.1920    -1.8250 H     1 <1>   0.0800 
 35 H        3.0170    -4.3800     0.8070 H     1 <1>   0.4500 
 36 H        3.7140    -5.3470    -1.8790 H     1 <1>   0.0800 
 37 H        3.9270    -6.2640    -0.4040 H     1 <1>   0.0800 
 38 H        5.3220    -5.1850     1.5100 H     1 <1>   0.1500 
 39 H        5.3680    -3.7520    -2.5330 H     1 <1>   0.1500 
 40 H        7.3820    -3.9930     1.9510 H     1 <1>   0.1500 
 41 H        7.4500    -2.5560    -2.0590 H     1 <1>   0.1500 
 42 H       10.3130    -1.9320     1.2200 H     1 <1>   0.0800 
 43 H        9.7090    -3.5530     1.5400 H     1 <1>   0.0800 
 44 H        8.8210    -2.1350     2.1310 H     1 <1>   0.0800 
@<TRIPOS>BOND
  1   1   2  1   
  2   2   3  ar  
  3   2   4  ar  
  4   3   5  1   
  5   3   6  ar  
  6   4   7  ar  
  7   4  23  1   
  8   5   8  1   
  9   5   9  1   
 10   6  10  ar  
 11   6  24  1   
 12   7  10  ar  
 13   7  25  1   
 14   8  11  1   
 15   8  26  1   
 16   8  27  1   
 17   9  12  1   
 18   9  28  1   
 19   9  29  1   
 20  10  30  1   
 21  11  13  1   
 22  11  31  1   
 23  11  32  1   
 24  12  13  1   
 25  12  33  1   
 26  12  34  1   
 27  13  14  1   
 28  13  35  1   
 29  14  15  1   
 30  14  36  1   
 31  14  37  1   
 32  15  16  ar  
 33  15  17  ar  
 34  16  18  ar  
 35  16  38  1   
 36  17  19  ar  
 37  17  39  1   
 38  18  20  ar  
 39  18  40  1   
 40  19  20  ar  
 41  19  41  1   
 42  20  21  1   
 43  21  22  1   
 44  22  42  1   
 45  22  43  1   
 46  22  44  1   
@<TRIPOS>SUBSTRUCTURE
  1 ****  12 GROUP 4 **** **** 0

# MOE 2024.06 (io_trps.svl 2023.06)
