@<TRIPOS>MOLECULE
NONAME
50 52 1 0 0 
SMALL
USER_CHARGES


@<TRIPOS>ATOM
  1 S        0.4830    -0.0040     0.5170 S.o2  1 <1>   1.3330 
  2 O        0.8610    -0.2790     1.8830 O.2   1 <1>  -0.6500 
  3 O       -0.7240     0.7410     0.2400 O.2   1 <1>  -0.6500 
  4 N        1.7760     0.7950    -0.2310 N.am  1 <1>  -0.8490 
  5 C        0.3810    -1.5360    -0.3840 C.3   1 <1>  -0.1350 
  6 C        3.0810     0.2650     0.1990 C.3   1 <1>   0.1960 
  7 C        1.7100     2.2400     0.0150 C.3   1 <1>   0.1960 
  8 C        4.2120     0.8960    -0.6260 C.3   1 <1>  -0.0190 
  9 C        2.8000     2.9720    -0.7780 C.3   1 <1>  -0.1600 
 10 C        5.5560     0.3030    -0.2350 C.2   1 <1>   0.5690 
 11 C        4.1990     2.4250    -0.4620 C.3   1 <1>  -0.1600 
 12 O        5.7190    -0.0760     0.8980 O.2   1 <1>  -0.5700 
 13 N        6.5260     0.2540    -1.1830 N.am  1 <1>  -0.7300 
 14 C        7.8610    -0.3790    -1.0870 C.3   1 <1>   0.5070 
 15 C        7.8060    -1.7600    -0.4280 C.ar  1 <1>  -0.1440 
 16 C        8.9150     0.5780    -0.5170 C.ar  1 <1>  -0.1440 
 17 C        8.1550    -1.9580     0.9020 C.ar  1 <1>  -0.1500 
 18 C        7.3960    -2.8540    -1.1800 C.ar  1 <1>  -0.1500 
 19 C       10.1930     0.5660    -1.0620 C.ar  1 <1>  -0.1500 
 20 C        8.6480     1.4580     0.5260 C.ar  1 <1>  -0.1500 
 21 C        8.0990    -3.2210     1.4660 C.ar  1 <1>  -0.1500 
 22 C        7.3410    -4.1180    -0.6180 C.ar  1 <1>  -0.1500 
 23 C       11.1760     1.4170    -0.5870 C.ar  1 <1>  -0.1500 
 24 C        9.6290     2.3100     1.0030 C.ar  1 <1>  -0.1500 
 25 C        7.6930    -4.3020     0.7060 C.ar  1 <1>  -0.1500 
 26 C       10.8940     2.2910     0.4460 C.ar  1 <1>  -0.1500 
 27 H       -0.4470    -2.1150    -0.0250 H     1 <1>   0.0800 
 28 H        1.2780    -2.1080    -0.2570 H     1 <1>   0.0800 
 29 H        0.2360    -1.3390    -1.4270 H     1 <1>   0.0800 
 30 H        3.1090    -0.8030     0.0650 H     1 <1>   0.0800 
 31 H        3.2340     0.4690     1.2470 H     1 <1>   0.0800 
 32 H        1.8230     2.4350     1.0700 H     1 <1>   0.0800 
 33 H        0.7500     2.6210    -0.2940 H     1 <1>   0.0800 
 34 H        4.0310     0.6500    -1.6570 H     1 <1>   0.0800 
 35 H        2.7620     4.0220    -0.5470 H     1 <1>   0.0800 
 36 H        2.5920     2.8610    -1.8280 H     1 <1>   0.0800 
 37 H        4.9270     2.8770    -1.1130 H     1 <1>   0.0800 
 38 H        4.4590     2.6740     0.5530 H     1 <1>   0.0800 
 39 H        6.3740     0.7360    -2.0640 H     1 <1>   0.3700 
 40 H        8.1630    -0.5660    -2.1030 H     1 <1>   0.0800 
 41 H        8.4640    -1.1280     1.5120 H     1 <1>   0.1500 
 42 H        7.1140    -2.7280    -2.2100 H     1 <1>   0.1500 
 43 H       10.4370    -0.1130    -1.8620 H     1 <1>   0.1500 
 44 H        7.6760     1.4860     0.9830 H     1 <1>   0.1500 
 45 H        8.3690    -3.3570     2.4990 H     1 <1>   0.1500 
 46 H        7.0230    -4.9580    -1.2100 H     1 <1>   0.1500 
 47 H       12.1620     1.3960    -1.0180 H     1 <1>   0.1500 
 48 H        9.4040     2.9850     1.8100 H     1 <1>   0.1500 
 49 H        7.6480    -5.2830     1.1460 H     1 <1>   0.1500 
 50 H       11.6570     2.9530     0.8170 H     1 <1>   0.1500 
@<TRIPOS>BOND
  1   1   2  2   
  2   1   3  2   
  3   1   4  am  
  4   1   5  1   
  5   4   6  1   
  6   4   7  1   
  7   5  27  1   
  8   5  28  1   
  9   5  29  1   
 10   6   8  1   
 11   6  30  1   
 12   6  31  1   
 13   7   9  1   
 14   7  32  1   
 15   7  33  1   
 16   8  10  1   
 17   8  11  1   
 18   8  34  1   
 19   9  11  1   
 20   9  35  1   
 21   9  36  1   
 22  10  12  2   
 23  10  13  am  
 24  11  37  1   
 25  11  38  1   
 26  13  14  1   
 27  13  39  1   
 28  14  15  1   
 29  14  16  1   
 30  14  40  1   
 31  15  17  ar  
 32  15  18  ar  
 33  16  19  ar  
 34  16  20  ar  
 35  17  21  ar  
 36  17  41  1   
 37  18  22  ar  
 38  18  42  1   
 39  19  23  ar  
 40  19  43  1   
 41  20  24  ar  
 42  20  44  1   
 43  21  25  ar  
 44  21  45  1   
 45  22  25  ar  
 46  22  46  1   
 47  23  26  ar  
 48  23  47  1   
 49  24  26  ar  
 50  24  48  1   
 51  25  49  1   
 52  26  50  1   
@<TRIPOS>SUBSTRUCTURE
  1 ****  10 GROUP 4 **** **** 0

# MOE 2024.06 (io_trps.svl 2023.06)
