@<TRIPOS>MOLECULE
NONAME
39 41 1 0 0 
SMALL
USER_CHARGES


@<TRIPOS>ATOM
  1 S        0.0690    -0.3790    -0.3340 S.o2  1 <1>   1.5010 
  2 O       -0.0820    -0.4580    -1.7710 O.2   1 <1>  -0.6500 
  3 O        0.3380     0.8990     0.2870 O.2   1 <1>  -0.6500 
  4 N       -1.3650    -0.9810     0.3470 N.am  1 <1>  -0.8490 
  5 C        1.2960    -1.5700     0.2190 C.2   1 <1>  -0.0630 
  6 C       -2.4270     0.0310     0.3360 C.3   1 <1>   0.1960 
  7 C       -1.8150    -2.2100    -0.3180 C.3   1 <1>   0.1960 
  8 C        1.3440    -2.0950     1.5030 C.2   1 <1>   0.1390 
  9 C        2.3490    -2.1540    -0.4060 C.2   1 <1>  -0.3020 
 10 C       -3.6370    -0.4730     1.1200 C.3   1 <1>  -0.1600 
 11 C       -2.9890    -2.8150     0.4480 C.3   1 <1>  -0.1600 
 12 N        2.3210    -2.9350     1.6670 N.2   1 <1>  -0.7070 
 13 N        2.9500    -2.9670     0.4810 N.pl3 1 <1>   0.3140 
 14 C       -4.1210    -1.7960     0.5470 C.3   1 <1>   0.5600 
 15 C        4.1460    -3.8030     0.2500 C.3   1 <1>   0.0960 
 16 O       -5.1560    -2.2840     1.3280 O.3   1 <1>  -0.5600 
 17 O       -4.6770    -1.5710    -0.7070 O.3   1 <1>  -0.5600 
 18 C        5.4270    -2.9610     0.2980 C.3   1 <1>  -0.2400 
 19 C       -6.0660    -2.9300     0.5160 C.3   1 <1>   0.1200 
 20 C       -5.7840    -2.3840    -0.8700 C.3   1 <1>   0.1200 
 21 H       -2.7090     0.2590    -0.6800 H     1 <1>   0.0800 
 22 H       -2.0760     0.9390     0.7980 H     1 <1>   0.0800 
 23 H       -1.0120    -2.9270    -0.3470 H     1 <1>   0.0800 
 24 H       -2.1100    -1.9940    -1.3330 H     1 <1>   0.0800 
 25 H        0.6450    -1.8370     2.2820 H     1 <1>   0.1500 
 26 H        2.6890    -2.0270    -1.4180 H     1 <1>   0.1500 
 27 H       -4.4310     0.2480     1.0770 H     1 <1>   0.0800 
 28 H       -3.3520    -0.6110     2.1460 H     1 <1>   0.0800 
 29 H       -2.6600    -3.0770     1.4360 H     1 <1>   0.0800 
 30 H       -3.3280    -3.7040    -0.0480 H     1 <1>   0.0800 
 31 H        4.0490    -4.2820    -0.7070 H     1 <1>   0.0800 
 32 H        4.1780    -4.5620     1.0120 H     1 <1>   0.0800 
 33 H        5.4130    -2.2080    -0.4700 H     1 <1>   0.0800 
 34 H        6.2840    -3.5920     0.1450 H     1 <1>   0.0800 
 35 H        5.5190    -2.4870     1.2600 H     1 <1>   0.0800 
 36 H       -7.0630    -2.7010     0.8500 H     1 <1>   0.0800 
 37 H       -5.8890    -3.9900     0.5670 H     1 <1>   0.0800 
 38 H       -5.5490    -3.1680    -1.5680 H     1 <1>   0.0800 
 39 H       -6.6000    -1.7890    -1.2400 H     1 <1>   0.0800 
@<TRIPOS>BOND
  1   1   2  2   
  2   1   3  2   
  3   1   4  am  
  4   1   5  1   
  5   4   6  1   
  6   4   7  1   
  7   5   8  1   
  8   5   9  2   
  9   6  10  1   
 10   6  21  1   
 11   6  22  1   
 12   7  11  1   
 13   7  23  1   
 14   7  24  1   
 15   8  12  2   
 16   8  25  1   
 17   9  13  1   
 18   9  26  1   
 19  10  14  1   
 20  10  27  1   
 21  10  28  1   
 22  11  14  1   
 23  11  29  1   
 24  11  30  1   
 25  12  13  1   
 26  13  15  1   
 27  14  16  1   
 28  14  17  1   
 29  15  18  1   
 30  15  31  1   
 31  15  32  1   
 32  16  19  1   
 33  17  20  1   
 34  18  33  1   
 35  18  34  1   
 36  18  35  1   
 37  19  20  1   
 38  19  36  1   
 39  19  37  1   
 40  20  38  1   
 41  20  39  1   
@<TRIPOS>SUBSTRUCTURE
  1 ****   4 GROUP 4 **** **** 0

# MOE 2024.06 (io_trps.svl 2023.06)
