@<TRIPOS>MOLECULE
NONAME
44 45 1 0 0 
SMALL
USER_CHARGES


@<TRIPOS>ATOM
  1 O        1.6540    -4.8590    -0.4910 O.3   1 <1>  -0.3630 
  2 C        2.9580    -4.9250    -0.1330 C.ar  1 <1>   0.0830 
  3 C        0.7800    -3.8940     0.0570 C.3   1 <1>   0.2640 
  4 C        3.5760    -4.0300     0.7350 C.ar  1 <1>  -0.1500 
  5 C        3.6970    -5.9620    -0.6780 C.ar  1 <1>  -0.1500 
  6 C       -0.6200    -4.1220    -0.4910 C.ar  1 <1>  -0.1440 
  7 C        4.9170    -4.1780     1.0440 C.ar  1 <1>  -0.1500 
  8 C        5.0360    -6.1120    -0.3680 C.ar  1 <1>  -0.1500 
  9 C       -1.2510    -3.1460    -1.2480 C.ar  1 <1>  -0.1500 
 10 C       -1.2830    -5.3120    -0.2300 C.ar  1 <1>  -0.1500 
 11 C        5.6550    -5.2170     0.4930 C.ar  1 <1>  -0.1430 
 12 C       -2.5310    -3.3560    -1.7340 C.ar  1 <1>  -0.1500 
 13 C       -2.5620    -5.5230    -0.7150 C.ar  1 <1>  -0.1500 
 14 C        7.1230    -5.3710     0.8180 C.3   1 <1>   0.4860 
 15 C       -3.1870    -4.5440    -1.4660 C.ar  1 <1>  -0.1500 
 16 N        7.8640    -4.6460    -0.2370 N.4   1 <1>  -0.9060 
 17 C        9.3230    -4.6540    -0.1680 C.3   1 <1>   0.5030 
 18 C        9.7820    -3.9970     1.1330 C.3   1 <1>  -0.2400 
 19 C        9.8360    -6.0890    -0.2710 C.3   1 <1>  -0.2400 
 20 C        9.8130    -3.8400    -1.3610 C.3   1 <1>  -0.2400 
 21 H        1.1420    -2.9180    -0.2130 H     1 <1>   0.0800 
 22 H        0.7790    -4.0050     1.1270 H     1 <1>   0.0800 
 23 H        3.0300    -3.2170     1.1760 H     1 <1>   0.1500 
 24 H        3.2070    -6.6510    -1.3450 H     1 <1>   0.1500 
 25 H        5.3710    -3.4750     1.7230 H     1 <1>   0.1500 
 26 H        5.5760    -6.9350    -0.8050 H     1 <1>   0.1500 
 27 H       -0.7520    -2.2190    -1.4660 H     1 <1>   0.1500 
 28 H       -0.8000    -6.0800     0.3500 H     1 <1>   0.1500 
 29 H       -3.0150    -2.5950    -2.3210 H     1 <1>   0.1500 
 30 H       -3.0690    -6.4490    -0.5080 H     1 <1>   0.1500 
 31 H        7.3890    -6.4150     0.8220 H     1 <1>   0.0800 
 32 H        7.3320    -4.9510     1.7890 H     1 <1>   0.0800 
 33 H       -4.1820    -4.7080    -1.8440 H     1 <1>   0.1500 
 34 H        7.5390    -3.6750    -0.2360 H     1 <1>   0.4500 
 35 H        7.5740    -5.0310    -1.1400 H     1 <1>   0.4500 
 36 H        9.5020    -4.5780     1.9930 H     1 <1>   0.0800 
 37 H        9.3830    -3.0030     1.2280 H     1 <1>   0.0800 
 38 H       10.8550    -3.9200     1.1400 H     1 <1>   0.0800 
 39 H       10.9120    -6.0860    -0.3160 H     1 <1>   0.0800 
 40 H        9.5570    -6.6750     0.5860 H     1 <1>   0.0800 
 41 H        9.4750    -6.5680    -1.1640 H     1 <1>   0.0800 
 42 H        9.4600    -2.8250    -1.3130 H     1 <1>   0.0800 
 43 H        9.4970    -4.2810    -2.2900 H     1 <1>   0.0800 
 44 H       10.8890    -3.8090    -1.3660 H     1 <1>   0.0800 
@<TRIPOS>BOND
  1   1   2  1   
  2   1   3  1   
  3   2   4  ar  
  4   2   5  ar  
  5   3   6  1   
  6   3  21  1   
  7   3  22  1   
  8   4   7  ar  
  9   4  23  1   
 10   5   8  ar  
 11   5  24  1   
 12   6   9  ar  
 13   6  10  ar  
 14   7  11  ar  
 15   7  25  1   
 16   8  11  ar  
 17   8  26  1   
 18   9  12  ar  
 19   9  27  1   
 20  10  13  ar  
 21  10  28  1   
 22  11  14  1   
 23  12  15  ar  
 24  12  29  1   
 25  13  15  ar  
 26  13  30  1   
 27  14  16  1   
 28  14  31  1   
 29  14  32  1   
 30  15  33  1   
 31  16  17  1   
 32  16  34  1   
 33  16  35  1   
 34  17  18  1   
 35  17  19  1   
 36  17  20  1   
 37  18  36  1   
 38  18  37  1   
 39  18  38  1   
 40  19  39  1   
 41  19  40  1   
 42  19  41  1   
 43  20  42  1   
 44  20  43  1   
 45  20  44  1   
@<TRIPOS>SUBSTRUCTURE
  1 ****   2 GROUP 4 **** **** 0

# MOE 2024.06 (io_trps.svl 2023.06)
