@<TRIPOS>MOLECULE
NONAME
33 33 1 0 0 
SMALL
USER_CHARGES


@<TRIPOS>ATOM
  1 O        1.4740    -1.0690    -0.3980 O.3   1 <1>  -0.6800 
  2 C        2.6010    -0.2940    -0.6010 C.3   1 <1>   0.1200 
  3 C        2.5150     0.9120     0.3470 C.3   1 <1>   0.3430 
  4 N        3.7520     1.7520     0.3060 N.4   1 <1>  -0.9590 
  5 C        4.9300     1.0960     0.9530 C.3   1 <1>   0.4860 
  6 C        3.5610     3.1350     0.8140 C.3   1 <1>   0.3430 
  7 C        6.1850     1.4740     0.1700 C.ar  1 <1>   0.1670 
  8 C        2.7550     3.9600    -0.1900 C.3   1 <1>  -0.1600 
  9 N        6.0370     1.5900    -1.1480 N.ar  1 <1>  -0.6200 
 10 C        7.3810     1.6830     0.8400 C.ar  1 <1>  -0.1500 
 11 C        2.6380     5.4180     0.2680 C.3   1 <1>  -0.2400 
 12 C        7.1320     1.9190    -1.8190 C.ar  1 <1>   0.1600 
 13 C        8.5080     2.0280     0.1260 C.ar  1 <1>  -0.1500 
 14 C        8.3680     2.1460    -1.2400 C.ar  1 <1>  -0.1500 
 15 H        1.4460    -1.8350    -1.0120 H     1 <1>   0.4000 
 16 H        2.6090     0.0270    -1.6290 H     1 <1>   0.0800 
 17 H        3.4610    -0.9050    -0.3940 H     1 <1>   0.0800 
 18 H        2.3470     0.5610     1.3520 H     1 <1>   0.0800 
 19 H        1.6640     1.5020     0.0510 H     1 <1>   0.0800 
 20 H        4.0760     1.8430    -0.6780 H     1 <1>   0.4500 
 21 H        4.8240     0.0250     0.9150 H     1 <1>   0.0800 
 22 H        5.0190     1.3960     1.9830 H     1 <1>   0.0800 
 23 H        4.5230     3.6070     0.9440 H     1 <1>   0.0800 
 24 H        3.0590     3.1190     1.7680 H     1 <1>   0.0800 
 25 H        1.7620     3.5590    -0.2980 H     1 <1>   0.0800 
 26 H        3.2430     3.9410    -1.1490 H     1 <1>   0.0800 
 27 H        7.4480     1.5780     1.9090 H     1 <1>   0.1500 
 28 H        2.1350     5.4840     1.2170 H     1 <1>   0.0800 
 29 H        2.0720     5.9850    -0.4520 H     1 <1>   0.0800 
 30 H        3.6120     5.8700     0.3590 H     1 <1>   0.0800 
 31 H        7.0450     2.0140    -2.8900 H     1 <1>   0.1500 
 32 H        9.4560     2.1970     0.6090 H     1 <1>   0.1500 
 33 H        9.2120     2.4100    -1.8530 H     1 <1>   0.1500 
@<TRIPOS>BOND
  1   1   2  1   
  2   1  15  1   
  3   2   3  1   
  4   2  16  1   
  5   2  17  1   
  6   3   4  1   
  7   3  18  1   
  8   3  19  1   
  9   4   5  1   
 10   4   6  1   
 11   4  20  1   
 12   5   7  1   
 13   5  21  1   
 14   5  22  1   
 15   6   8  1   
 16   6  23  1   
 17   6  24  1   
 18   7   9  ar  
 19   7  10  ar  
 20   8  11  1   
 21   8  25  1   
 22   8  26  1   
 23   9  12  ar  
 24  10  13  ar  
 25  10  27  1   
 26  11  28  1   
 27  11  29  1   
 28  11  30  1   
 29  12  14  ar  
 30  12  31  1   
 31  13  14  ar  
 32  13  32  1   
 33  14  33  1   
@<TRIPOS>SUBSTRUCTURE
  1 ****   4 GROUP 4 **** **** 0

# MOE 2024.06 (io_trps.svl 2023.06)
