@<TRIPOS>MOLECULE
NONAME
36 36 1 0 0 
SMALL
USER_CHARGES


@<TRIPOS>ATOM
  1 CL       0.3670     1.3070     1.8130 Cl    1 <1>  -0.1770 
  2 C        1.6990     1.7970     0.7900 C.ar  1 <1>   0.1770 
  3 C        1.7630     3.0960     0.3070 C.ar  1 <1>   0.0830 
  4 C        2.6640     0.8570     0.4720 C.ar  1 <1>  -0.1500 
  5 O        0.7670     3.9610     0.6290 O.3   1 <1>  -0.3630 
  6 C        2.8470     3.4540    -0.4990 C.ar  1 <1>   0.0830 
  7 C        3.7280     1.2100    -0.3470 C.ar  1 <1>  -0.1440 
  8 C        0.0310     4.5430    -0.4430 C.3   1 <1>   0.1810 
  9 O        3.0080     4.7020    -0.9930 O.3   1 <1>  -0.3630 
 10 C        3.8070     2.5100    -0.8310 C.ar  1 <1>  -0.1500 
 11 C        4.7910     0.1960    -0.7110 C.3   1 <1>   0.4870 
 12 C       -1.4220     4.7750    -0.0420 C.2   1 <1>   0.5690 
 13 C        3.3010     5.7270    -0.0680 C.3   1 <1>   0.1200 
 14 N        5.8640     0.3130     0.3010 N.4   1 <1>  -0.9060 
 15 O       -2.0830     5.5790    -0.6480 O.2   1 <1>  -0.5700 
 16 N       -1.9700     4.0790     0.9750 N.am  1 <1>  -0.8000 
 17 C        3.4210     7.0370    -0.8400 C.3   1 <1>  -0.2400 
 18 C        7.0080    -0.6140     0.0620 C.3   1 <1>   0.2630 
 19 H        2.5560    -0.1390     0.8680 H     1 <1>   0.1500 
 20 H        0.0590     3.8830    -1.2900 H     1 <1>   0.0800 
 21 H        0.4880     5.4790    -0.7020 H     1 <1>   0.0800 
 22 H        4.6120     2.8210    -1.4770 H     1 <1>   0.1500 
 23 H        5.1760     0.4050    -1.6960 H     1 <1>   0.0800 
 24 H        4.3720    -0.7980    -0.7050 H     1 <1>   0.0800 
 25 H        4.2270     5.4870     0.4240 H     1 <1>   0.0800 
 26 H        2.5110     5.7870     0.6590 H     1 <1>   0.0800 
 27 H        5.4490     0.1470     1.2270 H     1 <1>   0.4500 
 28 H        6.1840     1.2910     0.3100 H     1 <1>   0.4500 
 29 H       -2.9380     4.2430     1.2500 H     1 <1>   0.3700 
 30 H       -1.4260     3.4210     1.5380 H     1 <1>   0.3700 
 31 H        4.2090     6.9700    -1.5680 H     1 <1>   0.0800 
 32 H        3.6500     7.8390    -0.1610 H     1 <1>   0.0800 
 33 H        2.4940     7.2630    -1.3340 H     1 <1>   0.0800 
 34 H        6.6740    -1.6390     0.0820 H     1 <1>   0.0800 
 35 H        7.7590    -0.4850     0.8260 H     1 <1>   0.0800 
 36 H        7.4600    -0.4160    -0.8980 H     1 <1>   0.0800 
@<TRIPOS>BOND
  1   1   2  1   
  2   2   3  ar  
  3   2   4  ar  
  4   3   5  1   
  5   3   6  ar  
  6   4   7  ar  
  7   4  19  1   
  8   5   8  1   
  9   6   9  1   
 10   6  10  ar  
 11   7  10  ar  
 12   7  11  1   
 13   8  12  1   
 14   8  20  1   
 15   8  21  1   
 16   9  13  1   
 17  10  22  1   
 18  11  14  1   
 19  11  23  1   
 20  11  24  1   
 21  12  15  2   
 22  12  16  am  
 23  13  17  1   
 24  13  25  1   
 25  13  26  1   
 26  14  18  1   
 27  14  27  1   
 28  14  28  1   
 29  16  29  1   
 30  16  30  1   
 31  17  31  1   
 32  17  32  1   
 33  17  33  1   
 34  18  34  1   
 35  18  35  1   
 36  18  36  1   
@<TRIPOS>SUBSTRUCTURE
  1 ****   3 GROUP 4 **** **** 0

# MOE 2024.06 (io_trps.svl 2023.06)
