@<TRIPOS>MOLECULE
ka-07824
25 25 1 0 0 
SMALL
USER_CHARGES


@<TRIPOS>ATOM
  1 O       -0.1270     0.8920    -1.4560 O.3   1 <1>  -0.3630 
  2 C       -0.8340     1.7680    -0.7060 C.ar  1 <1>   0.0820 
  3 C        0.8780     0.1490    -0.8050 C.3   1 <1>   0.1200 
  4 C       -1.8080     1.3450     0.1980 C.ar  1 <1>  -0.1440 
  5 C       -0.5570     3.1190    -0.8600 C.ar  1 <1>  -0.1500 
  6 C        1.9690     1.1090    -0.3090 C.3   1 <1>   0.3430 
  7 C       -2.4460     2.2940     0.9820 C.ar  1 <1>  -0.1500 
  8 C       -2.2270    -0.1120     0.3390 C.3   1 <1>  -0.0960 
  9 C       -1.2060     4.0540    -0.0750 C.ar  1 <1>  -0.1500 
 10 N        3.0680     0.3880     0.3990 N.4   1 <1>  -0.8530 
 11 C       -2.1440     3.6390     0.8520 C.ar  1 <1>  -0.1500 
 12 H        1.2720    -0.5440    -1.5260 H     1 <1>   0.0800 
 13 H        0.4290    -0.3880     0.0100 H     1 <1>   0.0800 
 14 H        0.1580     3.4390    -1.5950 H     1 <1>   0.1500 
 15 H        1.5200     1.8250     0.3630 H     1 <1>   0.0800 
 16 H        2.3710     1.6420    -1.1560 H     1 <1>   0.0800 
 17 H       -3.1950     1.9920     1.6940 H     1 <1>   0.1500 
 18 H       -2.0600    -0.6480    -0.5790 H     1 <1>   0.0800 
 19 H       -3.2770    -0.1740     0.5650 H     1 <1>   0.0800 
 20 H       -1.6800    -0.5840     1.1330 H     1 <1>   0.0800 
 21 H       -0.9910     5.1030    -0.1890 H     1 <1>   0.1500 
 22 H        2.7130    -0.1070     1.2270 H     1 <1>   0.4500 
 23 H        3.7840     1.0520     0.7200 H     1 <1>   0.4500 
 24 H        3.5270    -0.2940    -0.2160 H     1 <1>   0.4500 
 25 H       -2.6510     4.3640     1.4660 H     1 <1>   0.1500 
@<TRIPOS>BOND
  1   1   2  1   
  2   1   3  1   
  3   2   4  ar  
  4   2   5  ar  
  5   3   6  1   
  6   3  12  1   
  7   3  13  1   
  8   4   7  ar  
  9   4   8  1   
 10   5   9  ar  
 11   5  14  1   
 12   6  10  1   
 13   6  15  1   
 14   6  16  1   
 15   7  11  ar  
 16   7  17  1   
 17   8  18  1   
 18   8  19  1   
 19   8  20  1   
 20   9  11  ar  
 21   9  21  1   
 22  10  22  1   
 23  10  23  1   
 24  10  24  1   
 25  11  25  1   
@<TRIPOS>SUBSTRUCTURE
  1 ****   2 GROUP 4 **** **** 0

# MOE 2024.06 (io_trps.svl 2023.06)
