@<TRIPOS>MOLECULE
NONAME
24 25 1 0 0 
SMALL
USER_CHARGES


@<TRIPOS>ATOM
  1 O       -0.1300     0.4290    -0.8270 O.2   1 <1>  -0.5700 
  2 C       -0.5190     1.4930    -0.4110 C.2   1 <1>   0.5690 
  3 N        0.2430     2.5830    -0.1060 N.am  1 <1>  -0.4770 
  4 C       -1.9790     1.7560    -0.1600 C.3   1 <1>  -0.0990 
  5 C        1.6470     2.6730    -0.0940 C.ar  1 <1>   0.1170 
  6 C       -0.5910     3.6860     0.4120 C.3   1 <1>   0.1400 
  7 C       -2.0360     3.2630     0.1190 C.3   1 <1>  -0.1600 
  8 C        2.4240     1.6440     0.4270 C.ar  1 <1>  -0.1500 
  9 C        2.2930     3.8000    -0.5950 C.ar  1 <1>  -0.1500 
 10 C        3.8010     1.7510     0.4600 C.ar  1 <1>   0.0820 
 11 C        3.6740     3.9060    -0.5650 C.ar  1 <1>  -0.1500 
 12 O        4.5270     0.7470     0.9770 O.3   1 <1>  -0.5320 
 13 C        4.4350     2.8800    -0.0350 C.ar  1 <1>  -0.1500 
 14 H       -2.2900     1.1880     0.6980 H     1 <1>   0.0800 
 15 H       -2.5670     1.4820    -1.0160 H     1 <1>   0.0800 
 16 H       -0.3530     4.6140    -0.0770 H     1 <1>   0.0800 
 17 H       -0.4260     3.7800     1.4720 H     1 <1>   0.0800 
 18 H       -2.6910     3.5000     0.9390 H     1 <1>   0.0800 
 19 H       -2.3800     3.7810    -0.7590 H     1 <1>   0.0800 
 20 H        1.9550     0.7560     0.8080 H     1 <1>   0.1500 
 21 H        1.7150     4.5990    -1.0200 H     1 <1>   0.1500 
 22 H        4.1550     4.7850    -0.9570 H     1 <1>   0.1500 
 23 H        5.4850     0.9010     0.9200 H     1 <1>   0.4500 
 24 H        5.5060     2.9620    -0.0110 H     1 <1>   0.1500 
@<TRIPOS>BOND
  1   1   2  2   
  2   2   3  am  
  3   2   4  1   
  4   3   5  1   
  5   3   6  1   
  6   4   7  1   
  7   4  14  1   
  8   4  15  1   
  9   5   8  ar  
 10   5   9  ar  
 11   6   7  1   
 12   6  16  1   
 13   6  17  1   
 14   7  18  1   
 15   7  19  1   
 16   8  10  ar  
 17   8  20  1   
 18   9  11  ar  
 19   9  21  1   
 20  10  12  1   
 21  10  13  ar  
 22  11  13  ar  
 23  11  22  1   
 24  12  23  1   
 25  13  24  1   
@<TRIPOS>SUBSTRUCTURE
  1 ****   5 GROUP 4 **** **** 0

# MOE 2024.06 (io_trps.svl 2023.06)
