@<TRIPOS>MOLECULE
NONAME
58 60 1 0 0 
SMALL
USER_CHARGES


@<TRIPOS>ATOM
  1 O        0.9260     1.5290     1.7870 O.2   1 <1>  -0.5700 
  2 C        1.2700     1.7560     0.6430 C.2   1 <1>   0.5440 
  3 N        0.3420     2.2620    -0.2380 N.am  1 <1>  -0.4940 
  4 C        2.6460     1.5730     0.2220 C.ar  1 <1>   0.0860 
  5 C       -1.0530     2.3440    -0.0690 C.2   1 <1>  -0.0880 
  6 C        3.6940     1.6570     1.1390 C.ar  1 <1>  -0.1500 
  7 C        2.9830     1.3160    -1.1090 C.ar  1 <1>  -0.1500 
  8 N       -1.8700     1.3240     0.3420 N.pl3 1 <1>   0.5930 
  9 C       -1.8420     3.4320    -0.3220 C.2   1 <1>  -0.0860 
 10 C        5.0120     1.5120     0.7480 C.ar  1 <1>  -0.1500 
 11 C        4.3000     1.1710    -1.5050 C.ar  1 <1>  -0.1500 
 12 N       -3.1670     1.7450     0.3450 N.2   1 <1>  -0.7070 
 13 C       -1.5430    -0.0550     0.4500 C.ar  1 <1>  -0.0230 
 14 C       -1.5490     4.7570    -0.7860 C.2   1 <1>   0.7160 
 15 C       -3.1320     2.9730    -0.0480 C.2   1 <1>   0.1390 
 16 C        5.3240     1.2690    -0.5780 C.ar  1 <1>  -0.1430 
 17 C       -1.5440    -0.8660    -0.6800 C.ar  1 <1>  -0.1500 
 18 C       -1.2190    -0.6220     1.6780 C.ar  1 <1>  -0.1500 
 19 O       -2.2750     5.2390    -1.6380 O.2   1 <1>  -0.5700 
 20 N       -0.4910     5.5130    -0.3070 N.am  1 <1>  -0.6600 
 21 C        6.7710     1.1110    -1.0080 C.3   1 <1>  -0.0970 
 22 C       -1.2210    -2.2090    -0.5870 C.ar  1 <1>  -0.1500 
 23 C       -0.8960    -1.9640     1.7730 C.ar  1 <1>  -0.1500 
 24 C        0.0840     5.2950     1.0600 C.3   1 <1>   0.1400 
 25 C       -0.1330     6.7970    -0.9880 C.3   1 <1>   0.1400 
 26 C       -0.8960    -2.7590     0.6400 C.ar  1 <1>  -0.1500 
 27 C        1.6180     5.2790     1.0400 C.3   1 <1>  -0.1600 
 28 C       -0.8250     7.9860    -0.3130 C.3   1 <1>  -0.1600 
 29 C        2.1840     4.8830     2.4080 C.3   1 <1>  -0.2400 
 30 C       -0.5390     9.2920    -1.0630 C.3   1 <1>  -0.2400 
 31 H        0.7390     2.8060    -1.0060 H     1 <1>   0.3700 
 32 H        3.4660     1.8400     2.1750 H     1 <1>   0.1500 
 33 H        2.2080     1.2180    -1.8480 H     1 <1>   0.1500 
 34 H        5.7960     1.5860     1.4830 H     1 <1>   0.1500 
 35 H        4.5280     0.9770    -2.5390 H     1 <1>   0.1500 
 36 H       -4.0110     3.5870    -0.1600 H     1 <1>   0.1500 
 37 H       -1.8040    -0.4430    -1.6350 H     1 <1>   0.1500 
 38 H       -1.2120    -0.0040     2.5610 H     1 <1>   0.1500 
 39 H        7.1940     2.0750    -1.2270 H     1 <1>   0.0800 
 40 H        6.8400     0.4940    -1.8860 H     1 <1>   0.0800 
 41 H        7.3460     0.6490    -0.2250 H     1 <1>   0.0800 
 42 H       -1.2260    -2.8260    -1.4680 H     1 <1>   0.1500 
 43 H       -0.6420    -2.3860     2.7300 H     1 <1>   0.1500 
 44 H       -0.2690     4.3650     1.4700 H     1 <1>   0.0800 
 45 H       -0.2580     6.0740     1.7180 H     1 <1>   0.0800 
 46 H       -0.4370     6.7530    -2.0200 H     1 <1>   0.0800 
 47 H        0.9330     6.9370    -0.9820 H     1 <1>   0.0800 
 48 H       -0.6450    -3.8020     0.7150 H     1 <1>   0.1500 
 49 H        1.9930     6.2560     0.7950 H     1 <1>   0.0800 
 50 H        1.9650     4.5830     0.2990 H     1 <1>   0.0800 
 51 H       -0.4810     8.0870     0.7000 H     1 <1>   0.0800 
 52 H       -1.8880     7.8150    -0.3030 H     1 <1>   0.0800 
 53 H        1.8960     5.5990     3.1570 H     1 <1>   0.0800 
 54 H        3.2590     4.8460     2.3650 H     1 <1>   0.0800 
 55 H        1.8220     3.9130     2.7030 H     1 <1>   0.0800 
 56 H        0.5170     9.4950    -1.0800 H     1 <1>   0.0800 
 57 H       -1.0370    10.1120    -0.5750 H     1 <1>   0.0800 
 58 H       -0.8990     9.2300    -2.0750 H     1 <1>   0.0800 
@<TRIPOS>BOND
  1   1   2  2   
  2   2   3  am  
  3   2   4  1   
  4   3   5  1   
  5   3  31  1   
  6   4   6  ar  
  7   4   7  ar  
  8   5   8  1   
  9   5   9  2   
 10   6  10  ar  
 11   6  32  1   
 12   7  11  ar  
 13   7  33  1   
 14   8  12  1   
 15   8  13  1   
 16   9  14  1   
 17   9  15  1   
 18  10  16  ar  
 19  10  34  1   
 20  11  16  ar  
 21  11  35  1   
 22  12  15  2   
 23  13  17  ar  
 24  13  18  ar  
 25  14  19  2   
 26  14  20  am  
 27  15  36  1   
 28  16  21  1   
 29  17  22  ar  
 30  17  37  1   
 31  18  23  ar  
 32  18  38  1   
 33  20  24  1   
 34  20  25  1   
 35  21  39  1   
 36  21  40  1   
 37  21  41  1   
 38  22  26  ar  
 39  22  42  1   
 40  23  26  ar  
 41  23  43  1   
 42  24  27  1   
 43  24  44  1   
 44  24  45  1   
 45  25  28  1   
 46  25  46  1   
 47  25  47  1   
 48  26  48  1   
 49  27  29  1   
 50  27  49  1   
 51  27  50  1   
 52  28  30  1   
 53  28  51  1   
 54  28  52  1   
 55  29  53  1   
 56  29  54  1   
 57  29  55  1   
 58  30  56  1   
 59  30  57  1   
 60  30  58  1   
@<TRIPOS>SUBSTRUCTURE
  1 ****   3 GROUP 4 **** **** 0

# MOE 2024.06 (io_trps.svl 2023.06)
