@<TRIPOS>MOLECULE
NONAME
39 40 1 0 0 
SMALL
USER_CHARGES


@<TRIPOS>ATOM
  1 CL      -1.7460     1.1280     1.9690 Cl    1 <1>  -0.1770 
  2 C       -0.8960     2.2660     0.9500 C.ar  1 <1>   0.1770 
  3 C       -1.4670     2.6780    -0.2450 C.ar  1 <1>  -0.1440 
  4 C        0.3310     2.7430     1.3690 C.ar  1 <1>  -0.1500 
  5 C       -0.7790     3.5900    -1.0330 C.ar  1 <1>  -0.1500 
  6 C       -2.8150     2.1370    -0.6800 C.3   1 <1>   0.4870 
  7 C        1.0060     3.6560     0.5780 C.ar  1 <1>  -0.1500 
  8 C        0.4510     4.0760    -0.6200 C.ar  1 <1>  -0.1500 
  9 N       -3.8700     2.6560     0.2340 N.4   1 <1>  -0.9590 
 10 C       -5.1970     1.9900    -0.0190 C.3   1 <1>   0.3430 
 11 C       -3.9680     4.1620     0.1850 C.3   1 <1>   0.3430 
 12 C       -6.3010     2.5200     0.9160 C.3   1 <1>   0.1400 
 13 C       -5.0620     4.6990     1.1240 C.3   1 <1>   0.1400 
 14 N       -6.3580     4.0100     0.8550 N.am  1 <1>  -0.6600 
 15 C       -7.4640     4.7040     0.4390 C.2   1 <1>   0.7800 
 16 O       -7.4420     5.9050     0.2610 O.2   1 <1>  -0.5700 
 17 O       -8.5760     4.0120     0.2010 O.3   1 <1>  -0.4300 
 18 C       -9.7560     4.6610    -0.2170 C.3   1 <1>   0.1200 
 19 C      -10.8390     3.6030    -0.4040 C.3   1 <1>  -0.2400 
 20 H        0.7550     2.4070     2.3000 H     1 <1>   0.1500 
 21 H       -1.1810     3.9310    -1.9730 H     1 <1>   0.1500 
 22 H       -2.7890     1.0600    -0.6400 H     1 <1>   0.0800 
 23 H       -3.0210     2.4350    -1.6950 H     1 <1>   0.0800 
 24 H        1.9650     4.0360     0.8910 H     1 <1>   0.1500 
 25 H        0.9860     4.7840    -1.2330 H     1 <1>   0.1500 
 26 H       -3.5670     2.4010     1.1860 H     1 <1>   0.4500 
 27 H       -5.1050     0.9240     0.1160 H     1 <1>   0.0800 
 28 H       -5.5040     2.1690    -1.0370 H     1 <1>   0.0800 
 29 H       -4.1980     4.4800    -0.8180 H     1 <1>   0.0800 
 30 H       -3.0230     4.6030     0.4620 H     1 <1>   0.0800 
 31 H       -6.1020     2.2140     1.9290 H     1 <1>   0.0800 
 32 H       -7.2440     2.0870     0.6280 H     1 <1>   0.0800 
 33 H       -5.1590     5.7630     0.9800 H     1 <1>   0.0800 
 34 H       -4.7790     4.5380     2.1500 H     1 <1>   0.0800 
 35 H       -9.5560     5.1770    -1.1410 H     1 <1>   0.0800 
 36 H      -10.0400     5.3740     0.5400 H     1 <1>   0.0800 
 37 H      -10.5410     2.8940    -1.1550 H     1 <1>   0.0800 
 38 H      -11.7520     4.0730    -0.7220 H     1 <1>   0.0800 
 39 H      -11.0230     3.0920     0.5240 H     1 <1>   0.0800 
@<TRIPOS>BOND
  1   1   2  1   
  2   2   3  ar  
  3   2   4  ar  
  4   3   5  ar  
  5   3   6  1   
  6   4   7  ar  
  7   4  20  1   
  8   5   8  ar  
  9   5  21  1   
 10   6   9  1   
 11   6  22  1   
 12   6  23  1   
 13   7   8  ar  
 14   7  24  1   
 15   8  25  1   
 16   9  10  1   
 17   9  11  1   
 18   9  26  1   
 19  10  12  1   
 20  10  27  1   
 21  10  28  1   
 22  11  13  1   
 23  11  29  1   
 24  11  30  1   
 25  12  14  1   
 26  12  31  1   
 27  12  32  1   
 28  13  14  1   
 29  13  33  1   
 30  13  34  1   
 31  14  15  am  
 32  15  16  2   
 33  15  17  1   
 34  17  18  1   
 35  18  19  1   
 36  18  35  1   
 37  18  36  1   
 38  19  37  1   
 39  19  38  1   
 40  19  39  1   
@<TRIPOS>SUBSTRUCTURE
  1 ****  11 GROUP 4 **** **** 0

# MOE 2024.06 (io_trps.svl 2023.06)
