@<TRIPOS>MOLECULE
NONAME
43 44 1 0 0 
SMALL
USER_CHARGES


@<TRIPOS>ATOM
  1 F        0.7750     0.0570    -1.4740 F     1 <1>  -0.1900 
  2 C        1.7330     0.7860    -0.9710 C.ar  1 <1>   0.1900 
  3 C        2.0880     1.9560    -1.6120 C.ar  1 <1>  -0.1500 
  4 C        2.3560     0.3620     0.1860 C.ar  1 <1>  -0.1500 
  5 C        3.1070     2.7260    -1.0770 C.ar  1 <1>  -0.1500 
  6 C        3.3750     1.1370     0.7160 C.ar  1 <1>  -0.1500 
  7 C        3.7560     2.3170     0.0840 C.ar  1 <1>  -0.1430 
  8 C        4.8790     3.1510     0.6580 C.3   1 <1>   0.4870 
  9 N        6.1280     2.6540     0.0290 N.4   1 <1>  -0.9060 
 10 C        7.3850     3.2870     0.4940 C.3   1 <1>   0.4230 
 11 C        7.4810     4.7340    -0.0050 C.3   1 <1>  -0.1600 
 12 C        8.5680     2.4700    -0.0280 C.3   1 <1>  -0.1600 
 13 C        8.8270     5.3610     0.3720 C.3   1 <1>   0.3430 
 14 C        9.9020     3.1160     0.3530 C.3   1 <1>   0.3430 
 15 N        9.9490     4.5240    -0.1430 N.4   1 <1>  -0.9590 
 16 C       11.2540     5.1750     0.1960 C.3   1 <1>   0.3430 
 17 C       12.3830     4.5930    -0.6570 C.3   1 <1>  -0.1600 
 18 C       13.6960     5.3400    -0.4010 C.3   1 <1>  -0.2400 
 19 H        1.5690     2.2510    -2.5090 H     1 <1>   0.1500 
 20 H        2.0420    -0.5540     0.6560 H     1 <1>   0.1500 
 21 H        3.3730     3.6420    -1.5780 H     1 <1>   0.1500 
 22 H        3.8510     0.8050     1.6240 H     1 <1>   0.1500 
 23 H        4.9150     3.0310     1.7290 H     1 <1>   0.0800 
 24 H        4.7180     4.1920     0.4260 H     1 <1>   0.0800 
 25 H        6.0110     2.7380    -0.9890 H     1 <1>   0.4500 
 26 H        6.1460     1.6410     0.2060 H     1 <1>   0.4500 
 27 H        7.4100     3.2820     1.5730 H     1 <1>   0.0800 
 28 H        6.7060     5.3310     0.4400 H     1 <1>   0.0800 
 29 H        7.3680     4.7770    -1.0740 H     1 <1>   0.0800 
 30 H        8.5250     2.3740    -1.0990 H     1 <1>   0.0800 
 31 H        8.5430     1.4820     0.3980 H     1 <1>   0.0800 
 32 H        8.9020     5.4460     1.4460 H     1 <1>   0.0800 
 33 H        8.8910     6.3550    -0.0440 H     1 <1>   0.0800 
 34 H       10.7100     2.5440    -0.0770 H     1 <1>   0.0800 
 35 H       10.0230     3.1040     1.4260 H     1 <1>   0.0800 
 36 H        9.9080     4.5150    -1.1740 H     1 <1>   0.4500 
 37 H       11.4810     5.0450     1.2420 H     1 <1>   0.0800 
 38 H       11.1920     6.2350    -0.0020 H     1 <1>   0.0800 
 39 H       12.1410     4.6840    -1.7020 H     1 <1>   0.0800 
 40 H       12.5400     3.5550    -0.4250 H     1 <1>   0.0800 
 41 H       13.6020     6.3840    -0.6500 H     1 <1>   0.0800 
 42 H       14.4820     4.9230    -1.0080 H     1 <1>   0.0800 
 43 H       13.9930     5.2570     0.6310 H     1 <1>   0.0800 
@<TRIPOS>BOND
  1   1   2  1   
  2   2   3  ar  
  3   2   4  ar  
  4   3   5  ar  
  5   3  19  1   
  6   4   6  ar  
  7   4  20  1   
  8   5   7  ar  
  9   5  21  1   
 10   6   7  ar  
 11   6  22  1   
 12   7   8  1   
 13   8   9  1   
 14   8  23  1   
 15   8  24  1   
 16   9  10  1   
 17   9  25  1   
 18   9  26  1   
 19  10  11  1   
 20  10  12  1   
 21  10  27  1   
 22  11  13  1   
 23  11  28  1   
 24  11  29  1   
 25  12  14  1   
 26  12  30  1   
 27  12  31  1   
 28  13  15  1   
 29  13  32  1   
 30  13  33  1   
 31  14  15  1   
 32  14  34  1   
 33  14  35  1   
 34  15  16  1   
 35  15  36  1   
 36  16  17  1   
 37  16  37  1   
 38  16  38  1   
 39  17  18  1   
 40  17  39  1   
 41  17  40  1   
 42  18  41  1   
 43  18  42  1   
 44  18  43  1   
@<TRIPOS>SUBSTRUCTURE
  1 ****   9 GROUP 4 **** **** 0

# MOE 2024.06 (io_trps.svl 2023.06)
