@<TRIPOS>MOLECULE
NONAME
43 45 1 0 0 
SMALL
USER_CHARGES


@<TRIPOS>ATOM
  1 S       -0.0310    -0.1760     0.1040 S.o2  1 <1>   1.4470 
  2 O       -0.0600     0.5260     1.3670 O.2   1 <1>  -0.6500 
  3 O       -0.3040     0.5760    -1.1020 O.2   1 <1>  -0.6500 
  4 N        1.5210    -0.8330    -0.0800 N.am  1 <1>  -0.8490 
  5 C       -1.1170    -1.6260     0.0940 C.ar  1 <1>  -0.0090 
  6 C        2.4660     0.1670    -0.6220 C.3   1 <1>   0.1960 
  7 C        2.0650    -1.3800     1.1840 C.3   1 <1>   0.1960 
  8 C       -1.4330    -2.3320     1.2490 C.ar  1 <1>   0.1900 
  9 C       -1.6580    -2.1020    -1.0980 C.ar  1 <1>  -0.1500 
 10 C        3.8840    -0.4020    -0.8250 C.3   1 <1>   0.2090 
 11 C        3.4730    -1.9840     1.0090 C.3   1 <1>   0.2090 
 12 F       -0.9430    -1.9510     2.3970 F     1 <1>  -0.1900 
 13 C       -2.2520    -3.4510     1.2640 C.ar  1 <1>  -0.1500 
 14 C       -2.4740    -3.2190    -1.0880 C.ar  1 <1>   0.1900 
 15 N        4.4170    -0.9790     0.4430 N.pl3 1 <1>  -0.8380 
 16 C       -2.7860    -3.9060     0.0710 C.ar  1 <1>  -0.1500 
 17 F       -2.9710    -3.6420    -2.2180 F     1 <1>  -0.1900 
 18 C        5.7650    -1.3670     0.4120 C.ar  1 <1>   0.1000 
 19 C        6.2750    -2.4170    -0.3750 C.ar  1 <1>   0.0820 
 20 C        6.6410    -0.6550     1.2180 C.ar  1 <1>  -0.1500 
 21 O        5.4060    -3.1170    -1.1700 O.3   1 <1>  -0.3630 
 22 C        7.6340    -2.7160    -0.3260 C.ar  1 <1>  -0.1500 
 23 C        7.9890    -0.9570     1.2610 C.ar  1 <1>  -0.1500 
 24 C        5.8500    -4.1600    -2.0090 C.3   1 <1>   0.0400 
 25 C        8.4860    -1.9890     0.4880 C.ar  1 <1>  -0.1500 
 26 H        2.5240     1.0120     0.0440 H     1 <1>   0.0800 
 27 H        2.1110     0.5210    -1.5750 H     1 <1>   0.0800 
 28 H        1.4160    -2.1520     1.5540 H     1 <1>   0.0800 
 29 H        2.1210    -0.6040     1.9300 H     1 <1>   0.0800 
 30 H       -1.4470    -1.6070    -2.0310 H     1 <1>   0.1500 
 31 H        4.5410     0.3810    -1.1600 H     1 <1>   0.0800 
 32 H        3.8520    -1.1610    -1.5870 H     1 <1>   0.0800 
 33 H        3.4120    -2.8370     0.3580 H     1 <1>   0.0800 
 34 H        3.8430    -2.3160     1.9640 H     1 <1>   0.0800 
 35 H       -2.4630    -3.9530     2.1920 H     1 <1>   0.1500 
 36 H       -3.4260    -4.7700     0.0340 H     1 <1>   0.1500 
 37 H        6.2480     0.1460     1.8170 H     1 <1>   0.1500 
 38 H        8.0560    -3.5090    -0.9110 H     1 <1>   0.1500 
 39 H        8.6480    -0.3900     1.8950 H     1 <1>   0.1500 
 40 H        4.9990    -4.5450    -2.5410 H     1 <1>   0.0800 
 41 H        6.2830    -4.9360    -1.4030 H     1 <1>   0.0800 
 42 H        6.5680    -3.7660    -2.7060 H     1 <1>   0.0800 
 43 H        9.5350    -2.2260     0.5190 H     1 <1>   0.1500 
@<TRIPOS>BOND
  1   1   2  2   
  2   1   3  2   
  3   1   4  am  
  4   1   5  1   
  5   4   6  1   
  6   4   7  1   
  7   5   8  ar  
  8   5   9  ar  
  9   6  10  1   
 10   6  26  1   
 11   6  27  1   
 12   7  11  1   
 13   7  28  1   
 14   7  29  1   
 15   8  12  1   
 16   8  13  ar  
 17   9  14  ar  
 18   9  30  1   
 19  10  15  1   
 20  10  31  1   
 21  10  32  1   
 22  11  15  1   
 23  11  33  1   
 24  11  34  1   
 25  13  16  ar  
 26  13  35  1   
 27  14  16  ar  
 28  14  17  1   
 29  15  18  1   
 30  16  36  1   
 31  18  19  ar  
 32  18  20  ar  
 33  19  21  1   
 34  19  22  ar  
 35  20  23  ar  
 36  20  37  1   
 37  21  24  1   
 38  22  25  ar  
 39  22  38  1   
 40  23  25  ar  
 41  23  39  1   
 42  24  40  1   
 43  24  41  1   
 44  24  42  1   
 45  25  43  1   
@<TRIPOS>SUBSTRUCTURE
  1 ****   4 GROUP 4 **** **** 0

# MOE 2024.06 (io_trps.svl 2023.06)
