@<TRIPOS>MOLECULE
NONAME
35 35 1 0 0 
SMALL
USER_CHARGES


@<TRIPOS>ATOM
  1 S        0.3160     0.3450     0.9160 S.o2  1 <1>   1.3330 
  2 O        1.4120     0.3700     1.8530 O.2   1 <1>  -0.6500 
  3 O        0.1990    -0.7050    -0.0650 O.2   1 <1>  -0.6500 
  4 N        0.3790     1.8500     0.0690 N.am  1 <1>  -0.6930 
  5 C       -1.2030     0.4790     1.8350 C.3   1 <1>  -0.1350 
  6 C       -0.7090     2.2970    -0.6740 C.ar  1 <1>   0.1990 
  7 C        1.7390     2.2380    -0.4170 C.3   1 <1>   0.2570 
  8 C       -1.4420     3.4220    -0.2840 C.ar  1 <1>  -0.1440 
  9 C       -1.0850     1.6130    -1.8260 C.ar  1 <1>  -0.1500 
 10 C        2.3660     1.2540    -1.4080 C.2   1 <1>   0.6590 
 11 C       -2.5280     3.8270    -1.0440 C.ar  1 <1>  -0.1500 
 12 C       -1.0890     4.2360     0.9590 C.3   1 <1>  -0.0170 
 13 C       -2.1690     2.0240    -2.5770 C.ar  1 <1>  -0.1500 
 14 O        2.2070     1.3630    -2.5990 O.2   1 <1>  -0.5700 
 15 O        3.1040     0.2820    -0.8850 O.3   1 <1>  -0.4300 
 16 C       -2.8940     3.1340    -2.1850 C.ar  1 <1>  -0.1500 
 17 C       -0.2410     5.4550     0.5890 C.3   1 <1>  -0.2400 
 18 C        3.6460    -0.7520    -1.6770 C.3   1 <1>   0.0400 
 19 H       -1.3490    -0.4010     2.4300 H     1 <1>   0.0800 
 20 H       -2.0340     0.5830     1.1660 H     1 <1>   0.0800 
 21 H       -1.1700     1.3310     2.4840 H     1 <1>   0.0800 
 22 H        2.3980     2.3380     0.4260 H     1 <1>   0.0800 
 23 H        1.6750     3.1940    -0.9020 H     1 <1>   0.0800 
 24 H       -0.5210     0.7510    -2.1380 H     1 <1>   0.1500 
 25 H       -3.0980     4.6930    -0.7540 H     1 <1>   0.1500 
 26 H       -0.5580     3.6360     1.6750 H     1 <1>   0.0800 
 27 H       -1.9950     4.5680     1.4360 H     1 <1>   0.0800 
 28 H       -2.4440     1.4830    -3.4650 H     1 <1>   0.1500 
 29 H       -3.7390     3.4580    -2.7670 H     1 <1>   0.1500 
 30 H        0.6790     5.1430     0.1290 H     1 <1>   0.0800 
 31 H       -0.0090     6.0260     1.4700 H     1 <1>   0.0800 
 32 H       -0.7740     6.0850    -0.1010 H     1 <1>   0.0800 
 33 H        4.1990    -1.4160    -1.0370 H     1 <1>   0.0800 
 34 H        4.2940    -0.3220    -2.4200 H     1 <1>   0.0800 
 35 H        2.8360    -1.2830    -2.1490 H     1 <1>   0.0800 
@<TRIPOS>BOND
  1   1   2  2   
  2   1   3  2   
  3   1   4  am  
  4   1   5  1   
  5   4   6  1   
  6   4   7  1   
  7   5  19  1   
  8   5  20  1   
  9   5  21  1   
 10   6   8  ar  
 11   6   9  ar  
 12   7  10  1   
 13   7  22  1   
 14   7  23  1   
 15   8  11  ar  
 16   8  12  1   
 17   9  13  ar  
 18   9  24  1   
 19  10  14  2   
 20  10  15  1   
 21  11  16  ar  
 22  11  25  1   
 23  12  17  1   
 24  12  26  1   
 25  12  27  1   
 26  13  16  ar  
 27  13  28  1   
 28  15  18  1   
 29  16  29  1   
 30  17  30  1   
 31  17  31  1   
 32  17  32  1   
 33  18  33  1   
 34  18  34  1   
 35  18  35  1   
@<TRIPOS>SUBSTRUCTURE
  1 ****   4 GROUP 4 **** **** 0

# MOE 2024.06 (io_trps.svl 2023.06)
