@<TRIPOS>MOLECULE
NONAME
46 48 1 0 0 
SMALL
USER_CHARGES


@<TRIPOS>ATOM
  1 O       -0.3060    -0.3300    -0.6560 O.2   1 <1>  -0.5700 
  2 C       -0.1130    -1.5280    -0.5670 C.2   1 <1>   0.6900 
  3 N       -1.1340    -2.4090    -0.8140 N.am  1 <1>  -0.6600 
  4 N        1.1120    -2.0280    -0.2380 N.am  1 <1>  -0.5470 
  5 C       -1.2370    -3.7580    -0.1750 C.3   1 <1>   0.1400 
  6 C       -2.4180    -1.9460    -1.4210 C.3   1 <1>   0.1400 
  7 C        2.3270    -1.4500     0.1700 C.ar  1 <1>   0.1170 
  8 C       -2.3620    -3.7700     0.8710 C.3   1 <1>   0.1400 
  9 C       -3.5570    -1.9630    -0.3890 C.3   1 <1>   0.1400 
 10 C        3.4670    -2.2610     0.1880 C.ar  1 <1>   0.0820 
 11 C        2.4430    -0.1220     0.5660 C.ar  1 <1>  -0.1500 
 12 N       -3.6540    -3.2990     0.2790 N.am  1 <1>  -0.6600 
 13 O        3.3090    -3.5650    -0.1970 O.3   1 <1>  -0.3630 
 14 C        4.6920    -1.7340     0.5870 C.ar  1 <1>  -0.1500 
 15 C        3.6630     0.3970     0.9620 C.ar  1 <1>  -0.1500 
 16 C       -4.7640    -4.1200     0.2130 C.2   1 <1>   0.7150 
 17 C        4.4150    -4.4300    -0.3160 C.3   1 <1>   0.1200 
 18 C        4.7880    -0.4080     0.9710 C.ar  1 <1>  -0.1500 
 19 O       -4.5870    -5.3230     0.3180 O.2   1 <1>  -0.5700 
 20 C       -6.1150    -3.6310     0.0160 C.2   1 <1>   0.0550 
 21 C        3.9080    -5.7760    -0.8230 C.3   1 <1>  -0.2400 
 22 O       -6.4670    -2.3680     0.2570 O.3   1 <1>  -0.2800 
 23 C       -7.2260    -4.3070    -0.3950 C.2   1 <1>  -0.1500 
 24 C       -7.7500    -2.2260     0.0090 C.2   1 <1>  -0.0100 
 25 C       -8.2820    -3.3960    -0.4020 C.2   1 <1>  -0.1500 
 26 H        1.2160    -3.0140    -0.4580 H     1 <1>   0.3700 
 27 H       -0.3150    -4.0310     0.3060 H     1 <1>   0.0800 
 28 H       -1.4480    -4.4940    -0.9310 H     1 <1>   0.0800 
 29 H       -2.6720    -2.5950    -2.2400 H     1 <1>   0.0800 
 30 H       -2.3120    -0.9510    -1.8180 H     1 <1>   0.0800 
 31 H       -2.0930    -3.1180     1.6830 H     1 <1>   0.0800 
 32 H       -2.4650    -4.7630     1.2720 H     1 <1>   0.0800 
 33 H       -4.4710    -1.7190    -0.8980 H     1 <1>   0.0800 
 34 H       -3.3750    -1.2060     0.3540 H     1 <1>   0.0800 
 35 H        1.5800     0.5170     0.5690 H     1 <1>   0.1500 
 36 H        5.5830    -2.3330     0.6090 H     1 <1>   0.1500 
 37 H        3.7330     1.4280     1.2620 H     1 <1>   0.1500 
 38 H        4.8720    -4.5360     0.6530 H     1 <1>   0.0800 
 39 H        5.1120    -3.9990    -1.0140 H     1 <1>   0.0800 
 40 H        5.7350    -0.0010     1.2790 H     1 <1>   0.1500 
 41 H        3.2030    -6.1930    -0.1260 H     1 <1>   0.0800 
 42 H        4.7320    -6.4590    -0.9270 H     1 <1>   0.0800 
 43 H        3.4390    -5.6570    -1.7830 H     1 <1>   0.0800 
 44 H       -7.2890    -5.3480    -0.6600 H     1 <1>   0.1500 
 45 H       -8.2080    -1.2630     0.1520 H     1 <1>   0.1500 
 46 H       -9.2980    -3.6120    -0.6800 H     1 <1>   0.1500 
@<TRIPOS>BOND
  1   1   2  2   
  2   2   3  am  
  3   2   4  am  
  4   3   5  1   
  5   3   6  1   
  6   4   7  1   
  7   4  26  1   
  8   5   8  1   
  9   5  27  1   
 10   5  28  1   
 11   6   9  1   
 12   6  29  1   
 13   6  30  1   
 14   7  10  ar  
 15   7  11  ar  
 16   8  12  1   
 17   8  31  1   
 18   8  32  1   
 19   9  12  1   
 20   9  33  1   
 21   9  34  1   
 22  10  13  1   
 23  10  14  ar  
 24  11  15  ar  
 25  11  35  1   
 26  12  16  am  
 27  13  17  1   
 28  14  18  ar  
 29  14  36  1   
 30  15  18  ar  
 31  15  37  1   
 32  16  19  2   
 33  16  20  1   
 34  17  21  1   
 35  17  38  1   
 36  17  39  1   
 37  18  40  1   
 38  20  22  1   
 39  20  23  2   
 40  21  41  1   
 41  21  42  1   
 42  21  43  1   
 43  22  24  1   
 44  23  25  1   
 45  23  44  1   
 46  24  25  2   
 47  24  45  1   
 48  25  46  1   
@<TRIPOS>SUBSTRUCTURE
  1 ****   3 GROUP 4 **** **** 0

# MOE 2024.06 (io_trps.svl 2023.06)
