@<TRIPOS>MOLECULE
NONAME
41 43 1 0 0 
SMALL
USER_CHARGES


@<TRIPOS>ATOM
  1 O        1.1360    -1.2860    -0.7820 O.3   1 <1>  -0.5600 
  2 C        1.3050    -2.3470     0.1060 C.3   1 <1>   0.2800 
  3 C        1.7370    -0.0630    -0.4650 C.3   1 <1>   0.2640 
  4 C        2.7980    -2.7090     0.1650 C.3   1 <1>  -0.0170 
  5 C        0.7290    -1.9790     1.4840 C.3   1 <1>  -0.2400 
  6 C        0.4970    -3.5050    -0.4790 C.3   1 <1>  -0.2400 
  7 C        3.1790    -0.2360    -0.0020 C.ar  1 <1>  -0.1440 
  8 C        3.6830    -1.4880     0.3140 C.ar  1 <1>   0.1660 
  9 C        4.0060     0.8630     0.1230 C.ar  1 <1>  -0.1500 
 10 N        4.9150    -1.7110     0.7360 N.ar  1 <1>  -0.6200 
 11 C        5.3000     0.6580     0.5610 C.ar  1 <1>   0.0730 
 12 C        5.7000    -0.6540     0.8520 C.ar  1 <1>   0.4100 
 13 C        6.2010     1.7570     0.7130 C.1   1 <1>   0.4840 
 14 N        6.9480    -0.9850     1.2980 N.pl3 1 <1>  -0.8690 
 15 N        6.9150     2.6440     0.7910 N.1   1 <1>  -0.5570 
 16 C        8.1230    -0.8090     0.4230 C.3   1 <1>   0.3530 
 17 C        8.8030    -2.1570     0.2650 C.ar  1 <1>  -0.1440 
 18 C       10.0870    -2.3640     0.7460 C.ar  1 <1>  -0.1500 
 19 C        8.1380    -3.1990    -0.3660 C.ar  1 <1>  -0.1500 
 20 C       10.7010    -3.5950     0.5940 C.ar  1 <1>  -0.1500 
 21 C        8.7510    -4.4310    -0.5180 C.ar  1 <1>  -0.1500 
 22 C       10.0340    -4.6290    -0.0390 C.ar  1 <1>  -0.1500 
 23 H        1.1500     0.4160     0.2980 H     1 <1>   0.0800 
 24 H        1.7030     0.5450    -1.3520 H     1 <1>   0.0800 
 25 H        3.0840    -3.2160    -0.7380 H     1 <1>   0.0800 
 26 H        2.9720    -3.3830     0.9830 H     1 <1>   0.0800 
 27 H        1.3230    -1.2290     1.9740 H     1 <1>   0.0800 
 28 H        0.7210    -2.8460     2.1180 H     1 <1>   0.0800 
 29 H       -0.2820    -1.6270     1.3830 H     1 <1>   0.0800 
 30 H        0.8450    -3.7420    -1.4690 H     1 <1>   0.0800 
 31 H       -0.5450    -3.2420    -0.5330 H     1 <1>   0.0800 
 32 H        0.5950    -4.3810     0.1360 H     1 <1>   0.0800 
 33 H        3.6540     1.8540    -0.1110 H     1 <1>   0.1500 
 34 H        6.9450    -1.9540     1.6330 H     1 <1>   0.4000 
 35 H        8.7940    -0.0940     0.8680 H     1 <1>   0.0800 
 36 H        7.8210    -0.4420    -0.5440 H     1 <1>   0.0800 
 37 H       10.6160    -1.5690     1.2430 H     1 <1>   0.1500 
 38 H        7.1360    -3.0540    -0.7360 H     1 <1>   0.1500 
 39 H       11.6980    -3.7500     0.9690 H     1 <1>   0.1500 
 40 H        8.2280    -5.2340    -1.0080 H     1 <1>   0.1500 
 41 H       10.5100    -5.5870    -0.1570 H     1 <1>   0.1500 
@<TRIPOS>BOND
  1   1   2  1   
  2   1   3  1   
  3   2   4  1   
  4   2   5  1   
  5   2   6  1   
  6   3   7  1   
  7   3  23  1   
  8   3  24  1   
  9   4   8  1   
 10   4  25  1   
 11   4  26  1   
 12   5  27  1   
 13   5  28  1   
 14   5  29  1   
 15   6  30  1   
 16   6  31  1   
 17   6  32  1   
 18   7   8  ar  
 19   7   9  ar  
 20   8  10  ar  
 21   9  11  ar  
 22   9  33  1   
 23  10  12  ar  
 24  11  12  ar  
 25  11  13  1   
 26  12  14  1   
 27  13  15  3   
 28  14  16  1   
 29  14  34  1   
 30  16  17  1   
 31  16  35  1   
 32  16  36  1   
 33  17  18  ar  
 34  17  19  ar  
 35  18  20  ar  
 36  18  37  1   
 37  19  21  ar  
 38  19  38  1   
 39  20  22  ar  
 40  20  39  1   
 41  21  22  ar  
 42  21  40  1   
 43  22  41  1   
@<TRIPOS>SUBSTRUCTURE
  1 ****  10 GROUP 4 **** **** 0

# MOE 2024.06 (io_trps.svl 2023.06)
