@<TRIPOS>MOLECULE
NONAME
43 44 1 0 0 
SMALL
USER_CHARGES


@<TRIPOS>ATOM
  1 CL      -0.0300    -0.3060    -0.3310 Cl    1 <1>  -0.1770 
  2 C       -1.7700    -0.1240    -0.3280 C.ar  1 <1>   0.1770 
  3 C       -2.6070    -1.1570    -0.7270 C.ar  1 <1>  -0.1440 
  4 C       -2.2750     1.0940     0.0860 C.ar  1 <1>  -0.1500 
  5 C       -3.9820    -0.9300    -0.6950 C.ar  1 <1>  -0.1500 
  6 C       -2.0180    -2.4940    -1.1810 C.3   1 <1>   1.1640 
  7 C       -3.6420     1.2970     0.1090 C.ar  1 <1>  -0.1500 
  8 C       -4.5160     0.2860    -0.2780 C.ar  1 <1>   0.1170 
  9 F       -2.9550    -3.3700    -1.5280 F     1 <1>  -0.3400 
 10 F       -1.3030    -3.0870    -0.2360 F     1 <1>  -0.3400 
 11 F       -1.2310    -2.3710    -2.2420 F     1 <1>  -0.3400 
 12 N       -5.9100     0.4460    -0.2810 N.am  1 <1>  -0.5470 
 13 C       -6.7090     1.2840     0.4500 C.2   1 <1>   0.5690 
 14 O       -6.2850     2.0410     1.2880 O.2   1 <1>  -0.5700 
 15 C       -8.2150     1.2400     0.1940 C.3   1 <1>  -0.0190 
 16 C       -8.7730     2.6140    -0.2140 C.3   1 <1>  -0.1600 
 17 C       -8.9930     0.7090     1.4180 C.3   1 <1>  -0.1600 
 18 C      -10.2820     2.5630    -0.5130 C.3   1 <1>   0.1960 
 19 C      -10.4620     1.1590     1.4460 C.3   1 <1>   0.1960 
 20 N      -10.9400     1.3870     0.0810 N.am  1 <1>  -0.8490 
 21 S      -12.6270     1.5210    -0.0180 S.o2  1 <1>   1.3330 
 22 O      -13.0820     2.1400     1.2070 O.2   1 <1>  -0.6500 
 23 O      -12.9420     2.1280    -1.2920 O.2   1 <1>  -0.6500 
 24 C      -13.1660    -0.1950    -0.0650 C.3   1 <1>  -0.0550 
 25 C      -14.6900    -0.3810    -0.1680 C.3   1 <1>  -0.2400 
 26 H       -1.6020     1.8760     0.3890 H     1 <1>   0.1500 
 27 H       -4.6630    -1.7080    -0.9930 H     1 <1>   0.1500 
 28 H       -4.0230     2.2500     0.4280 H     1 <1>   0.1500 
 29 H       -6.4120    -0.1890    -0.8990 H     1 <1>   0.3700 
 30 H       -8.4010     0.5700    -0.6270 H     1 <1>   0.0800 
 31 H       -8.2520     2.9890    -1.0780 H     1 <1>   0.0800 
 32 H       -8.6030     3.3150     0.5850 H     1 <1>   0.0800 
 33 H       -8.5300     1.0510     2.3280 H     1 <1>   0.0800 
 34 H       -8.9500    -0.3660     1.4250 H     1 <1>   0.0800 
 35 H      -10.4280     2.5290    -1.5800 H     1 <1>   0.0800 
 36 H      -10.7440     3.4670    -0.1490 H     1 <1>   0.0800 
 37 H      -10.5570     2.0710     2.0140 H     1 <1>   0.0800 
 38 H      -11.0550     0.4040     1.9340 H     1 <1>   0.0800 
 39 H      -12.8210    -0.6940     0.8190 H     1 <1>   0.0800 
 40 H      -12.7060    -0.6740    -0.9080 H     1 <1>   0.0800 
 41 H      -15.1760     0.0720     0.6800 H     1 <1>   0.0800 
 42 H      -14.9390    -1.4270    -0.1940 H     1 <1>   0.0800 
 43 H      -15.0600     0.0860    -1.0640 H     1 <1>   0.0800 
@<TRIPOS>BOND
  1   1   2  1   
  2   2   3  ar  
  3   2   4  ar  
  4   3   5  ar  
  5   3   6  1   
  6   4   7  ar  
  7   4  26  1   
  8   5   8  ar  
  9   5  27  1   
 10   6   9  1   
 11   6  10  1   
 12   6  11  1   
 13   7   8  ar  
 14   7  28  1   
 15   8  12  1   
 16  12  13  am  
 17  12  29  1   
 18  13  14  2   
 19  13  15  1   
 20  15  16  1   
 21  15  17  1   
 22  15  30  1   
 23  16  18  1   
 24  16  31  1   
 25  16  32  1   
 26  17  19  1   
 27  17  33  1   
 28  17  34  1   
 29  18  20  1   
 30  18  35  1   
 31  18  36  1   
 32  19  20  1   
 33  19  37  1   
 34  19  38  1   
 35  20  21  am  
 36  21  22  2   
 37  21  23  2   
 38  21  24  1   
 39  24  25  1   
 40  24  39  1   
 41  24  40  1   
 42  25  41  1   
 43  25  42  1   
 44  25  43  1   
@<TRIPOS>SUBSTRUCTURE
  1 ****  12 GROUP 4 **** **** 0

# MOE 2024.06 (io_trps.svl 2023.06)
