@<TRIPOS>MOLECULE
NONAME
35 36 1 0 0 
SMALL
USER_CHARGES


@<TRIPOS>ATOM
  1 CL      -1.2790    -0.0430    -1.5690 Cl    1 <1>  -0.1770 
  2 C       -0.3920     1.0870    -0.5620 C.ar  1 <1>   0.1770 
  3 C       -0.0650     0.7230     0.7380 C.ar  1 <1>  -0.1440 
  4 C       -0.0360     2.3240    -1.0850 C.ar  1 <1>  -0.1440 
  5 C        0.6360     1.6250     1.5210 C.ar  1 <1>  -0.1500 
  6 C       -0.4620    -0.6330     1.3020 C.3   1 <1>  -0.0960 
  7 C        0.6660     3.2120    -0.2830 C.ar  1 <1>  -0.1500 
  8 C       -0.4040     2.7080    -2.5110 C.3   1 <1>  -0.0960 
  9 C        1.0060     2.8640     1.0230 C.ar  1 <1>   0.0830 
 10 O        1.6930     3.6710     1.8720 O.3   1 <1>  -0.3630 
 11 C        2.2820     4.8900     1.4750 C.3   1 <1>   0.1200 
 12 C        3.5800     4.6030     0.7130 C.3   1 <1>  -0.1600 
 13 C        4.2890     5.9070     0.3330 C.3   1 <1>   0.0960 
 14 N        5.5290     5.6200    -0.4130 N.pl3 1 <1>   0.0480 
 15 C        6.7840     5.5030     0.0770 C.2   1 <1>   0.0360 
 16 C        5.6610     5.4220    -1.7360 C.2   1 <1>  -0.3020 
 17 N        7.6790     5.2510    -0.8220 N.2   1 <1>  -0.5650 
 18 C        6.9730     5.1990    -1.9660 C.2   1 <1>   0.0770 
 19 H        0.9070     1.3770     2.5320 H     1 <1>   0.1500 
 20 H       -1.5320    -0.7400     1.2820 H     1 <1>   0.0800 
 21 H       -0.1280    -0.7410     2.3190 H     1 <1>   0.0800 
 22 H       -0.0230    -1.4190     0.7140 H     1 <1>   0.0800 
 23 H        0.9380     4.1660    -0.6860 H     1 <1>   0.1500 
 24 H        0.0410     2.0160    -3.2030 H     1 <1>   0.0800 
 25 H       -0.0600     3.6980    -2.7490 H     1 <1>   0.0800 
 26 H       -1.4720     2.6810    -2.6330 H     1 <1>   0.0800 
 27 H        2.4970     5.4380     2.3760 H     1 <1>   0.0800 
 28 H        1.5740     5.4550     0.8950 H     1 <1>   0.0800 
 29 H        3.3620     4.0450    -0.1800 H     1 <1>   0.0800 
 30 H        4.2290     4.0160     1.3410 H     1 <1>   0.0800 
 31 H        4.5400     6.4670     1.2160 H     1 <1>   0.0800 
 32 H        3.6510     6.5120    -0.2870 H     1 <1>   0.0800 
 33 H        7.0000     5.6110     1.1250 H     1 <1>   0.1500 
 34 H        4.8390     5.4470    -2.4280 H     1 <1>   0.1500 
 35 H        7.4550     5.0010    -2.9100 H     1 <1>   0.1500 
@<TRIPOS>BOND
  1   1   2  1   
  2   2   3  ar  
  3   2   4  ar  
  4   3   5  ar  
  5   3   6  1   
  6   4   7  ar  
  7   4   8  1   
  8   5   9  ar  
  9   5  19  1   
 10   6  20  1   
 11   6  21  1   
 12   6  22  1   
 13   7   9  ar  
 14   7  23  1   
 15   8  24  1   
 16   8  25  1   
 17   8  26  1   
 18   9  10  1   
 19  10  11  1   
 20  11  12  1   
 21  11  27  1   
 22  11  28  1   
 23  12  13  1   
 24  12  29  1   
 25  12  30  1   
 26  13  14  1   
 27  13  31  1   
 28  13  32  1   
 29  14  15  1   
 30  14  16  1   
 31  15  17  2   
 32  15  33  1   
 33  16  18  2   
 34  16  34  1   
 35  17  18  1   
 36  18  35  1   
@<TRIPOS>SUBSTRUCTURE
  1 ****   7 GROUP 4 **** **** 0

# MOE 2024.06 (io_trps.svl 2023.06)
