@<TRIPOS>MOLECULE
NONAME
50 51 1 0 0 
SMALL
USER_CHARGES


@<TRIPOS>ATOM
  1 O        0.4650     1.2910     3.1330 O.2   1 <1>  -0.5700 
  2 C        0.4910     2.2750     2.4310 C.2   1 <1>   0.5690 
  3 N        1.0660     2.2990     1.1900 N.am  1 <1>  -0.5470 
  4 C       -0.1930     3.5550     2.9400 C.3   1 <1>   0.2610 
  5 C        1.5250     1.2660     0.3530 C.ar  1 <1>   0.1170 
  6 O       -0.5980     4.3990     1.8650 O.3   1 <1>  -0.3630 
  7 C        0.7350     4.3880     3.8300 C.3   1 <1>  -0.2400 
  8 C        1.4550     1.4410    -1.0360 C.ar  1 <1>   0.1170 
  9 C        2.0540     0.0840     0.8570 C.ar  1 <1>  -0.1500 
 10 C       -1.4220     3.9520     0.8810 C.ar  1 <1>   0.0820 
 11 N        0.9400     2.6270    -1.5910 N.am  1 <1>  -0.5470 
 12 C        1.8960     0.4310    -1.8790 C.ar  1 <1>  -0.1500 
 13 C        2.4960    -0.9150     0.0070 C.ar  1 <1>  -0.1500 
 14 C       -1.3730     4.6280    -0.3280 C.ar  1 <1>  -0.1500 
 15 C       -2.2560     2.8460     1.0160 C.ar  1 <1>  -0.1500 
 16 C        1.6160     3.6830    -2.1130 C.2   1 <1>   0.5690 
 17 C        2.4170    -0.7420    -1.3630 C.ar  1 <1>  -0.1500 
 18 C       -2.1220     4.1880    -1.4030 C.ar  1 <1>  -0.1500 
 19 C       -3.0070     2.4070    -0.0610 C.ar  1 <1>  -0.1500 
 20 O        1.0140     4.6530    -2.4970 O.2   1 <1>  -0.5700 
 21 C        3.1330     3.6760    -2.2000 C.3   1 <1>  -0.0990 
 22 C       -2.9370     3.0740    -1.2820 C.ar  1 <1>   0.0820 
 23 C        3.7940     4.0720    -0.8690 C.3   1 <1>  -0.1600 
 24 O       -3.6250     2.6980    -2.3900 O.3   1 <1>  -0.3620 
 25 C        5.3210     4.0880    -0.9890 C.3   1 <1>  -0.2400 
 26 C       -4.4920     1.5860    -2.3670 C.3   1 <1>   0.0400 
 27 H        0.9070     3.1820     0.6960 H     1 <1>   0.3700 
 28 H       -1.0710     3.2890     3.5000 H     1 <1>   0.0800 
 29 H        1.6120     4.6840     3.2830 H     1 <1>   0.0800 
 30 H        1.0420     3.8020     4.6780 H     1 <1>   0.0800 
 31 H        0.2200     5.2610     4.1860 H     1 <1>   0.0800 
 32 H        2.1240    -0.0630     1.9200 H     1 <1>   0.1500 
 33 H       -0.0750     2.7630    -1.5490 H     1 <1>   0.3700 
 34 H        1.8310     0.5640    -2.9440 H     1 <1>   0.1500 
 35 H        2.9010    -1.8250     0.4150 H     1 <1>   0.1500 
 36 H       -0.7380     5.4910    -0.4340 H     1 <1>   0.1500 
 37 H       -2.3310     2.3110     1.9440 H     1 <1>   0.1500 
 38 H        2.7580    -1.5200    -2.0250 H     1 <1>   0.1500 
 39 H       -2.0710     4.7070    -2.3450 H     1 <1>   0.1500 
 40 H       -3.6360     1.5480     0.0680 H     1 <1>   0.1500 
 41 H        3.4270     4.3730    -2.9640 H     1 <1>   0.0800 
 42 H        3.4700     2.7030    -2.5030 H     1 <1>   0.0800 
 43 H        3.5100     3.3750    -0.1000 H     1 <1>   0.0800 
 44 H        3.4480     5.0500    -0.5780 H     1 <1>   0.0800 
 45 H        5.6880     3.1130    -1.2590 H     1 <1>   0.0800 
 46 H        5.7600     4.3700    -0.0490 H     1 <1>   0.0800 
 47 H        5.6330     4.7960    -1.7370 H     1 <1>   0.0800 
 48 H       -4.9260     1.4820    -3.3460 H     1 <1>   0.0800 
 49 H       -5.2660     1.7610    -1.6420 H     1 <1>   0.0800 
 50 H       -3.9250     0.7050    -2.1240 H     1 <1>   0.0800 
@<TRIPOS>BOND
  1   1   2  2   
  2   2   3  am  
  3   2   4  1   
  4   3   5  1   
  5   3  27  1   
  6   4   6  1   
  7   4   7  1   
  8   4  28  1   
  9   5   8  ar  
 10   5   9  ar  
 11   6  10  1   
 12   7  29  1   
 13   7  30  1   
 14   7  31  1   
 15   8  11  1   
 16   8  12  ar  
 17   9  13  ar  
 18   9  32  1   
 19  10  14  ar  
 20  10  15  ar  
 21  11  16  am  
 22  11  33  1   
 23  12  17  ar  
 24  12  34  1   
 25  13  17  ar  
 26  13  35  1   
 27  14  18  ar  
 28  14  36  1   
 29  15  19  ar  
 30  15  37  1   
 31  16  20  2   
 32  16  21  1   
 33  17  38  1   
 34  18  22  ar  
 35  18  39  1   
 36  19  22  ar  
 37  19  40  1   
 38  21  23  1   
 39  21  41  1   
 40  21  42  1   
 41  22  24  1   
 42  23  25  1   
 43  23  43  1   
 44  23  44  1   
 45  24  26  1   
 46  25  45  1   
 47  25  46  1   
 48  25  47  1   
 49  26  48  1   
 50  26  49  1   
 51  26  50  1   
@<TRIPOS>SUBSTRUCTURE
  1 ****   3 GROUP 4 **** **** 0

# MOE 2024.06 (io_trps.svl 2023.06)
