@<TRIPOS>MOLECULE
NONAME
33 36 1 0 0 
SMALL
USER_CHARGES


@<TRIPOS>ATOM
  1 O       -1.3590     0.1110     1.1410 O.2   1 <1>  -0.5700 
  2 C       -1.2020     1.1240     0.5060 C.2   1 <1>   0.7200 
  3 O       -0.0680     1.3850    -0.1350 O.3   1 <1>  -0.4300 
  4 C       -2.2900     2.1820     0.3860 C.3   1 <1>   0.0000 
  5 C        1.0190     0.4840    -0.1140 C.3   1 <1>   0.0400 
  6 C       -3.5970     1.8120    -0.2330 C.3   1 <1>   0.0320 
  7 C       -2.8300     2.9630    -0.8080 C.3   1 <1>  -0.1950 
  8 C       -3.5600     2.4110     1.1510 C.3   1 <1>  -0.1950 
  9 C       -4.8800     1.1110    -0.6330 C.ar  1 <1>  -0.0320 
 10 C       -3.2810     4.4340    -0.7530 C.3   1 <1>  -0.0650 
 11 C       -4.1640     3.7850     1.4930 C.3   1 <1>  -0.0650 
 12 C       -5.9360     1.8080    -1.1960 C.ar  1 <1>  -0.1500 
 13 C       -4.9950    -0.2540    -0.4280 C.ar  1 <1>  -0.1500 
 14 C       -3.4850     4.8890     0.6890 C.3   1 <1>  -0.1600 
 15 C       -7.0990     1.1460    -1.5540 C.ar  1 <1>  -0.1500 
 16 C       -6.1560    -0.9190    -0.7840 C.ar  1 <1>  -0.1500 
 17 C       -7.2080    -0.2190    -1.3480 C.ar  1 <1>  -0.1500 
 18 H        1.8210     0.9030    -0.6950 H     1 <1>   0.0800 
 19 H        0.7020    -0.4530    -0.5380 H     1 <1>   0.0800 
 20 H        1.3330     0.3430     0.9060 H     1 <1>   0.0800 
 21 H       -2.3730     2.7700    -1.7630 H     1 <1>   0.1000 
 22 H       -3.7650     1.7250     1.9550 H     1 <1>   0.1000 
 23 H       -4.1910     4.5480    -1.3140 H     1 <1>   0.0800 
 24 H       -2.5310     5.0570    -1.2080 H     1 <1>   0.0800 
 25 H       -5.2200     3.7640     1.2860 H     1 <1>   0.0800 
 26 H       -4.0320     3.9880     2.5410 H     1 <1>   0.0800 
 27 H       -5.8540     2.8670    -1.3560 H     1 <1>   0.1500 
 28 H       -4.1750    -0.7960     0.0120 H     1 <1>   0.1500 
 29 H       -4.0600     5.7980     0.7260 H     1 <1>   0.0800 
 30 H       -2.5210     5.0840     1.1250 H     1 <1>   0.0800 
 31 H       -7.9160     1.6910    -1.9910 H     1 <1>   0.1500 
 32 H       -6.2380    -1.9790    -0.6220 H     1 <1>   0.1500 
 33 H       -8.1100    -0.7350    -1.6250 H     1 <1>   0.1500 
@<TRIPOS>BOND
  1   1   2  2   
  2   2   3  1   
  3   2   4  1   
  4   3   5  1   
  5   4   6  1   
  6   4   7  1   
  7   4   8  1   
  8   5  18  1   
  9   5  19  1   
 10   5  20  1   
 11   6   7  1   
 12   6   8  1   
 13   6   9  1   
 14   7  10  1   
 15   7  21  1   
 16   8  11  1   
 17   8  22  1   
 18   9  12  ar  
 19   9  13  ar  
 20  10  14  1   
 21  10  23  1   
 22  10  24  1   
 23  11  14  1   
 24  11  25  1   
 25  11  26  1   
 26  12  15  ar  
 27  12  27  1   
 28  13  16  ar  
 29  13  28  1   
 30  14  29  1   
 31  14  30  1   
 32  15  17  ar  
 33  15  31  1   
 34  16  17  ar  
 35  16  32  1   
 36  17  33  1   
@<TRIPOS>SUBSTRUCTURE
  1 ****   6 GROUP 4 **** **** 0

# MOE 2024.06 (io_trps.svl 2023.06)
