@<TRIPOS>MOLECULE
NONAME
54 56 1 0 0 
SMALL
USER_CHARGES


@<TRIPOS>ATOM
  1 O       -2.2900     1.0710     0.6010 O.3   1 <1>  -0.3630 
  2 C       -1.3370     1.8440     0.0250 C.ar  1 <1>   0.0830 
  3 C       -2.0350    -0.3210     0.6430 C.3   1 <1>   0.0400 
  4 C       -1.5940     2.3640    -1.2400 C.ar  1 <1>  -0.1440 
  5 C       -0.1440     2.1340     0.6860 C.ar  1 <1>  -0.1440 
  6 C       -0.6260     3.1200    -1.8790 C.ar  1 <1>  -0.1500 
  7 C       -2.9350     2.1280    -1.9050 C.3   1 <1>   0.4870 
  8 C        0.8250     2.8880     0.0290 C.ar  1 <1>   0.0820 
  9 C        0.1190     1.6650     2.1180 C.3   1 <1>  -0.0970 
 10 C        0.5800     3.3730    -1.2530 C.ar  1 <1>  -0.1500 
 11 N       -3.9920     2.6480    -1.0050 N.4   1 <1>  -0.9590 
 12 O        1.9940     3.1240     0.6820 O.3   1 <1>  -0.3630 
 13 C       -5.3600     2.2390    -1.4080 C.3   1 <1>   0.4860 
 14 C       -3.9030     4.1170    -0.7720 C.3   1 <1>   0.3430 
 15 C        3.0710     3.8080     0.0800 C.3   1 <1>   0.0400 
 16 C       -6.3840     2.7560    -0.4090 C.ar  1 <1>  -0.1430 
 17 C       -4.7420     4.4940     0.4500 C.3   1 <1>  -0.0160 
 18 C       -6.1070     3.8180     0.4470 C.ar  1 <1>  -0.1430 
 19 C       -7.6310     2.1490    -0.3610 C.ar  1 <1>  -0.1500 
 20 C       -7.0810     4.2670     1.3240 C.ar  1 <1>  -0.1500 
 21 C       -8.5990     2.5840     0.5260 C.ar  1 <1>   0.0830 
 22 C       -8.3300     3.6740     1.3600 C.ar  1 <1>   0.0830 
 23 O       -9.7750     1.9100     0.5310 O.3   1 <1>  -0.3620 
 24 O       -9.2420     4.1950     2.2140 O.3   1 <1>  -0.3620 
 25 C      -10.1450     1.2750     1.7370 C.3   1 <1>   0.0400 
 26 C      -10.3660     4.8190     1.6300 C.3   1 <1>   0.0400 
 27 H       -1.1430    -0.5070     1.2150 H     1 <1>   0.0800 
 28 H       -1.9080    -0.6860    -0.3600 H     1 <1>   0.0800 
 29 H       -2.8720    -0.8060     1.1120 H     1 <1>   0.0800 
 30 H       -0.7920     3.5200    -2.8660 H     1 <1>   0.1500 
 31 H       -3.0680     1.0690    -2.0580 H     1 <1>   0.0800 
 32 H       -2.9740     2.6260    -2.8600 H     1 <1>   0.0800 
 33 H       -0.7920     1.4090     2.6260 H     1 <1>   0.0800 
 34 H        0.5930     2.4460     2.6850 H     1 <1>   0.0800 
 35 H        0.7700     0.8110     2.1080 H     1 <1>   0.0800 
 36 H        1.3160     3.9550    -1.7760 H     1 <1>   0.1500 
 37 H       -3.7930     2.1980    -0.0940 H     1 <1>   0.4500 
 38 H       -5.4230     1.1640    -1.4540 H     1 <1>   0.0800 
 39 H       -5.5910     2.6360    -2.3830 H     1 <1>   0.0800 
 40 H       -4.2700     4.6450    -1.6370 H     1 <1>   0.0800 
 41 H       -2.8800     4.4110    -0.5990 H     1 <1>   0.0800 
 42 H        3.8830     3.8360     0.7830 H     1 <1>   0.0800 
 43 H        2.7610     4.8110    -0.1580 H     1 <1>   0.0800 
 44 H        3.3730     3.2760    -0.8050 H     1 <1>   0.0800 
 45 H       -4.8630     5.5620     0.4740 H     1 <1>   0.0800 
 46 H       -4.2110     4.2080     1.3420 H     1 <1>   0.0800 
 47 H       -7.8760     1.3230    -1.0060 H     1 <1>   0.1500 
 48 H       -6.8870     5.0880     1.9930 H     1 <1>   0.1500 
 49 H      -10.9980     0.6500     1.5390 H     1 <1>   0.0800 
 50 H      -10.4010     2.0170     2.4700 H     1 <1>   0.0800 
 51 H       -9.3220     0.6750     2.0840 H     1 <1>   0.0800 
 52 H      -10.9610     5.2440     2.4180 H     1 <1>   0.0800 
 53 H      -10.9410     4.0880     1.0910 H     1 <1>   0.0800 
 54 H      -10.0270     5.5930     0.9650 H     1 <1>   0.0800 
@<TRIPOS>BOND
  1   1   2  1   
  2   1   3  1   
  3   2   4  ar  
  4   2   5  ar  
  5   3  27  1   
  6   3  28  1   
  7   3  29  1   
  8   4   6  ar  
  9   4   7  1   
 10   5   8  ar  
 11   5   9  1   
 12   6  10  ar  
 13   6  30  1   
 14   7  11  1   
 15   7  31  1   
 16   7  32  1   
 17   8  10  ar  
 18   8  12  1   
 19   9  33  1   
 20   9  34  1   
 21   9  35  1   
 22  10  36  1   
 23  11  13  1   
 24  11  14  1   
 25  11  37  1   
 26  12  15  1   
 27  13  16  1   
 28  13  38  1   
 29  13  39  1   
 30  14  17  1   
 31  14  40  1   
 32  14  41  1   
 33  15  42  1   
 34  15  43  1   
 35  15  44  1   
 36  16  18  ar  
 37  16  19  ar  
 38  17  18  1   
 39  17  45  1   
 40  17  46  1   
 41  18  20  ar  
 42  19  21  ar  
 43  19  47  1   
 44  20  22  ar  
 45  20  48  1   
 46  21  22  ar  
 47  21  23  1   
 48  22  24  1   
 49  23  25  1   
 50  24  26  1   
 51  25  49  1   
 52  25  50  1   
 53  25  51  1   
 54  26  52  1   
 55  26  53  1   
 56  26  54  1   
@<TRIPOS>SUBSTRUCTURE
  1 ****  11 GROUP 4 **** **** 0

# MOE 2024.06 (io_trps.svl 2023.06)
