@<TRIPOS>MOLECULE
NONAME
42 43 1 0 0 
SMALL
USER_CHARGES


@<TRIPOS>ATOM
  1 O       -0.1350     0.4560     0.6190 O.2   1 <1>  -0.5700 
  2 C       -1.2100     1.0100     0.5510 C.2   1 <1>   0.4950 
  3 C       -1.3930     2.3940     0.8530 C.2   1 <1>   0.0290 
  4 C       -2.3860     0.1280     0.1820 C.3   1 <1>   0.0420 
  5 C       -2.6040     2.6960     1.5600 C.2   1 <1>   0.4950 
  6 C       -0.3910     3.2720     0.4840 C.2   1 <1>  -0.0500 
  7 C       -2.0500    -0.5480    -1.1450 C.2   1 <1>   0.6590 
  8 C       -3.7560     0.8660     0.2180 C.3   1 <1>   0.0000 
  9 O       -2.7740     3.6400     2.2940 O.2   1 <1>  -0.5700 
 10 C       -3.7810     1.7350     1.4870 C.3   1 <1>  -0.0990 
 11 N       -0.3110     4.6340     0.4360 N.pl3 1 <1>  -0.8380 
 12 O       -1.8920     0.0940    -2.1490 O.2   1 <1>  -0.5700 
 13 O       -1.9690    -1.8750    -1.2020 O.3   1 <1>  -0.4300 
 14 C       -4.9000    -0.1610     0.2910 C.3   1 <1>  -0.2400 
 15 C       -4.0240     1.7730    -1.0040 C.3   1 <1>  -0.2400 
 16 C        1.0000     5.3130     0.1880 C.3   1 <1>   0.2090 
 17 C       -1.4360     5.6120     0.6110 C.3   1 <1>   0.2090 
 18 C       -1.3950    -2.6890    -0.2010 C.3   1 <1>   0.0400 
 19 C        0.8750     6.4090    -0.8830 C.3   1 <1>   0.1200 
 20 C       -1.3970     6.7310    -0.4480 C.3   1 <1>   0.1200 
 21 O       -0.1310     7.3210    -0.5440 O.3   1 <1>  -0.5600 
 22 H       -2.4210    -0.6200     0.9480 H     1 <1>   0.0800 
 23 H        0.5170     2.7890     0.1550 H     1 <1>   0.1500 
 24 H       -3.7560     1.1160     2.3660 H     1 <1>   0.0800 
 25 H       -4.6940     2.3040     1.5250 H     1 <1>   0.0800 
 26 H       -5.8530     0.3380     0.3470 H     1 <1>   0.0800 
 27 H       -4.8040    -0.7920     1.1570 H     1 <1>   0.0800 
 28 H       -4.9060    -0.7880    -0.5840 H     1 <1>   0.0800 
 29 H       -3.2060     2.4450    -1.1970 H     1 <1>   0.0800 
 30 H       -4.9120     2.3630    -0.8550 H     1 <1>   0.0800 
 31 H       -4.1800     1.1860    -1.8930 H     1 <1>   0.0800 
 32 H        1.3410     5.7590     1.1060 H     1 <1>   0.0800 
 33 H        1.7370     4.5950    -0.1240 H     1 <1>   0.0800 
 34 H       -2.3800     5.1150     0.5040 H     1 <1>   0.0800 
 35 H       -1.3870     6.0410     1.5970 H     1 <1>   0.0800 
 36 H       -1.1470    -3.6370    -0.6450 H     1 <1>   0.0800 
 37 H       -2.1080    -2.8370     0.5900 H     1 <1>   0.0800 
 38 H       -0.5000    -2.2180     0.1690 H     1 <1>   0.0800 
 39 H        0.6420     5.9750    -1.8390 H     1 <1>   0.0800 
 40 H        1.7980     6.9550    -0.9630 H     1 <1>   0.0800 
 41 H       -2.1000     7.5030    -0.1920 H     1 <1>   0.0800 
 42 H       -1.6600     6.3340    -1.4130 H     1 <1>   0.0800 
@<TRIPOS>BOND
  1   1   2  2   
  2   2   3  1   
  3   2   4  1   
  4   3   5  1   
  5   3   6  2   
  6   4   7  1   
  7   4   8  1   
  8   4  22  1   
  9   5   9  2   
 10   5  10  1   
 11   6  11  1   
 12   6  23  1   
 13   7  12  2   
 14   7  13  1   
 15   8  10  1   
 16   8  14  1   
 17   8  15  1   
 18  10  24  1   
 19  10  25  1   
 20  11  16  1   
 21  11  17  1   
 22  13  18  1   
 23  14  26  1   
 24  14  27  1   
 25  14  28  1   
 26  15  29  1   
 27  15  30  1   
 28  15  31  1   
 29  16  19  1   
 30  16  32  1   
 31  16  33  1   
 32  17  20  1   
 33  17  34  1   
 34  17  35  1   
 35  18  36  1   
 36  18  37  1   
 37  18  38  1   
 38  19  21  1   
 39  19  39  1   
 40  19  40  1   
 41  20  21  1   
 42  20  41  1   
 43  20  42  1   
@<TRIPOS>SUBSTRUCTURE
  1 ****   3 GROUP 4 **** **** 0

# MOE 2024.06 (io_trps.svl 2023.06)
