@<TRIPOS>MOLECULE
NONAME
45 45 1 0 0 
SMALL
USER_CHARGES


@<TRIPOS>ATOM
  1 O       -3.5820     1.6940     2.4570 O.2   1 <1>  -0.5700 
  2 C       -3.7760     1.5220     1.2800 C.2   1 <1>   0.4230 
  3 C       -5.0850     1.2440     0.7250 C.ar  1 <1>   0.0860 
  4 C       -2.5540     1.6120     0.3760 C.3   1 <1>  -0.0990 
  5 C       -5.3040     0.9780    -0.6320 C.ar  1 <1>  -0.1500 
  6 C       -6.2100     1.2320     1.5550 C.ar  1 <1>  -0.1500 
  7 C       -1.3260     2.0310     1.1910 C.3   1 <1>   0.3430 
  8 C       -6.5700     0.7210    -1.1230 C.ar  1 <1>  -0.1500 
  9 C       -7.4790     0.9750     1.0700 C.ar  1 <1>  -0.1500 
 10 N       -0.1080     2.2100     0.3400 N.4   1 <1>  -0.9590 
 11 C       -7.6700     0.7160    -0.2830 C.ar  1 <1>   0.0830 
 12 C        0.4030     0.9170    -0.1930 C.3   1 <1>   0.3430 
 13 C        0.9330     2.9260     1.1270 C.3   1 <1>   0.3430 
 14 O       -8.8680     0.4570    -0.8520 O.3   1 <1>  -0.3630 
 15 C        0.2460     0.9250    -1.7070 C.3   1 <1>  -0.2400 
 16 C        1.9900     3.4960     0.1880 C.3   1 <1>  -0.2400 
 17 C      -10.0810     0.3850    -0.1370 C.3   1 <1>   0.2000 
 18 C      -10.1880    -0.9950     0.5160 C.3   1 <1>  -0.2400 
 19 C      -11.2070     0.6050    -1.1440 C.3   1 <1>  -0.2400 
 20 H       -2.7450     2.3430    -0.3880 H     1 <1>   0.0800 
 21 H       -2.3960     0.6480    -0.0680 H     1 <1>   0.0800 
 22 H       -4.4890     0.9660    -1.3310 H     1 <1>   0.1500 
 23 H       -6.0860     1.4290     2.6070 H     1 <1>   0.1500 
 24 H       -1.1370     1.2940     1.9570 H     1 <1>   0.0800 
 25 H       -1.5560     2.9590     1.6900 H     1 <1>   0.0800 
 26 H       -6.7230     0.5190    -2.1690 H     1 <1>   0.1500 
 27 H       -8.3030     0.9790     1.7580 H     1 <1>   0.1500 
 28 H       -0.3490     2.8120    -0.4580 H     1 <1>   0.4500 
 29 H       -0.1450     0.0900     0.2310 H     1 <1>   0.0800 
 30 H        1.4450     0.7920     0.0580 H     1 <1>   0.0800 
 31 H        1.3880     2.2580     1.8410 H     1 <1>   0.0800 
 32 H        0.4800     3.7410     1.6720 H     1 <1>   0.0800 
 33 H       -0.7860     1.0220    -1.9920 H     1 <1>   0.0800 
 34 H        0.6120    -0.0050    -2.1050 H     1 <1>   0.0800 
 35 H        0.8210     1.7200    -2.1480 H     1 <1>   0.0800 
 36 H        2.5270     2.7170    -0.3220 H     1 <1>   0.0800 
 37 H        2.7020     4.0600     0.7640 H     1 <1>   0.0800 
 38 H        1.5450     4.1620    -0.5300 H     1 <1>   0.0800 
 39 H      -10.1040     1.1730     0.5950 H     1 <1>   0.0800 
 40 H      -10.1500    -1.7650    -0.2340 H     1 <1>   0.0800 
 41 H      -11.1210    -1.0780     1.0440 H     1 <1>   0.0800 
 42 H       -9.3890    -1.1470     1.2170 H     1 <1>   0.0800 
 43 H      -11.1830    -0.1530    -1.9060 H     1 <1>   0.0800 
 44 H      -11.1040     1.5730    -1.6010 H     1 <1>   0.0800 
 45 H      -12.1600     0.5640    -0.6470 H     1 <1>   0.0800 
@<TRIPOS>BOND
  1   1   2  2   
  2   2   3  1   
  3   2   4  1   
  4   3   5  ar  
  5   3   6  ar  
  6   4   7  1   
  7   4  20  1   
  8   4  21  1   
  9   5   8  ar  
 10   5  22  1   
 11   6   9  ar  
 12   6  23  1   
 13   7  10  1   
 14   7  24  1   
 15   7  25  1   
 16   8  11  ar  
 17   8  26  1   
 18   9  11  ar  
 19   9  27  1   
 20  10  12  1   
 21  10  13  1   
 22  10  28  1   
 23  11  14  1   
 24  12  15  1   
 25  12  29  1   
 26  12  30  1   
 27  13  16  1   
 28  13  31  1   
 29  13  32  1   
 30  14  17  1   
 31  15  33  1   
 32  15  34  1   
 33  15  35  1   
 34  16  36  1   
 35  16  37  1   
 36  16  38  1   
 37  17  18  1   
 38  17  19  1   
 39  17  39  1   
 40  18  40  1   
 41  18  41  1   
 42  18  42  1   
 43  19  43  1   
 44  19  44  1   
 45  19  45  1   
@<TRIPOS>SUBSTRUCTURE
  1 ****   3 GROUP 4 **** **** 0

# MOE 2024.06 (io_trps.svl 2023.06)
