@<TRIPOS>MOLECULE
NONAME
49 52 1 0 0 
SMALL
USER_CHARGES


@<TRIPOS>ATOM
  1 O       -0.4750     2.1460     3.1630 O.2   1 <1>  -0.5700 
  2 C       -0.2900     2.4380     2.0050 C.2   1 <1>   0.5690 
  3 N       -1.3710     2.4610     1.1810 N.am  1 <1>  -0.7300 
  4 C        1.1440     2.7700     1.5040 C.3   1 <1>   0.2040 
  5 C       -1.4350     2.5300    -0.2980 C.3   1 <1>   0.1400 
  6 C        1.5290     1.8440     0.3220 C.ar  1 <1>  -0.1440 
  7 C        2.2280     2.6130     2.5900 C.3   1 <1>  -0.1600 
  8 C        1.2570     4.2810     1.2000 C.3   1 <1>  -0.1600 
  9 C       -2.8280     2.9820    -0.7450 C.3   1 <1>   0.0210 
 10 C        2.0920     2.2970    -0.8680 C.ar  1 <1>  -0.1500 
 11 C        1.2990     0.4790     0.4550 C.ar  1 <1>  -0.1500 
 12 C        3.3820     3.5110     2.1470 C.3   1 <1>  -0.1600 
 13 C        2.7200     4.6910     1.4330 C.3   1 <1>  -0.1600 
 14 C       -3.9440     2.0460    -0.3010 C.2   1 <1>  -0.1810 
 15 C        2.4000     1.4170    -1.8910 C.ar  1 <1>  -0.1500 
 16 C        1.6060    -0.4040    -0.5660 C.ar  1 <1>  -0.1500 
 17 C       -5.3150     2.3770    -0.4010 C.ar  1 <1>   0.0000 
 18 C       -3.8660     0.8010     0.2320 C.2   1 <1>  -0.3020 
 19 C        2.1560     0.0650    -1.7430 C.ar  1 <1>  -0.1500 
 20 C       -6.0230     1.2870     0.0950 C.ar  1 <1>  -0.1520 
 21 C       -6.0150     3.4960    -0.8650 C.ar  1 <1>  -0.1500 
 22 N       -5.1230     0.3280     0.4800 N.pl3 1 <1>   0.0330 
 23 C       -7.4200     1.2930     0.1370 C.ar  1 <1>  -0.1500 
 24 C       -7.3900     3.5030    -0.8240 C.ar  1 <1>  -0.1500 
 25 C       -8.0930     2.4010    -0.3220 C.ar  1 <1>  -0.1500 
 26 H       -2.2630     2.2040     1.6180 H     1 <1>   0.3700 
 27 H       -1.2230     1.5560    -0.7070 H     1 <1>   0.0800 
 28 H       -0.6990     3.2190    -0.6690 H     1 <1>   0.0800 
 29 H        2.5370     1.5900     2.7180 H     1 <1>   0.0800 
 30 H        1.8580     2.9780     3.5330 H     1 <1>   0.0800 
 31 H        0.6470     4.8150     1.9090 H     1 <1>   0.0800 
 32 H        0.9090     4.5410     0.2180 H     1 <1>   0.0800 
 33 H       -2.8450     3.0460    -1.8180 H     1 <1>   0.0800 
 34 H       -3.0130     3.9670    -0.3550 H     1 <1>   0.0800 
 35 H        2.3080     3.3360    -1.0250 H     1 <1>   0.1500 
 36 H        0.8750     0.0880     1.3650 H     1 <1>   0.1500 
 37 H        4.0060     2.9730     1.4530 H     1 <1>   0.0800 
 38 H        3.9810     3.8300     2.9830 H     1 <1>   0.0800 
 39 H        2.7610     5.5750     2.0460 H     1 <1>   0.0800 
 40 H        3.2240     4.8930     0.5040 H     1 <1>   0.0800 
 41 H        2.8350     1.7850    -2.8040 H     1 <1>   0.1500 
 42 H        1.4170    -1.4560    -0.4410 H     1 <1>   0.1500 
 43 H       -2.9920     0.2130     0.4520 H     1 <1>   0.1500 
 44 H        2.3960    -0.6190    -2.5380 H     1 <1>   0.1500 
 45 H       -5.4670     4.3370    -1.2480 H     1 <1>   0.1500 
 46 H       -5.3650    -0.5820     0.8830 H     1 <1>   0.2700 
 47 H       -7.9510     0.4420     0.5240 H     1 <1>   0.1500 
 48 H       -7.9410     4.3570    -1.1780 H     1 <1>   0.1500 
 49 H       -9.1690     2.4310    -0.3010 H     1 <1>   0.1500 
@<TRIPOS>BOND
  1   1   2  2   
  2   2   3  am  
  3   2   4  1   
  4   3   5  1   
  5   3  26  1   
  6   4   6  1   
  7   4   7  1   
  8   4   8  1   
  9   5   9  1   
 10   5  27  1   
 11   5  28  1   
 12   6  10  ar  
 13   6  11  ar  
 14   7  12  1   
 15   7  29  1   
 16   7  30  1   
 17   8  13  1   
 18   8  31  1   
 19   8  32  1   
 20   9  14  1   
 21   9  33  1   
 22   9  34  1   
 23  10  15  ar  
 24  10  35  1   
 25  11  16  ar  
 26  11  36  1   
 27  12  13  1   
 28  12  37  1   
 29  12  38  1   
 30  13  39  1   
 31  13  40  1   
 32  14  17  1   
 33  14  18  2   
 34  15  19  ar  
 35  15  41  1   
 36  16  19  ar  
 37  16  42  1   
 38  17  20  ar  
 39  17  21  ar  
 40  18  22  1   
 41  18  43  1   
 42  19  44  1   
 43  20  22  1   
 44  20  23  ar  
 45  21  24  ar  
 46  21  45  1   
 47  22  46  1   
 48  23  25  ar  
 49  23  47  1   
 50  24  25  ar  
 51  24  48  1   
 52  25  49  1   
@<TRIPOS>SUBSTRUCTURE
  1 ****   5 GROUP 4 **** **** 0

# MOE 2024.06 (io_trps.svl 2023.06)
