@<TRIPOS>MOLECULE
NONAME
52 54 1 0 0 
SMALL
USER_CHARGES


@<TRIPOS>ATOM
  1 O        6.6010     1.6600     1.0990 O.2   1 <1>  -0.5700 
  2 C        7.1020     2.5880     0.4950 C.2   1 <1>   0.5440 
  3 N        6.3070     3.5080    -0.1470 N.am  1 <1>  -0.5470 
  4 C        8.5440     2.7110     0.4140 C.ar  1 <1>   0.0860 
  5 C        4.9110     3.6820    -0.1480 C.ar  1 <1>   0.1170 
  6 C        9.3540     1.5770     0.3820 C.ar  1 <1>  -0.1500 
  7 C        9.1770     3.9550     0.3630 C.ar  1 <1>  -0.1500 
  8 C        4.0980     3.2790     0.9070 C.ar  1 <1>  -0.1500 
  9 C        4.3150     4.3060    -1.2380 C.ar  1 <1>  -0.1500 
 10 C       10.7370     1.6660     0.2870 C.ar  1 <1>   0.0830 
 11 C       10.5520     4.0630     0.2660 C.ar  1 <1>  -0.1500 
 12 C        2.7320     3.4890     0.8690 C.ar  1 <1>  -0.1500 
 13 C        2.9490     4.5170    -1.2740 C.ar  1 <1>  -0.1500 
 14 O       11.5400     0.5630     0.2530 O.3   1 <1>  -0.3630 
 15 C       11.3460     2.9220     0.2230 C.ar  1 <1>   0.0830 
 16 C        2.1410     4.1130    -0.2230 C.ar  1 <1>   0.1000 
 17 C       11.0250    -0.7370     0.4430 C.3   1 <1>   0.0400 
 18 O       12.7020     2.9780     0.1250 O.3   1 <1>  -0.3630 
 19 N        0.7640     4.3340    -0.2910 N.pl3 1 <1>  -0.8380 
 20 C       13.4080     4.1970     0.0940 C.3   1 <1>   0.0400 
 21 C        0.1500     5.2270     0.7350 C.3   1 <1>   0.2890 
 22 C       -0.0140     3.0900    -0.5300 C.3   1 <1>   0.2090 
 23 C       -1.2830     5.5810     0.3100 C.3   1 <1>  -0.1600 
 24 C        0.9710     6.5100     0.8910 C.3   1 <1>  -0.2400 
 25 C       -1.4360     3.4340    -0.9790 C.3   1 <1>  -0.1600 
 26 C       -2.1380     4.3340     0.0440 C.3   1 <1>  -0.1600 
 27 H        6.8010     4.1110    -0.7990 H     1 <1>   0.3700 
 28 H        8.8640     0.6230     0.4330 H     1 <1>   0.1500 
 29 H        8.5880     4.8540     0.4110 H     1 <1>   0.1500 
 30 H        4.5330     2.7990     1.7650 H     1 <1>   0.1500 
 31 H        4.9170     4.6260    -2.0670 H     1 <1>   0.1500 
 32 H       10.9890     5.0430     0.2290 H     1 <1>   0.1500 
 33 H        2.1170     3.1700     1.6880 H     1 <1>   0.1500 
 34 H        2.4870     4.9970    -2.1160 H     1 <1>   0.1500 
 35 H       11.8500    -1.4260     0.4300 H     1 <1>   0.0800 
 36 H       10.3470    -0.9650    -0.3600 H     1 <1>   0.0800 
 37 H       10.5270    -0.7800     1.3950 H     1 <1>   0.0800 
 38 H       14.4570     3.9710     0.0270 H     1 <1>   0.0800 
 39 H       13.2100     4.7390     1.0010 H     1 <1>   0.0800 
 40 H       13.1010     4.7580    -0.7710 H     1 <1>   0.0800 
 41 H        0.1200     4.7080     1.6790 H     1 <1>   0.0800 
 42 H       -0.0460     2.5080     0.3750 H     1 <1>   0.0800 
 43 H        0.4740     2.5060    -1.2920 H     1 <1>   0.0800 
 44 H       -1.2400     6.1780    -0.5840 H     1 <1>   0.0800 
 45 H       -1.7480     6.1730     1.0780 H     1 <1>   0.0800 
 46 H        1.0840     6.9920    -0.0630 H     1 <1>   0.0800 
 47 H        1.9420     6.2900     1.2930 H     1 <1>   0.0800 
 48 H        0.4780     7.1840     1.5660 H     1 <1>   0.0800 
 49 H       -1.9960     2.5270    -1.1120 H     1 <1>   0.0800 
 50 H       -1.3830     3.9340    -1.9310 H     1 <1>   0.0800 
 51 H       -3.1050     4.6260    -0.3270 H     1 <1>   0.0800 
 52 H       -2.2780     3.7930     0.9640 H     1 <1>   0.0800 
@<TRIPOS>BOND
  1   1   2  2   
  2   2   3  am  
  3   2   4  1   
  4   3   5  1   
  5   3  27  1   
  6   4   6  ar  
  7   4   7  ar  
  8   5   8  ar  
  9   5   9  ar  
 10   6  10  ar  
 11   6  28  1   
 12   7  11  ar  
 13   7  29  1   
 14   8  12  ar  
 15   8  30  1   
 16   9  13  ar  
 17   9  31  1   
 18  10  14  1   
 19  10  15  ar  
 20  11  15  ar  
 21  11  32  1   
 22  12  16  ar  
 23  12  33  1   
 24  13  16  ar  
 25  13  34  1   
 26  14  17  1   
 27  15  18  1   
 28  16  19  1   
 29  17  35  1   
 30  17  36  1   
 31  17  37  1   
 32  18  20  1   
 33  19  21  1   
 34  19  22  1   
 35  20  38  1   
 36  20  39  1   
 37  20  40  1   
 38  21  23  1   
 39  21  24  1   
 40  21  41  1   
 41  22  25  1   
 42  22  42  1   
 43  22  43  1   
 44  23  26  1   
 45  23  44  1   
 46  23  45  1   
 47  24  46  1   
 48  24  47  1   
 49  24  48  1   
 50  25  26  1   
 51  25  49  1   
 52  25  50  1   
 53  26  51  1   
 54  26  52  1   
@<TRIPOS>SUBSTRUCTURE
  1 ****   3 GROUP 4 **** **** 0

# MOE 2024.06 (io_trps.svl 2023.06)
