@<TRIPOS>MOLECULE
NONAME
53 55 1 0 0 
SMALL
USER_CHARGES


@<TRIPOS>ATOM
  1 O       -0.0680    -0.0970     0.7080 O.2   1 <1>  -0.5700 
  2 C       -0.4420    -1.2460     0.5950 C.2   1 <1>   0.6340 
  3 O        0.3460    -2.2300     1.0400 O.3   1 <1>  -0.4300 
  4 C       -1.7180    -1.6080     0.0040 C.ar  1 <1>   0.0860 
  5 C        1.6040    -1.9670     1.6290 C.3   1 <1>   0.0400 
  6 C       -2.1500    -2.9330    -0.0840 C.ar  1 <1>  -0.1500 
  7 C       -2.5760    -0.6300    -0.5030 C.ar  1 <1>  -0.1500 
  8 C       -3.3750    -3.2650    -0.6340 C.ar  1 <1>  -0.1500 
  9 C       -3.8020    -0.9520    -1.0550 C.ar  1 <1>  -0.1500 
 10 C       -4.2160    -2.2730    -1.1150 C.ar  1 <1>  -0.1440 
 11 C       -5.5770    -2.6210    -1.6880 C.3   1 <1>   0.4860 
 12 N       -6.4920    -2.9690    -0.5700 N.4   1 <1>  -0.9590 
 13 C       -7.8470    -3.3870    -1.0810 C.3   1 <1>   0.3430 
 14 C       -6.6330    -1.8250     0.4080 C.3   1 <1>   0.3430 
 15 C       -8.8310    -3.7520     0.0510 C.3   1 <1>   0.2090 
 16 C       -7.5850    -2.1460     1.5780 C.3   1 <1>   0.2090 
 17 N       -8.8880    -2.7070     1.1150 N.pl3 1 <1>  -0.8380 
 18 C       -9.9770    -1.8240     1.0710 C.ar  1 <1>   0.1000 
 19 C      -10.1220    -0.7930     0.1250 C.ar  1 <1>   0.0830 
 20 C      -10.9640    -1.9950     2.0310 C.ar  1 <1>  -0.1500 
 21 O       -9.1410    -0.6280    -0.8200 O.3   1 <1>  -0.3620 
 22 C      -11.2480     0.0260     0.1710 C.ar  1 <1>  -0.1500 
 23 C      -12.0780    -1.1770     2.0690 C.ar  1 <1>  -0.1500 
 24 C       -9.2090     0.4220    -1.7590 C.3   1 <1>   0.1200 
 25 C      -12.2200    -0.1660     1.1390 C.ar  1 <1>  -0.1500 
 26 C       -7.9610     0.3550    -2.6350 C.3   1 <1>  -0.2400 
 27 H        2.0540    -2.9030     1.9060 H     1 <1>   0.0800 
 28 H        1.4600    -1.3520     2.5010 H     1 <1>   0.0800 
 29 H        2.2240    -1.4550     0.9130 H     1 <1>   0.0800 
 30 H       -1.5110    -3.7190     0.2850 H     1 <1>   0.1500 
 31 H       -2.2670     0.4020    -0.4610 H     1 <1>   0.1500 
 32 H       -3.6570    -4.3040    -0.6820 H     1 <1>   0.1500 
 33 H       -4.4230    -0.1570    -1.4340 H     1 <1>   0.1500 
 34 H       -5.4800    -3.4560    -2.3630 H     1 <1>   0.0800 
 35 H       -5.9680    -1.7800    -2.2380 H     1 <1>   0.0800 
 36 H       -6.0810    -3.7530    -0.0520 H     1 <1>   0.4500 
 37 H       -7.7480    -4.2340    -1.7380 H     1 <1>   0.0800 
 38 H       -8.2810    -2.5820    -1.6490 H     1 <1>   0.0800 
 39 H       -7.0120    -0.9580    -0.1030 H     1 <1>   0.0800 
 40 H       -5.6690    -1.5670     0.8140 H     1 <1>   0.0800 
 41 H       -8.5420    -4.6870     0.4960 H     1 <1>   0.0800 
 42 H       -9.8140    -3.8850    -0.3680 H     1 <1>   0.0800 
 43 H       -7.7650    -1.2450     2.1410 H     1 <1>   0.0800 
 44 H       -7.1170    -2.8510     2.2420 H     1 <1>   0.0800 
 45 H      -10.8530    -2.7820     2.7540 H     1 <1>   0.1500 
 46 H      -11.4010     0.8220    -0.5310 H     1 <1>   0.1500 
 47 H      -12.8320    -1.3280     2.8230 H     1 <1>   0.1500 
 48 H       -9.2490     1.3570    -1.2270 H     1 <1>   0.0800 
 49 H      -10.0980     0.2940    -2.3540 H     1 <1>   0.0800 
 50 H      -13.0870     0.4710     1.1670 H     1 <1>   0.1500 
 51 H       -7.0780     0.4820    -2.0370 H     1 <1>   0.0800 
 52 H       -7.9940     1.1490    -3.3600 H     1 <1>   0.0800 
 53 H       -7.9260    -0.5800    -3.1630 H     1 <1>   0.0800 
@<TRIPOS>BOND
  1   1   2  2   
  2   2   3  1   
  3   2   4  1   
  4   3   5  1   
  5   4   6  ar  
  6   4   7  ar  
  7   5  27  1   
  8   5  28  1   
  9   5  29  1   
 10   6   8  ar  
 11   6  30  1   
 12   7   9  ar  
 13   7  31  1   
 14   8  10  ar  
 15   8  32  1   
 16   9  10  ar  
 17   9  33  1   
 18  10  11  1   
 19  11  12  1   
 20  11  34  1   
 21  11  35  1   
 22  12  13  1   
 23  12  14  1   
 24  12  36  1   
 25  13  15  1   
 26  13  37  1   
 27  13  38  1   
 28  14  16  1   
 29  14  39  1   
 30  14  40  1   
 31  15  17  1   
 32  15  41  1   
 33  15  42  1   
 34  16  17  1   
 35  16  43  1   
 36  16  44  1   
 37  17  18  1   
 38  18  19  ar  
 39  18  20  ar  
 40  19  21  1   
 41  19  22  ar  
 42  20  23  ar  
 43  20  45  1   
 44  21  24  1   
 45  22  25  ar  
 46  22  46  1   
 47  23  25  ar  
 48  23  47  1   
 49  24  26  1   
 50  24  48  1   
 51  24  49  1   
 52  25  50  1   
 53  26  51  1   
 54  26  52  1   
 55  26  53  1   
@<TRIPOS>SUBSTRUCTURE
  1 ****  14 GROUP 4 **** **** 0

# MOE 2024.06 (io_trps.svl 2023.06)
