@<TRIPOS>MOLECULE
NONAME
45 47 1 0 0 
SMALL
USER_CHARGES


@<TRIPOS>ATOM
  1 S        0.6440    -0.9780    -1.2780 S.3   1 <1>  -0.2860 
  2 C       -1.1330    -0.8740    -0.9620 C.2   1 <1>   0.2420 
  3 C        1.3750    -2.0850     0.0320 C.3   1 <1>   0.1310 
  4 N       -1.8180     0.1460    -1.3400 N.2   1 <1>  -0.3380 
  5 N       -1.8670    -1.8120    -0.3370 N.pl3 1 <1>   0.3260 
  6 C        2.8750    -1.8790     0.1810 C.2   1 <1>   0.5690 
  7 N       -3.0760    -0.0880    -0.9530 N.2   1 <1>  -0.3380 
  8 C       -1.5470    -3.1070     0.1350 C.ar  1 <1>  -0.0230 
  9 C       -3.0800    -1.2390    -0.3720 C.2   1 <1>   0.0360 
 10 O        3.4510    -2.5650     0.9900 O.2   1 <1>  -0.5700 
 11 N        3.5090    -0.9440    -0.5800 N.am  1 <1>  -0.7300 
 12 C       -1.4800    -3.3630     1.5010 C.ar  1 <1>  -0.1500 
 13 C       -1.2870    -4.1380    -0.7610 C.ar  1 <1>  -0.1500 
 14 C        4.9450    -0.5890    -0.5930 C.3   1 <1>   0.2200 
 15 C       -1.1450    -4.6240     1.9600 C.ar  1 <1>  -0.1500 
 16 C       -0.9530    -5.3980    -0.3010 C.ar  1 <1>  -0.1500 
 17 C        5.7850    -1.8210    -0.9650 C.3   1 <1>  -0.1600 
 18 C        5.3120     0.0800     0.7380 C.3   1 <1>  -0.1600 
 19 C       -0.8800    -5.6420     1.0600 C.ar  1 <1>  -0.1500 
 20 C        7.2050    -1.4460    -1.4180 C.3   1 <1>  -0.1600 
 21 C        6.7810     0.5180     0.8550 C.3   1 <1>  -0.1600 
 22 C        8.2310    -1.3040    -0.2830 C.3   1 <1>  -0.1600 
 23 C        7.7340    -0.6740     1.0280 C.3   1 <1>  -0.1600 
 24 H        1.1780    -3.1010    -0.2500 H     1 <1>   0.0800 
 25 H        0.8890    -1.8540     0.9600 H     1 <1>   0.0800 
 26 H       -3.9490    -1.7170     0.0430 H     1 <1>   0.1500 
 27 H        2.9340    -0.4010    -1.2300 H     1 <1>   0.3700 
 28 H       -1.6850    -2.5800     2.2110 H     1 <1>   0.1500 
 29 H       -1.3410    -3.9580    -1.8230 H     1 <1>   0.1500 
 30 H        5.0780     0.1430    -1.3720 H     1 <1>   0.0800 
 31 H       -1.0900    -4.8180     3.0180 H     1 <1>   0.1500 
 32 H       -0.7500    -6.1930    -0.9990 H     1 <1>   0.1500 
 33 H        5.3000    -2.3140    -1.7890 H     1 <1>   0.0800 
 34 H        5.8250    -2.5170    -0.1450 H     1 <1>   0.0800 
 35 H        5.0830    -0.5870     1.5510 H     1 <1>   0.0800 
 36 H        4.6930     0.9520     0.8520 H     1 <1>   0.0800 
 37 H       -0.6180    -6.6230     1.4180 H     1 <1>   0.1500 
 38 H        7.1710    -0.5320    -1.9840 H     1 <1>   0.0800 
 39 H        7.5640    -2.2090    -2.0880 H     1 <1>   0.0800 
 40 H        6.8650     1.1340     1.7340 H     1 <1>   0.0800 
 41 H        7.0730     1.1210     0.0130 H     1 <1>   0.0800 
 42 H        9.0580    -0.7230    -0.6540 H     1 <1>   0.0800 
 43 H        8.6190    -2.2810    -0.0470 H     1 <1>   0.0800 
 44 H        7.2540    -1.4300     1.6270 H     1 <1>   0.0800 
 45 H        8.5970    -0.3470     1.5820 H     1 <1>   0.0800 
@<TRIPOS>BOND
  1   1   2  1   
  2   1   3  1   
  3   2   4  2   
  4   2   5  1   
  5   3   6  1   
  6   3  24  1   
  7   3  25  1   
  8   4   7  1   
  9   5   8  1   
 10   5   9  1   
 11   6  10  2   
 12   6  11  am  
 13   7   9  2   
 14   8  12  ar  
 15   8  13  ar  
 16   9  26  1   
 17  11  14  1   
 18  11  27  1   
 19  12  15  ar  
 20  12  28  1   
 21  13  16  ar  
 22  13  29  1   
 23  14  17  1   
 24  14  18  1   
 25  14  30  1   
 26  15  19  ar  
 27  15  31  1   
 28  16  19  ar  
 29  16  32  1   
 30  17  20  1   
 31  17  33  1   
 32  17  34  1   
 33  18  21  1   
 34  18  35  1   
 35  18  36  1   
 36  19  37  1   
 37  20  22  1   
 38  20  38  1   
 39  20  39  1   
 40  21  23  1   
 41  21  40  1   
 42  21  41  1   
 43  22  23  1   
 44  22  42  1   
 45  22  43  1   
 46  23  44  1   
 47  23  45  1   
@<TRIPOS>SUBSTRUCTURE
  1 ****   3 GROUP 4 **** **** 0

# MOE 2024.06 (io_trps.svl 2023.06)
