@<TRIPOS>MOLECULE
NONAME
38 41 1 0 0 
SMALL
USER_CHARGES


@<TRIPOS>ATOM
  1 O        0.6600     0.8260     1.4140 O.co2 1 <1>  -0.9000 
  2 C        1.1570    -0.1440     0.8240 C.2   1 <1>   0.9060 
  3 O        0.7450    -1.2970     0.9590 O.co2 1 <1>  -0.9000 
  4 C        2.2530     0.1600    -0.1510 C.3   1 <1>  -0.1860 
  5 C        3.1180    -1.0280    -0.5770 C.3   1 <1>   0.3380 
  6 C        3.3260     1.1090     0.4420 C.3   1 <1>  -0.0190 
  7 O        4.2260    -0.8920     0.2600 O.3   1 <1>  -0.5600 
  8 C        3.7850    -0.6090    -1.8700 C.2   1 <1>  -0.2880 
  9 C        3.1400     2.5620     0.0670 C.2   1 <1>   0.5690 
 10 C        4.6070     0.4140    -0.0140 C.3   1 <1>   0.3380 
 11 C        4.6880     0.3020    -1.5250 C.2   1 <1>  -0.2880 
 12 O        4.0580     3.1850    -0.4160 O.2   1 <1>  -0.5700 
 13 N        1.9120     3.0870     0.3560 N.am  1 <1>  -0.5470 
 14 C        1.3310     4.3490     0.1790 C.ar  1 <1>   0.1170 
 15 C        1.9900     5.4290    -0.4050 C.ar  1 <1>  -0.1500 
 16 C        0.0180     4.5230     0.6120 C.ar  1 <1>  -0.1500 
 17 C        1.3380     6.6400    -0.5400 C.ar  1 <1>  -0.1430 
 18 C       -0.6310     5.7390     0.4750 C.ar  1 <1>  -0.1500 
 19 C        0.0460     6.7950    -0.1060 C.ar  1 <1>  -0.1430 
 20 C        1.8730     7.9170    -1.1370 C.3   1 <1>  -0.0170 
 21 C       -0.4520     8.1960    -0.3560 C.3   1 <1>  -0.0170 
 22 C        0.8270     8.9680    -0.7270 C.3   1 <1>  -0.1600 
 23 H        1.7830     0.5850    -1.0170 H     1 <1>   0.0800 
 24 H        2.6950    -2.0180    -0.5290 H     1 <1>   0.0800 
 25 H        3.3070     1.0550     1.5170 H     1 <1>   0.0800 
 26 H        3.4740    -1.0150    -2.8140 H     1 <1>   0.1500 
 27 H        5.5160     0.6660     0.5030 H     1 <1>   0.0800 
 28 H        5.3730     0.9090    -2.0890 H     1 <1>   0.1500 
 29 H        1.2840     2.3870     0.8060 H     1 <1>   0.3700 
 30 H        3.0010     5.3260    -0.7510 H     1 <1>   0.1500 
 31 H       -0.4940     3.6890     1.0620 H     1 <1>   0.1500 
 32 H       -1.6440     5.8560     0.8150 H     1 <1>   0.1500 
 33 H        1.9170     7.8180    -2.2080 H     1 <1>   0.0800 
 34 H        2.8480     8.1550    -0.7510 H     1 <1>   0.0800 
 35 H       -0.9250     8.6100     0.5170 H     1 <1>   0.0800 
 36 H       -1.1440     8.1870    -1.1800 H     1 <1>   0.0800 
 37 H        0.6500     9.6840    -1.5100 H     1 <1>   0.0800 
 38 H        1.1830     9.4840     0.1470 H     1 <1>   0.0800 
@<TRIPOS>BOND
  1   1   2  ar  
  2   2   3  ar  
  3   2   4  1   
  4   4   5  1   
  5   4   6  1   
  6   4  23  1   
  7   5   7  1   
  8   5   8  1   
  9   5  24  1   
 10   6   9  1   
 11   6  10  1   
 12   6  25  1   
 13   7  10  1   
 14   8  11  2   
 15   8  26  1   
 16   9  12  2   
 17   9  13  am  
 18  10  11  1   
 19  10  27  1   
 20  11  28  1   
 21  13  14  1   
 22  13  29  1   
 23  14  15  ar  
 24  14  16  ar  
 25  15  17  ar  
 26  15  30  1   
 27  16  18  ar  
 28  16  31  1   
 29  17  19  ar  
 30  17  20  1   
 31  18  19  ar  
 32  18  32  1   
 33  19  21  1   
 34  20  22  1   
 35  20  33  1   
 36  20  34  1   
 37  21  22  1   
 38  21  35  1   
 39  21  36  1   
 40  22  37  1   
 41  22  38  1   
@<TRIPOS>SUBSTRUCTURE
  1 ****  13 GROUP 4 **** **** 0

# MOE 2024.06 (io_trps.svl 2023.06)
