@<TRIPOS>MOLECULE
NONAME
50 52 1 0 0 
SMALL
USER_CHARGES


@<TRIPOS>ATOM
  1 O       -1.1680     4.0420     2.0010 O.2   1 <1>  -0.5700 
  2 C       -0.9750     3.7860     0.8310 C.2   1 <1>   0.5690 
  3 N       -1.9550     3.1710     0.0860 N.am  1 <1>  -0.6600 
  4 C        0.3790     4.1940     0.1910 C.3   1 <1>   0.2610 
  5 C       -1.8500     2.8050    -1.3580 C.3   1 <1>   0.1400 
  6 C       -3.2650     2.7680     0.6730 C.3   1 <1>   0.1400 
  7 O        1.0660     3.0800    -0.3160 O.3   1 <1>  -0.5600 
  8 C        1.4040     4.8160     1.1410 C.3   1 <1>  -0.1600 
  9 C       -3.0360     3.3830    -2.1490 C.3   1 <1>   0.1100 
 10 C       -4.4300     3.3470    -0.1460 C.3   1 <1>   0.1100 
 11 C        1.8220     2.4920     0.6950 C.3   1 <1>   0.1200 
 12 C        2.1630     3.6120     1.6760 C.3   1 <1>  -0.1600 
 13 N       -4.3420     2.9830    -1.5810 N.3   1 <1>  -0.8100 
 14 C       -5.4550     3.5300    -2.4140 C.3   1 <1>   0.1710 
 15 C       -6.8810     3.0970    -2.0420 C.2   1 <1>   0.5690 
 16 O       -7.4450     2.2840    -2.7350 O.2   1 <1>  -0.5700 
 17 N       -7.4600     3.6950    -0.9570 N.am  1 <1>  -0.5470 
 18 C       -8.6850     3.5170    -0.2920 C.ar  1 <1>   0.1170 
 19 C       -8.8150     4.0630     0.9900 C.ar  1 <1>   0.0820 
 20 C       -9.7610     2.8350    -0.8460 C.ar  1 <1>  -0.1500 
 21 O       -7.7300     4.7250     1.4990 O.3   1 <1>  -0.3630 
 22 C      -10.0100     3.9180     1.6900 C.ar  1 <1>  -0.1500 
 23 C      -10.9460     2.6940    -0.1460 C.ar  1 <1>  -0.1500 
 24 C       -7.7450     5.2530     2.8080 C.3   1 <1>   0.0400 
 25 C      -11.0710     3.2340     1.1210 C.ar  1 <1>  -0.1500 
 26 H        0.1800     4.8620    -0.6260 H     1 <1>   0.0800 
 27 H       -1.8540     1.7320    -1.4490 H     1 <1>   0.0800 
 28 H       -0.9350     3.1660    -1.7880 H     1 <1>   0.0800 
 29 H       -3.3470     3.1060     1.6920 H     1 <1>   0.0800 
 30 H       -3.3340     1.6940     0.6750 H     1 <1>   0.0800 
 31 H        0.9520     5.4050     1.9200 H     1 <1>   0.0800 
 32 H        2.0650     5.4450     0.5720 H     1 <1>   0.0800 
 33 H       -2.9700     3.0330    -3.1650 H     1 <1>   0.0800 
 34 H       -2.9560     4.4560    -2.1580 H     1 <1>   0.0800 
 35 H       -4.4360     4.4170    -0.0350 H     1 <1>   0.0800 
 36 H       -5.3390     2.9530     0.2720 H     1 <1>   0.0800 
 37 H        2.7000     2.0510     0.2560 H     1 <1>   0.0800 
 38 H        1.2210     1.7320     1.1660 H     1 <1>   0.0800 
 39 H        1.8170     3.3450     2.6590 H     1 <1>   0.0800 
 40 H        3.2230     3.7930     1.7110 H     1 <1>   0.0800 
 41 H       -5.2960     3.2210    -3.4320 H     1 <1>   0.0800 
 42 H       -5.4160     4.6040    -2.3960 H     1 <1>   0.0800 
 43 H       -6.8480     4.3180    -0.4320 H     1 <1>   0.3700 
 44 H       -9.6830     2.4110    -1.8310 H     1 <1>   0.1500 
 45 H      -10.1380     4.3270     2.6730 H     1 <1>   0.1500 
 46 H      -11.7700     2.1610    -0.5900 H     1 <1>   0.1500 
 47 H       -6.7860     5.6990     3.0010 H     1 <1>   0.0800 
 48 H       -7.9220     4.4530     3.5060 H     1 <1>   0.0800 
 49 H       -8.5150     6.0010     2.8750 H     1 <1>   0.0800 
 50 H      -11.9940     3.1220     1.6630 H     1 <1>   0.1500 
@<TRIPOS>BOND
  1   1   2  2   
  2   2   3  am  
  3   2   4  1   
  4   3   5  1   
  5   3   6  1   
  6   4   7  1   
  7   4   8  1   
  8   4  26  1   
  9   5   9  1   
 10   5  27  1   
 11   5  28  1   
 12   6  10  1   
 13   6  29  1   
 14   6  30  1   
 15   7  11  1   
 16   8  12  1   
 17   8  31  1   
 18   8  32  1   
 19   9  13  1   
 20   9  33  1   
 21   9  34  1   
 22  10  13  1   
 23  10  35  1   
 24  10  36  1   
 25  11  12  1   
 26  11  37  1   
 27  11  38  1   
 28  12  39  1   
 29  12  40  1   
 30  13  14  1   
 31  14  15  1   
 32  14  41  1   
 33  14  42  1   
 34  15  16  2   
 35  15  17  am  
 36  17  18  1   
 37  17  43  1   
 38  18  19  ar  
 39  18  20  ar  
 40  19  21  1   
 41  19  22  ar  
 42  20  23  ar  
 43  20  44  1   
 44  21  24  1   
 45  22  25  ar  
 46  22  45  1   
 47  23  25  ar  
 48  23  46  1   
 49  24  47  1   
 50  24  48  1   
 51  24  49  1   
 52  25  50  1   
@<TRIPOS>SUBSTRUCTURE
  1 ****  10 GROUP 4 **** **** 0

# MOE 2024.06 (io_trps.svl 2023.06)
