@<TRIPOS>MOLECULE
NONAME
39 40 1 0 0 
SMALL
USER_CHARGES


@<TRIPOS>ATOM
  1 O       -1.2760     0.6480     0.0660 O.2   1 <1>  -0.5700 
  2 C       -1.3730     1.6530    -0.6120 C.2   1 <1>   0.5440 
  3 N       -2.5520     1.8310    -1.3010 N.am  1 <1>  -0.6600 
  4 C       -0.3220     2.6570    -0.6240 C.ar  1 <1>   0.0860 
  5 C       -3.3720     0.6330    -1.6440 C.3   1 <1>   0.1400 
  6 C       -3.3750     3.0400    -1.0210 C.3   1 <1>   0.1400 
  7 C        0.5150     2.8340     0.4790 C.ar  1 <1>  -0.1500 
  8 C       -0.1150     3.4880    -1.7270 C.ar  1 <1>  -0.1500 
  9 C       -4.3300     0.3160    -0.4820 C.3   1 <1>   0.3430 
 10 C       -4.3630     2.7420     0.1280 C.3   1 <1>   0.3430 
 11 C        1.5010     3.8050     0.4980 C.ar  1 <1>  -0.1440 
 12 C        0.8660     4.4620    -1.7190 C.ar  1 <1>  -0.1500 
 13 N       -5.1890     1.5020    -0.1200 N.4   1 <1>  -0.9590 
 14 C        1.6700     4.6230    -0.6060 C.ar  1 <1>  -0.1500 
 15 C        2.3950     3.9780     1.7130 C.3   1 <1>  -0.0970 
 16 C       -6.0580     1.1810     1.0320 C.3   1 <1>   0.4810 
 17 C       -7.1680     2.2060     1.0510 C.2   1 <1>  -0.2880 
 18 C       -8.4260     1.9860     0.6550 C.2   1 <1>  -0.3000 
 19 H       -2.7250    -0.2120    -1.8170 H     1 <1>   0.0800 
 20 H       -3.9240     0.8150    -2.5500 H     1 <1>   0.0800 
 21 H       -3.9120     3.3250    -1.9090 H     1 <1>   0.0800 
 22 H       -2.7420     3.8650    -0.7400 H     1 <1>   0.0800 
 23 H        0.3840     2.1920     1.3330 H     1 <1>   0.1500 
 24 H       -0.7250     3.3650    -2.6040 H     1 <1>   0.1500 
 25 H       -3.7310     0.0250     0.3680 H     1 <1>   0.0800 
 26 H       -4.9500    -0.5230    -0.7530 H     1 <1>   0.0800 
 27 H       -5.0090     3.5930     0.2630 H     1 <1>   0.0800 
 28 H       -3.7910     2.6150     1.0330 H     1 <1>   0.0800 
 29 H        1.0100     5.0940    -2.5780 H     1 <1>   0.1500 
 30 H       -5.8230     1.6960    -0.9050 H     1 <1>   0.4500 
 31 H        2.4320     5.3840    -0.6040 H     1 <1>   0.1500 
 32 H        2.3690     3.1000     2.3340 H     1 <1>   0.0800 
 33 H        2.0660     4.8220     2.2920 H     1 <1>   0.0800 
 34 H        3.4120     4.1430     1.4040 H     1 <1>   0.0800 
 35 H       -5.5020     1.1930     1.9560 H     1 <1>   0.0800 
 36 H       -6.4890     0.2010     0.9010 H     1 <1>   0.0800 
 37 H       -6.8530     3.1620     1.4340 H     1 <1>   0.1500 
 38 H       -9.2030     2.7350     0.6850 H     1 <1>   0.1500 
 39 H       -8.8030     1.0520     0.2720 H     1 <1>   0.1500 
@<TRIPOS>BOND
  1   1   2  2   
  2   2   3  am  
  3   2   4  1   
  4   3   5  1   
  5   3   6  1   
  6   4   7  ar  
  7   4   8  ar  
  8   5   9  1   
  9   5  19  1   
 10   5  20  1   
 11   6  10  1   
 12   6  21  1   
 13   6  22  1   
 14   7  11  ar  
 15   7  23  1   
 16   8  12  ar  
 17   8  24  1   
 18   9  13  1   
 19   9  25  1   
 20   9  26  1   
 21  10  13  1   
 22  10  27  1   
 23  10  28  1   
 24  11  14  ar  
 25  11  15  1   
 26  12  14  ar  
 27  12  29  1   
 28  13  16  1   
 29  13  30  1   
 30  14  31  1   
 31  15  32  1   
 32  15  33  1   
 33  15  34  1   
 34  16  17  1   
 35  16  35  1   
 36  16  36  1   
 37  17  18  2   
 38  17  37  1   
 39  18  38  1   
 40  18  39  1   
@<TRIPOS>SUBSTRUCTURE
  1 ****   2 GROUP 4 **** **** 0

# MOE 2024.06 (io_trps.svl 2023.06)
