@<TRIPOS>MOLECULE
NONAME
28 30 1 0 0 
SMALL
USER_CHARGES


@<TRIPOS>ATOM
  1 N        4.4950     2.9450     1.0370 N.2   1 <1>  -0.2500 
  2 N        5.1090     3.9480     0.4760 N.2   1 <1>  -0.2500 
  3 N        3.6100     2.4960     0.2130 N.2   1 <1>  -0.6190 
  4 N        4.6200     4.1530    -0.7120 N.2   1 <1>  -0.6190 
  5 C        3.7090     3.2550    -0.8210 C.2   1 <1>   0.8340 
  6 N        2.8990     3.1570    -1.9740 N.pl3 1 <1>  -0.4540 
  7 N        1.7660     2.3770    -2.1730 N.2   1 <1>  -0.4920 
  8 C        0.8120     2.3790    -1.3340 C.2   1 <1>   0.3280 
  9 C        0.5850     3.2830    -0.1100 C.3   1 <1>  -0.0190 
 10 C       -0.3470     1.3950    -1.4840 C.3   1 <1>   0.4040 
 11 C        0.4580     2.3850     1.1370 C.3   1 <1>  -0.1600 
 12 C       -0.7770     3.9780    -0.3010 C.3   1 <1>  -0.1600 
 13 N       -1.3570     1.5500    -0.3600 N.4   1 <1>  -0.9590 
 14 C       -0.6430     1.3280     0.9470 C.3   1 <1>   0.3430 
 15 C       -1.9170     2.9440    -0.3960 C.3   1 <1>   0.3430 
 16 H        3.4790     3.4160    -2.7720 H     1 <1>   0.4000 
 17 H        1.3590     4.0180     0.0190 H     1 <1>   0.0800 
 18 H        0.0580     0.3980    -1.4830 H     1 <1>   0.0800 
 19 H       -0.8200     1.5650    -2.4360 H     1 <1>   0.0800 
 20 H        1.3890     1.8840     1.3340 H     1 <1>   0.0800 
 21 H        0.2440     2.9840     2.0040 H     1 <1>   0.0800 
 22 H       -0.7550     4.5750    -1.1970 H     1 <1>   0.0800 
 23 H       -0.9670     4.6480     0.5200 H     1 <1>   0.0800 
 24 H       -2.1080     0.8570    -0.4700 H     1 <1>   0.4500 
 25 H       -1.3410     1.3850     1.7660 H     1 <1>   0.0800 
 26 H       -0.1940     0.3470     0.9560 H     1 <1>   0.0800 
 27 H       -2.4660     3.0980    -1.3120 H     1 <1>   0.0800 
 28 H       -2.5960     3.0840     0.4290 H     1 <1>   0.0800 
@<TRIPOS>BOND
  1   1   2  2   
  2   1   3  1   
  3   2   4  1   
  4   3   5  1   
  5   4   5  2   
  6   5   6  1   
  7   6   7  1   
  8   6  16  1   
  9   7   8  2   
 10   8   9  1   
 11   8  10  1   
 12   9  11  1   
 13   9  12  1   
 14   9  17  1   
 15  10  13  1   
 16  10  18  1   
 17  10  19  1   
 18  11  14  1   
 19  11  20  1   
 20  11  21  1   
 21  12  15  1   
 22  12  22  1   
 23  12  23  1   
 24  13  14  1   
 25  13  15  1   
 26  13  24  1   
 27  14  25  1   
 28  14  26  1   
 29  15  27  1   
 30  15  28  1   
@<TRIPOS>SUBSTRUCTURE
  1 ****   9 GROUP 4 **** **** 0

# MOE 2024.06 (io_trps.svl 2023.06)
