@<TRIPOS>MOLECULE
NONAME
37 37 1 0 0 
SMALL
USER_CHARGES


@<TRIPOS>ATOM
  1 CL       0.1290     0.1780    -1.6480 Cl    1 <1>  -0.1770 
  2 C       -0.8290     1.3540    -0.7750 C.ar  1 <1>   0.1770 
  3 C       -1.4630     1.0070     0.4120 C.ar  1 <1>   0.0830 
  4 C       -0.9360     2.6260    -1.2960 C.ar  1 <1>  -0.1500 
  5 O       -1.3160    -0.2650     0.8750 O.3   1 <1>  -0.3630 
  6 C       -2.2180     1.9750     1.0710 C.ar  1 <1>  -0.1500 
  7 C       -1.6870     3.5750    -0.6200 C.ar  1 <1>   0.0830 
  8 C       -1.8890    -0.6810     2.0960 C.3   1 <1>   0.0400 
  9 C       -2.3450     3.2670     0.5680 C.ar  1 <1>  -0.0090 
 10 O       -1.7860     4.8090    -1.1560 O.3   1 <1>  -0.3630 
 11 S       -3.3330     4.5040     1.4500 S.o2  1 <1>   1.4470 
 12 C       -0.6840     5.6690    -0.9690 C.3   1 <1>   0.0400 
 13 O       -2.5000     5.6450     1.7700 O.2   1 <1>  -0.6500 
 14 O       -4.0380     3.8530     2.5350 O.2   1 <1>  -0.6500 
 15 N       -4.5260     4.9840     0.3410 N.am  1 <1>  -0.8490 
 16 C       -5.5550     3.9660     0.1440 C.3   1 <1>   0.1960 
 17 C       -5.0820     6.3020     0.6480 C.3   1 <1>   0.1960 
 18 C       -6.1900     4.1350    -1.2350 C.3   1 <1>  -0.2400 
 19 C       -4.4060     7.3330    -0.2510 C.3   1 <1>  -0.2400 
 20 H       -0.4470     2.8750    -2.2190 H     1 <1>   0.1500 
 21 H       -2.7210     1.7400     1.9910 H     1 <1>   0.1500 
 22 H       -1.6210    -1.7100     2.2550 H     1 <1>   0.0800 
 23 H       -2.9590    -0.5900     2.0300 H     1 <1>   0.0800 
 24 H       -1.4960    -0.0750     2.8930 H     1 <1>   0.0800 
 25 H       -0.9300     6.6240    -1.3950 H     1 <1>   0.0800 
 26 H        0.1760     5.2530    -1.4630 H     1 <1>   0.0800 
 27 H       -0.4980     5.7770     0.0860 H     1 <1>   0.0800 
 28 H       -6.2970     4.0260     0.9250 H     1 <1>   0.0800 
 29 H       -5.1100     2.9860     0.1850 H     1 <1>   0.0800 
 30 H       -4.9280     6.5510     1.6860 H     1 <1>   0.0800 
 31 H       -6.1420     6.3270     0.4620 H     1 <1>   0.0800 
 32 H       -6.7180     5.0670    -1.3110 H     1 <1>   0.0800 
 33 H       -6.8890     3.3370    -1.4090 H     1 <1>   0.0800 
 34 H       -5.4290     4.0940    -1.9940 H     1 <1>   0.0800 
 35 H       -3.3510     7.3700    -0.0520 H     1 <1>   0.0800 
 36 H       -4.8220     8.3060    -0.0650 H     1 <1>   0.0800 
 37 H       -4.5630     7.0810    -1.2840 H     1 <1>   0.0800 
@<TRIPOS>BOND
  1   1   2  1   
  2   2   3  ar  
  3   2   4  ar  
  4   3   5  1   
  5   3   6  ar  
  6   4   7  ar  
  7   4  20  1   
  8   5   8  1   
  9   6   9  ar  
 10   6  21  1   
 11   7   9  ar  
 12   7  10  1   
 13   8  22  1   
 14   8  23  1   
 15   8  24  1   
 16   9  11  1   
 17  10  12  1   
 18  11  13  2   
 19  11  14  2   
 20  11  15  am  
 21  12  25  1   
 22  12  26  1   
 23  12  27  1   
 24  15  16  1   
 25  15  17  1   
 26  16  18  1   
 27  16  28  1   
 28  16  29  1   
 29  17  19  1   
 30  17  30  1   
 31  17  31  1   
 32  18  32  1   
 33  18  33  1   
 34  18  34  1   
 35  19  35  1   
 36  19  36  1   
 37  19  37  1   
@<TRIPOS>SUBSTRUCTURE
  1 ****   9 GROUP 4 **** **** 0

# MOE 2024.06 (io_trps.svl 2023.06)
