@<TRIPOS>MOLECULE
NONAME
41 44 1 0 0 
SMALL
USER_CHARGES


@<TRIPOS>ATOM
  1 S       -2.9070    -4.3110     0.3230 S.3   1 <1>  -0.0800 
  2 C       -1.2300    -3.8830    -0.0230 C.ar  1 <1>   0.2970 
  3 C       -2.4900    -6.0190     0.4160 C.2   1 <1>  -0.1400 
  4 N       -0.8430    -2.6410    -0.2180 N.ar  1 <1>  -0.5670 
  5 C       -0.4330    -5.0040    -0.0500 C.ar  1 <1>   0.0000 
  6 C       -1.1840    -6.2200     0.1860 C.2   1 <1>  -0.1810 
  7 C       -3.5610    -7.0440     0.7170 C.3   1 <1>   0.0200 
  8 C        0.4500    -2.5450    -0.4520 C.ar  1 <1>   0.4770 
  9 C        0.9190    -4.7420    -0.2880 C.ar  1 <1>   0.4100 
 10 C       -0.5990    -7.6250     0.1800 C.3   1 <1>   0.0210 
 11 C       -2.8870    -8.3850     1.0590 C.3   1 <1>  -0.1600 
 12 N        1.3520    -3.5130    -0.4970 N.ar  1 <1>  -0.6200 
 13 C        0.9840    -1.1540    -0.6970 C.3   1 <1>  -0.0960 
 14 N        1.8490    -5.7490    -0.2950 N.pl3 1 <1>  -0.8690 
 15 C       -1.7100    -8.6940     0.1120 C.3   1 <1>  -0.1600 
 16 C        3.3090    -5.5800    -0.3860 C.3   1 <1>   0.2890 
 17 C        3.8830    -6.7850    -1.1190 C.3   1 <1>  -0.1600 
 18 C        3.8990    -5.7090     1.0120 C.3   1 <1>  -0.1600 
 19 C        3.9830    -7.9060    -0.0760 C.3   1 <1>  -0.1600 
 20 C        3.9840    -7.2140     1.2950 C.3   1 <1>  -0.1600 
 21 H       -4.1900    -7.1540    -0.1490 H     1 <1>   0.0800 
 22 H       -4.1660    -6.7160     1.5430 H     1 <1>   0.0800 
 23 H       -0.0190    -7.7620     1.0750 H     1 <1>   0.0800 
 24 H        0.0470    -7.7480    -0.6720 H     1 <1>   0.0800 
 25 H       -3.6160    -9.1750     1.0110 H     1 <1>   0.0800 
 26 H       -2.5160    -8.3390     2.0680 H     1 <1>   0.0800 
 27 H        0.1900    -0.4300    -0.6570 H     1 <1>   0.0800 
 28 H        1.4460    -1.1150    -1.6650 H     1 <1>   0.0800 
 29 H        1.7140    -0.9150     0.0530 H     1 <1>   0.0800 
 30 H        1.5760    -6.6460     0.0960 H     1 <1>   0.4000 
 31 H       -1.2920    -9.6570     0.3500 H     1 <1>   0.0800 
 32 H       -2.0830    -8.7400    -0.8970 H     1 <1>   0.0800 
 33 H        3.5680    -4.6500    -0.8640 H     1 <1>   0.0800 
 34 H        4.8720    -6.5340    -1.4580 H     1 <1>   0.0800 
 35 H        3.2860    -7.0590    -1.9710 H     1 <1>   0.0800 
 36 H        3.3150    -5.1780     1.7440 H     1 <1>   0.0800 
 37 H        4.8920    -5.2970     1.0000 H     1 <1>   0.0800 
 38 H        4.8770    -8.4870    -0.2230 H     1 <1>   0.0800 
 39 H        3.1290    -8.5560    -0.1530 H     1 <1>   0.0800 
 40 H        3.1230    -7.5270     1.8600 H     1 <1>   0.0800 
 41 H        4.8720    -7.4500     1.8560 H     1 <1>   0.0800 
@<TRIPOS>BOND
  1   1   2  1   
  2   1   3  1   
  3   2   4  ar  
  4   2   5  ar  
  5   3   6  2   
  6   3   7  1   
  7   4   8  ar  
  8   5   6  1   
  9   5   9  ar  
 10   6  10  1   
 11   7  11  1   
 12   7  21  1   
 13   7  22  1   
 14   8  12  ar  
 15   8  13  1   
 16   9  12  ar  
 17   9  14  1   
 18  10  15  1   
 19  10  23  1   
 20  10  24  1   
 21  11  15  1   
 22  11  25  1   
 23  11  26  1   
 24  13  27  1   
 25  13  28  1   
 26  13  29  1   
 27  14  16  1   
 28  14  30  1   
 29  15  31  1   
 30  15  32  1   
 31  16  17  1   
 32  16  18  1   
 33  16  33  1   
 34  17  19  1   
 35  17  34  1   
 36  17  35  1   
 37  18  20  1   
 38  18  36  1   
 39  18  37  1   
 40  19  20  1   
 41  19  38  1   
 42  19  39  1   
 43  20  40  1   
 44  20  41  1   
@<TRIPOS>SUBSTRUCTURE
  1 ****   5 GROUP 4 **** **** 0

# MOE 2024.06 (io_trps.svl 2023.06)
