@<TRIPOS>MOLECULE
NONAME
55 57 1 0 0 
SMALL
USER_CHARGES


@<TRIPOS>ATOM
  1 O       -2.3100     1.1090    -2.4560 O.3   1 <1>  -0.3630 
  2 C       -2.4820     1.2910    -1.1160 C.ar  1 <1>   0.0830 
  3 C       -1.0540     1.2540    -3.0840 C.3   1 <1>   0.0400 
  4 C       -1.6600     2.0420    -0.2570 C.ar  1 <1>   0.0830 
  5 C       -3.6000     0.6560    -0.6060 C.ar  1 <1>  -0.1500 
  6 O       -0.5750     2.7030    -0.7530 O.3   1 <1>  -0.3630 
  7 C       -1.9900     2.1090     1.0950 C.ar  1 <1>  -0.1500 
  8 C       -3.9360     0.7500     0.7350 C.ar  1 <1>  -0.1430 
  9 C        0.3200     3.4230     0.0680 C.3   1 <1>   0.0400 
 10 C       -3.1150     1.4710     1.5870 C.ar  1 <1>  -0.1500 
 11 C       -5.2000     0.0900     1.2470 C.3   1 <1>   0.4860 
 12 N       -6.3630     0.8010     0.6290 N.4   1 <1>  -0.9590 
 13 C       -6.4040     2.2280     1.0530 C.3   1 <1>   0.3430 
 14 C       -7.6370     0.0850     0.8880 C.3   1 <1>   0.3430 
 15 C       -7.5260     2.9560     0.3130 C.3   1 <1>  -0.1600 
 16 C       -8.7810     0.7830     0.1490 C.3   1 <1>  -0.1600 
 17 C       -8.8920     2.2750     0.5100 C.3   1 <1>   0.4230 
 18 N       -9.9430     2.9450    -0.3320 N.4   1 <1>  -0.9590 
 19 C      -10.0640     4.4220    -0.0750 C.3   1 <1>   0.3430 
 20 C      -11.3030     2.3140    -0.2000 C.3   1 <1>   0.3430 
 21 C      -10.9920     5.0650    -1.1070 C.3   1 <1>  -0.1600 
 22 C      -12.2620     2.9020    -1.2350 C.3   1 <1>  -0.1600 
 23 C      -12.3820     4.4230    -1.0990 C.3   1 <1>  -0.1600 
 24 H       -1.1130     0.8090    -4.0600 H     1 <1>   0.0800 
 25 H       -0.3060     0.7530    -2.4950 H     1 <1>   0.0800 
 26 H       -0.8300     2.3020    -3.1760 H     1 <1>   0.0800 
 27 H       -4.1950     0.0820    -1.2930 H     1 <1>   0.1500 
 28 H       -1.3820     2.6600     1.7880 H     1 <1>   0.1500 
 29 H        1.0990     3.8210    -0.5570 H     1 <1>   0.0800 
 30 H        0.7440     2.7550     0.7960 H     1 <1>   0.0800 
 31 H       -0.2110     4.2300     0.5430 H     1 <1>   0.0800 
 32 H       -3.3340     1.5480     2.6400 H     1 <1>   0.1500 
 33 H       -5.2430     0.1510     2.3220 H     1 <1>   0.0800 
 34 H       -5.1970    -0.9490     0.9590 H     1 <1>   0.0800 
 35 H       -6.1560     0.7860    -0.3810 H     1 <1>   0.4500 
 36 H       -5.4620     2.7070     0.8280 H     1 <1>   0.0800 
 37 H       -6.5640     2.2900     2.1180 H     1 <1>   0.0800 
 38 H       -7.8390     0.0730     1.9480 H     1 <1>   0.0800 
 39 H       -7.5610    -0.9370     0.5500 H     1 <1>   0.0800 
 40 H       -7.2750     3.0050    -0.7320 H     1 <1>   0.0800 
 41 H       -7.5460     3.9570     0.7020 H     1 <1>   0.0800 
 42 H       -9.6820     0.2650     0.4230 H     1 <1>   0.0800 
 43 H       -8.6320     0.6630    -0.9100 H     1 <1>   0.0800 
 44 H       -9.1710     2.3600     1.5490 H     1 <1>   0.0800 
 45 H       -9.6820     2.8520    -1.3230 H     1 <1>   0.4500 
 46 H       -9.1020     4.9020    -0.1460 H     1 <1>   0.0800 
 47 H      -10.4570     4.5930     0.9150 H     1 <1>   0.0800 
 48 H      -11.6940     2.4890     0.7900 H     1 <1>   0.0800 
 49 H      -11.2480     1.2510    -0.3600 H     1 <1>   0.0800 
 50 H      -10.5540     4.9840    -2.0870 H     1 <1>   0.0800 
 51 H      -11.0880     6.1150    -0.8870 H     1 <1>   0.0800 
 52 H      -13.2360     2.4600    -1.1040 H     1 <1>   0.0800 
 53 H      -11.9270     2.6460    -2.2260 H     1 <1>   0.0800 
 54 H      -12.9750     4.8190    -1.9070 H     1 <1>   0.0800 
 55 H      -12.8850     4.6640    -0.1770 H     1 <1>   0.0800 
@<TRIPOS>BOND
  1   1   2  1   
  2   1   3  1   
  3   2   4  ar  
  4   2   5  ar  
  5   3  24  1   
  6   3  25  1   
  7   3  26  1   
  8   4   6  1   
  9   4   7  ar  
 10   5   8  ar  
 11   5  27  1   
 12   6   9  1   
 13   7  10  ar  
 14   7  28  1   
 15   8  10  ar  
 16   8  11  1   
 17   9  29  1   
 18   9  30  1   
 19   9  31  1   
 20  10  32  1   
 21  11  12  1   
 22  11  33  1   
 23  11  34  1   
 24  12  13  1   
 25  12  14  1   
 26  12  35  1   
 27  13  15  1   
 28  13  36  1   
 29  13  37  1   
 30  14  16  1   
 31  14  38  1   
 32  14  39  1   
 33  15  17  1   
 34  15  40  1   
 35  15  41  1   
 36  16  17  1   
 37  16  42  1   
 38  16  43  1   
 39  17  18  1   
 40  17  44  1   
 41  18  19  1   
 42  18  20  1   
 43  18  45  1   
 44  19  21  1   
 45  19  46  1   
 46  19  47  1   
 47  20  22  1   
 48  20  48  1   
 49  20  49  1   
 50  21  23  1   
 51  21  50  1   
 52  21  51  1   
 53  22  23  1   
 54  22  52  1   
 55  22  53  1   
 56  23  54  1   
 57  23  55  1   
@<TRIPOS>SUBSTRUCTURE
  1 ****  13 GROUP 4 **** **** 0

# MOE 2024.06 (io_trps.svl 2023.06)
