@<TRIPOS>MOLECULE
NONAME
35 36 1 0 0 
SMALL
USER_CHARGES


@<TRIPOS>ATOM
  1 F       -0.2320     0.3860     1.4120 F     1 <1>  -0.1900 
  2 C       -1.2580     0.9930     0.8680 C.ar  1 <1>   0.1900 
  3 C       -1.0900     2.0640    -0.0200 C.ar  1 <1>   0.0830 
  4 C       -2.5090     0.5200     1.2200 C.ar  1 <1>  -0.1500 
  5 O        0.0900     2.6100    -0.4360 O.3   1 <1>  -0.3630 
  6 C       -2.2350     2.6450    -0.5460 C.ar  1 <1>  -0.1500 
  7 C       -3.6340     1.1200     0.6800 C.ar  1 <1>  -0.1500 
  8 C        1.3400     2.1410     0.0040 C.3   1 <1>   0.1200 
  9 C       -3.4940     2.1800    -0.2010 C.ar  1 <1>  -0.1500 
 10 C        2.4150     2.9950    -0.6690 C.3   1 <1>   0.3430 
 11 N        3.7870     2.5680    -0.2580 N.4   1 <1>  -0.9060 
 12 C        4.8620     3.3730    -0.8680 C.3   1 <1>   0.4230 
 13 C        6.1900     2.7090    -0.5310 C.3   1 <1>  -0.1600 
 14 C        4.9650     4.7140    -0.1470 C.3   1 <1>  -0.1600 
 15 C        6.5250     3.1410     0.9020 C.3   1 <1>  -0.1600 
 16 C        5.7380     4.4350     1.1480 C.3   1 <1>  -0.1600 
 17 H       -2.6020    -0.3040     1.9050 H     1 <1>   0.1500 
 18 H       -2.1410     3.4690    -1.2310 H     1 <1>   0.1500 
 19 H       -4.6150     0.7630     0.9430 H     1 <1>   0.1500 
 20 H        1.4310     1.1090    -0.2880 H     1 <1>   0.0800 
 21 H        1.3800     2.2490     1.0740 H     1 <1>   0.0800 
 22 H       -4.3700     2.6450    -0.6210 H     1 <1>   0.1500 
 23 H        2.2550     4.0250    -0.3970 H     1 <1>   0.0800 
 24 H        2.3120     2.9020    -1.7380 H     1 <1>   0.0800 
 25 H        3.9400     1.5840    -0.5030 H     1 <1>   0.4500 
 26 H        3.9030     2.6470     0.7600 H     1 <1>   0.4500 
 27 H        4.7180     3.4790    -1.9330 H     1 <1>   0.0800 
 28 H        6.9420     3.1090    -1.1910 H     1 <1>   0.0800 
 29 H        6.1780     1.6390    -0.6520 H     1 <1>   0.0800 
 30 H        4.0180     5.1910     0.0310 H     1 <1>   0.0800 
 31 H        5.5570     5.3760    -0.7580 H     1 <1>   0.0800 
 32 H        7.5850     3.3030     1.0140 H     1 <1>   0.0800 
 33 H        6.2230     2.3850     1.6080 H     1 <1>   0.0800 
 34 H        5.0610     4.3050     1.9760 H     1 <1>   0.0800 
 35 H        6.4010     5.2540     1.3800 H     1 <1>   0.0800 
@<TRIPOS>BOND
  1   1   2  1   
  2   2   3  ar  
  3   2   4  ar  
  4   3   5  1   
  5   3   6  ar  
  6   4   7  ar  
  7   4  17  1   
  8   5   8  1   
  9   6   9  ar  
 10   6  18  1   
 11   7   9  ar  
 12   7  19  1   
 13   8  10  1   
 14   8  20  1   
 15   8  21  1   
 16   9  22  1   
 17  10  11  1   
 18  10  23  1   
 19  10  24  1   
 20  11  12  1   
 21  11  25  1   
 22  11  26  1   
 23  12  13  1   
 24  12  14  1   
 25  12  27  1   
 26  13  15  1   
 27  13  28  1   
 28  13  29  1   
 29  14  16  1   
 30  14  30  1   
 31  14  31  1   
 32  15  16  1   
 33  15  32  1   
 34  15  33  1   
 35  16  34  1   
 36  16  35  1   
@<TRIPOS>SUBSTRUCTURE
  1 ****   8 GROUP 4 **** **** 0

# MOE 2024.06 (io_trps.svl 2023.06)
