@<TRIPOS>MOLECULE
NONAME
34 35 1 0 0 
SMALL
USER_CHARGES


@<TRIPOS>ATOM
  1 BR      -0.0880    -0.3000    -1.2530 Br    1 <1>  -0.1110 
  2 C       -1.8440    -0.1560    -0.4780 C.ar  1 <1>   0.1110 
  3 C       -2.7380    -1.1920    -0.6570 C.ar  1 <1>  -0.1500 
  4 C       -2.1630     0.9830     0.2380 C.ar  1 <1>  -0.1500 
  5 C       -4.0020    -1.0890    -0.1000 C.ar  1 <1>   0.0830 
  6 C       -3.4270     1.0820     0.7940 C.ar  1 <1>  -0.1500 
  7 O       -4.8440    -2.1320    -0.3060 O.3   1 <1>  -0.3630 
  8 C       -4.3430     0.0530     0.6270 C.ar  1 <1>  -0.1500 
  9 C       -6.1700    -2.1100     0.1730 C.3   1 <1>   0.1200 
 10 C       -6.8360    -3.4300    -0.2230 C.3   1 <1>   0.1100 
 11 N       -8.2460    -3.4920     0.2240 N.3   1 <1>  -0.8100 
 12 C       -9.1410    -2.6890    -0.6390 C.3   1 <1>   0.1100 
 13 C       -8.7010    -4.8940     0.3190 C.3   1 <1>   0.1100 
 14 C      -10.6010    -2.7460    -0.1420 C.3   1 <1>   0.3430 
 15 C      -10.1520    -4.9820     0.8340 C.3   1 <1>   0.3430 
 16 N      -11.0840    -4.1610    -0.0090 N.4   1 <1>  -0.9060 
 17 H       -2.4600    -2.0640    -1.2190 H     1 <1>   0.1500 
 18 H       -1.4390     1.7690     0.3550 H     1 <1>   0.1500 
 19 H       -3.6970     1.9590     1.3570 H     1 <1>   0.1500 
 20 H       -5.3130     0.1600     1.0730 H     1 <1>   0.1500 
 21 H       -6.6690    -1.2710    -0.2760 H     1 <1>   0.0800 
 22 H       -6.1420    -2.0140     1.2440 H     1 <1>   0.0800 
 23 H       -6.2760    -4.2220     0.2470 H     1 <1>   0.0800 
 24 H       -6.7780    -3.5620    -1.2910 H     1 <1>   0.0800 
 25 H       -9.0890    -3.0420    -1.6550 H     1 <1>   0.0800 
 26 H       -8.8220    -1.6610    -0.6320 H     1 <1>   0.0800 
 27 H       -8.0630    -5.4260     1.0060 H     1 <1>   0.0800 
 28 H       -8.6230    -5.3740    -0.6420 H     1 <1>   0.0800 
 29 H      -11.2320    -2.2020    -0.8250 H     1 <1>   0.0800 
 30 H      -10.6490    -2.2560     0.8170 H     1 <1>   0.0800 
 31 H      -10.1710    -4.6230     1.8500 H     1 <1>   0.0800 
 32 H      -10.4680    -6.0120     0.8390 H     1 <1>   0.0800 
 33 H      -11.1410    -4.5810    -0.9430 H     1 <1>   0.4500 
 34 H      -12.0270    -4.1740     0.3970 H     1 <1>   0.4500 
@<TRIPOS>BOND
  1   1   2  1   
  2   2   3  ar  
  3   2   4  ar  
  4   3   5  ar  
  5   3  17  1   
  6   4   6  ar  
  7   4  18  1   
  8   5   7  1   
  9   5   8  ar  
 10   6   8  ar  
 11   6  19  1   
 12   7   9  1   
 13   8  20  1   
 14   9  10  1   
 15   9  21  1   
 16   9  22  1   
 17  10  11  1   
 18  10  23  1   
 19  10  24  1   
 20  11  12  1   
 21  11  13  1   
 22  12  14  1   
 23  12  25  1   
 24  12  26  1   
 25  13  15  1   
 26  13  27  1   
 27  13  28  1   
 28  14  16  1   
 29  14  29  1   
 30  14  30  1   
 31  15  16  1   
 32  15  31  1   
 33  15  32  1   
 34  16  33  1   
 35  16  34  1   
@<TRIPOS>SUBSTRUCTURE
  1 ****   9 GROUP 4 **** **** 0

# MOE 2024.06 (io_trps.svl 2023.06)
