@<TRIPOS>MOLECULE
NONAME
48 49 1 0 0 
SMALL
USER_CHARGES


@<TRIPOS>ATOM
  1 CL       0.5480     0.3810     1.7390 Cl    1 <1>  -0.1770 
  2 C        0.2150     2.0720     1.4650 C.ar  1 <1>   0.1770 
  3 C       -1.0950     2.5130     1.4620 C.ar  1 <1>  -0.1500 
  4 C        1.2660     2.9450     1.2550 C.ar  1 <1>  -0.1500 
  5 C       -1.3630     3.8540     1.2440 C.ar  1 <1>  -0.1500 
  6 C        0.9980     4.2850     1.0370 C.ar  1 <1>  -0.1500 
  7 C       -0.3130     4.7460     1.0260 C.ar  1 <1>   0.0830 
  8 O       -0.4900     6.0710     0.7960 O.3   1 <1>  -0.3630 
  9 C       -1.7780     6.6580     0.8180 C.3   1 <1>   0.1200 
 10 C       -1.6580     8.1610     0.5190 C.3   1 <1>   0.2000 
 11 O       -2.9300     8.7140     0.4710 O.3   1 <1>  -0.6800 
 12 C       -0.9340     8.4910    -0.8080 C.3   1 <1>   0.3430 
 13 N        0.5150     8.1000    -0.8050 N.4   1 <1>  -0.9590 
 14 C        1.3060     9.0440     0.0480 C.3   1 <1>   0.4230 
 15 C        0.9770     7.8570    -2.2030 C.3   1 <1>   0.3430 
 16 C        2.0160    10.1530    -0.7430 C.3   1 <1>  -0.1600 
 17 C        2.2820     8.2660     0.9380 C.3   1 <1>  -0.1600 
 18 C        2.1550     6.8920    -2.2190 C.3   1 <1>  -0.2400 
 19 C        2.7470    11.1080     0.2120 C.3   1 <1>  -0.1600 
 20 C        3.0250     9.2190     1.8870 C.3   1 <1>  -0.1600 
 21 C        3.7260    10.3440     1.1140 C.3   1 <1>  -0.1600 
 22 H       -1.8910     1.8090     1.6320 H     1 <1>   0.1500 
 23 H        2.2760     2.5730     1.2670 H     1 <1>   0.1500 
 24 H       -2.3880     4.1730     1.2500 H     1 <1>   0.1500 
 25 H        1.8110     4.9690     0.8800 H     1 <1>   0.1500 
 26 H       -2.1980     6.5070     1.7990 H     1 <1>   0.0800 
 27 H       -2.3790     6.1680     0.0720 H     1 <1>   0.0800 
 28 H       -1.1570     8.6470     1.3380 H     1 <1>   0.0800 
 29 H       -3.5720     8.1660    -0.0260 H     1 <1>   0.4000 
 30 H       -1.0170     9.5490    -0.9980 H     1 <1>   0.0800 
 31 H       -1.4410     7.9650    -1.6000 H     1 <1>   0.0800 
 32 H        0.5460     7.1860    -0.3200 H     1 <1>   0.4500 
 33 H        0.6250     9.5390     0.7200 H     1 <1>   0.0800 
 34 H        1.2400     8.7830    -2.6880 H     1 <1>   0.0800 
 35 H        0.1750     7.4080    -2.7670 H     1 <1>   0.0800 
 36 H        1.2980    10.7160    -1.3140 H     1 <1>   0.0800 
 37 H        2.7470     9.7350    -1.4110 H     1 <1>   0.0800 
 38 H        3.0100     7.7480     0.3440 H     1 <1>   0.0800 
 39 H        1.7450     7.5470     1.5300 H     1 <1>   0.0800 
 40 H        3.0460     7.3560    -1.8420 H     1 <1>   0.0800 
 41 H        2.3530     6.6010    -3.2360 H     1 <1>   0.0800 
 42 H        1.9340     6.0020    -1.6570 H     1 <1>   0.0800 
 43 H        2.0310    11.6300     0.8250 H     1 <1>   0.0800 
 44 H        3.2870    11.8470    -0.3570 H     1 <1>   0.0800 
 45 H        3.7550     8.6670     2.4560 H     1 <1>   0.0800 
 46 H        2.3280     9.6510     2.5860 H     1 <1>   0.0800 
 47 H        4.1800    11.0290     1.8110 H     1 <1>   0.0800 
 48 H        4.5160     9.9260     0.5120 H     1 <1>   0.0800 
@<TRIPOS>BOND
  1   1   2  1   
  2   2   3  ar  
  3   2   4  ar  
  4   3   5  ar  
  5   3  22  1   
  6   4   6  ar  
  7   4  23  1   
  8   5   7  ar  
  9   5  24  1   
 10   6   7  ar  
 11   6  25  1   
 12   7   8  1   
 13   8   9  1   
 14   9  10  1   
 15   9  26  1   
 16   9  27  1   
 17  10  11  1   
 18  10  12  1   
 19  10  28  1   
 20  11  29  1   
 21  12  13  1   
 22  12  30  1   
 23  12  31  1   
 24  13  14  1   
 25  13  15  1   
 26  13  32  1   
 27  14  16  1   
 28  14  17  1   
 29  14  33  1   
 30  15  18  1   
 31  15  34  1   
 32  15  35  1   
 33  16  19  1   
 34  16  36  1   
 35  16  37  1   
 36  17  20  1   
 37  17  38  1   
 38  17  39  1   
 39  18  40  1   
 40  18  41  1   
 41  18  42  1   
 42  19  21  1   
 43  19  43  1   
 44  19  44  1   
 45  20  21  1   
 46  20  45  1   
 47  20  46  1   
 48  21  47  1   
 49  21  48  1   
@<TRIPOS>SUBSTRUCTURE
  1 ****   8 GROUP 4 **** **** 0

# MOE 2024.06 (io_trps.svl 2023.06)
