@<TRIPOS>MOLECULE
NONAME
43 44 1 0 0 
SMALL
USER_CHARGES


@<TRIPOS>ATOM
  1 O       -0.2060    -1.8620    -2.5650 O.2   1 <1>  -0.5700 
  2 C       -0.1130    -2.2190    -1.4030 C.2   1 <1>   0.5440 
  3 N        1.1490    -2.3820    -0.8540 N.am  1 <1>  -0.6600 
  4 C       -1.3320    -2.5110    -0.6760 C.ar  1 <1>   0.0860 
  5 C        2.3320    -1.7590    -1.5230 C.3   1 <1>   0.1400 
  6 C        1.3480    -3.1400     0.4230 C.3   1 <1>   0.1400 
  7 C       -1.6790    -1.8720     0.5230 C.ar  1 <1>   0.0830 
  8 C       -2.2160    -3.4640    -1.1850 C.ar  1 <1>  -0.1500 
  9 C        3.2110    -0.9640    -0.5440 C.3   1 <1>  -0.1600 
 10 C        2.4860    -4.1690     0.3690 C.3   1 <1>  -0.1600 
 11 O       -0.8360    -0.9250     1.0060 O.3   1 <1>  -0.3620 
 12 C       -2.8570    -2.2100     1.1820 C.ar  1 <1>  -0.1500 
 13 C       -3.3870    -3.7960    -0.5330 C.ar  1 <1>  -0.1500 
 14 C        4.6300    -1.5280    -0.3710 C.3   1 <1>  -0.1600 
 15 C        3.8540    -3.6700     0.8790 C.3   1 <1>  -0.1600 
 16 C       -1.1550    -0.1190     2.1190 C.3   1 <1>   0.0400 
 17 C       -3.7120    -3.1670     0.6650 C.ar  1 <1>   0.0830 
 18 C        4.7560    -3.0510    -0.2000 C.3   1 <1>  -0.1600 
 19 O       -4.8340    -3.4320     1.3730 O.3   1 <1>  -0.3630 
 20 C       -5.7920    -4.3650     0.9230 C.3   1 <1>   0.0400 
 21 H        1.9940    -1.0750    -2.2830 H     1 <1>   0.0800 
 22 H        2.8910    -2.5230    -2.0290 H     1 <1>   0.0800 
 23 H        0.4470    -3.6850     0.6440 H     1 <1>   0.0800 
 24 H        1.4970    -2.4530     1.2360 H     1 <1>   0.0800 
 25 H       -1.9660    -3.9460    -2.1160 H     1 <1>   0.1500 
 26 H        2.7320    -0.8690     0.4120 H     1 <1>   0.0800 
 27 H        3.3050     0.0370    -0.9280 H     1 <1>   0.0800 
 28 H        2.5590    -4.5980    -0.6140 H     1 <1>   0.0800 
 29 H        2.1930    -4.9680     1.0280 H     1 <1>   0.0800 
 30 H       -3.1420    -1.7430     2.1040 H     1 <1>   0.1500 
 31 H       -4.0300    -4.5370    -0.9670 H     1 <1>   0.1500 
 32 H        5.0790    -1.0450     0.4810 H     1 <1>   0.0800 
 33 H        5.2140    -1.2470    -1.2310 H     1 <1>   0.0800 
 34 H        4.3750    -4.5310     1.2600 H     1 <1>   0.0800 
 35 H        3.7330    -2.9920     1.7070 H     1 <1>   0.0800 
 36 H       -0.3580     0.5880     2.2580 H     1 <1>   0.0800 
 37 H       -1.2450    -0.7440     2.9900 H     1 <1>   0.0800 
 38 H       -2.0750     0.4020     1.9200 H     1 <1>   0.0800 
 39 H        5.7780    -3.2510     0.0720 H     1 <1>   0.0800 
 40 H        4.5970    -3.5500    -1.1400 H     1 <1>   0.0800 
 41 H       -6.5920    -4.3940     1.6410 H     1 <1>   0.0800 
 42 H       -5.3300    -5.3330     0.8500 H     1 <1>   0.0800 
 43 H       -6.1700    -4.0440    -0.0320 H     1 <1>   0.0800 
@<TRIPOS>BOND
  1   1   2  2   
  2   2   3  am  
  3   2   4  1   
  4   3   5  1   
  5   3   6  1   
  6   4   7  ar  
  7   4   8  ar  
  8   5   9  1   
  9   5  21  1   
 10   5  22  1   
 11   6  10  1   
 12   6  23  1   
 13   6  24  1   
 14   7  11  1   
 15   7  12  ar  
 16   8  13  ar  
 17   8  25  1   
 18   9  14  1   
 19   9  26  1   
 20   9  27  1   
 21  10  15  1   
 22  10  28  1   
 23  10  29  1   
 24  11  16  1   
 25  12  17  ar  
 26  12  30  1   
 27  13  17  ar  
 28  13  31  1   
 29  14  18  1   
 30  14  32  1   
 31  14  33  1   
 32  15  18  1   
 33  15  34  1   
 34  15  35  1   
 35  16  36  1   
 36  16  37  1   
 37  16  38  1   
 38  17  19  1   
 39  18  39  1   
 40  18  40  1   
 41  19  20  1   
 42  20  41  1   
 43  20  42  1   
 44  20  43  1   
@<TRIPOS>SUBSTRUCTURE
  1 ****   4 GROUP 4 **** **** 0

# MOE 2024.06 (io_trps.svl 2023.06)
