@<TRIPOS>MOLECULE
NONAME
30 31 1 0 0 
SMALL
USER_CHARGES


@<TRIPOS>ATOM
  1 BR      -1.3220     1.1860    -3.1790 Br    1 <1>  -0.0580 
  2 C       -2.2530     0.6420    -1.5890 C.2   1 <1>   0.0980 
  3 S       -3.6990    -0.3080    -1.8350 S.3   1 <1>  -0.0800 
  4 C       -1.9840     0.8670    -0.2920 C.2   1 <1>  -0.1500 
  5 C       -3.9410    -0.3930    -0.0880 C.2   1 <1>  -0.1400 
  6 C       -2.9610     0.2670     0.5670 C.2   1 <1>  -0.1500 
  7 C       -5.1540    -1.1590     0.4090 C.3   1 <1>   0.2900 
  8 N       -6.4030    -0.5430    -0.0830 N.3   1 <1>  -0.8100 
  9 C       -6.5740     0.8530     0.3710 C.3   1 <1>   0.1100 
 10 C       -7.5840    -1.3690     0.2230 C.3   1 <1>   0.1100 
 11 C       -7.8400     1.4840    -0.2420 C.3   1 <1>   0.3430 
 12 C       -8.8620    -0.7600    -0.3910 C.3   1 <1>   0.3430 
 13 N       -9.0700     0.6660     0.0470 N.4   1 <1>  -0.9590 
 14 C      -10.2750     1.2600    -0.6050 C.3   1 <1>   0.2630 
 15 H       -1.1480     1.4240     0.0900 H     1 <1>   0.1500 
 16 H       -2.8740     0.3610     1.6360 H     1 <1>   0.1500 
 17 H       -5.1520    -1.1830     1.4850 H     1 <1>   0.0800 
 18 H       -5.0860    -2.1720     0.0480 H     1 <1>   0.0800 
 19 H       -5.7260     1.4410     0.0610 H     1 <1>   0.0800 
 20 H       -6.6270     0.8910     1.4460 H     1 <1>   0.0800 
 21 H       -7.7030    -1.4680     1.2890 H     1 <1>   0.0800 
 22 H       -7.4430    -2.3550    -0.1880 H     1 <1>   0.0800 
 23 H       -7.6940     1.5570    -1.3070 H     1 <1>   0.0800 
 24 H       -7.9610     2.4820     0.1460 H     1 <1>   0.0800 
 25 H       -9.7120    -1.3590    -0.1100 H     1 <1>   0.0800 
 26 H       -8.7690    -0.7980    -1.4640 H     1 <1>   0.0800 
 27 H       -9.2030     0.6600     1.0670 H     1 <1>   0.4500 
 28 H      -10.1510     1.2760    -1.6760 H     1 <1>   0.0800 
 29 H      -10.4270     2.2700    -0.2610 H     1 <1>   0.0800 
 30 H      -11.1530     0.6810    -0.3680 H     1 <1>   0.0800 
@<TRIPOS>BOND
  1   1   2  1   
  2   2   3  1   
  3   2   4  2   
  4   3   5  1   
  5   4   6  1   
  6   4  15  1   
  7   5   6  2   
  8   5   7  1   
  9   6  16  1   
 10   7   8  1   
 11   7  17  1   
 12   7  18  1   
 13   8   9  1   
 14   8  10  1   
 15   9  11  1   
 16   9  19  1   
 17   9  20  1   
 18  10  12  1   
 19  10  21  1   
 20  10  22  1   
 21  11  13  1   
 22  11  23  1   
 23  11  24  1   
 24  12  13  1   
 25  12  25  1   
 26  12  26  1   
 27  13  14  1   
 28  13  27  1   
 29  14  28  1   
 30  14  29  1   
 31  14  30  1   
@<TRIPOS>SUBSTRUCTURE
  1 ****   8 GROUP 4 **** **** 0

# MOE 2024.06 (io_trps.svl 2023.06)
