@<TRIPOS>MOLECULE
NONAME
32 32 1 0 0 
SMALL
USER_CHARGES


@<TRIPOS>ATOM
  1 CL      -0.1460    -1.0370    -0.0300 Cl    1 <1>  -0.1770 
  2 C       -1.1910     0.3720    -0.0390 C.ar  1 <1>   0.1770 
  3 C       -0.7250     1.6980    -0.0410 C.ar  1 <1>   0.0830 
  4 C       -2.5470     0.0970    -0.0450 C.ar  1 <1>  -0.1500 
  5 O        0.5710     2.1270    -0.0360 O.3   1 <1>  -0.3630 
  6 C       -1.6610     2.7260    -0.0490 C.ar  1 <1>  -0.1500 
  7 C       -3.4470     1.1430    -0.0530 C.ar  1 <1>   0.1770 
  8 C        1.6890     1.2760    -0.0280 C.3   1 <1>   0.1200 
  9 C       -3.0190     2.4560    -0.0550 C.ar  1 <1>  -0.1500 
 10 CL      -5.1580     0.7990    -0.0600 Cl    1 <1>  -0.1770 
 11 C        2.9410     2.1550    -0.0250 C.3   1 <1>   0.3430 
 12 N        4.1910     1.3340    -0.0160 N.4   1 <1>  -0.9060 
 13 C        5.4090     2.2010    -0.0130 C.3   1 <1>   0.3430 
 14 C        6.6990     1.3760    -0.0030 C.3   1 <1>   0.1200 
 15 O        7.7500     2.2790    -0.0010 O.3   1 <1>  -0.5600 
 16 C        9.0170     1.6950     0.0080 C.3   1 <1>   0.0400 
 17 H       -2.9000    -0.9180    -0.0440 H     1 <1>   0.1500 
 18 H       -1.3230     3.7480    -0.0500 H     1 <1>   0.1500 
 19 H        1.6520     0.6700    -0.9160 H     1 <1>   0.0800 
 20 H        1.6430     0.6760     0.8640 H     1 <1>   0.0800 
 21 H       -3.7410     3.2530    -0.0610 H     1 <1>   0.1500 
 22 H        2.9160     2.7880     0.8480 H     1 <1>   0.0800 
 23 H        2.9250     2.7820    -0.9020 H     1 <1>   0.0800 
 24 H        4.2100     0.7230    -0.8430 H     1 <1>   0.4500 
 25 H        4.2020     0.7280     0.8160 H     1 <1>   0.4500 
 26 H        5.4020     2.8350     0.8590 H     1 <1>   0.0800 
 27 H        5.4120     2.8280    -0.8890 H     1 <1>   0.0800 
 28 H        6.7780     0.7670    -0.8870 H     1 <1>   0.0800 
 29 H        6.7690     0.7740     0.8870 H     1 <1>   0.0800 
 30 H        9.7500     2.4830     0.0090 H     1 <1>   0.0800 
 31 H        9.1410     1.0900    -0.8740 H     1 <1>   0.0800 
 32 H        9.1320     1.0970     0.8970 H     1 <1>   0.0800 
@<TRIPOS>BOND
  1   1   2  1   
  2   2   3  ar  
  3   2   4  ar  
  4   3   5  1   
  5   3   6  ar  
  6   4   7  ar  
  7   4  17  1   
  8   5   8  1   
  9   6   9  ar  
 10   6  18  1   
 11   7   9  ar  
 12   7  10  1   
 13   8  11  1   
 14   8  19  1   
 15   8  20  1   
 16   9  21  1   
 17  11  12  1   
 18  11  22  1   
 19  11  23  1   
 20  12  13  1   
 21  12  24  1   
 22  12  25  1   
 23  13  14  1   
 24  13  26  1   
 25  13  27  1   
 26  14  15  1   
 27  14  28  1   
 28  14  29  1   
 29  15  16  1   
 30  16  30  1   
 31  16  31  1   
 32  16  32  1   
@<TRIPOS>SUBSTRUCTURE
  1 ****   8 GROUP 4 **** **** 0

# MOE 2024.06 (io_trps.svl 2023.06)
