@<TRIPOS>MOLECULE
NONAME
43 45 1 0 0 
SMALL
USER_CHARGES


@<TRIPOS>ATOM
  1 O        0.4640    -0.2660     3.9850 O.2   1 <1>  -0.5700 
  2 C       -0.0680    -0.6090     2.9580 C.2   1 <1>   0.5690 
  3 N        0.5960    -1.0960     1.8660 N.am  1 <1>  -0.5470 
  4 C       -1.5830    -0.4910     2.8600 C.3   1 <1>   0.0450 
  5 C        1.9420    -1.3330     1.5480 C.ar  1 <1>   0.1170 
  6 C       -2.0940    -0.7960     1.4530 C.ar  1 <1>  -0.1430 
  7 C        2.2750    -1.7120     0.2410 C.ar  1 <1>  -0.1430 
  8 C        2.9520    -1.2170     2.4970 C.ar  1 <1>  -0.1500 
  9 C       -2.1770     0.2140     0.5060 C.ar  1 <1>  -0.1500 
 10 C       -2.4340    -2.0920     1.0980 C.ar  1 <1>  -0.1500 
 11 C        3.6020    -1.9810    -0.0850 C.ar  1 <1>  -0.1430 
 12 C        1.1700    -1.8480    -0.8160 C.3   1 <1>  -0.0170 
 13 C        4.2670    -1.4750     2.1670 C.ar  1 <1>  -0.1500 
 14 C       -2.5840    -0.0670    -0.7860 C.ar  1 <1>  -0.1500 
 15 C       -2.8390    -2.3750    -0.1940 C.ar  1 <1>  -0.1500 
 16 C        4.5890    -1.8570     0.8800 C.ar  1 <1>  -0.1500 
 17 C        4.0310    -2.4030    -1.4860 C.3   1 <1>  -0.0170 
 18 C        1.6920    -1.9510    -2.2530 C.3   1 <1>  -0.1600 
 19 C       -2.9140    -1.3710    -1.1450 C.ar  1 <1>   0.0830 
 20 C        2.8650    -2.9280    -2.3270 C.3   1 <1>  -0.1600 
 21 O       -3.3100    -1.7360    -2.3890 O.3   1 <1>  -0.3630 
 22 C       -3.4750    -0.7830    -3.4150 C.3   1 <1>   0.0400 
 23 H       -0.0380    -1.3100     1.0940 H     1 <1>   0.3700 
 24 H       -1.8660     0.5050     3.1460 H     1 <1>   0.0800 
 25 H       -2.0220    -1.1690     3.5680 H     1 <1>   0.0800 
 26 H        2.7180    -0.9270     3.5030 H     1 <1>   0.1500 
 27 H       -1.9170     1.2260     0.7690 H     1 <1>   0.1500 
 28 H       -2.3790    -2.8900     1.8200 H     1 <1>   0.1500 
 29 H        0.5050    -1.0030    -0.7700 H     1 <1>   0.0800 
 30 H        0.5990    -2.7320    -0.5930 H     1 <1>   0.0800 
 31 H        5.0370    -1.3790     2.9120 H     1 <1>   0.1500 
 32 H       -2.6360     0.7360    -1.4970 H     1 <1>   0.1500 
 33 H       -3.1020    -3.3800    -0.4750 H     1 <1>   0.1500 
 34 H        5.6170    -2.0570     0.6320 H     1 <1>   0.1500 
 35 H        4.7870    -3.1660    -1.4210 H     1 <1>   0.0800 
 36 H        4.4660    -1.5490    -1.9770 H     1 <1>   0.0800 
 37 H        2.0160    -0.9790    -2.5840 H     1 <1>   0.0800 
 38 H        0.8970    -2.2770    -2.9010 H     1 <1>   0.0800 
 39 H        2.5580    -3.8900    -1.9540 H     1 <1>   0.0800 
 40 H        3.1820    -3.0480    -3.3480 H     1 <1>   0.0800 
 41 H       -3.8150    -1.2970    -4.2970 H     1 <1>   0.0800 
 42 H       -2.5280    -0.3110    -3.6100 H     1 <1>   0.0800 
 43 H       -4.2110    -0.0620    -3.1070 H     1 <1>   0.0800 
@<TRIPOS>BOND
  1   1   2  2   
  2   2   3  am  
  3   2   4  1   
  4   3   5  1   
  5   3  23  1   
  6   4   6  1   
  7   4  24  1   
  8   4  25  1   
  9   5   7  ar  
 10   5   8  ar  
 11   6   9  ar  
 12   6  10  ar  
 13   7  11  ar  
 14   7  12  1   
 15   8  13  ar  
 16   8  26  1   
 17   9  14  ar  
 18   9  27  1   
 19  10  15  ar  
 20  10  28  1   
 21  11  16  ar  
 22  11  17  1   
 23  12  18  1   
 24  12  29  1   
 25  12  30  1   
 26  13  16  ar  
 27  13  31  1   
 28  14  19  ar  
 29  14  32  1   
 30  15  19  ar  
 31  15  33  1   
 32  16  34  1   
 33  17  20  1   
 34  17  35  1   
 35  17  36  1   
 36  18  20  1   
 37  18  37  1   
 38  18  38  1   
 39  19  21  1   
 40  20  39  1   
 41  20  40  1   
 42  21  22  1   
 43  22  41  1   
 44  22  42  1   
 45  22  43  1   
@<TRIPOS>SUBSTRUCTURE
  1 ****  12 GROUP 4 **** **** 0

# MOE 2024.06 (io_trps.svl 2023.06)
