@<TRIPOS>MOLECULE
NONAME
34 34 1 0 0 
SMALL
USER_CHARGES


@<TRIPOS>ATOM
  1 CL       0.1980     0.0780    -1.0920 Cl    1 <1>  -0.1770 
  2 C       -1.2460     0.9540    -0.6190 C.ar  1 <1>   0.1770 
  3 C       -1.2360     2.3420    -0.5090 C.ar  1 <1>   0.0820 
  4 C       -2.3900     0.2290    -0.3590 C.ar  1 <1>  -0.1500 
  5 O       -0.1000     3.0390    -0.7600 O.3   1 <1>  -0.3630 
  6 C       -2.4040     3.0170    -0.1530 C.ar  1 <1>  -0.1440 
  7 C       -3.5420     0.8960     0.0120 C.ar  1 <1>  -0.1500 
  8 C        0.9290     2.9590     0.1940 C.3   1 <1>   0.1200 
  9 C       -3.5570     2.2810     0.1180 C.ar  1 <1>  -0.1440 
 10 C       -2.4240     4.5430    -0.0590 C.3   1 <1>  -0.0960 
 11 C        2.2520     3.0050    -0.5700 C.3   1 <1>  -0.1600 
 12 C       -4.8590     2.9560     0.5300 C.3   1 <1>  -0.0970 
 13 C        3.4260     2.7360     0.3610 C.3   1 <1>   0.3430 
 14 N        4.6730     2.7070    -0.4430 N.4   1 <1>  -0.9060 
 15 C        5.8860     2.4360     0.3850 C.3   1 <1>   0.2630 
 16 H       -2.3790    -0.8430    -0.4480 H     1 <1>   0.1500 
 17 H       -4.4330     0.3260     0.2160 H     1 <1>   0.1500 
 18 H        0.8290     2.0390     0.7460 H     1 <1>   0.0800 
 19 H        0.8220     3.7930     0.8660 H     1 <1>   0.0800 
 20 H       -1.5660     4.9850    -0.5300 H     1 <1>   0.0800 
 21 H       -2.4400     4.8440     0.9730 H     1 <1>   0.0800 
 22 H       -3.2930     4.9370    -0.5510 H     1 <1>   0.0800 
 23 H        2.3510     3.9750    -1.0250 H     1 <1>   0.0800 
 24 H        2.2220     2.2500    -1.3370 H     1 <1>   0.0800 
 25 H       -4.6880     3.6260     1.3540 H     1 <1>   0.0800 
 26 H       -5.5910     2.2310     0.8390 H     1 <1>   0.0800 
 27 H       -5.2630     3.5120    -0.2970 H     1 <1>   0.0800 
 28 H        3.2860     1.7870     0.8540 H     1 <1>   0.0800 
 29 H        3.4830     3.5090     1.1110 H     1 <1>   0.0800 
 30 H        4.7770     3.6050    -0.9370 H     1 <1>   0.4500 
 31 H        4.5800     1.9860    -1.1730 H     1 <1>   0.4500 
 32 H        6.0090     3.2010     1.1340 H     1 <1>   0.0800 
 33 H        6.7670     2.4200    -0.2370 H     1 <1>   0.0800 
 34 H        5.7970     1.4810     0.8780 H     1 <1>   0.0800 
@<TRIPOS>BOND
  1   1   2  1   
  2   2   3  ar  
  3   2   4  ar  
  4   3   5  1   
  5   3   6  ar  
  6   4   7  ar  
  7   4  16  1   
  8   5   8  1   
  9   6   9  ar  
 10   6  10  1   
 11   7   9  ar  
 12   7  17  1   
 13   8  11  1   
 14   8  18  1   
 15   8  19  1   
 16   9  12  1   
 17  10  20  1   
 18  10  21  1   
 19  10  22  1   
 20  11  13  1   
 21  11  23  1   
 22  11  24  1   
 23  12  25  1   
 24  12  26  1   
 25  12  27  1   
 26  13  14  1   
 27  13  28  1   
 28  13  29  1   
 29  14  15  1   
 30  14  30  1   
 31  14  31  1   
 32  15  32  1   
 33  15  33  1   
 34  15  34  1   
@<TRIPOS>SUBSTRUCTURE
  1 ****   5 GROUP 4 **** **** 0

# MOE 2024.06 (io_trps.svl 2023.06)
