@<TRIPOS>MOLECULE
NONAME
39 41 1 0 0 
SMALL
USER_CHARGES


@<TRIPOS>ATOM
  1 O        0.0390    -1.1280    -1.3250 O.co2 1 <1>  -0.9000 
  2 C        0.1190    -1.3850    -0.1240 C.2   1 <1>   0.9060 
  3 O        1.1850    -1.2900     0.4960 O.co2 1 <1>  -0.9000 
  4 C       -1.0830    -1.9100     0.6480 C.3   1 <1>  -0.1860 
  5 C       -1.1890    -3.5930     0.8070 C.3   1 <1>  -0.0190 
  6 C       -2.5050    -1.3780     0.0220 C.3   1 <1>  -0.0800 
  7 C        0.0040    -4.5080     0.4570 C.2   1 <1>   0.5690 
  8 C       -2.5930    -4.0500     0.0820 C.3   1 <1>  -0.0800 
  9 C       -2.5560    -2.7110     0.0750 C.3   1 <1>  -0.1600 
 10 C       -3.9160    -1.8520    -0.6530 C.3   1 <1>  -0.1600 
 11 O       -0.2330    -5.6790     0.2590 O.2   1 <1>  -0.5700 
 12 N        1.2810    -4.0240     0.4580 N.am  1 <1>  -0.5470 
 13 C       -4.0210    -3.5130    -0.5010 C.3   1 <1>  -0.1600 
 14 C        2.5210    -4.6280     0.2060 C.ar  1 <1>   0.1170 
 15 C        3.5730    -3.8100    -0.1830 C.ar  1 <1>  -0.1500 
 16 C        2.7560    -5.9930     0.3390 C.ar  1 <1>  -0.1500 
 17 C        4.8270    -4.3370    -0.4350 C.ar  1 <1>  -0.1500 
 18 C        4.0080    -6.5280     0.0880 C.ar  1 <1>  -0.1500 
 19 C        5.0560    -5.6970    -0.3030 C.ar  1 <1>   0.0820 
 20 O        6.3150    -6.1380    -0.5690 O.3   1 <1>  -0.3620 
 21 C        6.6330    -7.5090    -0.4800 C.3   1 <1>   0.0400 
 22 H       -0.9670    -1.4960     1.6360 H     1 <1>   0.0800 
 23 H       -1.3130    -3.7800     1.8630 H     1 <1>   0.0800 
 24 H       -2.8630    -0.7580     0.8310 H     1 <1>   0.0800 
 25 H       -2.2360    -4.6190    -0.7680 H     1 <1>   0.0800 
 26 H       -3.0420    -2.6550     1.1430 H     1 <1>   0.0800 
 27 H       -2.0590    -2.7540    -0.9910 H     1 <1>   0.0800 
 28 H       -3.9270    -1.5740    -1.6970 H     1 <1>   0.0800 
 29 H       -4.7560    -1.3720    -0.1780 H     1 <1>   0.0800 
 30 H        1.3500    -2.9910     0.5350 H     1 <1>   0.3700 
 31 H       -4.8200    -3.7760     0.1750 H     1 <1>   0.0800 
 32 H       -4.2390    -3.9640    -1.4560 H     1 <1>   0.0800 
 33 H        3.3960    -2.7510    -0.2890 H     1 <1>   0.1500 
 34 H        1.9560    -6.6410     0.6440 H     1 <1>   0.1500 
 35 H        5.6320    -3.6930    -0.7370 H     1 <1>   0.1500 
 36 H        4.1430    -7.5850     0.2010 H     1 <1>   0.1500 
 37 H        7.6690    -7.6280    -0.7390 H     1 <1>   0.0800 
 38 H        6.0170    -8.0550    -1.1730 H     1 <1>   0.0800 
 39 H        6.4670    -7.8410     0.5290 H     1 <1>   0.0800 
@<TRIPOS>BOND
  1   1   2  ar  
  2   2   3  ar  
  3   2   4  1   
  4   4   5  1   
  5   4   6  1   
  6   4  22  1   
  7   5   7  1   
  8   5   8  1   
  9   5  23  1   
 10   6   9  1   
 11   6  10  1   
 12   6  24  1   
 13   7  11  2   
 14   7  12  am  
 15   8   9  1   
 16   8  13  1   
 17   8  25  1   
 18   9  26  1   
 19   9  27  1   
 20  10  13  1   
 21  10  28  1   
 22  10  29  1   
 23  12  14  1   
 24  12  30  1   
 25  13  31  1   
 26  13  32  1   
 27  14  15  ar  
 28  14  16  ar  
 29  15  17  ar  
 30  15  33  1   
 31  16  18  ar  
 32  16  34  1   
 33  17  19  ar  
 34  17  35  1   
 35  18  19  ar  
 36  18  36  1   
 37  19  20  1   
 38  20  21  1   
 39  21  37  1   
 40  21  38  1   
 41  21  39  1   
@<TRIPOS>SUBSTRUCTURE
  1 ****  12 GROUP 4 **** **** 0

# MOE 2024.06 (io_trps.svl 2023.06)
