@<TRIPOS>MOLECULE
NONAME
44 45 1 0 0 
SMALL
USER_CHARGES


@<TRIPOS>ATOM
  1 O        1.5340    -6.1430    -0.0530 O.2   1 <1>  -0.5700 
  2 C        1.6940    -5.0310    -0.5150 C.2   1 <1>   0.6900 
  3 N        2.9160    -4.4300    -0.5710 N.am  1 <1>  -0.5470 
  4 N        0.6370    -4.3220    -0.9800 N.am  1 <1>  -0.7300 
  5 C        4.2120    -4.8390    -0.2220 C.ar  1 <1>   0.1170 
  6 C       -0.7670    -4.7960    -0.9860 C.3   1 <1>   0.1400 
  7 C        5.2190    -3.8770     0.0140 C.ar  1 <1>   0.0860 
  8 C        4.5260    -6.1930    -0.1180 C.ar  1 <1>  -0.1500 
  9 C       -1.5460    -4.1260     0.1470 C.3   1 <1>  -0.0220 
 10 C        4.9770    -2.4490    -0.0960 C.2   1 <1>   0.6340 
 11 C        6.4930    -4.3410     0.3660 C.ar  1 <1>  -0.1500 
 12 C        5.7900    -6.6180     0.2290 C.ar  1 <1>  -0.1500 
 13 C       -3.0120    -4.5420     0.1380 C.2   1 <1>  -0.2760 
 14 O        4.0080    -1.9550    -0.6460 O.2   1 <1>  -0.5700 
 15 O        5.8820    -1.6190     0.4380 O.3   1 <1>  -0.4300 
 16 C        6.7800    -5.6860     0.4750 C.ar  1 <1>  -0.1500 
 17 C       -3.9900    -3.7310    -0.2790 C.2   1 <1>  -0.2880 
 18 C       -3.2800    -5.9520     0.6610 C.3   1 <1>  -0.0220 
 19 C        5.7410    -0.2130     0.3830 C.3   1 <1>   0.0400 
 20 C       -5.4670    -4.0910    -0.2720 C.3   1 <1>  -0.0220 
 21 C       -4.6980    -6.4290     0.3140 C.3   1 <1>  -0.1600 
 22 C       -5.7360    -5.3340     0.5880 C.3   1 <1>  -0.1600 
 23 H        2.8600    -3.4370    -0.8130 H     1 <1>   0.3700 
 24 H        0.7910    -3.3860    -1.3510 H     1 <1>   0.3700 
 25 H       -0.7880    -5.8650    -0.8660 H     1 <1>   0.0800 
 26 H       -1.2220    -4.5570    -1.9310 H     1 <1>   0.0800 
 27 H        3.7730    -6.9350    -0.3120 H     1 <1>   0.1500 
 28 H       -1.4830    -3.0600     0.0260 H     1 <1>   0.0800 
 29 H       -1.1050    -4.3830     1.0940 H     1 <1>   0.0800 
 30 H        7.2820    -3.6350     0.5590 H     1 <1>   0.1500 
 31 H        6.0050    -7.6700     0.3070 H     1 <1>   0.1500 
 32 H        7.7690    -6.0130     0.7480 H     1 <1>   0.1500 
 33 H       -3.8090    -2.7400    -0.6600 H     1 <1>   0.1500 
 34 H       -3.1530    -5.9500     1.7300 H     1 <1>   0.0800 
 35 H       -2.5760    -6.6520     0.2490 H     1 <1>   0.0800 
 36 H        6.5850     0.2340     0.8770 H     1 <1>   0.0800 
 37 H        4.8290     0.0660     0.8840 H     1 <1>   0.0800 
 38 H        5.7090     0.0950    -0.6480 H     1 <1>   0.0800 
 39 H       -5.7840    -4.2730    -1.2840 H     1 <1>   0.0800 
 40 H       -6.0390    -3.2660     0.1150 H     1 <1>   0.0800 
 41 H       -4.9310    -7.3090     0.8880 H     1 <1>   0.0800 
 42 H       -4.7340    -6.6930    -0.7290 H     1 <1>   0.0800 
 43 H       -6.7260    -5.7040     0.3880 H     1 <1>   0.0800 
 44 H       -5.6870    -5.0580     1.6280 H     1 <1>   0.0800 
@<TRIPOS>BOND
  1   1   2  2   
  2   2   3  am  
  3   2   4  am  
  4   3   5  1   
  5   3  23  1   
  6   4   6  1   
  7   4  24  1   
  8   5   7  ar  
  9   5   8  ar  
 10   6   9  1   
 11   6  25  1   
 12   6  26  1   
 13   7  10  1   
 14   7  11  ar  
 15   8  12  ar  
 16   8  27  1   
 17   9  13  1   
 18   9  28  1   
 19   9  29  1   
 20  10  14  2   
 21  10  15  1   
 22  11  16  ar  
 23  11  30  1   
 24  12  16  ar  
 25  12  31  1   
 26  13  17  2   
 27  13  18  1   
 28  15  19  1   
 29  16  32  1   
 30  17  20  1   
 31  17  33  1   
 32  18  21  1   
 33  18  34  1   
 34  18  35  1   
 35  19  36  1   
 36  19  37  1   
 37  19  38  1   
 38  20  22  1   
 39  20  39  1   
 40  20  40  1   
 41  21  22  1   
 42  21  41  1   
 43  21  42  1   
 44  22  43  1   
 45  22  44  1   
@<TRIPOS>SUBSTRUCTURE
  1 ****   2 GROUP 4 **** **** 0

# MOE 2024.06 (io_trps.svl 2023.06)
