@<TRIPOS>MOLECULE
NONAME
40 43 1 0 0 
SMALL
USER_CHARGES


@<TRIPOS>ATOM
  1 O       -0.9600    -1.6320     2.1120 O.2   1 <1>  -0.5700 
  2 C       -1.2380    -1.7000     0.9400 C.2   1 <1>   0.6590 
  3 O       -0.3420    -2.0110     0.0020 O.3   1 <1>  -0.2330 
  4 C       -2.6660    -1.4390     0.4200 C.3   1 <1>   0.0610 
  5 C        0.9940    -2.2260     0.1440 C.ar  1 <1>   0.0820 
  6 C       -2.6660    -0.2600    -0.5870 C.3   1 <1>  -0.1600 
  7 C       -3.6400    -1.0820     1.5750 C.3   1 <1>  -0.1600 
  8 C       -3.2170    -2.6970    -0.2980 C.3   1 <1>  -0.1600 
  9 C        1.5860    -3.1290    -0.7290 C.ar  1 <1>  -0.1500 
 10 C        1.7710    -1.5730     1.0960 C.ar  1 <1>  -0.1500 
 11 C       -4.0830     0.0010    -1.1310 C.3   1 <1>  -0.0800 
 12 C       -5.0620    -0.8230     1.0430 C.3   1 <1>  -0.0800 
 13 C       -4.6360    -2.4450    -0.8420 C.3   1 <1>  -0.0800 
 14 C        2.9430    -3.3880    -0.6470 C.ar  1 <1>  -0.1500 
 15 C        3.1280    -1.8330     1.1810 C.ar  1 <1>  -0.1500 
 16 C       -5.0200     0.3440     0.0410 C.3   1 <1>  -0.1600 
 17 C       -4.5950    -1.2690    -1.8350 C.3   1 <1>  -0.1600 
 18 C       -5.5700    -2.0890     0.3290 C.3   1 <1>  -0.1600 
 19 C        3.7080    -2.7410     0.3080 C.ar  1 <1>   0.0830 
 20 O        5.0220    -3.0030     0.3810 O.3   1 <1>  -0.5330 
 21 H       -2.0070    -0.4780    -1.4100 H     1 <1>   0.0800 
 22 H       -2.2970     0.6290    -0.1040 H     1 <1>   0.0800 
 23 H       -3.6660    -1.8860     2.2900 H     1 <1>   0.0800 
 24 H       -3.2860    -0.2060     2.0920 H     1 <1>   0.0800 
 25 H       -3.2360    -3.5260     0.3880 H     1 <1>   0.0800 
 26 H       -2.5700    -2.9680    -1.1150 H     1 <1>   0.0800 
 27 H        0.9850    -3.6260    -1.4680 H     1 <1>   0.1500 
 28 H        1.3300    -0.8620     1.7700 H     1 <1>   0.1500 
 29 H       -4.0600     0.8200    -1.8300 H     1 <1>   0.0800 
 30 H       -5.7180    -0.5780     1.8610 H     1 <1>   0.0800 
 31 H       -4.9980    -3.3290    -1.3390 H     1 <1>   0.0800 
 32 H        3.4120    -4.0870    -1.3150 H     1 <1>   0.1500 
 33 H        3.7220    -1.3290     1.9210 H     1 <1>   0.1500 
 34 H       -6.0110     0.5400    -0.3310 H     1 <1>   0.0800 
 35 H       -4.6760     1.2370     0.5340 H     1 <1>   0.0800 
 36 H       -5.5810    -1.0930    -2.2290 H     1 <1>   0.0800 
 37 H       -3.9530    -1.5130    -2.6640 H     1 <1>   0.0800 
 38 H       -6.5680    -1.9220    -0.0400 H     1 <1>   0.0800 
 39 H       -5.6130    -2.9080     1.0250 H     1 <1>   0.0800 
 40 H        5.4680    -2.5080     1.0900 H     1 <1>   0.4500 
@<TRIPOS>BOND
  1   1   2  2   
  2   2   3  1   
  3   2   4  1   
  4   3   5  1   
  5   4   6  1   
  6   4   7  1   
  7   4   8  1   
  8   5   9  ar  
  9   5  10  ar  
 10   6  11  1   
 11   6  21  1   
 12   6  22  1   
 13   7  12  1   
 14   7  23  1   
 15   7  24  1   
 16   8  13  1   
 17   8  25  1   
 18   8  26  1   
 19   9  14  ar  
 20   9  27  1   
 21  10  15  ar  
 22  10  28  1   
 23  11  16  1   
 24  11  17  1   
 25  11  29  1   
 26  12  16  1   
 27  12  18  1   
 28  12  30  1   
 29  13  17  1   
 30  13  18  1   
 31  13  31  1   
 32  14  19  ar  
 33  14  32  1   
 34  15  19  ar  
 35  15  33  1   
 36  16  34  1   
 37  16  35  1   
 38  17  36  1   
 39  17  37  1   
 40  18  38  1   
 41  18  39  1   
 42  19  20  1   
 43  20  40  1   
@<TRIPOS>SUBSTRUCTURE
  1 ****   2 GROUP 4 **** **** 0

# MOE 2024.06 (io_trps.svl 2023.06)
