@<TRIPOS>MOLECULE
NONAME
44 45 1 0 0 
SMALL
USER_CHARGES


@<TRIPOS>ATOM
  1 O       -0.4610    -0.3330     0.2420 O.3   1 <1>  -0.3630 
  2 C       -1.6250    -0.9700    -0.0340 C.ar  1 <1>   0.0830 
  3 C        0.0630    -0.2850     1.5480 C.3   1 <1>   0.1200 
  4 C       -2.4190    -1.5910     0.9250 C.ar  1 <1>  -0.1500 
  5 C       -2.0220    -0.9900    -1.3600 C.ar  1 <1>  -0.1500 
  6 C        1.3810     0.4810     1.5000 C.3   1 <1>  -0.2400 
  7 C       -3.5970    -2.2130     0.5530 C.ar  1 <1>  -0.1500 
  8 C       -3.1990    -1.6120    -1.7330 C.ar  1 <1>  -0.1500 
  9 C       -3.9990    -2.2220    -0.7760 C.ar  1 <1>  -0.1430 
 10 C       -5.3030    -2.8800    -1.1830 C.3   1 <1>   0.4860 
 11 N       -6.4320    -2.0320    -0.7210 N.4   1 <1>  -0.9590 
 12 C       -7.7860    -2.6280    -0.9510 C.3   1 <1>   0.3430 
 13 C       -6.3780    -0.6150    -1.2150 C.3   1 <1>   0.3430 
 14 C       -8.9000    -1.7390    -0.3420 C.3   1 <1>   0.1100 
 15 C       -7.5010     0.2390    -0.5760 C.3   1 <1>   0.1100 
 16 N       -8.3590    -0.5410     0.3520 N.3   1 <1>  -0.8100 
 17 C       -9.4300     0.3140     0.9090 C.3   1 <1>   0.1100 
 18 C      -10.0810    -0.3170     2.1460 C.3   1 <1>   0.1200 
 19 O      -11.0490     0.5450     2.6380 O.3   1 <1>  -0.6800 
 20 H        0.2220    -1.2940     1.8900 H     1 <1>   0.0800 
 21 H       -0.6460     0.2190     2.1830 H     1 <1>   0.0800 
 22 H       -2.1320    -1.5980     1.9610 H     1 <1>   0.1500 
 23 H       -1.3960    -0.5140    -2.0950 H     1 <1>   0.1500 
 24 H        2.0770    -0.0220     0.8510 H     1 <1>   0.0800 
 25 H        1.8080     0.5350     2.4840 H     1 <1>   0.0800 
 26 H        1.2150     1.4810     1.1410 H     1 <1>   0.0800 
 27 H       -4.1920    -2.6900     1.3140 H     1 <1>   0.1500 
 28 H       -3.4760    -1.6130    -2.7740 H     1 <1>   0.1500 
 29 H       -5.3650    -3.8580    -0.7350 H     1 <1>   0.0800 
 30 H       -5.3360    -2.9920    -2.2550 H     1 <1>   0.0800 
 31 H       -6.3650    -1.9200     0.3010 H     1 <1>   0.4500 
 32 H       -7.8380    -3.6050    -0.4990 H     1 <1>   0.0800 
 33 H       -7.9660    -2.7440    -2.0060 H     1 <1>   0.0800 
 34 H       -6.4780    -0.5910    -2.2870 H     1 <1>   0.0800 
 35 H       -5.4260    -0.1730    -0.9650 H     1 <1>   0.0800 
 36 H       -9.4670    -2.3360     0.3510 H     1 <1>   0.0800 
 37 H       -9.5730    -1.4330    -1.1260 H     1 <1>   0.0800 
 38 H       -8.1040     0.6680    -1.3590 H     1 <1>   0.0800 
 39 H       -7.0460     1.0540    -0.0380 H     1 <1>   0.0800 
 40 H      -10.1830     0.4980     0.1600 H     1 <1>   0.0800 
 41 H       -9.0060     1.2580     1.2060 H     1 <1>   0.0800 
 42 H       -9.3550    -0.4900     2.9220 H     1 <1>   0.0800 
 43 H      -10.5750    -1.2380     1.8960 H     1 <1>   0.0800 
 44 H      -10.6430     1.3240     3.0670 H     1 <1>   0.4000 
@<TRIPOS>BOND
  1   1   2  1   
  2   1   3  1   
  3   2   4  ar  
  4   2   5  ar  
  5   3   6  1   
  6   3  20  1   
  7   3  21  1   
  8   4   7  ar  
  9   4  22  1   
 10   5   8  ar  
 11   5  23  1   
 12   6  24  1   
 13   6  25  1   
 14   6  26  1   
 15   7   9  ar  
 16   7  27  1   
 17   8   9  ar  
 18   8  28  1   
 19   9  10  1   
 20  10  11  1   
 21  10  29  1   
 22  10  30  1   
 23  11  12  1   
 24  11  13  1   
 25  11  31  1   
 26  12  14  1   
 27  12  32  1   
 28  12  33  1   
 29  13  15  1   
 30  13  34  1   
 31  13  35  1   
 32  14  16  1   
 33  14  36  1   
 34  14  37  1   
 35  15  16  1   
 36  15  38  1   
 37  15  39  1   
 38  16  17  1   
 39  17  18  1   
 40  17  40  1   
 41  17  41  1   
 42  18  19  1   
 43  18  42  1   
 44  18  43  1   
 45  19  44  1   
@<TRIPOS>SUBSTRUCTURE
  1 ****  11 GROUP 4 **** **** 0

# MOE 2024.06 (io_trps.svl 2023.06)
