@<TRIPOS>MOLECULE
NONAME
42 43 1 0 0 
SMALL
USER_CHARGES


@<TRIPOS>ATOM
  1 O        0.1640    -0.9110    -1.3930 O.2   1 <1>  -0.5700 
  2 C        0.0840    -1.7390    -0.5190 C.2   1 <1>   0.5690 
  3 N        1.1980    -2.1110     0.1930 N.am  1 <1>  -0.6600 
  4 C       -1.2660    -2.3810    -0.2360 C.3   1 <1>  -0.0990 
  5 C        1.3120    -3.3390     1.0380 C.3   1 <1>   0.1400 
  6 C        2.4810    -1.3530     0.0480 C.3   1 <1>   0.1400 
  7 C       -2.4580    -1.5970    -0.8060 C.3   1 <1>  -0.0170 
  8 C        2.4510    -4.2460     0.5240 C.3   1 <1>   0.3430 
  9 C        3.5930    -2.2710    -0.4850 C.3   1 <1>   0.3430 
 10 C       -3.7560    -2.2950    -0.4350 C.ar  1 <1>  -0.1440 
 11 N        3.7540    -3.5070     0.3640 N.4   1 <1>  -0.9590 
 12 C       -4.3930    -1.9980     0.7600 C.ar  1 <1>  -0.1500 
 13 C       -4.3100    -3.2400    -1.2840 C.ar  1 <1>  -0.1500 
 14 C        4.8190    -4.3960    -0.1500 C.3   1 <1>   0.4810 
 15 C       -5.5680    -2.6420     1.1050 C.ar  1 <1>  -0.1500 
 16 C       -5.4860    -3.8850    -0.9410 C.ar  1 <1>  -0.1500 
 17 C        6.1380    -3.7360     0.1740 C.2   1 <1>  -0.2880 
 18 C       -6.1150    -3.5880     0.2550 C.ar  1 <1>  -0.1500 
 19 C        6.9620    -4.1060     1.1600 C.2   1 <1>  -0.3000 
 20 H       -1.3970    -2.4590     0.8270 H     1 <1>   0.0800 
 21 H       -1.2710    -3.3690    -0.6560 H     1 <1>   0.0800 
 22 H        0.3950    -3.9000     1.0280 H     1 <1>   0.0800 
 23 H        1.5070    -3.0510     2.0570 H     1 <1>   0.0800 
 24 H        2.7650    -0.9500     1.0040 H     1 <1>   0.0800 
 25 H        2.3610    -0.5210    -0.6260 H     1 <1>   0.0800 
 26 H       -2.3750    -1.5270    -1.8770 H     1 <1>   0.0800 
 27 H       -2.4580    -0.5950    -0.4140 H     1 <1>   0.0800 
 28 H        2.1510    -4.6540    -0.4280 H     1 <1>   0.0800 
 29 H        2.5790    -5.0700     1.2080 H     1 <1>   0.0800 
 30 H        4.5170    -1.7180    -0.5120 H     1 <1>   0.0800 
 31 H        3.3440    -2.5500    -1.4960 H     1 <1>   0.0800 
 32 H        4.0760    -3.2040     1.2930 H     1 <1>   0.4500 
 33 H       -3.9780    -1.2640     1.4280 H     1 <1>   0.1500 
 34 H       -3.8310    -3.4780    -2.2170 H     1 <1>   0.1500 
 35 H        4.7170    -4.5580    -1.2120 H     1 <1>   0.0800 
 36 H        4.7730    -5.3490     0.3520 H     1 <1>   0.0800 
 37 H       -6.0580    -2.4080     2.0340 H     1 <1>   0.1500 
 38 H       -5.9110    -4.6180    -1.6040 H     1 <1>   0.1500 
 39 H        6.3750    -2.9170    -0.4840 H     1 <1>   0.1500 
 40 H       -7.0290    -4.0890     0.5230 H     1 <1>   0.1500 
 41 H        7.9040    -3.6220     1.3670 H     1 <1>   0.1500 
 42 H        6.7880    -4.9210     1.8450 H     1 <1>   0.1500 
@<TRIPOS>BOND
  1   1   2  2   
  2   2   3  am  
  3   2   4  1   
  4   3   5  1   
  5   3   6  1   
  6   4   7  1   
  7   4  20  1   
  8   4  21  1   
  9   5   8  1   
 10   5  22  1   
 11   5  23  1   
 12   6   9  1   
 13   6  24  1   
 14   6  25  1   
 15   7  10  1   
 16   7  26  1   
 17   7  27  1   
 18   8  11  1   
 19   8  28  1   
 20   8  29  1   
 21   9  11  1   
 22   9  30  1   
 23   9  31  1   
 24  10  12  ar  
 25  10  13  ar  
 26  11  14  1   
 27  11  32  1   
 28  12  15  ar  
 29  12  33  1   
 30  13  16  ar  
 31  13  34  1   
 32  14  17  1   
 33  14  35  1   
 34  14  36  1   
 35  15  18  ar  
 36  15  37  1   
 37  16  18  ar  
 38  16  38  1   
 39  17  19  2   
 40  17  39  1   
 41  18  40  1   
 42  19  41  1   
 43  19  42  1   
@<TRIPOS>SUBSTRUCTURE
  1 ****   2 GROUP 4 **** **** 0

# MOE 2024.06 (io_trps.svl 2023.06)
