@<TRIPOS>MOLECULE
NONAME
38 40 1 0 0 
SMALL
USER_CHARGES


@<TRIPOS>ATOM
  1 F        0.6060     1.3810    -0.0290 F     1 <1>  -0.1900 
  2 C       -0.5630     1.9290     0.1740 C.ar  1 <1>   0.1900 
  3 C       -0.9310     3.0180    -0.5940 C.ar  1 <1>  -0.1500 
  4 C       -1.3860     1.4000     1.1490 C.ar  1 <1>  -0.1500 
  5 C       -2.1730     3.5900    -0.3770 C.ar  1 <1>  -0.1500 
  6 C       -2.6240     1.9840     1.3560 C.ar  1 <1>  -0.1500 
  7 C       -3.0300     3.0750     0.5910 C.ar  1 <1>   0.1170 
  8 N       -4.2830     3.6590     0.7890 N.am  1 <1>  -0.5470 
  9 C       -5.5330     3.1400     0.6460 C.2   1 <1>   0.5690 
 10 O       -6.4830     3.8250     0.9290 O.2   1 <1>  -0.5700 
 11 C       -5.7570     1.7150     0.1220 C.3   1 <1>  -0.0190 
 12 C       -6.6530     1.7120    -1.1430 C.3   1 <1>  -0.1600 
 13 C       -6.3060     0.7930     1.2400 C.3   1 <1>  -0.1600 
 14 C       -7.1610     0.3170    -1.5710 C.3   1 <1>  -0.0190 
 15 C       -6.8290    -0.5770     0.7520 C.3   1 <1>  -0.0190 
 16 C       -7.8090    -0.3530    -0.3790 C.2   1 <1>   0.4480 
 17 C       -6.0710    -0.6250    -2.1330 C.3   1 <1>  -0.1600 
 18 C       -5.7310    -1.5510     0.2670 C.3   1 <1>  -0.1600 
 19 O       -8.9590    -0.6740    -0.3370 O.2   1 <1>  -0.5700 
 20 C       -5.0840    -1.1900    -1.0880 C.3   1 <1>  -0.1600 
 21 H       -0.2590     3.4030    -1.3400 H     1 <1>   0.1500 
 22 H       -1.0600     0.5560     1.7300 H     1 <1>   0.1500 
 23 H       -2.4830     4.4360    -0.9640 H     1 <1>   0.1500 
 24 H       -3.2780     1.5960     2.1170 H     1 <1>   0.1500 
 25 H       -4.2960     4.6430     1.0600 H     1 <1>   0.3700 
 26 H       -4.8020     1.3450    -0.1730 H     1 <1>   0.0800 
 27 H       -6.1260     2.1750    -1.9590 H     1 <1>   0.0800 
 28 H       -7.5200     2.3190    -0.9420 H     1 <1>   0.0800 
 29 H       -5.5550     0.6480     1.9940 H     1 <1>   0.0800 
 30 H       -7.1320     1.3010     1.7110 H     1 <1>   0.0800 
 31 H       -7.9120     0.4530    -2.3300 H     1 <1>   0.0800 
 32 H       -7.3560    -1.0430     1.5660 H     1 <1>   0.0800 
 33 H       -6.5780    -1.4610    -2.5840 H     1 <1>   0.0800 
 34 H       -5.5260    -0.1290    -2.9180 H     1 <1>   0.0800 
 35 H       -6.1930    -2.5180     0.1570 H     1 <1>   0.0800 
 36 H       -4.9690    -1.6510     1.0190 H     1 <1>   0.0800 
 37 H       -4.2760    -0.5010    -0.9360 H     1 <1>   0.0800 
 38 H       -4.6260    -2.0760    -1.4950 H     1 <1>   0.0800 
@<TRIPOS>BOND
  1   1   2  1   
  2   2   3  ar  
  3   2   4  ar  
  4   3   5  ar  
  5   3  21  1   
  6   4   6  ar  
  7   4  22  1   
  8   5   7  ar  
  9   5  23  1   
 10   6   7  ar  
 11   6  24  1   
 12   7   8  1   
 13   8   9  am  
 14   8  25  1   
 15   9  10  2   
 16   9  11  1   
 17  11  12  1   
 18  11  13  1   
 19  11  26  1   
 20  12  14  1   
 21  12  27  1   
 22  12  28  1   
 23  13  15  1   
 24  13  29  1   
 25  13  30  1   
 26  14  16  1   
 27  14  17  1   
 28  14  31  1   
 29  15  16  1   
 30  15  18  1   
 31  15  32  1   
 32  16  19  2   
 33  17  20  1   
 34  17  33  1   
 35  17  34  1   
 36  18  20  1   
 37  18  35  1   
 38  18  36  1   
 39  20  37  1   
 40  20  38  1   
@<TRIPOS>SUBSTRUCTURE
  1 ****  11 GROUP 4 **** **** 0

# MOE 2024.06 (io_trps.svl 2023.06)
