@<TRIPOS>MOLECULE
NONAME
42 44 1 0 0 
SMALL
USER_CHARGES


@<TRIPOS>ATOM
  1 BR       0.3120    -0.3980    -2.2400 Br    1 <1>  -0.1110 
  2 C       -0.0490    -2.0620    -1.3270 C.ar  1 <1>   0.1110 
  3 C        0.8600    -2.5510    -0.3990 C.ar  1 <1>   0.0820 
  4 C       -1.2220    -2.7210    -1.6330 C.ar  1 <1>  -0.1500 
  5 O        1.9900    -1.8310    -0.1600 O.3   1 <1>  -0.3630 
  6 C        0.5620    -3.7530     0.2350 C.ar  1 <1>  -0.1500 
  7 C       -1.5180    -3.9170    -0.9950 C.ar  1 <1>  -0.1430 
  8 C        2.9690    -2.2670     0.7560 C.3   1 <1>   0.0400 
  9 C       -0.6190    -4.4360    -0.0610 C.ar  1 <1>   0.0830 
 10 C       -2.8160    -4.6400    -1.3370 C.3   1 <1>   0.3530 
 11 O       -0.9430    -5.6180     0.5290 O.3   1 <1>  -0.3630 
 12 N       -3.9440    -3.6940    -1.1990 N.pl3 1 <1>  -0.8690 
 13 C       -0.1570    -6.1900     1.5520 C.3   1 <1>   0.0400 
 14 C       -5.2010    -4.2240    -0.9430 C.ar  1 <1>   0.1000 
 15 C       -5.9280    -3.7790     0.1560 C.ar  1 <1>  -0.1500 
 16 C       -5.7560    -5.1970    -1.7720 C.ar  1 <1>  -0.1500 
 17 C       -7.1740    -4.3160     0.4160 C.ar  1 <1>  -0.1430 
 18 C       -7.0060    -5.7330    -1.5060 C.ar  1 <1>  -0.1500 
 19 C       -7.7060    -5.2810    -0.4020 C.ar  1 <1>  -0.1430 
 20 C       -8.1130    -3.9790     1.5470 C.3   1 <1>  -0.0170 
 21 C       -9.0690    -5.7160     0.0750 C.3   1 <1>  -0.0170 
 22 C       -9.4310    -4.6570     1.1310 C.3   1 <1>  -0.1600 
 23 H       -1.8960    -2.3030    -2.3610 H     1 <1>   0.1500 
 24 H        1.2470    -4.1550     0.9510 H     1 <1>   0.1500 
 25 H        3.7610    -1.5400     0.7670 H     1 <1>   0.0800 
 26 H        3.3530    -3.2180     0.4310 H     1 <1>   0.0800 
 27 H        2.5260    -2.3390     1.7330 H     1 <1>   0.0800 
 28 H       -2.9820    -5.4850    -0.6920 H     1 <1>   0.0800 
 29 H       -2.7710    -4.9930    -2.3520 H     1 <1>   0.0800 
 30 H       -3.6770    -2.9600    -0.5370 H     1 <1>   0.4000 
 31 H       -0.6420    -7.0920     1.8800 H     1 <1>   0.0800 
 32 H       -0.0880    -5.4950     2.3700 H     1 <1>   0.0800 
 33 H        0.8160    -6.4220     1.1560 H     1 <1>   0.0800 
 34 H       -5.5190    -3.0240     0.7990 H     1 <1>   0.1500 
 35 H       -5.2060    -5.5290    -2.6310 H     1 <1>   0.1500 
 36 H       -7.4270    -6.4850    -2.1490 H     1 <1>   0.1500 
 37 H       -8.2320    -2.9160     1.6580 H     1 <1>   0.0800 
 38 H       -7.7380    -4.4050     2.4610 H     1 <1>   0.0800 
 39 H       -8.9960    -6.6910     0.5230 H     1 <1>   0.0800 
 40 H       -9.7830    -5.7330    -0.7290 H     1 <1>   0.0800 
 41 H      -10.0680    -3.9200     0.6750 H     1 <1>   0.0800 
 42 H       -9.9410    -5.0890     1.9730 H     1 <1>   0.0800 
@<TRIPOS>BOND
  1   1   2  1   
  2   2   3  ar  
  3   2   4  ar  
  4   3   5  1   
  5   3   6  ar  
  6   4   7  ar  
  7   4  23  1   
  8   5   8  1   
  9   6   9  ar  
 10   6  24  1   
 11   7   9  ar  
 12   7  10  1   
 13   8  25  1   
 14   8  26  1   
 15   8  27  1   
 16   9  11  1   
 17  10  12  1   
 18  10  28  1   
 19  10  29  1   
 20  11  13  1   
 21  12  14  1   
 22  12  30  1   
 23  13  31  1   
 24  13  32  1   
 25  13  33  1   
 26  14  15  ar  
 27  14  16  ar  
 28  15  17  ar  
 29  15  34  1   
 30  16  18  ar  
 31  16  35  1   
 32  17  19  ar  
 33  17  20  1   
 34  18  19  ar  
 35  18  36  1   
 36  19  21  1   
 37  20  22  1   
 38  20  37  1   
 39  20  38  1   
 40  21  22  1   
 41  21  39  1   
 42  21  40  1   
 43  22  41  1   
 44  22  42  1   
@<TRIPOS>SUBSTRUCTURE
  1 ****  12 GROUP 4 **** **** 0

# MOE 2024.06 (io_trps.svl 2023.06)
