@<TRIPOS>MOLECULE
NONAME
42 43 1 0 0 
SMALL
USER_CHARGES


@<TRIPOS>ATOM
  1 S       -0.5200    -0.5240     0.4040 S.3   1 <1>  -0.4600 
  2 C        1.2460    -0.1110     0.5280 C.3   1 <1>   0.1500 
  3 C       -0.7090    -1.9410     1.5520 C.3   1 <1>   0.1310 
  4 C        1.4500     1.2480    -0.1320 C.3   1 <1>  -0.1600 
  5 C        2.0450    -1.1160    -0.3100 C.3   1 <1>  -0.1600 
  6 C       -2.1310    -2.4880     1.5660 C.2   1 <1>   0.5690 
  7 C        1.6760     0.9300    -1.6070 C.3   1 <1>  -0.1600 
  8 C        2.4430    -0.3920    -1.6040 C.3   1 <1>  -0.1600 
  9 O       -2.3720    -3.3940     2.3260 O.2   1 <1>  -0.5700 
 10 N       -3.0510    -1.9270     0.7220 N.am  1 <1>  -0.5470 
 11 C       -4.4100    -2.1780     0.4780 C.ar  1 <1>   0.1170 
 12 C       -5.0880    -1.3320    -0.3900 C.ar  1 <1>  -0.1500 
 13 C       -5.1170    -3.2300     1.0510 C.ar  1 <1>  -0.1500 
 14 C       -6.4280    -1.5260    -0.6770 C.ar  1 <1>  -0.1500 
 15 C       -6.4560    -3.4250     0.7660 C.ar  1 <1>  -0.1500 
 16 C       -7.1280    -2.5760    -0.1010 C.ar  1 <1>  -0.1440 
 17 C       -8.6070    -2.8070    -0.4030 C.3   1 <1>   0.0630 
 18 C       -8.8230    -3.0950    -1.8920 C.3   1 <1>  -0.2400 
 19 C       -9.4510    -1.6110     0.0480 C.3   1 <1>  -0.2400 
 20 H        1.5100    -0.1130     1.5720 H     1 <1>   0.0800 
 21 H       -0.4400    -1.5970     2.5330 H     1 <1>   0.0800 
 22 H       -0.0270    -2.7080     1.2350 H     1 <1>   0.0800 
 23 H        2.3390     1.7020     0.2710 H     1 <1>   0.0800 
 24 H        0.6170     1.9120     0.0220 H     1 <1>   0.0800 
 25 H        1.4670    -1.9950    -0.5310 H     1 <1>   0.0800 
 26 H        2.9320    -1.4120     0.2230 H     1 <1>   0.0800 
 27 H        2.2150     1.7120    -2.1140 H     1 <1>   0.0800 
 28 H        0.7230     0.7880    -2.0900 H     1 <1>   0.0800 
 29 H        2.2130    -0.9790    -2.4760 H     1 <1>   0.0800 
 30 H        3.5010    -0.1900    -1.5900 H     1 <1>   0.0800 
 31 H       -2.6550    -1.1590     0.1730 H     1 <1>   0.3700 
 32 H       -4.5670    -0.5120    -0.8480 H     1 <1>   0.1500 
 33 H       -4.6280    -3.9080     1.7240 H     1 <1>   0.1500 
 34 H       -6.9240    -0.8520    -1.3520 H     1 <1>   0.1500 
 35 H       -6.9720    -4.2480     1.2270 H     1 <1>   0.1500 
 36 H       -8.9410    -3.6700     0.1490 H     1 <1>   0.0800 
 37 H       -8.5500    -2.2440    -2.4900 H     1 <1>   0.0800 
 38 H       -9.8540    -3.3320    -2.0810 H     1 <1>   0.0800 
 39 H       -8.2180    -3.9320    -2.1930 H     1 <1>   0.0800 
 40 H       -9.1920    -0.7280    -0.5070 H     1 <1>   0.0800 
 41 H       -9.2820    -1.4200     1.0930 H     1 <1>   0.0800 
 42 H      -10.4960    -1.8160    -0.0970 H     1 <1>   0.0800 
@<TRIPOS>BOND
  1   1   2  1   
  2   1   3  1   
  3   2   4  1   
  4   2   5  1   
  5   2  20  1   
  6   3   6  1   
  7   3  21  1   
  8   3  22  1   
  9   4   7  1   
 10   4  23  1   
 11   4  24  1   
 12   5   8  1   
 13   5  25  1   
 14   5  26  1   
 15   6   9  2   
 16   6  10  am  
 17   7   8  1   
 18   7  27  1   
 19   7  28  1   
 20   8  29  1   
 21   8  30  1   
 22  10  11  1   
 23  10  31  1   
 24  11  12  ar  
 25  11  13  ar  
 26  12  14  ar  
 27  12  32  1   
 28  13  15  ar  
 29  13  33  1   
 30  14  16  ar  
 31  14  34  1   
 32  15  16  ar  
 33  15  35  1   
 34  16  17  1   
 35  17  18  1   
 36  17  19  1   
 37  17  36  1   
 38  18  37  1   
 39  18  38  1   
 40  18  39  1   
 41  19  40  1   
 42  19  41  1   
 43  19  42  1   
@<TRIPOS>SUBSTRUCTURE
  1 ****  10 GROUP 4 **** **** 0

# MOE 2024.06 (io_trps.svl 2023.06)
