@<TRIPOS>MOLECULE
NONAME
31 32 1 0 0 
SMALL
USER_CHARGES


@<TRIPOS>ATOM
  1 CL      -0.2620    -0.3700     0.2220 Cl    1 <1>  -0.1770 
  2 C       -1.6410     0.7000     0.1110 C.ar  1 <1>   0.1770 
  3 C       -1.4530     2.0700     0.0020 C.ar  1 <1>  -0.1440 
  4 C       -2.9030     0.1390     0.1360 C.ar  1 <1>  -0.1500 
  5 C       -2.5760     2.8790    -0.0850 C.ar  1 <1>  -0.1500 
  6 C       -0.0600     2.6790    -0.0220 C.3   1 <1>  -0.0960 
  7 C       -4.0290     0.9480     0.0510 C.ar  1 <1>   0.1170 
  8 C       -3.8440     2.3230    -0.0620 C.ar  1 <1>  -0.1500 
  9 N       -5.2950     0.3470     0.0640 N.am  1 <1>  -0.5470 
 10 C       -6.5250     0.8320     0.4100 C.2   1 <1>   0.6900 
 11 O       -6.6580     1.9440     0.8830 O.2   1 <1>  -0.5700 
 12 N       -7.6180     0.0270     0.2310 N.am  1 <1>  -0.6600 
 13 C       -7.6460    -1.2570    -0.5050 C.3   1 <1>   0.1400 
 14 C       -8.9870     0.4870     0.5470 C.3   1 <1>   0.1400 
 15 C       -9.1010    -1.7090    -0.4470 C.3   1 <1>  -0.1600 
 16 C       -9.9010    -0.4230    -0.2650 C.3   1 <1>  -0.1600 
 17 H       -3.0010    -0.9250     0.2250 H     1 <1>   0.1500 
 18 H       -2.4730     3.9470    -0.1700 H     1 <1>   0.1500 
 19 H        0.4630     2.4340     0.8860 H     1 <1>   0.0800 
 20 H       -0.1080     3.7500    -0.1090 H     1 <1>   0.0800 
 21 H        0.4950     2.2930    -0.8570 H     1 <1>   0.0800 
 22 H       -4.6980     2.9710    -0.1360 H     1 <1>   0.1500 
 23 H       -5.3140    -0.6450    -0.1330 H     1 <1>   0.3700 
 24 H       -6.9970    -1.9820    -0.0460 H     1 <1>   0.0800 
 25 H       -7.3490    -1.0850    -1.5260 H     1 <1>   0.0800 
 26 H       -9.1200     1.5230     0.2820 H     1 <1>   0.0800 
 27 H       -9.1620     0.3610     1.6020 H     1 <1>   0.0800 
 28 H       -9.2360    -2.3450     0.4110 H     1 <1>   0.0800 
 29 H       -9.3900    -2.2490    -1.3310 H     1 <1>   0.0800 
 30 H      -10.0850     0.0340    -1.2220 H     1 <1>   0.0800 
 31 H      -10.8420    -0.5880     0.2310 H     1 <1>   0.0800 
@<TRIPOS>BOND
  1   1   2  1   
  2   2   3  ar  
  3   2   4  ar  
  4   3   5  ar  
  5   3   6  1   
  6   4   7  ar  
  7   4  17  1   
  8   5   8  ar  
  9   5  18  1   
 10   6  19  1   
 11   6  20  1   
 12   6  21  1   
 13   7   8  ar  
 14   7   9  1   
 15   8  22  1   
 16   9  10  am  
 17   9  23  1   
 18  10  11  2   
 19  10  12  am  
 20  12  13  1   
 21  12  14  1   
 22  13  15  1   
 23  13  24  1   
 24  13  25  1   
 25  14  16  1   
 26  14  26  1   
 27  14  27  1   
 28  15  16  1   
 29  15  28  1   
 30  15  29  1   
 31  16  30  1   
 32  16  31  1   
@<TRIPOS>SUBSTRUCTURE
  1 ****   9 GROUP 4 **** **** 0

# MOE 2024.06 (io_trps.svl 2023.06)
