@<TRIPOS>MOLECULE
NONAME
53 55 1 0 0 
SMALL
USER_CHARGES


@<TRIPOS>ATOM
  1 N       -0.2770     0.2550     0.2350 N.4   1 <1>  -0.9590 
  2 C        0.8340     1.2460     0.2470 C.3   1 <1>   0.3430 
  3 C        0.0210    -0.9720    -0.5610 C.3   1 <1>   0.3430 
  4 C       -1.5550     0.8880    -0.2210 C.3   1 <1>   0.4860 
  5 C        2.1120     0.5920     0.7800 C.3   1 <1>  -0.1600 
  6 C        1.2880    -1.6420    -0.0280 C.3   1 <1>  -0.1600 
  7 C       -2.6810    -0.0890     0.0460 C.ar  1 <1>  -0.1440 
  8 C        2.4670    -0.6680    -0.0180 C.3   1 <1>   0.4230 
  9 C       -3.2670    -0.7840    -1.0030 C.ar  1 <1>  -0.1500 
 10 C       -3.1280    -0.3050     1.3430 C.ar  1 <1>  -0.1500 
 11 N        3.6440    -1.3530     0.5730 N.4   1 <1>  -0.9060 
 12 C       -4.2750    -1.6990    -0.7550 C.ar  1 <1>  -0.1500 
 13 C       -4.1360    -1.2210     1.5880 C.ar  1 <1>  -0.1500 
 14 C        4.9370    -0.6370     0.4740 C.3   1 <1>   0.4230 
 15 C       -4.7070    -1.9190     0.5400 C.ar  1 <1>  -0.1500 
 16 C        5.3930    -0.5600    -0.9890 C.3   1 <1>  -0.1600 
 17 C        5.9610    -1.3900     1.3280 C.3   1 <1>  -0.1600 
 18 C        6.7810     0.0870    -1.0990 C.3   1 <1>  -0.1600 
 19 C        7.3480    -0.7400     1.2250 C.3   1 <1>  -0.1600 
 20 C        7.8170    -0.6490    -0.2350 C.3   1 <1>  -0.0800 
 21 C        9.1740     0.0570    -0.3150 C.3   1 <1>  -0.2400 
 22 H       -0.4850    -0.0460     1.1990 H     1 <1>   0.4500 
 23 H        0.5720     2.0870     0.8720 H     1 <1>   0.0800 
 24 H        1.0030     1.6150    -0.7530 H     1 <1>   0.0800 
 25 H        0.1510    -0.7120    -1.6000 H     1 <1>   0.0800 
 26 H       -0.8040    -1.6660    -0.4930 H     1 <1>   0.0800 
 27 H       -1.5100     1.1230    -1.2720 H     1 <1>   0.0800 
 28 H       -1.7420     1.7980     0.3260 H     1 <1>   0.0800 
 29 H        1.9730     0.3560     1.8210 H     1 <1>   0.0800 
 30 H        2.9050     1.3140     0.7020 H     1 <1>   0.0800 
 31 H        1.5140    -2.4800    -0.6640 H     1 <1>   0.0800 
 32 H        1.0900    -2.0150     0.9610 H     1 <1>   0.0800 
 33 H        2.6900    -0.3890    -1.0370 H     1 <1>   0.0800 
 34 H       -2.9580    -0.6250    -2.0230 H     1 <1>   0.1500 
 35 H       -2.7120     0.2330     2.1780 H     1 <1>   0.1500 
 36 H        3.7830    -2.2640     0.1180 H     1 <1>   0.4500 
 37 H        3.4770    -1.5590     1.5650 H     1 <1>   0.4500 
 38 H       -4.7320    -2.2390    -1.5680 H     1 <1>   0.1500 
 39 H       -4.4840    -1.3900     2.5930 H     1 <1>   0.1500 
 40 H        4.8420     0.3630     0.8660 H     1 <1>   0.0800 
 41 H       -5.4930    -2.6310     0.7320 H     1 <1>   0.1500 
 42 H        4.7080     0.0290    -1.5720 H     1 <1>   0.0800 
 43 H        5.4460    -1.5480    -1.4130 H     1 <1>   0.0800 
 44 H        6.0410    -2.4120     1.0000 H     1 <1>   0.0800 
 45 H        5.6600    -1.3830     2.3620 H     1 <1>   0.0800 
 46 H        6.7270     1.1190    -0.7910 H     1 <1>   0.0800 
 47 H        7.1020     0.0740    -2.1280 H     1 <1>   0.0800 
 48 H        8.0580    -1.3200     1.7920 H     1 <1>   0.0800 
 49 H        7.3200     0.2470     1.6570 H     1 <1>   0.0800 
 50 H        7.9410    -1.6480    -0.6210 H     1 <1>   0.0800 
 51 H        9.1080     1.0640     0.0600 H     1 <1>   0.0800 
 52 H        9.5180     0.0940    -1.3340 H     1 <1>   0.0800 
 53 H        9.9070    -0.4750     0.2650 H     1 <1>   0.0800 
@<TRIPOS>BOND
  1   1   2  1   
  2   1   3  1   
  3   1   4  1   
  4   1  22  1   
  5   2   5  1   
  6   2  23  1   
  7   2  24  1   
  8   3   6  1   
  9   3  25  1   
 10   3  26  1   
 11   4   7  1   
 12   4  27  1   
 13   4  28  1   
 14   5   8  1   
 15   5  29  1   
 16   5  30  1   
 17   6   8  1   
 18   6  31  1   
 19   6  32  1   
 20   7   9  ar  
 21   7  10  ar  
 22   8  11  1   
 23   8  33  1   
 24   9  12  ar  
 25   9  34  1   
 26  10  13  ar  
 27  10  35  1   
 28  11  14  1   
 29  11  36  1   
 30  11  37  1   
 31  12  15  ar  
 32  12  38  1   
 33  13  15  ar  
 34  13  39  1   
 35  14  16  1   
 36  14  17  1   
 37  14  40  1   
 38  15  41  1   
 39  16  18  1   
 40  16  42  1   
 41  16  43  1   
 42  17  19  1   
 43  17  44  1   
 44  17  45  1   
 45  18  20  1   
 46  18  46  1   
 47  18  47  1   
 48  19  20  1   
 49  19  48  1   
 50  19  49  1   
 51  20  21  1   
 52  20  50  1   
 53  21  51  1   
 54  21  52  1   
 55  21  53  1   
@<TRIPOS>SUBSTRUCTURE
  1 ****   8 GROUP 4 **** **** 0

# MOE 2024.06 (io_trps.svl 2023.06)
