@<TRIPOS>MOLECULE
NONAME
46 47 1 0 0 
SMALL
USER_CHARGES


@<TRIPOS>ATOM
  1 CL      -4.2110    -0.3950     0.6860 Cl    1 <1>  -0.1770 
  2 C       -3.9540     1.3320     0.6580 C.ar  1 <1>   0.1770 
  3 C       -3.6280     1.9900     1.8300 C.ar  1 <1>  -0.1500 
  4 C       -4.0850     2.0170    -0.5360 C.ar  1 <1>  -0.1500 
  5 C       -3.4390     3.3610     1.8040 C.ar  1 <1>  -0.1500 
  6 C       -3.8960     3.3870    -0.5520 C.ar  1 <1>  -0.1500 
  7 C       -3.5790     4.0740     0.6180 C.ar  1 <1>   0.1990 
  8 N       -3.4320     5.4540     0.6190 N.am  1 <1>  -0.6930 
  9 S       -1.9810     6.1580    -0.0310 S.o2  1 <1>   1.3330 
 10 C       -4.6880     6.2410     0.8570 C.3   1 <1>   0.3370 
 11 O       -1.0480     5.0750    -0.2210 O.2   1 <1>  -0.6500 
 12 O       -1.6010     7.2820     0.7900 O.2   1 <1>  -0.6500 
 13 C       -2.4360     6.7430    -1.6490 C.3   1 <1>  -0.1350 
 14 C       -5.6620     6.1720    -0.3500 C.2   1 <1>   0.5690 
 15 C       -4.4390     7.6790     1.3350 C.3   1 <1>  -0.2400 
 16 O       -5.4500     6.9120    -1.2860 O.2   1 <1>  -0.5700 
 17 N       -6.7140     5.2800    -0.3840 N.am  1 <1>  -0.6600 
 18 C       -7.4900     5.0850    -1.6500 C.3   1 <1>   0.1400 
 19 C       -7.0790     4.3780     0.7570 C.3   1 <1>   0.1400 
 20 C       -7.6990     3.5880    -1.8960 C.3   1 <1>  -0.1600 
 21 C       -8.4420     3.7090     0.5440 C.3   1 <1>  -0.1600 
 22 C       -8.5130     2.9140    -0.7740 C.3   1 <1>  -0.0800 
 23 C       -8.0470     1.4660    -0.5750 C.3   1 <1>  -0.2400 
 24 H       -3.5210     1.4330     2.7440 H     1 <1>   0.1500 
 25 H       -4.3330     1.4810    -1.4350 H     1 <1>   0.1500 
 26 H       -3.1750     3.8910     2.7020 H     1 <1>   0.1500 
 27 H       -4.0010     3.9310    -1.4730 H     1 <1>   0.1500 
 28 H       -5.1730     5.7670     1.6860 H     1 <1>   0.0800 
 29 H       -2.9250     5.9690    -2.2050 H     1 <1>   0.0800 
 30 H       -1.5590     7.0480    -2.1840 H     1 <1>   0.0800 
 31 H       -3.0910     7.5870    -1.5740 H     1 <1>   0.0800 
 32 H       -4.0140     8.2820     0.5540 H     1 <1>   0.0800 
 33 H       -3.7900     7.6820     2.1920 H     1 <1>   0.0800 
 34 H       -5.3740     8.1270     1.6180 H     1 <1>   0.0800 
 35 H       -6.9630     5.5100    -2.4870 H     1 <1>   0.0800 
 36 H       -8.4400     5.5850    -1.5660 H     1 <1>   0.0800 
 37 H       -7.1200     4.9460     1.6700 H     1 <1>   0.0800 
 38 H       -6.3270     3.6150     0.8600 H     1 <1>   0.0800 
 39 H       -6.7270     3.1330    -1.9830 H     1 <1>   0.0800 
 40 H       -8.2030     3.4470    -2.8360 H     1 <1>   0.0800 
 41 H       -9.1930     4.4800     0.5350 H     1 <1>   0.0800 
 42 H       -8.6630     3.0680     1.3790 H     1 <1>   0.0800 
 43 H       -9.5470     2.8860    -1.0760 H     1 <1>   0.0800 
 44 H       -7.0290     1.4350    -0.2300 H     1 <1>   0.0800 
 45 H       -8.1120     0.9230    -1.5020 H     1 <1>   0.0800 
 46 H       -8.6680     0.9680     0.1490 H     1 <1>   0.0800 
@<TRIPOS>BOND
  1   1   2  1   
  2   2   3  ar  
  3   2   4  ar  
  4   3   5  ar  
  5   3  24  1   
  6   4   6  ar  
  7   4  25  1   
  8   5   7  ar  
  9   5  26  1   
 10   6   7  ar  
 11   6  27  1   
 12   7   8  1   
 13   8   9  am  
 14   8  10  1   
 15   9  11  2   
 16   9  12  2   
 17   9  13  1   
 18  10  14  1   
 19  10  15  1   
 20  10  28  1   
 21  13  29  1   
 22  13  30  1   
 23  13  31  1   
 24  14  16  2   
 25  14  17  am  
 26  15  32  1   
 27  15  33  1   
 28  15  34  1   
 29  17  18  1   
 30  17  19  1   
 31  18  20  1   
 32  18  35  1   
 33  18  36  1   
 34  19  21  1   
 35  19  37  1   
 36  19  38  1   
 37  20  22  1   
 38  20  39  1   
 39  20  40  1   
 40  21  22  1   
 41  21  41  1   
 42  21  42  1   
 43  22  23  1   
 44  22  43  1   
 45  23  44  1   
 46  23  45  1   
 47  23  46  1   
@<TRIPOS>SUBSTRUCTURE
  1 ****   7 GROUP 4 **** **** 0

# MOE 2024.06 (io_trps.svl 2023.06)
