@<TRIPOS>MOLECULE
NONAME
42 43 1 0 0 
SMALL
USER_CHARGES


@<TRIPOS>ATOM
  1 O       -0.0170    -0.9910     0.0560 O.3   1 <1>  -0.5600 
  2 C       -0.9640    -0.0800    -0.4090 C.3   1 <1>   0.5600 
  3 C       -0.2860    -2.2560    -0.4240 C.3   1 <1>   0.2000 
  4 O       -1.6140    -0.7160    -1.4580 O.3   1 <1>  -0.5600 
  5 C       -1.9110     0.2780     0.7640 C.3   1 <1>  -0.1600 
  6 C       -0.2020     1.1370    -0.9720 C.3   1 <1>  -0.1600 
  7 C       -1.5080    -2.0810    -1.3030 C.3   1 <1>   0.1200 
  8 C       -0.5000    -3.1940     0.7630 C.3   1 <1>  -0.2400 
  9 C       -3.4140     0.5620     0.4950 C.3   1 <1>   0.1440 
 10 C        0.7800     0.8200    -2.1160 C.3   1 <1>  -0.2400 
 11 C       -4.1780    -0.7460     0.1730 C.ar  1 <1>  -0.1440 
 12 C       -3.5820     1.6480    -0.5860 C.3   1 <1>  -0.2400 
 13 C       -4.0230     1.1580     1.7790 C.3   1 <1>  -0.2400 
 14 C       -4.8140    -0.9680    -1.0450 C.ar  1 <1>  -0.1500 
 15 C       -4.2380    -1.7620     1.1240 C.ar  1 <1>  -0.1500 
 16 C       -5.4830    -2.1530    -1.3020 C.ar  1 <1>  -0.1500 
 17 C       -4.9050    -2.9490     0.8720 C.ar  1 <1>  -0.1500 
 18 C       -5.5300    -3.1470    -0.3430 C.ar  1 <1>  -0.1500 
 19 H        0.5570    -2.5710    -1.0130 H     1 <1>   0.0800 
 20 H       -1.4920     1.1410     1.2450 H     1 <1>   0.0800 
 21 H       -1.8430    -0.5080     1.4890 H     1 <1>   0.0800 
 22 H        0.3440     1.5940    -0.1670 H     1 <1>   0.0800 
 23 H       -0.9120     1.8610    -1.3220 H     1 <1>   0.0800 
 24 H       -2.3980    -2.4520    -0.8290 H     1 <1>   0.0800 
 25 H       -1.3860    -2.5410    -2.2660 H     1 <1>   0.0800 
 26 H       -1.3340    -2.8690     1.3570 H     1 <1>   0.0800 
 27 H        0.3850    -3.2180     1.3720 H     1 <1>   0.0800 
 28 H       -0.6990    -4.1890     0.4100 H     1 <1>   0.0800 
 29 H        1.5300     0.1240    -1.7830 H     1 <1>   0.0800 
 30 H        1.2670     1.7190    -2.4450 H     1 <1>   0.0800 
 31 H        0.2550     0.3880    -2.9500 H     1 <1>   0.0800 
 32 H       -4.6220     1.8930    -0.7100 H     1 <1>   0.0800 
 33 H       -3.0580     2.5440    -0.3090 H     1 <1>   0.0800 
 34 H       -3.2000     1.3160    -1.5340 H     1 <1>   0.0800 
 35 H       -3.8520     0.5240     2.6280 H     1 <1>   0.0800 
 36 H       -5.0860     1.2800     1.6590 H     1 <1>   0.0800 
 37 H       -3.5950     2.1200     1.9960 H     1 <1>   0.0800 
 38 H       -4.7980    -0.2310    -1.8250 H     1 <1>   0.1500 
 39 H       -3.7610    -1.6450     2.0790 H     1 <1>   0.1500 
 40 H       -5.9660    -2.2990    -2.2520 H     1 <1>   0.1500 
 41 H       -4.9370    -3.7170     1.6250 H     1 <1>   0.1500 
 42 H       -6.0510    -4.0670    -0.5420 H     1 <1>   0.1500 
@<TRIPOS>BOND
  1   1   2  1   
  2   1   3  1   
  3   2   4  1   
  4   2   5  1   
  5   2   6  1   
  6   3   7  1   
  7   3   8  1   
  8   3  19  1   
  9   4   7  1   
 10   5   9  1   
 11   5  20  1   
 12   5  21  1   
 13   6  10  1   
 14   6  22  1   
 15   6  23  1   
 16   7  24  1   
 17   7  25  1   
 18   8  26  1   
 19   8  27  1   
 20   8  28  1   
 21   9  11  1   
 22   9  12  1   
 23   9  13  1   
 24  10  29  1   
 25  10  30  1   
 26  10  31  1   
 27  11  14  ar  
 28  11  15  ar  
 29  12  32  1   
 30  12  33  1   
 31  12  34  1   
 32  13  35  1   
 33  13  36  1   
 34  13  37  1   
 35  14  16  ar  
 36  14  38  1   
 37  15  17  ar  
 38  15  39  1   
 39  16  18  ar  
 40  16  40  1   
 41  17  18  ar  
 42  17  41  1   
 43  18  42  1   
@<TRIPOS>SUBSTRUCTURE
  1 ****   4 GROUP 4 **** **** 0

# MOE 2024.06 (io_trps.svl 2023.06)
