@<TRIPOS>MOLECULE
NONAME
43 44 1 0 0 
SMALL
USER_CHARGES


@<TRIPOS>ATOM
  1 CL      -4.1090     0.9620    -3.9380 Cl    1 <1>  -0.1770 
  2 C       -3.9240     0.4100    -2.2890 C.ar  1 <1>   0.1770 
  3 C       -3.0180     1.0190    -1.4370 C.ar  1 <1>   0.1770 
  4 C       -4.7010    -0.6460    -1.8510 C.ar  1 <1>  -0.1500 
  5 CL      -2.0300     2.3570    -1.9810 Cl    1 <1>  -0.1770 
  6 C       -2.8820     0.5710    -0.1370 C.ar  1 <1>  -0.1500 
  7 C       -4.5810    -1.1090    -0.5450 C.ar  1 <1>   0.1170 
  8 C       -3.6600    -0.4890     0.3010 C.ar  1 <1>  -0.1500 
  9 N       -5.3800    -2.1890    -0.1380 N.am  1 <1>  -0.5470 
 10 C       -5.7620    -2.6000     1.1100 C.2   1 <1>   0.5690 
 11 O       -5.5090    -1.9950     2.1230 O.2   1 <1>  -0.5700 
 12 C       -6.5990    -3.8790     1.2210 C.3   1 <1>   0.1710 
 13 N       -7.9930    -3.7490     0.6980 N.3   1 <1>  -0.8100 
 14 C       -8.7150    -5.0400     0.8130 C.3   1 <1>   0.1100 
 15 C       -8.7280    -2.6870     1.4410 C.3   1 <1>   0.1100 
 16 C      -10.1840    -4.9550     0.3250 C.3   1 <1>   0.3430 
 17 C      -10.2310    -2.6090     1.0760 C.3   1 <1>   0.3430 
 18 N      -10.5700    -3.5520    -0.0420 N.4   1 <1>  -0.9590 
 19 C      -11.9730    -3.4570    -0.5250 C.3   1 <1>   0.3430 
 20 C      -12.2070    -2.1210    -1.2340 C.3   1 <1>  -0.1600 
 21 C      -13.6120    -2.0640    -1.8430 C.3   1 <1>  -0.2400 
 22 H       -5.3950    -1.0990    -2.5330 H     1 <1>   0.1500 
 23 H       -2.1760     1.0450     0.5230 H     1 <1>   0.1500 
 24 H       -3.5410    -0.8340     1.3130 H     1 <1>   0.1500 
 25 H       -5.7960    -2.7290    -0.8960 H     1 <1>   0.3700 
 26 H       -6.6260    -4.1680     2.2580 H     1 <1>   0.0800 
 27 H       -6.0870    -4.6560     0.6820 H     1 <1>   0.0800 
 28 H       -8.7100    -5.3690     1.8390 H     1 <1>   0.0800 
 29 H       -8.2020    -5.7910     0.2350 H     1 <1>   0.0800 
 30 H       -8.2800    -1.7290     1.2330 H     1 <1>   0.0800 
 31 H       -8.6390    -2.8500     2.5030 H     1 <1>   0.0800 
 32 H      -10.8320    -5.3240     1.1020 H     1 <1>   0.0800 
 33 H      -10.3030    -5.5990    -0.5300 H     1 <1>   0.0800 
 34 H      -10.4640    -1.5960     0.7950 H     1 <1>   0.0800 
 35 H      -10.8170    -2.8490     1.9470 H     1 <1>   0.0800 
 36 H       -9.9210    -3.2970    -0.8010 H     1 <1>   0.4500 
 37 H      -12.6590    -3.5590     0.3010 H     1 <1>   0.0800 
 38 H      -12.1670    -4.2550    -1.2240 H     1 <1>   0.0800 
 39 H      -11.4860    -1.9960    -2.0240 H     1 <1>   0.0800 
 40 H      -12.1070    -1.3050    -0.5400 H     1 <1>   0.0800 
 41 H      -13.7490    -2.8480    -2.5690 H     1 <1>   0.0800 
 42 H      -13.7600    -1.1200    -2.3400 H     1 <1>   0.0800 
 43 H      -14.3660    -2.1630    -1.0810 H     1 <1>   0.0800 
@<TRIPOS>BOND
  1   1   2  1   
  2   2   3  ar  
  3   2   4  ar  
  4   3   5  1   
  5   3   6  ar  
  6   4   7  ar  
  7   4  22  1   
  8   6   8  ar  
  9   6  23  1   
 10   7   8  ar  
 11   7   9  1   
 12   8  24  1   
 13   9  10  am  
 14   9  25  1   
 15  10  11  2   
 16  10  12  1   
 17  12  13  1   
 18  12  26  1   
 19  12  27  1   
 20  13  14  1   
 21  13  15  1   
 22  14  16  1   
 23  14  28  1   
 24  14  29  1   
 25  15  17  1   
 26  15  30  1   
 27  15  31  1   
 28  16  18  1   
 29  16  32  1   
 30  16  33  1   
 31  17  18  1   
 32  17  34  1   
 33  17  35  1   
 34  18  19  1   
 35  18  36  1   
 36  19  20  1   
 37  19  37  1   
 38  19  38  1   
 39  20  21  1   
 40  20  39  1   
 41  20  40  1   
 42  21  41  1   
 43  21  42  1   
 44  21  43  1   
@<TRIPOS>SUBSTRUCTURE
  1 ****   9 GROUP 4 **** **** 0

# MOE 2024.06 (io_trps.svl 2023.06)
