@<TRIPOS>MOLECULE
NONAME
45 46 1 0 0 
SMALL
USER_CHARGES


@<TRIPOS>ATOM
  1 O        1.7580    -1.3900    -3.0800 O.2   1 <1>  -0.5700 
  2 C        0.9350    -1.9620    -2.3830 C.2   1 <1>   0.5440 
  3 N       -0.3110    -2.1140    -2.9100 N.am  1 <1>  -0.4300 
  4 C        1.2990    -2.4440    -1.0630 C.ar  1 <1>   0.0860 
  5 N       -1.5400    -2.5490    -2.2230 N.am  1 <1>  -0.4300 
  6 C        2.0610    -1.6570    -0.2000 C.ar  1 <1>  -0.1500 
  7 C        0.9130    -3.7050    -0.6040 C.ar  1 <1>  -0.1500 
  8 C       -2.4860    -1.7410    -1.6690 C.2   1 <1>   0.5690 
  9 C        2.3980    -2.1040     1.0640 C.ar  1 <1>   0.0830 
 10 C        1.2390    -4.1500     0.6630 C.ar  1 <1>  -0.1500 
 11 O       -2.3920    -0.5300    -1.7110 O.2   1 <1>  -0.5700 
 12 C       -3.7430    -2.3330    -1.0110 C.3   1 <1>  -0.0190 
 13 O        3.1270    -1.3170     1.8690 O.3   1 <1>  -0.5320 
 14 C        1.9860    -3.3490     1.5070 C.ar  1 <1>  -0.1500 
 15 C       -3.5650    -3.0170     0.3790 C.3   1 <1>   0.0000 
 16 C       -4.4860    -3.3470    -1.9080 C.3   1 <1>  -0.1600 
 17 C       -3.7190    -4.5510     0.0930 C.3   1 <1>  -0.1060 
 18 C       -4.6920    -2.4870     1.3030 C.3   1 <1>  -0.2400 
 19 C       -2.2470    -2.6490     1.0910 C.3   1 <1>  -0.2400 
 20 C       -4.7660    -4.5780    -1.0420 C.3   1 <1>  -0.1600 
 21 C       -2.3810    -5.1900    -0.3860 C.2   1 <1>   0.9060 
 22 C       -4.2680    -5.3760     1.2890 C.3   1 <1>  -0.2400 
 23 O       -2.0600    -5.1360    -1.5840 O.co2 1 <1>  -0.9000 
 24 O       -1.6210    -5.7270     0.4290 O.co2 1 <1>  -0.9000 
 25 H       -0.4330    -1.7510    -3.8570 H     1 <1>   0.3700 
 26 H       -1.6780    -3.5820    -2.1200 H     1 <1>   0.3700 
 27 H        2.3890    -0.6860    -0.5240 H     1 <1>   0.1500 
 28 H        0.3310    -4.3530    -1.2390 H     1 <1>   0.1500 
 29 H        0.8870    -5.1200     0.9800 H     1 <1>   0.1500 
 30 H       -4.4040    -1.4940    -0.8920 H     1 <1>   0.0800 
 31 H        3.2820    -1.7180     2.7420 H     1 <1>   0.4500 
 32 H        2.2320    -3.7010     2.4910 H     1 <1>   0.1500 
 33 H       -3.8760    -3.6410    -2.7450 H     1 <1>   0.0800 
 34 H       -5.4010    -2.9320    -2.2900 H     1 <1>   0.0800 
 35 H       -5.6640    -2.7190     0.9070 H     1 <1>   0.0800 
 36 H       -4.6210    -1.4180     1.4060 H     1 <1>   0.0800 
 37 H       -4.6130    -2.9090     2.2880 H     1 <1>   0.0800 
 38 H       -1.3910    -2.9310     0.5110 H     1 <1>   0.0800 
 39 H       -2.1760    -3.1630     2.0320 H     1 <1>   0.0800 
 40 H       -2.1890    -1.5900     1.2680 H     1 <1>   0.0800 
 41 H       -4.7010    -5.4870    -1.6160 H     1 <1>   0.0800 
 42 H       -5.7600    -4.5010    -0.6390 H     1 <1>   0.0800 
 43 H       -5.2610    -5.0830     1.5730 H     1 <1>   0.0800 
 44 H       -3.6130    -5.2700     2.1360 H     1 <1>   0.0800 
 45 H       -4.2900    -6.4180     1.0230 H     1 <1>   0.0800 
@<TRIPOS>BOND
  1   1   2  2   
  2   2   3  am  
  3   2   4  1   
  4   3   5  1   
  5   3  25  1   
  6   4   6  ar  
  7   4   7  ar  
  8   5   8  am  
  9   5  26  1   
 10   6   9  ar  
 11   6  27  1   
 12   7  10  ar  
 13   7  28  1   
 14   8  11  2   
 15   8  12  1   
 16   9  13  1   
 17   9  14  ar  
 18  10  14  ar  
 19  10  29  1   
 20  12  15  1   
 21  12  16  1   
 22  12  30  1   
 23  13  31  1   
 24  14  32  1   
 25  15  17  1   
 26  15  18  1   
 27  15  19  1   
 28  16  20  1   
 29  16  33  1   
 30  16  34  1   
 31  17  20  1   
 32  17  21  1   
 33  17  22  1   
 34  18  35  1   
 35  18  36  1   
 36  18  37  1   
 37  19  38  1   
 38  19  39  1   
 39  19  40  1   
 40  20  41  1   
 41  20  42  1   
 42  21  23  ar  
 43  21  24  ar  
 44  22  43  1   
 45  22  44  1   
 46  22  45  1   
@<TRIPOS>SUBSTRUCTURE
  1 ****   5 GROUP 4 **** **** 0

# MOE 2024.06 (io_trps.svl 2023.06)
