@<TRIPOS>MOLECULE
NONAME
46 46 1 0 0 
SMALL
USER_CHARGES


@<TRIPOS>ATOM
  1 O        0.5690    -0.8810    -0.4580 O.3   1 <1>  -0.3630 
  2 C       -0.7810    -0.9770    -0.3140 C.ar  1 <1>   0.0830 
  3 C        1.3350     0.0530     0.2580 C.3   1 <1>   0.1200 
  4 C       -1.4530    -1.9530    -1.0510 C.ar  1 <1>  -0.1440 
  5 C       -1.4950    -0.1410     0.5420 C.ar  1 <1>  -0.1500 
  6 C        2.7900    -0.1480    -0.1590 C.3   1 <1>  -0.1600 
  7 C       -2.8320    -2.0880    -0.9110 C.ar  1 <1>  -0.1440 
  8 C       -0.6880    -2.8760    -2.0020 C.3   1 <1>  -0.0960 
  9 C       -2.8640    -0.2720     0.6740 C.ar  1 <1>  -0.1430 
 10 C        3.7050     0.8340     0.5680 C.3   1 <1>   0.3430 
 11 C       -3.5230    -1.2460    -0.0550 C.ar  1 <1>  -0.1500 
 12 C       -3.6210    -3.1440    -1.6740 C.3   1 <1>  -0.0970 
 13 C       -3.6460     0.6390     1.6030 C.3   1 <1>  -0.0970 
 14 N        5.1350     0.5630     0.2420 N.4   1 <1>  -0.9590 
 15 C        6.0220     1.2580     1.2140 C.3   1 <1>   0.3430 
 16 C        5.4680     0.9180    -1.1670 C.3   1 <1>   0.3430 
 17 C        7.4230     0.6590     1.1590 C.3   1 <1>  -0.2400 
 18 C        5.8650    -0.3550    -1.9030 C.3   1 <1>  -0.2400 
 19 H        1.1970    -0.1360     1.3090 H     1 <1>   0.0800 
 20 H        0.9850     1.0390     0.0020 H     1 <1>   0.0800 
 21 H       -1.0050     0.6200     1.1150 H     1 <1>   0.1500 
 22 H        2.8540    -0.0010    -1.2220 H     1 <1>   0.0800 
 23 H        3.0750    -1.1570     0.0830 H     1 <1>   0.0800 
 24 H       -0.5730    -3.8440    -1.5490 H     1 <1>   0.0800 
 25 H        0.2870    -2.4940    -2.2390 H     1 <1>   0.0800 
 26 H       -1.2180    -2.9850    -2.9300 H     1 <1>   0.0800 
 27 H        3.5530     0.7220     1.6300 H     1 <1>   0.0800 
 28 H        3.4480     1.8460     0.2970 H     1 <1>   0.0800 
 29 H       -4.5890    -1.3460     0.0490 H     1 <1>   0.1500 
 30 H       -3.6390    -2.9020    -2.7210 H     1 <1>   0.0800 
 31 H       -4.6350    -3.1990    -1.3220 H     1 <1>   0.0800 
 32 H       -3.1710    -4.1120    -1.5420 H     1 <1>   0.0800 
 33 H       -3.0130     1.0170     2.3850 H     1 <1>   0.0800 
 34 H       -4.4590     0.1010     2.0560 H     1 <1>   0.0800 
 35 H       -4.0450     1.4680     1.0470 H     1 <1>   0.0800 
 36 H        5.2950    -0.4470     0.3480 H     1 <1>   0.4500 
 37 H        5.6340     1.1330     2.2130 H     1 <1>   0.0800 
 38 H        6.0600     2.3140     0.9980 H     1 <1>   0.0800 
 39 H        6.2860     1.6210    -1.1950 H     1 <1>   0.0800 
 40 H        4.6190     1.3700    -1.6540 H     1 <1>   0.0800 
 41 H        8.0330     1.1230     1.9140 H     1 <1>   0.0800 
 42 H        7.3970    -0.3970     1.3600 H     1 <1>   0.0800 
 43 H        7.8920     0.8370     0.2080 H     1 <1>   0.0800 
 44 H        6.7320    -0.8050    -1.4540 H     1 <1>   0.0800 
 45 H        6.1090    -0.1120    -2.9220 H     1 <1>   0.0800 
 46 H        5.0550    -1.0630    -1.9180 H     1 <1>   0.0800 
@<TRIPOS>BOND
  1   1   2  1   
  2   1   3  1   
  3   2   4  ar  
  4   2   5  ar  
  5   3   6  1   
  6   3  19  1   
  7   3  20  1   
  8   4   7  ar  
  9   4   8  1   
 10   5   9  ar  
 11   5  21  1   
 12   6  10  1   
 13   6  22  1   
 14   6  23  1   
 15   7  11  ar  
 16   7  12  1   
 17   8  24  1   
 18   8  25  1   
 19   8  26  1   
 20   9  11  ar  
 21   9  13  1   
 22  10  14  1   
 23  10  27  1   
 24  10  28  1   
 25  11  29  1   
 26  12  30  1   
 27  12  31  1   
 28  12  32  1   
 29  13  33  1   
 30  13  34  1   
 31  13  35  1   
 32  14  15  1   
 33  14  16  1   
 34  14  36  1   
 35  15  17  1   
 36  15  37  1   
 37  15  38  1   
 38  16  18  1   
 39  16  39  1   
 40  16  40  1   
 41  17  41  1   
 42  17  42  1   
 43  17  43  1   
 44  18  44  1   
 45  18  45  1   
 46  18  46  1   
@<TRIPOS>SUBSTRUCTURE
  1 ****   1 GROUP 4 **** **** 0

# MOE 2024.06 (io_trps.svl 2023.06)
