@<TRIPOS>MOLECULE
NONAME
37 38 1 0 0 
SMALL
USER_CHARGES


@<TRIPOS>ATOM
  1 O        0.6940    -2.5760     0.0470 O.3   1 <1>  -0.2800 
  2 C        1.4880    -3.6280    -0.1110 C.2   1 <1>   0.0870 
  3 C       -0.5570    -2.9460    -0.1180 C.2   1 <1>  -0.0400 
  4 C        2.9230    -3.4910     0.0200 C.ar  1 <1>   0.0530 
  5 C        0.7110    -4.7090    -0.3870 C.2   1 <1>  -0.1500 
  6 C       -0.6140    -4.2690    -0.3930 C.2   1 <1>  -0.1500 
  7 C       -1.6160    -1.8720     0.0260 C.3   1 <1>   0.5230 
  8 C        3.7730    -4.5850    -0.1520 C.ar  1 <1>  -0.1500 
  9 C        3.5150    -2.2640     0.3230 C.ar  1 <1>  -0.1500 
 10 N       -2.9600    -2.4610    -0.1850 N.4   1 <1>  -0.9060 
 11 C        5.1450    -4.4610    -0.0280 C.ar  1 <1>  -0.1500 
 12 C        4.8860    -2.1330     0.4480 C.ar  1 <1>  -0.1500 
 13 C       -4.0600    -1.4780    -0.0430 C.3   1 <1>   0.3430 
 14 C        5.7050    -3.2330     0.2720 C.ar  1 <1>  -0.1500 
 15 C       -5.4180    -2.1690    -0.2420 C.3   1 <1>  -0.0800 
 16 C       -6.5440    -1.1350    -0.1100 C.3   1 <1>  -0.2400 
 17 C       -5.6560    -3.3100     0.7640 C.3   1 <1>  -0.2400 
 18 H        1.0280    -5.7200    -0.5710 H     1 <1>   0.1500 
 19 H       -1.4560    -4.9120    -0.5840 H     1 <1>   0.1500 
 20 H       -1.4300    -1.0960    -0.6990 H     1 <1>   0.0800 
 21 H       -1.5470    -1.4420     1.0120 H     1 <1>   0.0800 
 22 H        3.3610    -5.5490    -0.3860 H     1 <1>   0.1500 
 23 H        2.8950    -1.3980     0.4630 H     1 <1>   0.1500 
 24 H       -3.0890    -3.2170     0.4960 H     1 <1>   0.4500 
 25 H       -2.9830    -2.8890    -1.1170 H     1 <1>   0.4500 
 26 H        5.7790    -5.3190    -0.1650 H     1 <1>   0.1500 
 27 H        5.3170    -1.1750     0.6820 H     1 <1>   0.1500 
 28 H       -3.9510    -0.6920    -0.7740 H     1 <1>   0.0800 
 29 H       -4.0320    -1.0330     0.9390 H     1 <1>   0.0800 
 30 H        6.7730    -3.1340     0.3690 H     1 <1>   0.1500 
 31 H       -5.4630    -2.5690    -1.2410 H     1 <1>   0.0800 
 32 H       -6.5640    -0.7070     0.8780 H     1 <1>   0.0800 
 33 H       -7.4990    -1.5980    -0.2940 H     1 <1>   0.0800 
 34 H       -6.4210    -0.3410    -0.8260 H     1 <1>   0.0800 
 35 H       -5.5800    -2.9530     1.7770 H     1 <1>   0.0800 
 36 H       -4.9610    -4.1180     0.6230 H     1 <1>   0.0800 
 37 H       -6.6460    -3.7150     0.6300 H     1 <1>   0.0800 
@<TRIPOS>BOND
  1   1   2  1   
  2   1   3  1   
  3   2   4  1   
  4   2   5  2   
  5   3   6  2   
  6   3   7  1   
  7   4   8  ar  
  8   4   9  ar  
  9   5   6  1   
 10   5  18  1   
 11   6  19  1   
 12   7  10  1   
 13   7  20  1   
 14   7  21  1   
 15   8  11  ar  
 16   8  22  1   
 17   9  12  ar  
 18   9  23  1   
 19  10  13  1   
 20  10  24  1   
 21  10  25  1   
 22  11  14  ar  
 23  11  26  1   
 24  12  14  ar  
 25  12  27  1   
 26  13  15  1   
 27  13  28  1   
 28  13  29  1   
 29  14  30  1   
 30  15  16  1   
 31  15  17  1   
 32  15  31  1   
 33  16  32  1   
 34  16  33  1   
 35  16  34  1   
 36  17  35  1   
 37  17  36  1   
 38  17  37  1   
@<TRIPOS>SUBSTRUCTURE
  1 ****   3 GROUP 4 **** **** 0

# MOE 2024.06 (io_trps.svl 2023.06)
