@<TRIPOS>MOLECULE
NONAME
32 34 1 0 0 
SMALL
USER_CHARGES


@<TRIPOS>ATOM
  1 S        0.3540    -0.2360     0.1790 S.3   1 <1>  -0.0800 
  2 C        1.8090     0.6390    -0.3370 C.ar  1 <1>   0.2970 
  3 C       -0.5570     1.2670     0.1860 C.2   1 <1>  -0.1400 
  4 N        2.9650     0.0460    -0.5420 N.ar  1 <1>  -0.5670 
  5 C        1.5510     1.9860    -0.4810 C.ar  1 <1>   0.0000 
  6 C        0.1820     2.3060    -0.1700 C.2   1 <1>  -0.1810 
  7 C       -1.9870     1.5380     0.5260 C.3   1 <1>   0.0200 
  8 C        3.8910     0.9070    -0.9180 C.ar  1 <1>   0.7220 
  9 C        2.6440     2.7500    -0.8850 C.ar  1 <1>   0.4100 
 10 C       -0.6380     3.5680    -0.1430 C.3   1 <1>   0.0210 
 11 C       -2.0390     3.0750     0.3260 C.3   1 <1>  -0.1600 
 12 S        5.5050     0.2070    -1.2170 S.3   1 <1>  -0.3320 
 13 N        3.8220     2.2160    -1.1070 N.ar  1 <1>  -0.6200 
 14 N        2.5770     4.0890    -1.0870 N.pl3 1 <1>  -0.9000 
 15 C        5.2880    -1.6060    -0.8680 C.3   1 <1>   0.1310 
 16 C        6.6170    -2.3480    -0.9280 C.2   1 <1>   0.6590 
 17 O        6.8480    -3.1000    -1.8370 O.2   1 <1>  -0.5700 
 18 O        7.5090    -2.2030     0.0520 O.3   1 <1>  -0.4300 
 19 C        7.4190    -1.2930     1.1290 C.3   1 <1>   0.0400 
 20 H       -2.1980     1.2590     1.5430 H     1 <1>   0.0800 
 21 H       -2.6440     1.0230    -0.1530 H     1 <1>   0.0800 
 22 H       -0.6910     4.0040    -1.1250 H     1 <1>   0.0800 
 23 H       -0.2210     4.2740     0.5540 H     1 <1>   0.0800 
 24 H       -2.3010     3.5530     1.2540 H     1 <1>   0.0800 
 25 H       -2.7830     3.3250    -0.4090 H     1 <1>   0.0800 
 26 H        3.3960     4.5360    -1.5030 H     1 <1>   0.4000 
 27 H        1.6860     4.5620    -1.2290 H     1 <1>   0.4000 
 28 H        4.6200    -1.9880    -1.6170 H     1 <1>   0.0800 
 29 H        4.8390    -1.7070     0.1010 H     1 <1>   0.0800 
 30 H        8.2590    -1.4620     1.7790 H     1 <1>   0.0800 
 31 H        6.5040    -1.4630     1.6690 H     1 <1>   0.0800 
 32 H        7.4580    -0.2880     0.7460 H     1 <1>   0.0800 
@<TRIPOS>BOND
  1   1   2  1   
  2   1   3  1   
  3   2   4  ar  
  4   2   5  ar  
  5   3   6  2   
  6   3   7  1   
  7   4   8  ar  
  8   5   6  1   
  9   5   9  ar  
 10   6  10  1   
 11   7  11  1   
 12   7  20  1   
 13   7  21  1   
 14   8  12  1   
 15   8  13  ar  
 16   9  13  ar  
 17   9  14  1   
 18  10  11  1   
 19  10  22  1   
 20  10  23  1   
 21  11  24  1   
 22  11  25  1   
 23  12  15  1   
 24  14  26  1   
 25  14  27  1   
 26  15  16  1   
 27  15  28  1   
 28  15  29  1   
 29  16  17  2   
 30  16  18  1   
 31  18  19  1   
 32  19  30  1   
 33  19  31  1   
 34  19  32  1   
@<TRIPOS>SUBSTRUCTURE
  1 ****   4 GROUP 4 **** **** 0

# MOE 2024.06 (io_trps.svl 2023.06)
