@<TRIPOS>MOLECULE
NONAME
42 43 1 0 0 
SMALL
USER_CHARGES


@<TRIPOS>ATOM
  1 O        1.3960    -0.4870     1.8750 O.2   1 <1>  -0.5700 
  2 C        1.6340    -1.4800     1.2280 C.2   1 <1>   0.6900 
  3 N        1.1330    -2.6820     1.6060 N.am  1 <1>  -0.5390 
  4 N        2.4120    -1.4210     0.1360 N.am  1 <1>  -0.7300 
  5 C        1.3840    -3.8710     0.9530 C.2   1 <1>  -0.0290 
  6 C        2.9130    -2.6150    -0.5740 C.3   1 <1>   0.5020 
  7 C        2.2380    -3.9080    -0.1090 C.2   1 <1>  -0.1240 
  8 C        0.6140    -5.0500     1.5300 C.3   1 <1>  -0.1020 
  9 C        4.4230    -2.6820    -0.3590 C.ar  1 <1>  -0.1440 
 10 C        2.6380    -5.0260    -0.9040 C.2   1 <1>   0.7060 
 11 C        5.2810    -2.7480    -1.4490 C.ar  1 <1>  -0.1500 
 12 C        4.9610    -2.6880     0.9220 C.ar  1 <1>  -0.1500 
 13 O        2.9800    -4.9200    -2.0680 O.2   1 <1>  -0.5700 
 14 O        2.6580    -6.2420    -0.3470 O.3   1 <1>  -0.4300 
 15 C        6.6510    -2.8130    -1.2670 C.ar  1 <1>  -0.1500 
 16 C        6.3290    -2.7530     1.1070 C.ar  1 <1>  -0.1500 
 17 C        3.0890    -7.3830    -1.0630 C.3   1 <1>   0.0400 
 18 C        7.1830    -2.8150     0.0200 C.ar  1 <1>   0.0830 
 19 O        8.5090    -2.8770     0.2900 O.3   1 <1>  -0.3630 
 20 C        9.4660    -3.0000    -0.7500 C.3   1 <1>   0.1810 
 21 C       10.8770    -3.0600    -0.1900 C.2   1 <1>   0.6590 
 22 O       11.6840    -2.1950    -0.4220 O.2   1 <1>  -0.5700 
 23 O       11.1800    -4.1280     0.5420 O.3   1 <1>  -0.4300 
 24 C       12.4580    -4.2930     1.1200 C.3   1 <1>   0.0400 
 25 H        0.5290    -2.6320     2.4250 H     1 <1>   0.3700 
 26 H        2.9210    -0.5550    -0.0190 H     1 <1>   0.3700 
 27 H        2.7050    -2.4740    -1.6210 H     1 <1>   0.0800 
 28 H       -0.3930    -4.7550     1.7640 H     1 <1>   0.0800 
 29 H        1.0930    -5.3920     2.4290 H     1 <1>   0.0800 
 30 H        0.5520    -5.8680     0.8380 H     1 <1>   0.0800 
 31 H        4.8840    -2.7570    -2.4500 H     1 <1>   0.1500 
 32 H        4.3140    -2.6430     1.7820 H     1 <1>   0.1500 
 33 H        7.2790    -2.8630    -2.1360 H     1 <1>   0.1500 
 34 H        6.7430    -2.7550     2.1000 H     1 <1>   0.1500 
 35 H        2.4530    -7.5180    -1.9210 H     1 <1>   0.0800 
 36 H        4.1080    -7.2330    -1.3760 H     1 <1>   0.0800 
 37 H        3.0240    -8.2380    -0.4140 H     1 <1>   0.0800 
 38 H        9.3760    -2.1440    -1.3930 H     1 <1>   0.0800 
 39 H        9.2600    -3.9010    -1.2960 H     1 <1>   0.0800 
 40 H       12.4680    -5.2200     1.6660 H     1 <1>   0.0800 
 41 H       12.6470    -3.4680     1.7860 H     1 <1>   0.0800 
 42 H       13.1950    -4.3140     0.3370 H     1 <1>   0.0800 
@<TRIPOS>BOND
  1   1   2  2   
  2   2   3  am  
  3   2   4  am  
  4   3   5  1   
  5   3  25  1   
  6   4   6  1   
  7   4  26  1   
  8   5   7  2   
  9   5   8  1   
 10   6   7  1   
 11   6   9  1   
 12   6  27  1   
 13   7  10  1   
 14   8  28  1   
 15   8  29  1   
 16   8  30  1   
 17   9  11  ar  
 18   9  12  ar  
 19  10  13  2   
 20  10  14  1   
 21  11  15  ar  
 22  11  31  1   
 23  12  16  ar  
 24  12  32  1   
 25  14  17  1   
 26  15  18  ar  
 27  15  33  1   
 28  16  18  ar  
 29  16  34  1   
 30  17  35  1   
 31  17  36  1   
 32  17  37  1   
 33  18  19  1   
 34  19  20  1   
 35  20  21  1   
 36  20  38  1   
 37  20  39  1   
 38  21  22  2   
 39  21  23  1   
 40  23  24  1   
 41  24  40  1   
 42  24  41  1   
 43  24  42  1   
@<TRIPOS>SUBSTRUCTURE
  1 ****   9 GROUP 4 **** **** 0

# MOE 2024.06 (io_trps.svl 2023.06)
