@<TRIPOS>MOLECULE
NONAME
51 53 1 0 0 
SMALL
USER_CHARGES


@<TRIPOS>ATOM
  1 S       -0.1280     0.2120    -0.9810 S.o2  1 <1>   1.2040 
  2 O       -0.1710     0.8230    -2.2910 O.2   1 <1>  -0.6500 
  3 O       -0.2530    -1.2250    -0.8480 O.2   1 <1>  -0.6500 
  4 C        1.3880     0.7410    -0.1480 C.ar  1 <1>  -0.0090 
  5 C       -1.3590     0.9930     0.0730 C.3   1 <1>   0.0890 
  6 C        1.9950     1.9490    -0.4670 C.ar  1 <1>  -0.1500 
  7 C        1.9620    -0.0270     0.8580 C.ar  1 <1>  -0.1500 
  8 C       -2.8030     0.8360    -0.3960 C.ar  1 <1>  -0.1440 
  9 C        3.1310     2.3800     0.1970 C.ar  1 <1>  -0.1500 
 10 C        3.0980     0.3980     1.5260 C.ar  1 <1>  -0.1500 
 11 C       -3.5580     1.9550    -0.7100 C.ar  1 <1>  -0.1500 
 12 C       -3.3760    -0.4210    -0.5100 C.ar  1 <1>  -0.1500 
 13 C        3.6890     1.6050     1.1990 C.ar  1 <1>  -0.1430 
 14 C       -4.8830     1.8530    -1.1300 C.ar  1 <1>   0.0860 
 15 C       -4.6840    -0.5510    -0.9410 C.ar  1 <1>  -0.1500 
 16 C        4.9340     2.0740     1.9290 C.3   1 <1>  -0.0970 
 17 C       -5.6570     3.0430    -1.4320 C.2   1 <1>   0.5440 
 18 C       -5.4250     0.5740    -1.2510 C.ar  1 <1>  -0.1500 
 19 O       -5.1930     3.8660    -2.2000 O.2   1 <1>  -0.5700 
 20 N       -6.8940     3.2790    -0.8630 N.am  1 <1>  -0.6600 
 21 C       -7.3870     2.5920     0.3640 C.3   1 <1>   0.1400 
 22 C       -7.7750     4.3840    -1.3370 C.3   1 <1>   0.1400 
 23 C       -7.5720     3.6140     1.4900 C.3   1 <1>  -0.1600 
 24 C       -7.9560     5.4180    -0.2220 C.3   1 <1>  -0.1600 
 25 C       -8.4900     4.7710     1.0660 C.3   1 <1>  -0.0800 
 26 C       -8.6020     5.8110     2.1860 C.3   1 <1>  -0.2400 
 27 H       -1.1360     2.0400     0.1440 H     1 <1>   0.0800 
 28 H       -1.2840     0.5850     1.0620 H     1 <1>   0.0800 
 29 H        1.5790     2.5630    -1.2500 H     1 <1>   0.1500 
 30 H        1.5220    -0.9740     1.1220 H     1 <1>   0.1500 
 31 H        3.5800     3.3210    -0.0720 H     1 <1>   0.1500 
 32 H        3.5210    -0.2190     2.3000 H     1 <1>   0.1500 
 33 H       -3.1320     2.9410    -0.6390 H     1 <1>   0.1500 
 34 H       -2.8110    -1.3080    -0.2740 H     1 <1>   0.1500 
 35 H       -5.1200    -1.5300    -1.0400 H     1 <1>   0.1500 
 36 H        4.6550     2.6520     2.7920 H     1 <1>   0.0800 
 37 H        5.5420     2.6840     1.2850 H     1 <1>   0.0800 
 38 H        5.5220     1.2320     2.2500 H     1 <1>   0.0800 
 39 H       -6.4390     0.4680    -1.5960 H     1 <1>   0.1500 
 40 H       -6.6940     1.8380     0.6910 H     1 <1>   0.0800 
 41 H       -8.3260     2.1150     0.1440 H     1 <1>   0.0800 
 42 H       -8.7300     3.9730    -1.6140 H     1 <1>   0.0800 
 43 H       -7.3560     4.8610    -2.2080 H     1 <1>   0.0800 
 44 H       -6.6060     3.9970     1.7680 H     1 <1>   0.0800 
 45 H       -7.9880     3.1180     2.3490 H     1 <1>   0.0800 
 46 H       -8.6380     6.1790    -0.5580 H     1 <1>   0.0800 
 47 H       -7.0060     5.8870    -0.0350 H     1 <1>   0.0800 
 48 H       -9.4730     4.3750     0.8680 H     1 <1>   0.0800 
 49 H       -7.6380     6.2320     2.4100 H     1 <1>   0.0800 
 50 H       -8.9950     5.3580     3.0780 H     1 <1>   0.0800 
 51 H       -9.2640     6.6070     1.8910 H     1 <1>   0.0800 
@<TRIPOS>BOND
  1   1   2  2   
  2   1   3  2   
  3   1   4  1   
  4   1   5  1   
  5   4   6  ar  
  6   4   7  ar  
  7   5   8  1   
  8   5  27  1   
  9   5  28  1   
 10   6   9  ar  
 11   6  29  1   
 12   7  10  ar  
 13   7  30  1   
 14   8  11  ar  
 15   8  12  ar  
 16   9  13  ar  
 17   9  31  1   
 18  10  13  ar  
 19  10  32  1   
 20  11  14  ar  
 21  11  33  1   
 22  12  15  ar  
 23  12  34  1   
 24  13  16  1   
 25  14  17  1   
 26  14  18  ar  
 27  15  18  ar  
 28  15  35  1   
 29  16  36  1   
 30  16  37  1   
 31  16  38  1   
 32  17  19  2   
 33  17  20  am  
 34  18  39  1   
 35  20  21  1   
 36  20  22  1   
 37  21  23  1   
 38  21  40  1   
 39  21  41  1   
 40  22  24  1   
 41  22  42  1   
 42  22  43  1   
 43  23  25  1   
 44  23  44  1   
 45  23  45  1   
 46  24  25  1   
 47  24  46  1   
 48  24  47  1   
 49  25  26  1   
 50  25  48  1   
 51  26  49  1   
 52  26  50  1   
 53  26  51  1   
@<TRIPOS>SUBSTRUCTURE
  1 ****  11 GROUP 4 **** **** 0

# MOE 2024.06 (io_trps.svl 2023.06)
