@<TRIPOS>MOLECULE
NONAME
26 27 1 0 0 
SMALL
USER_CHARGES


@<TRIPOS>ATOM
  1 O       -0.8460     0.0590     0.0890 O.2   1 <1>  -0.5700 
  2 C       -1.0190     1.2500     0.0030 C.2   1 <1>   0.5690 
  3 N       -2.0690     1.9350     0.4980 N.am  1 <1>  -0.6600 
  4 C       -0.0640     2.1730    -0.7010 C.3   1 <1>  -0.0990 
  5 C       -2.0170     3.3730     0.1890 C.3   1 <1>   0.1400 
  6 C       -3.2470     1.3260     1.1540 C.3   1 <1>   0.2840 
  7 C       -0.6020     3.5770    -0.3720 C.3   1 <1>  -0.1600 
  8 C       -4.5150     1.6940     0.3970 C.ar  1 <1>  -0.1440 
  9 C       -5.4410     2.5700     0.9440 C.ar  1 <1>  -0.1500 
 10 C       -4.7490     1.1540    -0.8590 C.ar  1 <1>  -0.1500 
 11 C       -6.5890     2.9000     0.2440 C.ar  1 <1>  -0.1500 
 12 C       -5.8960     1.4830    -1.5600 C.ar  1 <1>  -0.1500 
 13 C       -6.8170     2.3570    -1.0080 C.ar  1 <1>  -0.1500 
 14 H       -0.1070     1.9770    -1.7570 H     1 <1>   0.0800 
 15 H        0.9370     2.0290    -0.3390 H     1 <1>   0.0800 
 16 H       -2.1810     3.9620     1.0750 H     1 <1>   0.0800 
 17 H       -2.7620     3.6080    -0.5530 H     1 <1>   0.0800 
 18 H       -3.3020     1.6730     2.1700 H     1 <1>   0.0800 
 19 H       -3.1380     0.2550     1.1730 H     1 <1>   0.0800 
 20 H       -0.6120     4.2180    -1.2360 H     1 <1>   0.0800 
 21 H        0.0110     4.0310     0.3880 H     1 <1>   0.0800 
 22 H       -5.2740     2.9990     1.9160 H     1 <1>   0.1500 
 23 H       -4.0320     0.4760    -1.2910 H     1 <1>   0.1500 
 24 H       -7.3050     3.5790     0.6730 H     1 <1>   0.1500 
 25 H       -6.0710     1.0590    -2.5330 H     1 <1>   0.1500 
 26 H       -7.7090     2.6130    -1.5530 H     1 <1>   0.1500 
@<TRIPOS>BOND
  1   1   2  2   
  2   2   3  am  
  3   2   4  1   
  4   3   5  1   
  5   3   6  1   
  6   4   7  1   
  7   4  14  1   
  8   4  15  1   
  9   5   7  1   
 10   5  16  1   
 11   5  17  1   
 12   6   8  1   
 13   6  18  1   
 14   6  19  1   
 15   7  20  1   
 16   7  21  1   
 17   8   9  ar  
 18   8  10  ar  
 19   9  11  ar  
 20   9  22  1   
 21  10  12  ar  
 22  10  23  1   
 23  11  13  ar  
 24  11  24  1   
 25  12  13  ar  
 26  12  25  1   
 27  13  26  1   
@<TRIPOS>SUBSTRUCTURE
  1 ****   8 GROUP 4 **** **** 0

# MOE 2024.06 (io_trps.svl 2023.06)
