@<TRIPOS>MOLECULE
NONAME
37 38 1 0 0 
SMALL
USER_CHARGES


@<TRIPOS>ATOM
  1 I       -2.3720     1.8020     3.6200 I     1 <1>  -0.0810 
  2 C       -2.6140     1.3020     1.5550 C.ar  1 <1>   0.0810 
  3 C       -1.8320     1.9170     0.5840 C.ar  1 <1>   0.0830 
  4 C       -3.5730     0.3550     1.2510 C.ar  1 <1>  -0.1500 
  5 O       -0.9080     2.8410     0.9590 O.3   1 <1>  -0.3630 
  6 C       -2.0450     1.5440    -0.7390 C.ar  1 <1>  -0.1500 
  7 C       -3.7910    -0.0090    -0.0720 C.ar  1 <1>  -0.0090 
  8 C       -0.0300     3.4360     0.0290 C.3   1 <1>   0.0400 
  9 C       -3.0090     0.5970    -1.0530 C.ar  1 <1>  -0.1500 
 10 S       -5.0680    -1.2220    -0.4980 S.o2  1 <1>   1.4470 
 11 O       -5.2410    -1.3150    -1.9300 O.2   1 <1>  -0.6500 
 12 O       -4.9050    -2.4200     0.2910 O.2   1 <1>  -0.6500 
 13 N       -6.4990    -0.4990     0.0660 N.am  1 <1>  -0.8490 
 14 C       -6.9150     0.6570    -0.7580 C.3   1 <1>   0.1960 
 15 C       -7.5900    -1.4990     0.1290 C.3   1 <1>   0.1960 
 16 C       -8.1840     1.3530    -0.2010 C.3   1 <1>   0.3430 
 17 C       -8.9610    -0.8880     0.5150 C.3   1 <1>   0.3430 
 18 N       -8.8390     0.5610     0.9010 N.4   1 <1>  -0.9590 
 19 C      -10.1320     1.1550     1.3550 C.3   1 <1>   0.2630 
 20 H       -4.1480    -0.1020     2.0370 H     1 <1>   0.1500 
 21 H       -1.4710     1.9770    -1.5380 H     1 <1>   0.1500 
 22 H        0.6210     4.1020     0.5660 H     1 <1>   0.0800 
 23 H       -0.6050     3.9910    -0.6910 H     1 <1>   0.0800 
 24 H        0.5490     2.6650    -0.4490 H     1 <1>   0.0800 
 25 H       -3.1530     0.3230    -2.0860 H     1 <1>   0.1500 
 26 H       -7.1130     0.3360    -1.7680 H     1 <1>   0.0800 
 27 H       -6.1170     1.3800    -0.8050 H     1 <1>   0.0800 
 28 H       -7.3370    -2.2530     0.8570 H     1 <1>   0.0800 
 29 H       -7.6860    -2.0000    -0.8210 H     1 <1>   0.0800 
 30 H       -8.8790     1.5030    -1.0110 H     1 <1>   0.0800 
 31 H       -7.9090     2.3260     0.1720 H     1 <1>   0.0800 
 32 H       -9.3770    -1.4560     1.3320 H     1 <1>   0.0800 
 33 H       -9.6330    -0.9870    -0.3220 H     1 <1>   0.0800 
 34 H       -8.1560     0.5690     1.6770 H     1 <1>   0.4500 
 35 H      -10.8520     1.1480     0.5530 H     1 <1>   0.0800 
 36 H       -9.9830     2.1730     1.6770 H     1 <1>   0.0800 
 37 H      -10.5320     0.5910     2.1830 H     1 <1>   0.0800 
@<TRIPOS>BOND
  1   1   2  1   
  2   2   3  ar  
  3   2   4  ar  
  4   3   5  1   
  5   3   6  ar  
  6   4   7  ar  
  7   4  20  1   
  8   5   8  1   
  9   6   9  ar  
 10   6  21  1   
 11   7   9  ar  
 12   7  10  1   
 13   8  22  1   
 14   8  23  1   
 15   8  24  1   
 16   9  25  1   
 17  10  11  2   
 18  10  12  2   
 19  10  13  am  
 20  13  14  1   
 21  13  15  1   
 22  14  16  1   
 23  14  26  1   
 24  14  27  1   
 25  15  17  1   
 26  15  28  1   
 27  15  29  1   
 28  16  18  1   
 29  16  30  1   
 30  16  31  1   
 31  17  18  1   
 32  17  32  1   
 33  17  33  1   
 34  18  19  1   
 35  18  34  1   
 36  19  35  1   
 37  19  36  1   
 38  19  37  1   
@<TRIPOS>SUBSTRUCTURE
  1 ****   7 GROUP 4 **** **** 0

# MOE 2024.06 (io_trps.svl 2023.06)
