@<TRIPOS>MOLECULE
NONAME
26 26 1 0 0 
SMALL
USER_CHARGES


@<TRIPOS>ATOM
  1 BR      -0.0840    -0.2620    -0.9530 Br    1 <1>  -0.1110 
  2 C        1.6820    -0.9260    -0.5670 C.ar  1 <1>   0.1110 
  3 C        2.3530    -1.6390    -1.5430 C.ar  1 <1>  -0.1500 
  4 C        2.2310    -0.6720     0.6750 C.ar  1 <1>  -0.1500 
  5 C        3.6220    -2.1120    -1.2560 C.ar  1 <1>  -0.1500 
  6 C        3.5020    -1.1500     0.9520 C.ar  1 <1>  -0.1500 
  7 C        4.2010    -1.8710    -0.0170 C.ar  1 <1>   0.0830 
  8 O        5.4490    -2.3670     0.1700 O.3   1 <1>  -0.3630 
  9 C        6.1620    -2.1340     1.3770 C.3   1 <1>   0.1810 
 10 C        7.5640    -2.7420     1.3370 C.2   1 <1>   0.5690 
 11 O        7.8420    -3.5240     2.2170 O.2   1 <1>  -0.5700 
 12 N        8.4800    -2.3910     0.3670 N.am  1 <1>  -0.6600 
 13 C        9.8240    -3.0300     0.2990 C.3   1 <1>   0.0600 
 14 C        8.2050    -1.4330    -0.7410 C.3   1 <1>   0.0600 
 15 H        1.8930    -1.8190    -2.4980 H     1 <1>   0.1500 
 16 H        1.6740    -0.1150     1.4070 H     1 <1>   0.1500 
 17 H        4.1710    -2.6730    -1.9920 H     1 <1>   0.1500 
 18 H        3.9220    -0.9530     1.9200 H     1 <1>   0.1500 
 19 H        5.6080    -2.5800     2.1830 H     1 <1>   0.0800 
 20 H        6.2400    -1.0750     1.5310 H     1 <1>   0.0800 
 21 H        9.9460    -3.7580     1.0830 H     1 <1>   0.0800 
 22 H       10.5880    -2.2810     0.4050 H     1 <1>   0.0800 
 23 H        9.9420    -3.5280    -0.6480 H     1 <1>   0.0800 
 24 H        7.4080    -0.7580    -0.4840 H     1 <1>   0.0800 
 25 H        7.9280    -1.9780    -1.6260 H     1 <1>   0.0800 
 26 H        9.0860    -0.8500    -0.9480 H     1 <1>   0.0800 
@<TRIPOS>BOND
  1   1   2  1   
  2   2   3  ar  
  3   2   4  ar  
  4   3   5  ar  
  5   3  15  1   
  6   4   6  ar  
  7   4  16  1   
  8   5   7  ar  
  9   5  17  1   
 10   6   7  ar  
 11   6  18  1   
 12   7   8  1   
 13   8   9  1   
 14   9  10  1   
 15   9  19  1   
 16   9  20  1   
 17  10  11  2   
 18  10  12  am  
 19  12  13  1   
 20  12  14  1   
 21  13  21  1   
 22  13  22  1   
 23  13  23  1   
 24  14  24  1   
 25  14  25  1   
 26  14  26  1   
@<TRIPOS>SUBSTRUCTURE
  1 ****   8 GROUP 4 **** **** 0

# MOE 2024.06 (io_trps.svl 2023.06)
