@<TRIPOS>MOLECULE
NONAME
48 49 1 0 0 
SMALL
USER_CHARGES


@<TRIPOS>ATOM
  1 O       -0.0330    -3.6810    -1.3220 O.2   1 <1>  -0.5700 
  2 C        0.2000    -2.7760    -0.5650 C.2   1 <1>   0.6590 
  3 O       -0.4870    -1.6440    -0.5710 O.3   1 <1>  -0.4300 
  4 C        1.3280    -2.8520     0.4620 C.3   1 <1>  -0.0190 
  5 C       -1.5510    -1.4360    -1.4720 C.3   1 <1>   0.1200 
  6 C        2.5760    -2.1050    -0.0420 C.3   1 <1>  -0.1600 
  7 C        1.6970    -4.3050     0.8270 C.3   1 <1>  -0.1600 
  8 C       -2.1150    -0.0410    -1.2240 C.3   1 <1>  -0.2400 
  9 C        3.7430    -2.2110     0.9380 C.3   1 <1>   0.3430 
 10 C        2.8760    -4.3720     1.7950 C.3   1 <1>   0.3430 
 11 N        4.0390    -3.6480     1.2130 N.4   1 <1>  -0.9590 
 12 C        5.2580    -3.8090     2.0530 C.3   1 <1>   0.4860 
 13 C        6.4430    -3.2440     1.2950 C.ar  1 <1>  -0.1440 
 14 C        6.8880    -3.8640     0.1390 C.ar  1 <1>  -0.1500 
 15 C        7.0890    -2.1010     1.7380 C.ar  1 <1>  -0.1500 
 16 C        7.9480    -3.3560    -0.5930 C.ar  1 <1>   0.0820 
 17 C        8.1520    -1.5800     1.0210 C.ar  1 <1>  -0.1500 
 18 O        8.2440    -4.0870    -1.7060 O.3   1 <1>  -0.3620 
 19 C        8.5940    -2.1870    -0.1530 C.ar  1 <1>   0.0820 
 20 C        9.4700    -3.9750    -2.3940 C.3   1 <1>   0.0400 
 21 O        9.6240    -1.6570    -0.8740 O.3   1 <1>  -0.3630 
 22 C       10.3380    -0.5130    -0.4580 C.3   1 <1>   0.0400 
 23 H        0.9730    -2.3630     1.3530 H     1 <1>   0.0800 
 24 H       -2.2990    -2.1920    -1.3000 H     1 <1>   0.0800 
 25 H       -1.1720    -1.5260    -2.4770 H     1 <1>   0.0800 
 26 H        2.3360    -1.0650    -0.1860 H     1 <1>   0.0800 
 27 H        2.8790    -2.4980    -0.9990 H     1 <1>   0.0800 
 28 H        1.9430    -4.8600    -0.0640 H     1 <1>   0.0800 
 29 H        0.8450    -4.7870     1.2750 H     1 <1>   0.0800 
 30 H       -2.4820     0.0380    -0.2160 H     1 <1>   0.0800 
 31 H       -2.9310     0.1440    -1.8990 H     1 <1>   0.0800 
 32 H       -1.3580     0.7040    -1.3930 H     1 <1>   0.0800 
 33 H        3.4920    -1.7050     1.8570 H     1 <1>   0.0800 
 34 H        4.6090    -1.7280     0.5110 H     1 <1>   0.0800 
 35 H        3.1320    -5.4040     1.9750 H     1 <1>   0.0800 
 36 H        2.5960    -3.9210     2.7350 H     1 <1>   0.0800 
 37 H        4.2610    -4.0760     0.3040 H     1 <1>   0.4500 
 38 H        5.4350    -4.8530     2.2560 H     1 <1>   0.0800 
 39 H        5.1380    -3.2920     2.9910 H     1 <1>   0.0800 
 40 H        6.4230    -4.7640    -0.2240 H     1 <1>   0.1500 
 41 H        6.7780    -1.6020     2.6400 H     1 <1>   0.1500 
 42 H        8.6240    -0.6920     1.3990 H     1 <1>   0.1500 
 43 H        9.5380    -4.7880    -3.0940 H     1 <1>   0.0800 
 44 H       10.2770    -4.0310    -1.6860 H     1 <1>   0.0800 
 45 H        9.4880    -3.0390    -2.9240 H     1 <1>   0.0800 
 46 H       11.1060    -0.3170    -1.1850 H     1 <1>   0.0800 
 47 H       10.7860    -0.7080     0.5000 H     1 <1>   0.0800 
 48 H        9.6640     0.3240    -0.4090 H     1 <1>   0.0800 
@<TRIPOS>BOND
  1   1   2  2   
  2   2   3  1   
  3   2   4  1   
  4   3   5  1   
  5   4   6  1   
  6   4   7  1   
  7   4  23  1   
  8   5   8  1   
  9   5  24  1   
 10   5  25  1   
 11   6   9  1   
 12   6  26  1   
 13   6  27  1   
 14   7  10  1   
 15   7  28  1   
 16   7  29  1   
 17   8  30  1   
 18   8  31  1   
 19   8  32  1   
 20   9  11  1   
 21   9  33  1   
 22   9  34  1   
 23  10  11  1   
 24  10  35  1   
 25  10  36  1   
 26  11  12  1   
 27  11  37  1   
 28  12  13  1   
 29  12  38  1   
 30  12  39  1   
 31  13  14  ar  
 32  13  15  ar  
 33  14  16  ar  
 34  14  40  1   
 35  15  17  ar  
 36  15  41  1   
 37  16  18  1   
 38  16  19  ar  
 39  17  19  ar  
 40  17  42  1   
 41  18  20  1   
 42  19  21  1   
 43  20  43  1   
 44  20  44  1   
 45  20  45  1   
 46  21  22  1   
 47  22  46  1   
 48  22  47  1   
 49  22  48  1   
@<TRIPOS>SUBSTRUCTURE
  1 ****   9 GROUP 4 **** **** 0

# MOE 2024.06 (io_trps.svl 2023.06)
