@<TRIPOS>MOLECULE
NONAME
50 51 1 0 0 
SMALL
USER_CHARGES


@<TRIPOS>ATOM
  1 O        0.9900     0.7560     0.6070 O.2   1 <1>  -0.5700 
  2 C        0.7280     1.8660     0.1710 C.2   1 <1>   0.5440 
  3 N        1.7510     2.7090    -0.1630 N.am  1 <1>  -0.4300 
  4 C       -0.6470     2.3030     0.0300 C.ar  1 <1>   0.0860 
  5 N        3.1480     2.3050    -0.3490 N.am  1 <1>  -0.4300 
  6 C       -1.6020     1.9900     0.9940 C.ar  1 <1>  -0.1500 
  7 C       -1.0630     3.0530    -1.0720 C.ar  1 <1>  -0.1500 
  8 C        3.7290     2.0060    -1.5410 C.2   1 <1>   0.5690 
  9 C       -2.9130     2.4190     0.8870 C.ar  1 <1>   0.0830 
 10 C       -2.3710     3.4870    -1.1920 C.ar  1 <1>  -0.1500 
 11 O        3.1930     2.2440    -2.6040 O.2   1 <1>  -0.5700 
 12 C        5.1070     1.3610    -1.5550 C.3   1 <1>   0.1810 
 13 O       -3.7540     2.0650     1.8890 O.3   1 <1>  -0.3630 
 14 C       -3.2990     3.1750    -0.2150 C.ar  1 <1>  -0.1500 
 15 O        5.7170     1.4320    -0.2730 O.3   1 <1>  -0.3630 
 16 C       -5.1210     2.4100     1.8590 C.3   1 <1>   0.0400 
 17 C        6.9520     0.9150    -0.0590 C.ar  1 <1>   0.0830 
 18 C        7.4630     1.0210     1.2210 C.ar  1 <1>  -0.1500 
 19 C        7.7160     0.2950    -1.0410 C.ar  1 <1>  -0.1500 
 20 C        8.7170     0.5210     1.5250 C.ar  1 <1>  -0.1500 
 21 C        8.9680    -0.2030    -0.7300 C.ar  1 <1>  -0.1500 
 22 C        9.4970    -0.1030     0.5530 C.ar  1 <1>  -0.1430 
 23 C       10.9010    -0.6780     0.8430 C.3   1 <1>   0.1430 
 24 C       11.3430    -0.4900     2.3040 C.3   1 <1>  -0.2400 
 25 C       11.9370     0.0240    -0.0480 C.3   1 <1>  -0.2400 
 26 C       10.9100    -2.1850     0.5470 C.3   1 <1>  -0.2400 
 27 H        1.5270     3.6720    -0.4280 H     1 <1>   0.3700 
 28 H        3.6720     2.0700     0.5040 H     1 <1>   0.3700 
 29 H       -1.3150     1.4000     1.8470 H     1 <1>   0.1500 
 30 H       -0.3570     3.2910    -1.8500 H     1 <1>   0.1500 
 31 H       -2.6700     4.0650    -2.0510 H     1 <1>   0.1500 
 32 H        5.7330     1.8770    -2.2590 H     1 <1>   0.0800 
 33 H        5.0110     0.3270    -1.8310 H     1 <1>   0.0800 
 34 H       -4.3080     3.5240    -0.3290 H     1 <1>   0.1500 
 35 H       -5.5860     2.0090     2.7420 H     1 <1>   0.0800 
 36 H       -5.5710     1.9790     0.9820 H     1 <1>   0.0800 
 37 H       -5.2110     3.4820     1.8540 H     1 <1>   0.0800 
 38 H        6.8760     1.4990     1.9830 H     1 <1>   0.1500 
 39 H        7.3620     0.1880    -2.0480 H     1 <1>   0.1500 
 40 H        9.0620     0.6320     2.5350 H     1 <1>   0.1500 
 41 H        9.5350    -0.6770    -1.5110 H     1 <1>   0.1500 
 42 H       10.6640    -0.9880     2.9720 H     1 <1>   0.0800 
 43 H       11.3810     0.5550     2.5560 H     1 <1>   0.0800 
 44 H       12.3240    -0.9030     2.4590 H     1 <1>   0.0800 
 45 H       11.9130     1.0850     0.1280 H     1 <1>   0.0800 
 46 H       11.7360    -0.1490    -1.0890 H     1 <1>   0.0800 
 47 H       12.9270    -0.3360     0.1650 H     1 <1>   0.0800 
 48 H       10.1630    -2.6800     1.1420 H     1 <1>   0.0800 
 49 H       11.8700    -2.6110     0.7780 H     1 <1>   0.0800 
 50 H       10.7000    -2.3790    -0.4880 H     1 <1>   0.0800 
@<TRIPOS>BOND
  1   1   2  2   
  2   2   3  am  
  3   2   4  1   
  4   3   5  1   
  5   3  27  1   
  6   4   6  ar  
  7   4   7  ar  
  8   5   8  am  
  9   5  28  1   
 10   6   9  ar  
 11   6  29  1   
 12   7  10  ar  
 13   7  30  1   
 14   8  11  2   
 15   8  12  1   
 16   9  13  1   
 17   9  14  ar  
 18  10  14  ar  
 19  10  31  1   
 20  12  15  1   
 21  12  32  1   
 22  12  33  1   
 23  13  16  1   
 24  14  34  1   
 25  15  17  1   
 26  16  35  1   
 27  16  36  1   
 28  16  37  1   
 29  17  18  ar  
 30  17  19  ar  
 31  18  20  ar  
 32  18  38  1   
 33  19  21  ar  
 34  19  39  1   
 35  20  22  ar  
 36  20  40  1   
 37  21  22  ar  
 38  21  41  1   
 39  22  23  1   
 40  23  24  1   
 41  23  25  1   
 42  23  26  1   
 43  24  42  1   
 44  24  43  1   
 45  24  44  1   
 46  25  45  1   
 47  25  46  1   
 48  25  47  1   
 49  26  48  1   
 50  26  49  1   
 51  26  50  1   
@<TRIPOS>SUBSTRUCTURE
  1 ****   5 GROUP 4 **** **** 0

# MOE 2024.06 (io_trps.svl 2023.06)
