@<TRIPOS>MOLECULE
NONAME
41 41 1 0 0 
SMALL
USER_CHARGES


@<TRIPOS>ATOM
  1 S        0.2890    -0.3210    -0.0700 S.3   1 <1>  -0.0800 
  2 C        1.5080     0.8240     0.4440 C.2   1 <1>   0.0960 
  3 C       -0.9320     0.9470    -0.0720 C.2   1 <1>  -0.1400 
  4 S        3.1560     0.1480     0.6310 S.3   1 <1>  -0.2860 
  5 C        1.0040     2.0600     0.6140 C.2   1 <1>  -0.1810 
  6 C       -0.3960     2.1260     0.3060 C.2   1 <1>  -0.1500 
  7 C       -2.3330     0.5490    -0.4860 C.3   1 <1>   0.0200 
  8 C        4.2410     1.3370    -0.2740 C.3   1 <1>   0.0700 
  9 C        1.7700     3.2830     1.0920 C.3   1 <1>   0.3540 
 10 C       -2.8610    -0.5310     0.4640 C.3   1 <1>   0.3430 
 11 C        5.4880     0.5800    -0.7260 C.3   1 <1>  -0.2400 
 12 N        1.9900     4.1970    -0.0160 N.2   1 <1>  -0.1710 
 13 N       -4.1960    -1.0720     0.0460 N.4   1 <1>  -0.9590 
 14 O        3.0990     4.4700    -0.2710 O.2   1 <1>  -0.1620 
 15 C       -5.2860    -0.0660     0.1840 C.3   1 <1>   0.3430 
 16 C       -4.4920    -2.3130     0.8130 C.3   1 <1>   0.3430 
 17 C       -5.7820     0.3000    -1.2080 C.3   1 <1>  -0.2400 
 18 C       -5.5910    -3.1020     0.1110 C.3   1 <1>  -0.2400 
 19 H       -0.9280     3.0600     0.3790 H     1 <1>   0.1500 
 20 H       -2.2960     0.1720    -1.4920 H     1 <1>   0.0800 
 21 H       -2.9610     1.4200    -0.4570 H     1 <1>   0.0800 
 22 H        4.4890     2.1350     0.4020 H     1 <1>   0.0800 
 23 H        3.6800     1.7140    -1.1110 H     1 <1>   0.0800 
 24 H        2.7130     2.9900     1.5160 H     1 <1>   0.0800 
 25 H        1.2060     3.7920     1.8520 H     1 <1>   0.0800 
 26 H       -2.9230    -0.1270     1.4620 H     1 <1>   0.0800 
 27 H       -2.1460    -1.3380     0.4830 H     1 <1>   0.0800 
 28 H        6.0120     0.1860     0.1260 H     1 <1>   0.0800 
 29 H        6.1440     1.2440    -1.2600 H     1 <1>   0.0800 
 30 H        5.2130    -0.2310    -1.3760 H     1 <1>   0.0800 
 31 H       -4.1400    -1.3400    -0.9460 H     1 <1>   0.4500 
 32 H       -4.9260     0.8150     0.6920 H     1 <1>   0.0800 
 33 H       -6.1030    -0.4730     0.7580 H     1 <1>   0.0800 
 34 H       -4.7910    -2.0690     1.8200 H     1 <1>   0.0800 
 35 H       -3.6060    -2.9270     0.8650 H     1 <1>   0.0800 
 36 H       -4.9980     0.7350    -1.8010 H     1 <1>   0.0800 
 37 H       -6.5720     1.0260    -1.1210 H     1 <1>   0.0800 
 38 H       -6.1810    -0.5620    -1.7110 H     1 <1>   0.0800 
 39 H       -6.5210    -2.5630     0.1010 H     1 <1>   0.0800 
 40 H       -5.7550    -4.0230     0.6420 H     1 <1>   0.0800 
 41 H       -5.3030    -3.3490    -0.8950 H     1 <1>   0.0800 
@<TRIPOS>BOND
  1   1   2  1   
  2   1   3  1   
  3   2   4  1   
  4   2   5  2   
  5   3   6  2   
  6   3   7  1   
  7   4   8  1   
  8   5   6  1   
  9   5   9  1   
 10   6  19  1   
 11   7  10  1   
 12   7  20  1   
 13   7  21  1   
 14   8  11  1   
 15   8  22  1   
 16   8  23  1   
 17   9  12  1   
 18   9  24  1   
 19   9  25  1   
 20  10  13  1   
 21  10  26  1   
 22  10  27  1   
 23  11  28  1   
 24  11  29  1   
 25  11  30  1   
 26  12  14  2   
 27  13  15  1   
 28  13  16  1   
 29  13  31  1   
 30  15  17  1   
 31  15  32  1   
 32  15  33  1   
 33  16  18  1   
 34  16  34  1   
 35  16  35  1   
 36  17  36  1   
 37  17  37  1   
 38  17  38  1   
 39  18  39  1   
 40  18  40  1   
 41  18  41  1   
@<TRIPOS>SUBSTRUCTURE
  1 ****   3 GROUP 4 **** **** 0

# MOE 2024.06 (io_trps.svl 2023.06)
