@<TRIPOS>MOLECULE
NONAME
58 60 1 0 0 
SMALL
USER_CHARGES


@<TRIPOS>ATOM
  1 O       -1.9220     1.7160    -1.2890 O.3   1 <1>  -0.3630 
  2 C       -2.3370     1.4520    -0.0170 C.ar  1 <1>   0.0830 
  3 C       -0.6370     2.1970    -1.6070 C.3   1 <1>   0.1200 
  4 C       -1.6450     1.7180     1.1790 C.ar  1 <1>   0.0820 
  5 C       -3.5870     0.8600     0.0400 C.ar  1 <1>  -0.1500 
  6 C       -0.5220     2.2650    -3.1270 C.3   1 <1>  -0.2400 
  7 O       -0.4120     2.3020     1.1490 O.3   1 <1>  -0.3620 
  8 C       -2.2470     1.3790     2.3890 C.ar  1 <1>  -0.1500 
  9 C       -4.1840     0.5370     1.2480 C.ar  1 <1>  -0.1440 
 10 C        0.4040     2.4170     2.2960 C.3   1 <1>   0.0400 
 11 C       -3.5020     0.7960     2.4250 C.ar  1 <1>  -0.1500 
 12 C       -5.5690    -0.0760     1.2710 C.3   1 <1>   0.4860 
 13 N       -6.5330     0.9250     0.7460 N.4   1 <1>  -0.9590 
 14 C       -6.5780     2.1700     1.6010 C.3   1 <1>   0.3430 
 15 C       -7.9130     0.3510     0.5630 C.3   1 <1>   0.3430 
 16 C       -7.5620     3.2210     1.0520 C.3   1 <1>   0.2090 
 17 C       -8.9080     1.3880     0.0030 C.3   1 <1>   0.2090 
 18 N       -8.9170     2.6290     0.8320 N.pl3 1 <1>  -0.8380 
 19 C       -9.8970     3.5610     0.4600 C.ar  1 <1>   0.1000 
 20 C       -9.8940     4.2560    -0.7640 C.ar  1 <1>   0.0830 
 21 C      -10.9230     3.8020     1.3620 C.ar  1 <1>  -0.1500 
 22 O       -8.8750     4.0110    -1.6470 O.3   1 <1>  -0.3620 
 23 C      -10.9140     5.1620    -1.0430 C.ar  1 <1>  -0.1500 
 24 C      -11.9310     4.7040     1.0780 C.ar  1 <1>  -0.1500 
 25 C       -8.7740     4.7140    -2.8640 C.3   1 <1>   0.1200 
 26 C      -11.9270     5.3840    -0.1250 C.ar  1 <1>  -0.1500 
 27 C       -7.5170     4.2350    -3.5830 C.3   1 <1>  -0.2400 
 28 H        0.0930     1.5190    -1.2000 H     1 <1>   0.0800 
 29 H       -0.5230     3.1760    -1.1740 H     1 <1>   0.0800 
 30 H       -4.0790     0.6560    -0.8950 H     1 <1>   0.1500 
 31 H       -0.6490     1.2860    -3.5520 H     1 <1>   0.0800 
 32 H        0.4500     2.6330    -3.3990 H     1 <1>   0.0800 
 33 H       -1.2650     2.9320    -3.5250 H     1 <1>   0.0800 
 34 H       -1.7530     1.5630     3.3250 H     1 <1>   0.1500 
 35 H        1.3480     2.8310     1.9920 H     1 <1>   0.0800 
 36 H        0.5550     1.4400     2.7190 H     1 <1>   0.0800 
 37 H       -0.0710     3.0770     3.0000 H     1 <1>   0.0800 
 38 H       -3.9320     0.5490     3.3810 H     1 <1>   0.1500 
 39 H       -5.8330    -0.3570     2.2770 H     1 <1>   0.0800 
 40 H       -5.5770    -0.9600     0.6540 H     1 <1>   0.0800 
 41 H       -6.1880     1.2260    -0.1740 H     1 <1>   0.4500 
 42 H       -5.5960     2.6120     1.6600 H     1 <1>   0.0800 
 43 H       -6.8860     1.9120     2.6010 H     1 <1>   0.0800 
 44 H       -8.2910     0.0080     1.5120 H     1 <1>   0.0800 
 45 H       -7.8760    -0.4930    -0.1060 H     1 <1>   0.0800 
 46 H       -7.1800     3.6220     0.1300 H     1 <1>   0.0800 
 47 H       -7.6440     4.0340     1.7540 H     1 <1>   0.0800 
 48 H       -9.8980     0.9650    -0.0050 H     1 <1>   0.0800 
 49 H       -8.6450     1.6250    -1.0130 H     1 <1>   0.0800 
 50 H      -10.9260     3.2730     2.2970 H     1 <1>   0.1500 
 51 H      -10.9480     5.7090    -1.9650 H     1 <1>   0.1500 
 52 H      -12.7180     4.8760     1.7920 H     1 <1>   0.1500 
 53 H       -8.7100     5.7670    -2.6470 H     1 <1>   0.0800 
 54 H       -9.6510     4.5070    -3.4530 H     1 <1>   0.0800 
 55 H      -12.7120     6.0860    -0.3470 H     1 <1>   0.1500 
 56 H       -6.6470     4.4370    -2.9840 H     1 <1>   0.0800 
 57 H       -7.4140     4.7560    -4.5170 H     1 <1>   0.0800 
 58 H       -7.5830     3.1820    -3.7860 H     1 <1>   0.0800 
@<TRIPOS>BOND
  1   1   2  1   
  2   1   3  1   
  3   2   4  ar  
  4   2   5  ar  
  5   3   6  1   
  6   3  28  1   
  7   3  29  1   
  8   4   7  1   
  9   4   8  ar  
 10   5   9  ar  
 11   5  30  1   
 12   6  31  1   
 13   6  32  1   
 14   6  33  1   
 15   7  10  1   
 16   8  11  ar  
 17   8  34  1   
 18   9  11  ar  
 19   9  12  1   
 20  10  35  1   
 21  10  36  1   
 22  10  37  1   
 23  11  38  1   
 24  12  13  1   
 25  12  39  1   
 26  12  40  1   
 27  13  14  1   
 28  13  15  1   
 29  13  41  1   
 30  14  16  1   
 31  14  42  1   
 32  14  43  1   
 33  15  17  1   
 34  15  44  1   
 35  15  45  1   
 36  16  18  1   
 37  16  46  1   
 38  16  47  1   
 39  17  18  1   
 40  17  48  1   
 41  17  49  1   
 42  18  19  1   
 43  19  20  ar  
 44  19  21  ar  
 45  20  22  1   
 46  20  23  ar  
 47  21  24  ar  
 48  21  50  1   
 49  22  25  1   
 50  23  26  ar  
 51  23  51  1   
 52  24  26  ar  
 53  24  52  1   
 54  25  27  1   
 55  25  53  1   
 56  25  54  1   
 57  26  55  1   
 58  27  56  1   
 59  27  57  1   
 60  27  58  1   
@<TRIPOS>SUBSTRUCTURE
  1 ****  14 GROUP 4 **** **** 0

# MOE 2024.06 (io_trps.svl 2023.06)
