@<TRIPOS>MOLECULE
NONAME
49 50 1 0 0 
SMALL
USER_CHARGES


@<TRIPOS>ATOM
  1 CL       0.9230     2.2810    -3.4060 Cl    1 <1>  -0.1770 
  2 C        2.0610     2.4020    -2.0900 C.ar  1 <1>   0.1770 
  3 C        3.3190     1.8480    -2.2270 C.ar  1 <1>  -0.1500 
  4 C        1.6910     3.0490    -0.9280 C.ar  1 <1>  -0.1500 
  5 C        4.2180     1.9490    -1.1780 C.ar  1 <1>  -0.1500 
  6 C        2.6010     3.1430     0.1130 C.ar  1 <1>  -0.1500 
  7 C        3.8790     2.5990     0.0060 C.ar  1 <1>  -0.0090 
  8 S        5.0680     2.7210     1.3730 S.o2  1 <1>   1.4470 
  9 O        4.6810     3.7840     2.2770 O.2   1 <1>  -0.6500 
 10 O        5.3140     1.3970     1.9010 O.2   1 <1>  -0.6500 
 11 N        6.4900     3.2340     0.6030 N.am  1 <1>  -0.8490 
 12 C        7.6710     2.9870     1.4350 C.3   1 <1>   0.1960 
 13 C        6.4120     4.6360     0.1800 C.3   1 <1>   0.1960 
 14 C        8.9480     3.3120     0.6560 C.3   1 <1>  -0.1600 
 15 C        7.6410     5.0060    -0.6520 C.3   1 <1>  -0.1600 
 16 C        8.9400     4.7580     0.1350 C.3   1 <1>  -0.0190 
 17 C       10.1810     5.0550    -0.7050 C.2   1 <1>   0.5690 
 18 O       10.3150     4.5180    -1.7780 O.2   1 <1>  -0.5700 
 19 N       11.1060     5.9200    -0.2130 N.am  1 <1>  -0.7300 
 20 C       12.3640     6.2940    -0.8950 C.3   1 <1>   0.1400 
 21 C       13.5390     6.0320     0.0510 C.3   1 <1>  -0.1600 
 22 C       14.9070     6.2890    -0.6060 C.3   1 <1>  -0.0800 
 23 C       16.0280     5.8680     0.3510 C.3   1 <1>  -0.2400 
 24 C       15.0950     7.7620    -0.9950 C.3   1 <1>  -0.2400 
 25 H        3.5870     1.3450    -3.1390 H     1 <1>   0.1500 
 26 H        0.7060     3.4720    -0.8420 H     1 <1>   0.1500 
 27 H        5.2020     1.5180    -1.2760 H     1 <1>   0.1500 
 28 H        2.3150     3.6460     1.0230 H     1 <1>   0.1500 
 29 H        7.7030     1.9480     1.7230 H     1 <1>   0.0800 
 30 H        7.6160     3.5820     2.3320 H     1 <1>   0.0800 
 31 H        6.3470     5.2780     1.0440 H     1 <1>   0.0800 
 32 H        5.5290     4.7870    -0.4180 H     1 <1>   0.0800 
 33 H        9.0310     2.6280    -0.1720 H     1 <1>   0.0800 
 34 H        9.8020     3.1600     1.2910 H     1 <1>   0.0800 
 35 H        7.5830     6.0410    -0.9380 H     1 <1>   0.0800 
 36 H        7.6410     4.4170    -1.5530 H     1 <1>   0.0800 
 37 H        8.9430     5.4180     0.9830 H     1 <1>   0.0800 
 38 H       10.9600     6.3560     0.6960 H     1 <1>   0.3700 
 39 H       12.3180     7.3340    -1.1660 H     1 <1>   0.0800 
 40 H       12.4830     5.7120    -1.7950 H     1 <1>   0.0800 
 41 H       13.4960     5.0020     0.3590 H     1 <1>   0.0800 
 42 H       13.4400     6.6520     0.9250 H     1 <1>   0.0800 
 43 H       14.9840     5.6860    -1.4960 H     1 <1>   0.0800 
 44 H       15.9930     6.4480     1.2570 H     1 <1>   0.0800 
 45 H       16.9890     6.0120    -0.1120 H     1 <1>   0.0800 
 46 H       15.9320     4.8270     0.6050 H     1 <1>   0.0800 
 47 H       14.9730     8.4000    -0.1370 H     1 <1>   0.0800 
 48 H       14.3880     8.0550    -1.7490 H     1 <1>   0.0800 
 49 H       16.0820     7.9160    -1.3960 H     1 <1>   0.0800 
@<TRIPOS>BOND
  1   1   2  1   
  2   2   3  ar  
  3   2   4  ar  
  4   3   5  ar  
  5   3  25  1   
  6   4   6  ar  
  7   4  26  1   
  8   5   7  ar  
  9   5  27  1   
 10   6   7  ar  
 11   6  28  1   
 12   7   8  1   
 13   8   9  2   
 14   8  10  2   
 15   8  11  am  
 16  11  12  1   
 17  11  13  1   
 18  12  14  1   
 19  12  29  1   
 20  12  30  1   
 21  13  15  1   
 22  13  31  1   
 23  13  32  1   
 24  14  16  1   
 25  14  33  1   
 26  14  34  1   
 27  15  16  1   
 28  15  35  1   
 29  15  36  1   
 30  16  17  1   
 31  16  37  1   
 32  17  18  2   
 33  17  19  am  
 34  19  20  1   
 35  19  38  1   
 36  20  21  1   
 37  20  39  1   
 38  20  40  1   
 39  21  22  1   
 40  21  41  1   
 41  21  42  1   
 42  22  23  1   
 43  22  24  1   
 44  22  43  1   
 45  23  44  1   
 46  23  45  1   
 47  23  46  1   
 48  24  47  1   
 49  24  48  1   
 50  24  49  1   
@<TRIPOS>SUBSTRUCTURE
  1 ****  15 GROUP 4 **** **** 0

# MOE 2024.06 (io_trps.svl 2023.06)
