@<TRIPOS>MOLECULE
NONAME
34 35 1 0 0 
SMALL
USER_CHARGES


@<TRIPOS>ATOM
  1 N       -1.8920    -2.9710    -0.3280 N.4   1 <1>  -0.9060 
  2 C       -0.6530    -2.2060    -0.0290 C.3   1 <1>   0.4230 
  3 C       -3.0390    -2.5750     0.5340 C.3   1 <1>   0.3430 
  4 C       -0.9240    -0.7100    -0.2560 C.3   1 <1>  -0.1600 
  5 C        0.5040    -2.7320    -0.8910 C.3   1 <1>  -0.0170 
  6 C       -3.3550    -1.0960     0.3120 C.3   1 <1>  -0.1600 
  7 C       -2.1250    -0.2120     0.5610 C.3   1 <1>  -0.1600 
  8 C        1.8120    -2.0740    -0.4870 C.ar  1 <1>  -0.1430 
  9 C        2.4620    -2.4720     0.6710 C.ar  1 <1>  -0.1500 
 10 C        2.3640    -1.0670    -1.2620 C.ar  1 <1>  -0.1500 
 11 C        3.6440    -1.8620     1.0530 C.ar  1 <1>  -0.1500 
 12 C        3.5450    -0.4580    -0.8780 C.ar  1 <1>  -0.1500 
 13 C        4.1910    -0.8510     0.2810 C.ar  1 <1>  -0.1430 
 14 C        5.4870    -0.1800     0.7020 C.3   1 <1>  -0.0970 
 15 H       -1.7100    -3.9760    -0.2230 H     1 <1>   0.4500 
 16 H       -2.1460    -2.8020    -1.3080 H     1 <1>   0.4500 
 17 H       -0.3920    -2.3500     1.0070 H     1 <1>   0.0800 
 18 H       -2.7900    -2.7380     1.5710 H     1 <1>   0.0800 
 19 H       -3.9070    -3.1700     0.2960 H     1 <1>   0.0800 
 20 H       -1.0920    -0.5220    -1.3030 H     1 <1>   0.0800 
 21 H       -0.0570    -0.1410     0.0350 H     1 <1>   0.0800 
 22 H        0.3120    -2.5420    -1.9320 H     1 <1>   0.0800 
 23 H        0.6090    -3.7940    -0.7560 H     1 <1>   0.0800 
 24 H       -4.1450    -0.8000     0.9820 H     1 <1>   0.0800 
 25 H       -3.7160    -0.9500    -0.6920 H     1 <1>   0.0800 
 26 H       -2.3480     0.8090     0.2970 H     1 <1>   0.0800 
 27 H       -1.8760    -0.2290     1.6090 H     1 <1>   0.0800 
 28 H        2.0660    -3.2590     1.2880 H     1 <1>   0.1500 
 29 H        1.8860    -0.7430    -2.1710 H     1 <1>   0.1500 
 30 H        4.1400    -2.1770     1.9550 H     1 <1>   0.1500 
 31 H        3.9630     0.3250    -1.4870 H     1 <1>   0.1500 
 32 H        6.0980    -0.8610     1.2660 H     1 <1>   0.0800 
 33 H        5.2710     0.6790     1.3100 H     1 <1>   0.0800 
 34 H        6.0430     0.1360    -0.1620 H     1 <1>   0.0800 
@<TRIPOS>BOND
  1   1   2  1   
  2   1   3  1   
  3   1  15  1   
  4   1  16  1   
  5   2   4  1   
  6   2   5  1   
  7   2  17  1   
  8   3   6  1   
  9   3  18  1   
 10   3  19  1   
 11   4   7  1   
 12   4  20  1   
 13   4  21  1   
 14   5   8  1   
 15   5  22  1   
 16   5  23  1   
 17   6   7  1   
 18   6  24  1   
 19   6  25  1   
 20   7  26  1   
 21   7  27  1   
 22   8   9  ar  
 23   8  10  ar  
 24   9  11  ar  
 25   9  28  1   
 26  10  12  ar  
 27  10  29  1   
 28  11  13  ar  
 29  11  30  1   
 30  12  13  ar  
 31  12  31  1   
 32  13  14  1   
 33  14  32  1   
 34  14  33  1   
 35  14  34  1   
@<TRIPOS>SUBSTRUCTURE
  1 ****   8 GROUP 4 **** **** 0

# MOE 2024.06 (io_trps.svl 2023.06)
