@<TRIPOS>MOLECULE
NONAME
41 42 1 0 0 
SMALL
USER_CHARGES


@<TRIPOS>ATOM
  1 BR       1.7200     0.0340    -0.3720 Br    1 <1>  -0.1110 
  2 C        1.2190     1.8310     0.1250 C.ar  1 <1>   0.1110 
  3 C        2.1930     2.8130     0.2400 C.ar  1 <1>   0.0820 
  4 C       -0.1170     2.0950     0.3580 C.ar  1 <1>  -0.1500 
  5 O        3.4960     2.5490     0.0080 O.3   1 <1>  -0.3630 
  6 C        1.8090     4.0890     0.6140 C.ar  1 <1>  -0.1500 
  7 C       -0.5020     3.3790     0.7230 C.ar  1 <1>  -0.1440 
  8 C        3.9140     2.6640    -1.3450 C.3   1 <1>   0.1810 
  9 C        0.4710     4.3660     0.8500 C.ar  1 <1>  -0.1500 
 10 C       -1.9760     3.6820     0.9810 C.3   1 <1>   0.0630 
 11 C        5.3630     2.2230    -1.5200 C.2   1 <1>   0.5690 
 12 C       -2.4960     4.7360    -0.0020 C.3   1 <1>  -0.2400 
 13 C       -2.1970     4.1310     2.4280 C.3   1 <1>  -0.2400 
 14 O        5.9330     2.4970    -2.5490 O.2   1 <1>  -0.5700 
 15 N        5.9830     1.5400    -0.5260 N.am  1 <1>  -0.7300 
 16 C        7.4060     1.1260    -0.5340 C.3   1 <1>   0.2840 
 17 C        8.2310     2.0460     0.3560 C.ar  1 <1>   0.1670 
 18 N        8.5160     1.6120     1.5780 N.ar  1 <1>  -0.6200 
 19 C        8.6350     3.2750    -0.1450 C.ar  1 <1>  -0.1500 
 20 C        9.2330     2.4370     2.3240 C.ar  1 <1>   0.1600 
 21 C        9.3820     4.1220     0.6450 C.ar  1 <1>  -0.1500 
 22 C        9.6840     3.6800     1.9140 C.ar  1 <1>  -0.1500 
 23 H       -0.8380     1.3050     0.2550 H     1 <1>   0.1500 
 24 H        2.5520     4.8580     0.7220 H     1 <1>   0.1500 
 25 H        3.8130     3.6900    -1.6440 H     1 <1>   0.0800 
 26 H        3.2810     2.0480    -1.9550 H     1 <1>   0.0800 
 27 H        0.1890     5.3640     1.1380 H     1 <1>   0.1500 
 28 H       -2.5470     2.7820     0.8270 H     1 <1>   0.0800 
 29 H       -1.9960     5.6770     0.1420 H     1 <1>   0.0800 
 30 H       -3.5520     4.8840     0.1350 H     1 <1>   0.0800 
 31 H       -2.3250     4.4090    -1.0130 H     1 <1>   0.0800 
 32 H       -1.6910     5.0590     2.6250 H     1 <1>   0.0800 
 33 H       -1.8200     3.3850     3.1040 H     1 <1>   0.0800 
 34 H       -3.2470     4.2660     2.6200 H     1 <1>   0.0800 
 35 H        5.5050     1.4460     0.3750 H     1 <1>   0.3700 
 36 H        7.7920     1.1590    -1.5380 H     1 <1>   0.0800 
 37 H        7.4840     0.1140    -0.1790 H     1 <1>   0.0800 
 38 H        8.3590     3.5640    -1.1440 H     1 <1>   0.1500 
 39 H        9.4750     2.1040     3.3190 H     1 <1>   0.1500 
 40 H        9.7110     5.0820     0.2860 H     1 <1>   0.1500 
 41 H       10.2630     4.2910     2.5820 H     1 <1>   0.1500 
@<TRIPOS>BOND
  1   1   2  1   
  2   2   3  ar  
  3   2   4  ar  
  4   3   5  1   
  5   3   6  ar  
  6   4   7  ar  
  7   4  23  1   
  8   5   8  1   
  9   6   9  ar  
 10   6  24  1   
 11   7   9  ar  
 12   7  10  1   
 13   8  11  1   
 14   8  25  1   
 15   8  26  1   
 16   9  27  1   
 17  10  12  1   
 18  10  13  1   
 19  10  28  1   
 20  11  14  2   
 21  11  15  am  
 22  12  29  1   
 23  12  30  1   
 24  12  31  1   
 25  13  32  1   
 26  13  33  1   
 27  13  34  1   
 28  15  16  1   
 29  15  35  1   
 30  16  17  1   
 31  16  36  1   
 32  16  37  1   
 33  17  18  ar  
 34  17  19  ar  
 35  18  20  ar  
 36  19  21  ar  
 37  19  38  1   
 38  20  22  ar  
 39  20  39  1   
 40  21  22  ar  
 41  21  40  1   
 42  22  41  1   
@<TRIPOS>SUBSTRUCTURE
  1 ****   5 GROUP 4 **** **** 0

# MOE 2024.06 (io_trps.svl 2023.06)
