@<TRIPOS>MOLECULE
NONAME
34 34 1 0 0 
SMALL
USER_CHARGES


@<TRIPOS>ATOM
  1 F       -0.7850    -0.3910     1.9770 F     1 <1>  -0.1900 
  2 C       -1.8020    -0.8400     1.2940 C.ar  1 <1>   0.1900 
  3 C       -2.5930    -1.8270     1.8470 C.ar  1 <1>  -0.1500 
  4 C       -2.0490    -0.3120     0.0420 C.ar  1 <1>  -0.1500 
  5 C       -3.6740    -2.2980     1.1200 C.ar  1 <1>  -0.1500 
  6 C       -3.1320    -0.7890    -0.6780 C.ar  1 <1>  -0.1500 
  7 C       -3.9510    -1.7770    -0.1400 C.ar  1 <1>  -0.1430 
  8 C       -5.1470    -2.2830    -0.9250 C.3   1 <1>   0.4870 
  9 N       -6.3870    -1.7230    -0.3200 N.4   1 <1>  -0.9590 
 10 C       -7.5940    -2.4390    -0.8540 C.3   1 <1>   0.3430 
 11 C       -6.4490    -0.2430    -0.5220 C.3   1 <1>   0.3430 
 12 C       -8.5360    -2.9070     0.2640 C.3   1 <1>   0.1200 
 13 C       -7.5540     0.3870     0.3270 C.3   1 <1>  -0.1600 
 14 O       -9.5730    -3.5990    -0.3320 O.3   1 <1>  -0.6800 
 15 C       -7.4870     1.9170     0.2590 C.3   1 <1>  -0.2400 
 16 H       -2.3580    -2.2150     2.8230 H     1 <1>   0.1500 
 17 H       -1.4020     0.4520    -0.3530 H     1 <1>   0.1500 
 18 H       -4.2830    -3.0760     1.5500 H     1 <1>   0.1500 
 19 H       -3.3200    -0.3810    -1.6580 H     1 <1>   0.1500 
 20 H       -5.1650    -3.3600    -0.8790 H     1 <1>   0.0800 
 21 H       -5.0660    -1.9880    -1.9590 H     1 <1>   0.0800 
 22 H       -6.3040    -1.8880     0.6900 H     1 <1>   0.4500 
 23 H       -7.2860    -3.3110    -1.4070 H     1 <1>   0.0800 
 24 H       -8.1380    -1.7940    -1.5240 H     1 <1>   0.0800 
 25 H       -6.6150    -0.0150    -1.5630 H     1 <1>   0.0800 
 26 H       -5.5090     0.1990    -0.2300 H     1 <1>   0.0800 
 27 H       -8.9570    -2.0760     0.8020 H     1 <1>   0.0800 
 28 H       -8.0350    -3.5790     0.9390 H     1 <1>   0.0800 
 29 H       -7.4430     0.0880     1.3550 H     1 <1>   0.0800 
 30 H       -8.5210     0.0780    -0.0280 H     1 <1>   0.0800 
 31 H      -10.2270    -3.9190     0.3270 H     1 <1>   0.4000 
 32 H       -6.5430     2.2770     0.6300 H     1 <1>   0.0800 
 33 H       -8.2690     2.3470     0.8610 H     1 <1>   0.0800 
 34 H       -7.6160     2.2620    -0.7530 H     1 <1>   0.0800 
@<TRIPOS>BOND
  1   1   2  1   
  2   2   3  ar  
  3   2   4  ar  
  4   3   5  ar  
  5   3  16  1   
  6   4   6  ar  
  7   4  17  1   
  8   5   7  ar  
  9   5  18  1   
 10   6   7  ar  
 11   6  19  1   
 12   7   8  1   
 13   8   9  1   
 14   8  20  1   
 15   8  21  1   
 16   9  10  1   
 17   9  11  1   
 18   9  22  1   
 19  10  12  1   
 20  10  23  1   
 21  10  24  1   
 22  11  13  1   
 23  11  25  1   
 24  11  26  1   
 25  12  14  1   
 26  12  27  1   
 27  12  28  1   
 28  13  15  1   
 29  13  29  1   
 30  13  30  1   
 31  14  31  1   
 32  15  32  1   
 33  15  33  1   
 34  15  34  1   
@<TRIPOS>SUBSTRUCTURE
  1 ****   7 GROUP 4 **** **** 0

# MOE 2024.06 (io_trps.svl 2023.06)
