@<TRIPOS>MOLECULE
NONAME
44 45 1 0 0 
SMALL
USER_CHARGES


@<TRIPOS>ATOM
  1 O        0.7250    -1.5150    -0.3800 O.3   1 <1>  -0.3630 
  2 C       -0.5500    -1.5210     0.0920 C.ar  1 <1>   0.0830 
  3 C        1.7720    -0.8960     0.3250 C.3   1 <1>   0.1200 
  4 C       -1.5210    -2.1580    -0.6770 C.ar  1 <1>  -0.1440 
  5 C       -0.9140    -0.9230     1.2960 C.ar  1 <1>  -0.1500 
  6 C        3.0520    -1.0820    -0.4930 C.3   1 <1>  -0.1600 
  7 C       -2.8340    -2.1890    -0.2350 C.ar  1 <1>  -0.1500 
  8 C       -1.1540    -2.8190    -1.9970 C.3   1 <1>  -0.0970 
  9 C       -2.2290    -0.9620     1.7260 C.ar  1 <1>  -0.1500 
 10 C        4.2680    -0.4430     0.1940 C.3   1 <1>  -0.1600 
 11 C       -3.1950    -1.5960     0.9640 C.ar  1 <1>  -0.1430 
 12 C        5.5260    -0.6410    -0.6540 C.3   1 <1>   0.3430 
 13 C       -4.6380    -1.6390     1.4320 C.3   1 <1>  -0.0970 
 14 N        6.6890     0.0430    -0.0270 N.4   1 <1>  -0.9590 
 15 C        7.8750     0.0860    -0.9180 C.3   1 <1>   0.3430 
 16 C        7.1600    -0.5820     1.2350 C.3   1 <1>   0.3430 
 17 C        9.0400     0.3780     0.0170 C.3   1 <1>  -0.1600 
 18 C        8.5810    -0.0650     1.4090 C.3   1 <1>  -0.1600 
 19 H        1.8550    -1.3690     1.2880 H     1 <1>   0.0800 
 20 H        1.5320     0.1480     0.4380 H     1 <1>   0.0800 
 21 H       -0.1960    -0.4220     1.9150 H     1 <1>   0.1500 
 22 H        2.9030    -0.6340    -1.4620 H     1 <1>   0.0800 
 23 H        3.2210    -2.1370    -0.6250 H     1 <1>   0.0800 
 24 H       -3.5850    -2.6790    -0.8280 H     1 <1>   0.1500 
 25 H       -0.4230    -3.5890    -1.8270 H     1 <1>   0.0800 
 26 H       -0.7370    -2.0870    -2.6660 H     1 <1>   0.0800 
 27 H       -2.0150    -3.2600    -2.4650 H     1 <1>   0.0800 
 28 H       -2.4980    -0.4950     2.6570 H     1 <1>   0.1500 
 29 H        4.3960    -0.8980     1.1600 H     1 <1>   0.0800 
 30 H        4.0810     0.6100     0.3230 H     1 <1>   0.0800 
 31 H        5.3520    -0.2290    -1.6360 H     1 <1>   0.0800 
 32 H        5.7310    -1.6940    -0.7640 H     1 <1>   0.0800 
 33 H       -5.1000    -2.5620     1.1340 H     1 <1>   0.0800 
 34 H       -5.1840    -0.8200     1.0000 H     1 <1>   0.0800 
 35 H       -4.6900    -1.5650     2.5040 H     1 <1>   0.0800 
 36 H        6.4330     1.0160     0.1840 H     1 <1>   0.4500 
 37 H        7.7760     0.8400    -1.6830 H     1 <1>   0.0800 
 38 H        8.0200    -0.8780    -1.3810 H     1 <1>   0.0800 
 39 H        7.1780    -1.6550     1.1260 H     1 <1>   0.0800 
 40 H        6.5330    -0.3170     2.0720 H     1 <1>   0.0800 
 41 H        9.2560     1.4330     0.0110 H     1 <1>   0.0800 
 42 H        9.9210    -0.1510    -0.3030 H     1 <1>   0.0800 
 43 H        9.2140    -0.8380     1.8110 H     1 <1>   0.0800 
 44 H        8.5870     0.7680     2.0910 H     1 <1>   0.0800 
@<TRIPOS>BOND
  1   1   2  1   
  2   1   3  1   
  3   2   4  ar  
  4   2   5  ar  
  5   3   6  1   
  6   3  19  1   
  7   3  20  1   
  8   4   7  ar  
  9   4   8  1   
 10   5   9  ar  
 11   5  21  1   
 12   6  10  1   
 13   6  22  1   
 14   6  23  1   
 15   7  11  ar  
 16   7  24  1   
 17   8  25  1   
 18   8  26  1   
 19   8  27  1   
 20   9  11  ar  
 21   9  28  1   
 22  10  12  1   
 23  10  29  1   
 24  10  30  1   
 25  11  13  1   
 26  12  14  1   
 27  12  31  1   
 28  12  32  1   
 29  13  33  1   
 30  13  34  1   
 31  13  35  1   
 32  14  15  1   
 33  14  16  1   
 34  14  36  1   
 35  15  17  1   
 36  15  37  1   
 37  15  38  1   
 38  16  18  1   
 39  16  39  1   
 40  16  40  1   
 41  17  18  1   
 42  17  41  1   
 43  17  42  1   
 44  18  43  1   
 45  18  44  1   
@<TRIPOS>SUBSTRUCTURE
  1 ****   3 GROUP 4 **** **** 0

# MOE 2024.06 (io_trps.svl 2023.06)
