@<TRIPOS>MOLECULE
NONAME
55 57 1 0 0 
SMALL
USER_CHARGES


@<TRIPOS>ATOM
  1 S       -0.4820    -0.4460    -0.4310 S.3   1 <1>  -0.0800 
  2 C        0.4620     0.9940    -0.0680 C.2   1 <1>   0.1040 
  3 C       -1.9710     0.4680    -0.3830 C.2   1 <1>  -0.1400 
  4 N        1.8440     0.9210     0.0390 N.am  1 <1>  -0.4940 
  5 C       -0.3450     2.0950     0.0690 C.2   1 <1>  -0.0860 
  6 C       -1.7430     1.7540    -0.0980 C.2   1 <1>  -0.1810 
  7 C       -3.3080    -0.1950    -0.6390 C.3   1 <1>   0.3000 
  8 C        2.7370    -0.1100    -0.0740 C.2   1 <1>   0.5690 
  9 C        0.1750     3.4130     0.3320 C.2   1 <1>   0.8060 
 10 C       -2.9520     2.6750     0.0020 C.3   1 <1>   0.0210 
 11 O       -4.3020     0.7950    -0.7620 O.3   1 <1>  -0.5600 
 12 O        2.4420    -1.2530    -0.3130 O.2   1 <1>  -0.5700 
 13 C        4.2030     0.2170     0.1150 C.3   1 <1>  -0.0990 
 14 O        1.3630     3.6230     0.5210 O.2   1 <1>  -0.5700 
 15 O       -0.6630     4.4540     0.3620 O.3   1 <1>  -0.4300 
 16 C       -4.2800     1.8770     0.1330 C.3   1 <1>   0.2800 
 17 C        5.0140    -1.0790     0.1880 C.3   1 <1>   0.3430 
 18 C       -0.2160     5.7700     0.6000 C.3   1 <1>   0.1200 
 19 C       -4.5020     1.3510     1.5600 C.3   1 <1>  -0.2400 
 20 C       -5.4670     2.7570    -0.2630 C.3   1 <1>  -0.2400 
 21 N        6.4690    -0.8130     0.3980 N.4   1 <1>  -0.9590 
 22 C       -1.4310     6.6910     0.5720 C.3   1 <1>  -0.2400 
 23 C        7.1510    -0.1950    -0.7680 C.3   1 <1>   0.3430 
 24 C        7.2210    -2.0610     0.6800 C.3   1 <1>   0.3430 
 25 C        8.6270    -0.4940    -0.5470 C.3   1 <1>  -0.1600 
 26 C        8.6720    -1.7030     0.3910 C.3   1 <1>  -0.1600 
 27 H        2.2570     1.8380     0.2470 H     1 <1>   0.3700 
 28 H       -3.5720    -0.8550     0.1680 H     1 <1>   0.0800 
 29 H       -3.2850    -0.7510    -1.5590 H     1 <1>   0.0800 
 30 H       -2.9850     3.2940    -0.8770 H     1 <1>   0.0800 
 31 H       -2.8620     3.3200     0.8560 H     1 <1>   0.0800 
 32 H        4.3170     0.7730     1.0270 H     1 <1>   0.0800 
 33 H        4.5200     0.8140    -0.7190 H     1 <1>   0.0800 
 34 H        4.8680    -1.6420    -0.7200 H     1 <1>   0.0800 
 35 H        4.6330    -1.6750     1.0030 H     1 <1>   0.0800 
 36 H        0.4890     6.0380    -0.1700 H     1 <1>   0.0800 
 37 H        0.2690     5.8000     1.5620 H     1 <1>   0.0800 
 38 H       -3.6530     0.7910     1.9070 H     1 <1>   0.0800 
 39 H       -5.3790     0.7290     1.5950 H     1 <1>   0.0800 
 40 H       -4.6450     2.1740     2.2360 H     1 <1>   0.0800 
 41 H       -5.5230     3.6210     0.3730 H     1 <1>   0.0800 
 42 H       -6.3850     2.2040    -0.1710 H     1 <1>   0.0800 
 43 H       -5.3620     3.0870    -1.2810 H     1 <1>   0.0800 
 44 H        6.5970    -0.1930     1.2080 H     1 <1>   0.4500 
 45 H       -1.9120     6.6440    -0.3890 H     1 <1>   0.0800 
 46 H       -1.1210     7.7050     0.7490 H     1 <1>   0.0800 
 47 H       -2.1300     6.4090     1.3400 H     1 <1>   0.0800 
 48 H        6.9630     0.8650    -0.8290 H     1 <1>   0.0800 
 49 H        6.8210    -0.6710    -1.6780 H     1 <1>   0.0800 
 50 H        6.9020    -2.8400     0.0060 H     1 <1>   0.0800 
 51 H        7.0840    -2.3900     1.6980 H     1 <1>   0.0800 
 52 H        9.1070     0.3550    -0.0900 H     1 <1>   0.0800 
 53 H        9.1140    -0.6960    -1.4850 H     1 <1>   0.0800 
 54 H        9.1820    -2.5390    -0.0580 H     1 <1>   0.0800 
 55 H        9.1760    -1.4500     1.3080 H     1 <1>   0.0800 
@<TRIPOS>BOND
  1   1   2  1   
  2   1   3  1   
  3   2   4  1   
  4   2   5  2   
  5   3   6  2   
  6   3   7  1   
  7   4   8  am  
  8   4  27  1   
  9   5   6  1   
 10   5   9  1   
 11   6  10  1   
 12   7  11  1   
 13   7  28  1   
 14   7  29  1   
 15   8  12  2   
 16   8  13  1   
 17   9  14  2   
 18   9  15  1   
 19  10  16  1   
 20  10  30  1   
 21  10  31  1   
 22  11  16  1   
 23  13  17  1   
 24  13  32  1   
 25  13  33  1   
 26  15  18  1   
 27  16  19  1   
 28  16  20  1   
 29  17  21  1   
 30  17  34  1   
 31  17  35  1   
 32  18  22  1   
 33  18  36  1   
 34  18  37  1   
 35  19  38  1   
 36  19  39  1   
 37  19  40  1   
 38  20  41  1   
 39  20  42  1   
 40  20  43  1   
 41  21  23  1   
 42  21  24  1   
 43  21  44  1   
 44  22  45  1   
 45  22  46  1   
 46  22  47  1   
 47  23  25  1   
 48  23  48  1   
 49  23  49  1   
 50  24  26  1   
 51  24  50  1   
 52  24  51  1   
 53  25  26  1   
 54  25  52  1   
 55  25  53  1   
 56  26  54  1   
 57  26  55  1   
@<TRIPOS>SUBSTRUCTURE
  1 ****   2 GROUP 4 **** **** 0

# MOE 2024.06 (io_trps.svl 2023.06)
