@<TRIPOS>MOLECULE
NONAME
38 40 1 0 0 
SMALL
USER_CHARGES


@<TRIPOS>ATOM
  1 CL      -0.6540    -0.8330     1.6890 Cl    1 <1>  -0.1770 
  2 C        0.1530    -1.9870     0.6490 C.ar  1 <1>   0.1770 
  3 C       -0.5800    -2.6760    -0.3160 C.ar  1 <1>   0.1170 
  4 C        1.5100    -2.1860     0.8140 C.ar  1 <1>  -0.1500 
  5 N       -1.9600    -2.4620    -0.4710 N.am  1 <1>  -0.5470 
  6 C        0.1030    -3.5690    -1.1350 C.ar  1 <1>  -0.1500 
  7 C        2.1690    -3.0900    -0.0030 C.ar  1 <1>  -0.1500 
  8 C       -3.0140    -3.3220    -0.4730 C.2   1 <1>   0.5690 
  9 C        1.4630    -3.7780    -0.9770 C.ar  1 <1>  -0.1500 
 10 O       -4.1190    -2.8870    -0.6750 O.2   1 <1>  -0.5700 
 11 C       -2.8380    -4.8200    -0.1970 C.3   1 <1>  -0.0190 
 12 C       -3.1410    -5.6590    -1.4630 C.3   1 <1>  -0.1600 
 13 C       -3.7030    -5.2770     1.0030 C.3   1 <1>  -0.1600 
 14 C       -3.0960    -7.1790    -1.1950 C.3   1 <1>  -0.0190 
 15 C       -3.6520    -6.8040     1.2300 C.3   1 <1>  -0.0190 
 16 C       -4.0640    -7.4820    -0.0640 C.2   1 <1>   0.4480 
 17 C       -1.6680    -7.6610    -0.8270 C.3   1 <1>  -0.1600 
 18 C       -2.2390    -7.2800     1.6620 C.3   1 <1>  -0.1600 
 19 O       -5.0320    -8.1740    -0.1800 O.2   1 <1>  -0.5700 
 20 C       -1.5520    -8.1880     0.6200 C.3   1 <1>  -0.1600 
 21 H        2.0440    -1.6400     1.5710 H     1 <1>   0.1500 
 22 H       -2.2630    -1.4850    -0.4760 H     1 <1>   0.3700 
 23 H       -0.4280    -4.0970    -1.9050 H     1 <1>   0.1500 
 24 H        3.2270    -3.2550     0.1170 H     1 <1>   0.1500 
 25 H        1.9790    -4.4750    -1.6170 H     1 <1>   0.1500 
 26 H       -1.8150    -4.9840     0.0760 H     1 <1>   0.0800 
 27 H       -4.1300    -5.4080    -1.8120 H     1 <1>   0.0800 
 28 H       -2.4530    -5.4050    -2.2490 H     1 <1>   0.0800 
 29 H       -4.7280    -5.0000     0.8180 H     1 <1>   0.0800 
 30 H       -3.3910    -4.7620     1.8950 H     1 <1>   0.0800 
 31 H       -3.4300    -7.6990    -2.0760 H     1 <1>   0.0800 
 32 H       -4.3630    -7.0660     1.9940 H     1 <1>   0.0800 
 33 H       -0.9530    -6.8710    -0.9730 H     1 <1>   0.0800 
 34 H       -1.3890    -8.4560    -1.4960 H     1 <1>   0.0800 
 35 H       -1.6040    -6.4370     1.8710 H     1 <1>   0.0800 
 36 H       -2.3280    -7.8330     2.5810 H     1 <1>   0.0800 
 37 H       -0.5140    -8.3180     0.8780 H     1 <1>   0.0800 
 38 H       -2.0120    -9.1620     0.6630 H     1 <1>   0.0800 
@<TRIPOS>BOND
  1   1   2  1   
  2   2   3  ar  
  3   2   4  ar  
  4   3   5  1   
  5   3   6  ar  
  6   4   7  ar  
  7   4  21  1   
  8   5   8  am  
  9   5  22  1   
 10   6   9  ar  
 11   6  23  1   
 12   7   9  ar  
 13   7  24  1   
 14   8  10  2   
 15   8  11  1   
 16   9  25  1   
 17  11  12  1   
 18  11  13  1   
 19  11  26  1   
 20  12  14  1   
 21  12  27  1   
 22  12  28  1   
 23  13  15  1   
 24  13  29  1   
 25  13  30  1   
 26  14  16  1   
 27  14  17  1   
 28  14  31  1   
 29  15  16  1   
 30  15  18  1   
 31  15  32  1   
 32  16  19  2   
 33  17  20  1   
 34  17  33  1   
 35  17  34  1   
 36  18  20  1   
 37  18  35  1   
 38  18  36  1   
 39  20  37  1   
 40  20  38  1   
@<TRIPOS>SUBSTRUCTURE
  1 ****  11 GROUP 4 **** **** 0

# MOE 2024.06 (io_trps.svl 2023.06)
