@<TRIPOS>MOLECULE
NONAME
42 42 1 0 0 
SMALL
USER_CHARGES


@<TRIPOS>ATOM
  1 N        0.0550     0.1470    -0.2810 N.4   1 <1>  -0.9590 
  2 C        1.2200    -0.4380    -1.0190 C.3   1 <1>   0.4860 
  3 C       -1.1990    -0.6590    -0.5160 C.3   1 <1>   0.3430 
  4 C       -0.0780     1.6060    -0.6270 C.3   1 <1>   0.2630 
  5 C        2.4830     0.1690    -0.4450 C.ar  1 <1>  -0.1440 
  6 C       -2.4050    -0.2500     0.3810 C.3   1 <1>   0.3430 
  7 C        3.1770     1.1390    -1.1530 C.ar  1 <1>  -0.1500 
  8 C        2.9530    -0.2370     0.7960 C.ar  1 <1>  -0.1500 
  9 N       -3.6680    -1.0490     0.1460 N.4   1 <1>  -0.9590 
 10 C        4.3170     1.7100    -0.6150 C.ar  1 <1>  -0.1500 
 11 C        4.0930     0.3380     1.3280 C.ar  1 <1>  -0.1500 
 12 C       -4.8090    -0.4520     0.9210 C.3   1 <1>   0.2630 
 13 C       -3.5430    -2.5000     0.5180 C.3   1 <1>   0.2630 
 14 C        4.7790     1.3170     0.6290 C.ar  1 <1>  -0.1430 
 15 C        6.0340     1.9440     1.2160 C.3   1 <1>  -0.0170 
 16 C        7.2750     1.1500     0.8010 C.3   1 <1>  -0.2400 
 17 H        0.3520     0.1000     0.7080 H     1 <1>   0.4500 
 18 H        1.1520    -0.2250    -2.0730 H     1 <1>   0.0800 
 19 H        1.2570    -1.5070    -0.8840 H     1 <1>   0.0800 
 20 H       -0.9780    -1.6980    -0.3310 H     1 <1>   0.0800 
 21 H       -1.4860    -0.5580    -1.5500 H     1 <1>   0.0800 
 22 H       -0.2990     1.7300    -1.6760 H     1 <1>   0.0800 
 23 H        0.8440     2.1260    -0.4130 H     1 <1>   0.0800 
 24 H       -0.8610     2.0700    -0.0490 H     1 <1>   0.0800 
 25 H       -2.6220     0.7900     0.2000 H     1 <1>   0.0800 
 26 H       -2.1180    -0.3530     1.4150 H     1 <1>   0.0800 
 27 H        2.8510     1.4640    -2.1260 H     1 <1>   0.1500 
 28 H        2.4560    -1.0030     1.3640 H     1 <1>   0.1500 
 29 H       -3.9420    -0.9970    -0.8510 H     1 <1>   0.4500 
 30 H        4.8520     2.4620    -1.1710 H     1 <1>   0.1500 
 31 H        4.4550     0.0180     2.2910 H     1 <1>   0.1500 
 32 H       -4.6090    -0.4890     1.9800 H     1 <1>   0.0800 
 33 H       -5.7200    -0.9980     0.7280 H     1 <1>   0.0800 
 34 H       -4.9670     0.5760     0.6360 H     1 <1>   0.0800 
 35 H       -3.2890    -2.6030     1.5610 H     1 <1>   0.0800 
 36 H       -2.7840    -2.9850    -0.0740 H     1 <1>   0.0800 
 37 H       -4.4780    -3.0100     0.3470 H     1 <1>   0.0800 
 38 H        5.9630     1.9670     2.2890 H     1 <1>   0.0800 
 39 H        6.1270     2.9610     0.8750 H     1 <1>   0.0800 
 40 H        7.2030     0.1370     1.1540 H     1 <1>   0.0800 
 41 H        8.1580     1.5990     1.2190 H     1 <1>   0.0800 
 42 H        7.3670     1.1370    -0.2700 H     1 <1>   0.0800 
@<TRIPOS>BOND
  1   1   2  1   
  2   1   3  1   
  3   1   4  1   
  4   1  17  1   
  5   2   5  1   
  6   2  18  1   
  7   2  19  1   
  8   3   6  1   
  9   3  20  1   
 10   3  21  1   
 11   4  22  1   
 12   4  23  1   
 13   4  24  1   
 14   5   7  ar  
 15   5   8  ar  
 16   6   9  1   
 17   6  25  1   
 18   6  26  1   
 19   7  10  ar  
 20   7  27  1   
 21   8  11  ar  
 22   8  28  1   
 23   9  12  1   
 24   9  13  1   
 25   9  29  1   
 26  10  14  ar  
 27  10  30  1   
 28  11  14  ar  
 29  11  31  1   
 30  12  32  1   
 31  12  33  1   
 32  12  34  1   
 33  13  35  1   
 34  13  36  1   
 35  13  37  1   
 36  14  15  1   
 37  15  16  1   
 38  15  38  1   
 39  15  39  1   
 40  16  40  1   
 41  16  41  1   
 42  16  42  1   
@<TRIPOS>SUBSTRUCTURE
  1 ****   1 GROUP 4 **** **** 0

# MOE 2024.06 (io_trps.svl 2023.06)
