@<TRIPOS>MOLECULE
NONAME
44 46 1 0 0 
SMALL
USER_CHARGES


@<TRIPOS>ATOM
  1 CL      -3.2250    -0.0470     3.6420 Cl    1 <1>  -0.1770 
  2 C       -3.2470     0.8920     2.1730 C.ar  1 <1>   0.1770 
  3 C       -4.1360     0.5490     1.1720 C.ar  1 <1>  -0.1500 
  4 C       -2.3840     1.9610     2.0350 C.ar  1 <1>  -0.1500 
  5 C       -4.1710     1.2970     0.0020 C.ar  1 <1>  -0.1440 
  6 C       -2.4110     2.7010     0.8660 C.ar  1 <1>  -0.1500 
  7 C       -3.2990     2.3700    -0.1450 C.ar  1 <1>  -0.1500 
  8 C       -5.1540     0.9510    -1.1010 C.3   1 <1>   0.4870 
  9 N       -6.5180     1.3500    -0.6610 N.4   1 <1>  -0.9590 
 10 C       -7.5790     0.8730    -1.6230 C.3   1 <1>   0.3430 
 11 C       -6.6200     2.8440    -0.4430 C.3   1 <1>   0.3430 
 12 C       -8.9990     1.2970    -1.1940 C.3   1 <1>   0.2090 
 13 C       -8.0330     3.2830    -0.0070 C.3   1 <1>   0.2090 
 14 N       -9.0640     2.7670    -0.9540 N.pl3 1 <1>  -0.8380 
 15 C      -10.3430     3.2840    -0.7790 C.ar  1 <1>   0.1000 
 16 C      -11.0940     2.9920     0.3520 C.ar  1 <1>  -0.1500 
 17 C      -10.8900     4.1100    -1.7510 C.ar  1 <1>  -0.1500 
 18 C      -12.3660     3.5100     0.5160 C.ar  1 <1>   0.0830 
 19 C      -12.1610     4.6340    -1.5980 C.ar  1 <1>  -0.1500 
 20 O      -13.0200     3.1660     1.6550 O.3   1 <1>  -0.3630 
 21 C      -12.9030     4.3370    -0.4670 C.ar  1 <1>  -0.1500 
 22 C      -14.3210     3.6400     1.9200 C.3   1 <1>   0.0400 
 23 H       -4.7790    -0.2990     1.3270 H     1 <1>   0.1500 
 24 H       -1.7000     2.2050     2.8300 H     1 <1>   0.1500 
 25 H       -1.7350     3.5330     0.7450 H     1 <1>   0.1500 
 26 H       -3.2940     2.9600    -1.0470 H     1 <1>   0.1500 
 27 H       -5.1190    -0.1100    -1.2880 H     1 <1>   0.0800 
 28 H       -4.8880     1.4680    -2.0080 H     1 <1>   0.0800 
 29 H       -6.6860     0.9080     0.2500 H     1 <1>   0.4500 
 30 H       -7.5460    -0.2010    -1.7060 H     1 <1>   0.0800 
 31 H       -7.3920     1.2870    -2.6000 H     1 <1>   0.0800 
 32 H       -6.3800     3.3600    -1.3570 H     1 <1>   0.0800 
 33 H       -5.9120     3.1560     0.3080 H     1 <1>   0.0800 
 34 H       -9.2880     0.7690    -0.3020 H     1 <1>   0.0800 
 35 H       -9.6990     1.0370    -1.9710 H     1 <1>   0.0800 
 36 H       -8.0820     4.3590     0.0150 H     1 <1>   0.0800 
 37 H       -8.2380     2.9250     0.9870 H     1 <1>   0.0800 
 38 H      -10.6960     2.3570     1.1180 H     1 <1>   0.1500 
 39 H      -10.3130     4.3380    -2.6270 H     1 <1>   0.1500 
 40 H      -12.5730     5.2730    -2.3590 H     1 <1>   0.1500 
 41 H      -13.8860     4.7560    -0.3720 H     1 <1>   0.1500 
 42 H      -14.6350     3.2430     2.8690 H     1 <1>   0.0800 
 43 H      -14.9830     3.2970     1.1440 H     1 <1>   0.0800 
 44 H      -14.3000     4.7140     1.9640 H     1 <1>   0.0800 
@<TRIPOS>BOND
  1   1   2  1   
  2   2   3  ar  
  3   2   4  ar  
  4   3   5  ar  
  5   3  23  1   
  6   4   6  ar  
  7   4  24  1   
  8   5   7  ar  
  9   5   8  1   
 10   6   7  ar  
 11   6  25  1   
 12   7  26  1   
 13   8   9  1   
 14   8  27  1   
 15   8  28  1   
 16   9  10  1   
 17   9  11  1   
 18   9  29  1   
 19  10  12  1   
 20  10  30  1   
 21  10  31  1   
 22  11  13  1   
 23  11  32  1   
 24  11  33  1   
 25  12  14  1   
 26  12  34  1   
 27  12  35  1   
 28  13  14  1   
 29  13  36  1   
 30  13  37  1   
 31  14  15  1   
 32  15  16  ar  
 33  15  17  ar  
 34  16  18  ar  
 35  16  38  1   
 36  17  19  ar  
 37  17  39  1   
 38  18  20  1   
 39  18  21  ar  
 40  19  21  ar  
 41  19  40  1   
 42  20  22  1   
 43  21  41  1   
 44  22  42  1   
 45  22  43  1   
 46  22  44  1   
@<TRIPOS>SUBSTRUCTURE
  1 ****  13 GROUP 4 **** **** 0

# MOE 2024.06 (io_trps.svl 2023.06)
