@<TRIPOS>MOLECULE
NONAME
40 40 1 0 0 
SMALL
USER_CHARGES


@<TRIPOS>ATOM
  1 S       -0.1990     0.5340    -1.0610 S.o2  1 <1>   1.4470 
  2 O       -0.4950     1.9480    -1.0230 O.2   1 <1>  -0.6500 
  3 O       -0.3210    -0.1890    -2.3070 O.2   1 <1>  -0.6500 
  4 N       -1.3100    -0.1460     0.0940 N.am  1 <1>  -0.5780 
  5 C        1.4430     0.2680    -0.3350 C.ar  1 <1>  -0.0090 
  6 N       -2.0010    -1.3580     0.0710 N.2   1 <1>  -0.4300 
  7 C        2.5220    -0.0960    -1.1330 C.ar  1 <1>  -0.1500 
  8 C        1.6750     0.4360     1.0260 C.ar  1 <1>  -0.1500 
  9 C       -1.4770    -2.5180    -0.0530 C.2   1 <1>   0.3280 
 10 C        3.7830    -0.2900    -0.5960 C.ar  1 <1>  -0.1500 
 11 C        2.9330     0.2420     1.5700 C.ar  1 <1>  -0.1500 
 12 C       -2.3770    -3.7850    -0.1610 C.3   1 <1>   0.0610 
 13 C        0.0340    -2.7390    -0.1110 C.3   1 <1>  -0.1790 
 14 C        3.9950    -0.1200     0.7610 C.ar  1 <1>  -0.1430 
 15 C       -2.5200    -4.5010     1.2050 C.3   1 <1>  -0.2660 
 16 C       -3.8080    -3.3960    -0.6000 C.3   1 <1>  -0.2400 
 17 C       -1.8650    -4.7660    -1.2390 C.3   1 <1>  -0.2400 
 18 C        5.3710    -0.3390     1.3620 C.3   1 <1>  -0.0970 
 19 C       -1.2350    -4.9940     1.8180 C.2   1 <1>   0.9060 
 20 O       -0.8190    -6.1130     1.5030 O.co2 1 <1>  -0.9000 
 21 O       -0.6390    -4.2620     2.6110 O.co2 1 <1>  -0.9000 
 22 H       -1.8130     0.6300     0.5190 H     1 <1>   0.4200 
 23 H        2.3720    -0.2340    -2.1910 H     1 <1>   0.1500 
 24 H        0.8620     0.7140     1.6740 H     1 <1>   0.1500 
 25 H        4.5950    -0.5770    -1.2400 H     1 <1>   0.1500 
 26 H        3.0780     0.3690     2.6280 H     1 <1>   0.1500 
 27 H        0.3070    -3.7390     0.1630 H     1 <1>   0.0800 
 28 H        0.5210    -2.0960     0.5940 H     1 <1>   0.0800 
 29 H        0.3970    -2.5490    -1.1020 H     1 <1>   0.0800 
 30 H       -3.1680    -5.3500     1.1090 H     1 <1>   0.0800 
 31 H       -2.9630    -3.8280     1.9140 H     1 <1>   0.0800 
 32 H       -4.4260    -4.2690    -0.7110 H     1 <1>   0.0800 
 33 H       -3.7810    -2.8730    -1.5390 H     1 <1>   0.0800 
 34 H       -4.2670    -2.7540     0.1310 H     1 <1>   0.0800 
 35 H       -2.5510    -5.5850    -1.3570 H     1 <1>   0.0800 
 36 H       -0.9150    -5.1920    -0.9700 H     1 <1>   0.0800 
 37 H       -1.7590    -4.2640    -2.1830 H     1 <1>   0.0800 
 38 H        5.4260    -1.3230     1.7910 H     1 <1>   0.0800 
 39 H        5.5610     0.3870     2.1330 H     1 <1>   0.0800 
 40 H        6.1350    -0.2440     0.6110 H     1 <1>   0.0800 
@<TRIPOS>BOND
  1   1   2  2   
  2   1   3  2   
  3   1   4  am  
  4   1   5  1   
  5   4   6  1   
  6   4  22  1   
  7   5   7  ar  
  8   5   8  ar  
  9   6   9  2   
 10   7  10  ar  
 11   7  23  1   
 12   8  11  ar  
 13   8  24  1   
 14   9  12  1   
 15   9  13  1   
 16  10  14  ar  
 17  10  25  1   
 18  11  14  ar  
 19  11  26  1   
 20  12  15  1   
 21  12  16  1   
 22  12  17  1   
 23  13  27  1   
 24  13  28  1   
 25  13  29  1   
 26  14  18  1   
 27  15  19  1   
 28  15  30  1   
 29  15  31  1   
 30  16  32  1   
 31  16  33  1   
 32  16  34  1   
 33  17  35  1   
 34  17  36  1   
 35  17  37  1   
 36  18  38  1   
 37  18  39  1   
 38  18  40  1   
 39  19  20  ar  
 40  19  21  ar  
@<TRIPOS>SUBSTRUCTURE
  1 ****  13 GROUP 4 **** **** 0

# MOE 2024.06 (io_trps.svl 2023.06)
