@<TRIPOS>MOLECULE
NONAME
40 40 1 0 0 
SMALL
USER_CHARGES


@<TRIPOS>ATOM
  1 CL       0.0560    -0.0500     0.6250 Cl    1 <1>  -0.1770 
  2 C        1.7550     0.3460     0.4490 C.ar  1 <1>   0.1770 
  3 C        2.1590     1.6680     0.5860 C.ar  1 <1>  -0.1440 
  4 C        2.6630    -0.6710     0.1760 C.ar  1 <1>  -0.1440 
  5 C        3.5040     1.9670     0.4460 C.ar  1 <1>  -0.1500 
  6 C        1.1590     2.7760     0.8820 C.3   1 <1>  -0.0960 
  7 C        4.0050    -0.3490     0.0400 C.ar  1 <1>  -0.1500 
  8 C        2.2030    -2.1140     0.0270 C.3   1 <1>  -0.0960 
  9 C        4.4290     0.9710     0.1760 C.ar  1 <1>   0.0820 
 10 O        5.7220     1.3650     0.0620 O.3   1 <1>  -0.3630 
 11 C        6.7620     0.4360    -0.1820 C.3   1 <1>   0.1200 
 12 C        8.1280     1.1350    -0.2440 C.3   1 <1>   0.2000 
 13 O        8.1590     1.9800    -1.3500 O.3   1 <1>  -0.6800 
 14 C        9.2710     0.1020    -0.3880 C.3   1 <1>   0.1960 
 15 N       10.5530     0.4320     0.2630 N.am  1 <1>  -0.8490 
 16 S       11.1530     2.0080    -0.0540 S.o2  1 <1>   1.5880 
 17 C       11.5390    -0.6100    -0.0050 C.3   1 <1>   0.1960 
 18 O       10.8190     2.1940    -1.4870 O.co2 1 <1>  -0.8170 
 19 O       12.6030     1.9490     0.2420 O.co2 1 <1>  -0.8170 
 20 O       10.3710     2.8690     0.8630 O.co2 1 <1>  -0.8170 
 21 C       12.1890    -1.0200     1.3130 C.3   1 <1>  -0.2400 
 22 H        3.8600     2.9770     0.5430 H     1 <1>   0.1500 
 23 H        0.6580     2.5790     1.8130 H     1 <1>   0.0800 
 24 H        0.4260     2.8280     0.0970 H     1 <1>   0.0800 
 25 H        1.6500     3.7290     0.9540 H     1 <1>   0.0800 
 26 H        4.7090    -1.1290    -0.1720 H     1 <1>   0.1500 
 27 H        1.7330    -2.4450     0.9360 H     1 <1>   0.0800 
 28 H        3.0300    -2.7650    -0.1860 H     1 <1>   0.0800 
 29 H        1.4930    -2.1900    -0.7770 H     1 <1>   0.0800 
 30 H        6.5640    -0.0620    -1.1140 H     1 <1>   0.0800 
 31 H        6.7570    -0.2730     0.6260 H     1 <1>   0.0800 
 32 H        8.2620     1.7190     0.6500 H     1 <1>   0.0800 
 33 H        9.1020     2.2930    -1.4650 H     1 <1>   0.4000 
 34 H        9.4370    -0.0740    -1.4380 H     1 <1>   0.0800 
 35 H        8.9350    -0.8220     0.0470 H     1 <1>   0.0800 
 36 H       12.2820    -0.2620    -0.7050 H     1 <1>   0.0800 
 37 H       11.0710    -1.4790    -0.4340 H     1 <1>   0.0800 
 38 H       12.6940    -0.1760     1.7500 H     1 <1>   0.0800 
 39 H       12.9100    -1.7950     1.1380 H     1 <1>   0.0800 
 40 H       11.4430    -1.3780     1.9980 H     1 <1>   0.0800 
@<TRIPOS>BOND
  1   1   2  1   
  2   2   3  ar  
  3   2   4  ar  
  4   3   5  ar  
  5   3   6  1   
  6   4   7  ar  
  7   4   8  1   
  8   5   9  ar  
  9   5  22  1   
 10   6  23  1   
 11   6  24  1   
 12   6  25  1   
 13   7   9  ar  
 14   7  26  1   
 15   8  27  1   
 16   8  28  1   
 17   8  29  1   
 18   9  10  1   
 19  10  11  1   
 20  11  12  1   
 21  11  30  1   
 22  11  31  1   
 23  12  13  1   
 24  12  14  1   
 25  12  32  1   
 26  13  33  1   
 27  14  15  1   
 28  14  34  1   
 29  14  35  1   
 30  15  16  am  
 31  15  17  1   
 32  16  18  ar  
 33  16  19  ar  
 34  16  20  ar  
 35  17  21  1   
 36  17  36  1   
 37  17  37  1   
 38  21  38  1   
 39  21  39  1   
 40  21  40  1   
@<TRIPOS>SUBSTRUCTURE
  1 ****  11 GROUP 4 **** **** 0

# MOE 2024.06 (io_trps.svl 2023.06)
