@<TRIPOS>MOLECULE
NONAME
32 32 1 0 0 
SMALL
USER_CHARGES


@<TRIPOS>ATOM
  1 BR       0.3260     0.6460    -1.7180 Br    1 <1>  -0.1110 
  2 C        1.8460     1.3510    -0.7590 C.ar  1 <1>   0.1110 
  3 C        1.9000     2.7010    -0.4440 C.ar  1 <1>   0.0820 
  4 C        2.8450     0.4610    -0.4110 C.ar  1 <1>  -0.1500 
  5 O        0.8700     3.5080    -0.7970 O.3   1 <1>  -0.3630 
  6 C        3.0310     3.1730     0.2350 C.ar  1 <1>   0.0830 
  7 C        3.9540     0.9320     0.2790 C.ar  1 <1>  -0.1440 
  8 C       -0.1400     3.6640     0.1720 C.3   1 <1>   0.1200 
  9 O        3.2550     4.4680     0.5840 O.3   1 <1>  -0.3630 
 10 C        4.0300     2.2810     0.6010 C.ar  1 <1>  -0.1500 
 11 C        5.0750    -0.0050     0.6690 C.3   1 <1>   0.4860 
 12 C       -1.1990     4.6040    -0.3970 C.3   1 <1>  -0.2400 
 13 C        2.8280     5.5220    -0.2520 C.3   1 <1>   0.1200 
 14 N        6.0960     0.0950    -0.3910 N.4   1 <1>  -0.8530 
 15 C        3.6740     6.7500     0.0680 C.3   1 <1>  -0.2400 
 16 H        2.7320    -0.5750    -0.6810 H     1 <1>   0.1500 
 17 H        0.3010     4.0760     1.0640 H     1 <1>   0.0800 
 18 H       -0.5630     2.6980     0.3860 H     1 <1>   0.0800 
 19 H        4.8690     2.6800     1.1450 H     1 <1>   0.1500 
 20 H        4.7050    -1.0150     0.7470 H     1 <1>   0.0800 
 21 H        5.4870     0.2900     1.6220 H     1 <1>   0.0800 
 22 H       -0.7660     5.5620    -0.6190 H     1 <1>   0.0800 
 23 H       -1.9870     4.7410     0.3210 H     1 <1>   0.0800 
 24 H       -1.6210     4.1840    -1.2930 H     1 <1>   0.0800 
 25 H        1.7900     5.7190    -0.0520 H     1 <1>   0.0800 
 26 H        2.9540     5.2260    -1.2800 H     1 <1>   0.0800 
 27 H        5.6810    -0.1660    -1.2920 H     1 <1>   0.4500 
 28 H        6.9070    -0.5020    -0.2040 H     1 <1>   0.4500 
 29 H        6.4040     1.0700    -0.4740 H     1 <1>   0.4500 
 30 H        3.5450     7.0300     1.0980 H     1 <1>   0.0800 
 31 H        3.3660     7.5730    -0.5520 H     1 <1>   0.0800 
 32 H        4.7120     6.5470    -0.1240 H     1 <1>   0.0800 
@<TRIPOS>BOND
  1   1   2  1   
  2   2   3  ar  
  3   2   4  ar  
  4   3   5  1   
  5   3   6  ar  
  6   4   7  ar  
  7   4  16  1   
  8   5   8  1   
  9   6   9  1   
 10   6  10  ar  
 11   7  10  ar  
 12   7  11  1   
 13   8  12  1   
 14   8  17  1   
 15   8  18  1   
 16   9  13  1   
 17  10  19  1   
 18  11  14  1   
 19  11  20  1   
 20  11  21  1   
 21  12  22  1   
 22  12  23  1   
 23  12  24  1   
 24  13  15  1   
 25  13  25  1   
 26  13  26  1   
 27  14  27  1   
 28  14  28  1   
 29  14  29  1   
 30  15  30  1   
 31  15  31  1   
 32  15  32  1   
@<TRIPOS>SUBSTRUCTURE
  1 ****   3 GROUP 4 **** **** 0

# MOE 2024.06 (io_trps.svl 2023.06)
