@<TRIPOS>MOLECULE
NONAME
55 56 1 0 0 
SMALL
USER_CHARGES


@<TRIPOS>ATOM
  1 O        1.0170    -3.4630     0.6370 O.3   1 <1>  -0.5600 
  2 C        0.9740    -3.3820    -0.7660 C.3   1 <1>   0.1200 
  3 C        0.9490    -4.7670     1.1440 C.3   1 <1>   0.1200 
  4 C       -0.1960    -4.2020    -1.3580 C.3   1 <1>   0.3430 
  5 C       -0.4010    -5.4280     0.7800 C.3   1 <1>   0.3430 
  6 N       -1.1350    -4.6510    -0.2750 N.4   1 <1>  -0.9590 
  7 C       -2.3660    -5.3180    -0.8160 C.3   1 <1>   0.3430 
  8 C       -3.5000    -4.3170    -1.1380 C.3   1 <1>   0.2000 
  9 O       -2.9790    -3.1680    -1.7220 O.3   1 <1>  -0.6800 
 10 C       -4.2960    -3.8900     0.1050 C.3   1 <1>   0.1200 
 11 O       -5.0290    -2.7480    -0.2200 O.3   1 <1>  -0.5600 
 12 C       -5.7520    -2.1640     0.8270 C.3   1 <1>   0.2000 
 13 C       -7.0070    -1.4920     0.2230 C.3   1 <1>  -0.0800 
 14 C       -4.8490    -1.1540     1.5690 C.3   1 <1>  -0.1600 
 15 C       -7.9960    -2.4960    -0.4330 C.3   1 <1>  -0.0800 
 16 C       -6.6060    -0.3600    -0.7610 C.3   1 <1>  -0.1600 
 17 C       -4.9980     0.3050     1.0930 C.3   1 <1>  -0.0800 
 18 C       -9.2600    -1.7930    -0.9570 C.3   1 <1>  -0.2400 
 19 C       -8.4330    -3.6090     0.5340 C.3   1 <1>  -0.2400 
 20 C       -5.2880     0.3560    -0.4100 C.3   1 <1>  -0.1600 
 21 C       -3.7480     1.1220     1.4400 C.3   1 <1>  -0.2400 
 22 H        1.9150    -3.7240    -1.1610 H     1 <1>   0.0800 
 23 H        0.8610    -2.3430    -1.0250 H     1 <1>   0.0800 
 24 H        1.0630    -4.7160     2.2130 H     1 <1>   0.0800 
 25 H        1.7730    -5.3330     0.7430 H     1 <1>   0.0800 
 26 H        0.2020    -5.0590    -1.8760 H     1 <1>   0.0800 
 27 H       -0.7170    -3.5970    -2.0830 H     1 <1>   0.0800 
 28 H       -1.0070    -5.4920     1.6680 H     1 <1>   0.0800 
 29 H       -0.2150    -6.4330     0.4400 H     1 <1>   0.0800 
 30 H       -1.4240    -3.7570     0.1540 H     1 <1>   0.4500 
 31 H       -2.7400    -6.0330    -0.1020 H     1 <1>   0.0800 
 32 H       -2.1170    -5.8610    -1.7120 H     1 <1>   0.0800 
 33 H       -4.1840    -4.7610    -1.8420 H     1 <1>   0.0800 
 34 H       -3.6800    -2.4730    -1.6310 H     1 <1>   0.4000 
 35 H       -3.6340    -3.6580     0.9210 H     1 <1>   0.0800 
 36 H       -4.9790    -4.6660     0.4050 H     1 <1>   0.0800 
 37 H       -6.0460    -2.9360     1.5170 H     1 <1>   0.0800 
 38 H       -7.5260    -1.0300     1.0450 H     1 <1>   0.0800 
 39 H       -3.8240    -1.4630     1.4860 H     1 <1>   0.0800 
 40 H       -5.1030    -1.1780     2.6140 H     1 <1>   0.0800 
 41 H       -7.5040    -2.9610    -1.2720 H     1 <1>   0.0800 
 42 H       -7.3970     0.3690    -0.7820 H     1 <1>   0.0800 
 43 H       -6.5080    -0.7600    -1.7550 H     1 <1>   0.0800 
 44 H       -5.8370     0.7500     1.6050 H     1 <1>   0.0800 
 45 H       -9.7560    -1.2650    -0.1630 H     1 <1>   0.0800 
 46 H       -9.9460    -2.5120    -1.3690 H     1 <1>   0.0800 
 47 H       -9.0190    -1.0960    -1.7390 H     1 <1>   0.0800 
 48 H       -8.8450    -3.1880     1.4340 H     1 <1>   0.0800 
 49 H       -7.6090    -4.2490     0.7880 H     1 <1>   0.0800 
 50 H       -9.1860    -4.2270     0.0750 H     1 <1>   0.0800 
 51 H       -5.3380     1.3770    -0.7470 H     1 <1>   0.0800 
 52 H       -4.4780    -0.1190    -0.9350 H     1 <1>   0.0800 
 53 H       -2.8860     0.7360     0.9250 H     1 <1>   0.0800 
 54 H       -3.5630     1.0890     2.4990 H     1 <1>   0.0800 
 55 H       -3.8850     2.1500     1.1540 H     1 <1>   0.0800 
@<TRIPOS>BOND
  1   1   2  1   
  2   1   3  1   
  3   2   4  1   
  4   2  22  1   
  5   2  23  1   
  6   3   5  1   
  7   3  24  1   
  8   3  25  1   
  9   4   6  1   
 10   4  26  1   
 11   4  27  1   
 12   5   6  1   
 13   5  28  1   
 14   5  29  1   
 15   6   7  1   
 16   6  30  1   
 17   7   8  1   
 18   7  31  1   
 19   7  32  1   
 20   8   9  1   
 21   8  10  1   
 22   8  33  1   
 23   9  34  1   
 24  10  11  1   
 25  10  35  1   
 26  10  36  1   
 27  11  12  1   
 28  12  13  1   
 29  12  14  1   
 30  12  37  1   
 31  13  15  1   
 32  13  16  1   
 33  13  38  1   
 34  14  17  1   
 35  14  39  1   
 36  14  40  1   
 37  15  18  1   
 38  15  19  1   
 39  15  41  1   
 40  16  20  1   
 41  16  42  1   
 42  16  43  1   
 43  17  20  1   
 44  17  21  1   
 45  17  44  1   
 46  18  45  1   
 47  18  46  1   
 48  18  47  1   
 49  19  48  1   
 50  19  49  1   
 51  19  50  1   
 52  20  51  1   
 53  20  52  1   
 54  21  53  1   
 55  21  54  1   
 56  21  55  1   
@<TRIPOS>SUBSTRUCTURE
  1 ****  11 GROUP 4 **** **** 0

# MOE 2024.06 (io_trps.svl 2023.06)
