@<TRIPOS>MOLECULE
NONAME
34 36 1 0 0 
SMALL
USER_CHARGES


@<TRIPOS>ATOM
  1 BR      -1.7710    -2.0590    -1.9030 Br    1 <1>  -0.1100 
  2 C       -2.8060    -0.7280    -0.9660 C.2   1 <1>   0.1240 
  3 C       -2.1040     0.1820    -0.1260 C.2   1 <1>   0.3760 
  4 C       -4.1510    -0.6780    -1.1160 C.2   1 <1>  -0.1810 
  5 N       -2.7140     1.1080     0.5410 N.2   1 <1>  -0.5760 
  6 N       -4.8090     0.3060    -0.4070 N.pl3 1 <1>   0.6010 
  7 C       -4.0880     1.1650     0.3910 C.2   1 <1>  -0.0260 
  8 N       -6.1280     0.5720    -0.3730 N.2   1 <1>  -0.7070 
  9 C       -4.9970     2.0030     0.9380 C.2   1 <1>  -0.1500 
 10 C       -6.2450     1.6130     0.4520 C.2   1 <1>   0.2030 
 11 C       -7.4840     2.3060     0.8050 C.2   1 <1>   0.7160 
 12 O       -7.4520     3.4900     1.0890 O.2   1 <1>  -0.5700 
 13 N       -8.7290     1.6960     0.7820 N.am  1 <1>  -0.6600 
 14 C       -9.9530     2.4750     0.4330 C.3   1 <1>   0.1400 
 15 C       -8.9290     0.2220     0.6890 C.3   1 <1>   0.1400 
 16 C      -10.4030     2.1120    -0.9970 C.3   1 <1>   0.3430 
 17 C       -9.3360    -0.1450    -0.7500 C.3   1 <1>   0.3430 
 18 N      -10.5610     0.6210    -1.1980 N.4   1 <1>  -0.9590 
 19 C      -10.8850     0.3100    -2.6230 C.3   1 <1>   0.2630 
 20 H       -1.0360     0.0860    -0.0530 H     1 <1>   0.0600 
 21 H       -4.7380    -1.3310    -1.7310 H     1 <1>   0.1500 
 22 H       -4.8050     2.8190     1.6120 H     1 <1>   0.1500 
 23 H       -9.7610     3.5340     0.4860 H     1 <1>   0.0800 
 24 H      -10.7340     2.2530     1.1390 H     1 <1>   0.0800 
 25 H       -9.7030    -0.0770     1.3750 H     1 <1>   0.0800 
 26 H       -8.0370    -0.3070     0.9720 H     1 <1>   0.0800 
 27 H       -9.6630     2.4900    -1.6840 H     1 <1>   0.0800 
 28 H      -11.3330     2.6130    -1.2110 H     1 <1>   0.0800 
 29 H       -9.5230    -1.2050    -0.8060 H     1 <1>   0.0800 
 30 H       -8.5060     0.0800    -1.4010 H     1 <1>   0.0800 
 31 H      -11.3480     0.3130    -0.6080 H     1 <1>   0.4500 
 32 H      -10.0760     0.6200    -3.2660 H     1 <1>   0.0800 
 33 H      -11.7820     0.8260    -2.9260 H     1 <1>   0.0800 
 34 H      -11.0400    -0.7490    -2.7510 H     1 <1>   0.0800 
@<TRIPOS>BOND
  1   1   2  1   
  2   2   3  1   
  3   2   4  2   
  4   3   5  2   
  5   3  20  1   
  6   4   6  1   
  7   4  21  1   
  8   5   7  1   
  9   6   7  1   
 10   6   8  1   
 11   7   9  2   
 12   8  10  2   
 13   9  10  1   
 14   9  22  1   
 15  10  11  1   
 16  11  12  2   
 17  11  13  am  
 18  13  14  1   
 19  13  15  1   
 20  14  16  1   
 21  14  23  1   
 22  14  24  1   
 23  15  17  1   
 24  15  25  1   
 25  15  26  1   
 26  16  18  1   
 27  16  27  1   
 28  16  28  1   
 29  17  18  1   
 30  17  29  1   
 31  17  30  1   
 32  18  19  1   
 33  18  31  1   
 34  19  32  1   
 35  19  33  1   
 36  19  34  1   
@<TRIPOS>SUBSTRUCTURE
  1 ****   8 GROUP 4 **** **** 0

# MOE 2024.06 (io_trps.svl 2023.06)
