@<TRIPOS>MOLECULE
NONAME
43 45 1 0 0 
SMALL
USER_CHARGES


@<TRIPOS>ATOM
  1 CL       4.8610     2.4100    -4.4830 Cl    1 <1>  -0.1770 
  2 C        4.3200     2.2550    -2.8340 C.ar  1 <1>   0.1770 
  3 C        3.8610     3.3770    -2.1690 C.ar  1 <1>  -0.1500 
  4 C        4.3600     1.0200    -2.2170 C.ar  1 <1>  -0.1500 
  5 C        3.4350     3.2660    -0.8520 C.ar  1 <1>  -0.1440 
  6 C        3.9290     0.9060    -0.9070 C.ar  1 <1>  -0.1500 
  7 C        3.4690     2.0240    -0.2290 C.ar  1 <1>  -0.1500 
  8 C        2.9430     4.4890    -0.0980 C.3   1 <1>   0.4870 
  9 N        4.0960     5.3830     0.1760 N.4   1 <1>  -0.9590 
 10 C        5.2120     4.7400     0.9490 C.3   1 <1>   0.3430 
 11 C        3.7220     6.7040     0.7740 C.3   1 <1>   0.3430 
 12 C        6.4300     5.6910     1.0630 C.3   1 <1>   0.1100 
 13 C        4.9570     7.6300     0.8910 C.3   1 <1>   0.1100 
 14 N        6.1970     6.9870     0.3820 N.3   1 <1>  -0.8100 
 15 C        7.3720     7.8750     0.4860 C.3   1 <1>   0.2530 
 16 C        7.1700     9.1290    -0.3530 C.ar  1 <1>  -0.1430 
 17 C        7.1010    10.3780     0.2540 C.ar  1 <1>  -0.1500 
 18 C        7.0520     9.0230    -1.7340 C.ar  1 <1>  -0.1500 
 19 C        6.9110    11.5170    -0.5120 C.ar  1 <1>  -0.1500 
 20 C        6.8620    10.1550    -2.5110 C.ar  1 <1>  -0.1500 
 21 C        6.7940    11.3820    -1.8810 C.ar  1 <1>   0.1900 
 22 F        6.6120    12.4530    -2.6060 F     1 <1>  -0.1900 
 23 H        3.8440     4.3150    -2.6960 H     1 <1>   0.1500 
 24 H        4.7190     0.1620    -2.7590 H     1 <1>   0.1500 
 25 H        3.9500    -0.0550    -0.4190 H     1 <1>   0.1500 
 26 H        3.1350     1.9070     0.7890 H     1 <1>   0.1500 
 27 H        2.4800     4.1870     0.8270 H     1 <1>   0.0800 
 28 H        2.2090     5.0040    -0.6960 H     1 <1>   0.0800 
 29 H        4.5480     5.6310    -0.7180 H     1 <1>   0.4500 
 30 H        5.5270     3.8340     0.4550 H     1 <1>   0.0800 
 31 H        4.8740     4.4730     1.9360 H     1 <1>   0.0800 
 32 H        3.2940     6.5610     1.7520 H     1 <1>   0.0800 
 33 H        2.9830     7.1910     0.1590 H     1 <1>   0.0800 
 34 H        7.2870     5.2070     0.6240 H     1 <1>   0.0800 
 35 H        6.6510     5.8570     2.1040 H     1 <1>   0.0800 
 36 H        5.0890     7.9190     1.9200 H     1 <1>   0.0800 
 37 H        4.7580     8.5280     0.3290 H     1 <1>   0.0800 
 38 H        8.2450     7.3600     0.1220 H     1 <1>   0.0800 
 39 H        7.5470     8.1400     1.5150 H     1 <1>   0.0800 
 40 H        7.1960    10.4730     1.3220 H     1 <1>   0.1500 
 41 H        7.1070     8.0570    -2.2050 H     1 <1>   0.1500 
 42 H        6.8550    12.4920    -0.0610 H     1 <1>   0.1500 
 43 H        6.7700    10.0910    -3.5800 H     1 <1>   0.1500 
@<TRIPOS>BOND
  1   1   2  1   
  2   2   3  ar  
  3   2   4  ar  
  4   3   5  ar  
  5   3  23  1   
  6   4   6  ar  
  7   4  24  1   
  8   5   7  ar  
  9   5   8  1   
 10   6   7  ar  
 11   6  25  1   
 12   7  26  1   
 13   8   9  1   
 14   8  27  1   
 15   8  28  1   
 16   9  10  1   
 17   9  11  1   
 18   9  29  1   
 19  10  12  1   
 20  10  30  1   
 21  10  31  1   
 22  11  13  1   
 23  11  32  1   
 24  11  33  1   
 25  12  14  1   
 26  12  34  1   
 27  12  35  1   
 28  13  14  1   
 29  13  36  1   
 30  13  37  1   
 31  14  15  1   
 32  15  16  1   
 33  15  38  1   
 34  15  39  1   
 35  16  17  ar  
 36  16  18  ar  
 37  17  19  ar  
 38  17  40  1   
 39  18  20  ar  
 40  18  41  1   
 41  19  21  ar  
 42  19  42  1   
 43  20  21  ar  
 44  20  43  1   
 45  21  22  1   
@<TRIPOS>SUBSTRUCTURE
  1 ****  14 GROUP 4 **** **** 0

# MOE 2024.06 (io_trps.svl 2023.06)
