@<TRIPOS>MOLECULE
NONAME
35 35 1 0 0 
SMALL
USER_CHARGES


@<TRIPOS>ATOM
  1 S        0.1950     0.2000     0.1290 S.3   1 <1>  -0.0800 
  2 C       -0.7370    -1.2630    -0.0770 C.2   1 <1>   0.1040 
  3 C       -1.2330     1.2430     0.1300 C.2   1 <1>  -0.0450 
  4 N       -0.1100    -2.4980    -0.0840 N.am  1 <1>  -0.4940 
  5 C       -2.0680    -0.9600    -0.1650 C.2   1 <1>  -0.0860 
  6 C       -2.3320     0.4490    -0.0490 C.2   1 <1>  -0.1810 
  7 C       -0.9940     2.6520     0.3200 C.2   1 <1>   0.8050 
  8 C        1.2050    -2.8550    -0.2320 C.2   1 <1>   0.5690 
  9 C       -3.0800    -1.9640    -0.3650 C.2   1 <1>   0.7160 
 10 C       -3.7720     0.9510    -0.1360 C.3   1 <1>  -0.0590 
 11 O        0.1130     3.1550     0.3160 O.2   1 <1>  -0.5700 
 12 O       -2.0500     3.4480     0.5240 O.3   1 <1>  -0.4300 
 13 O        2.0850    -2.1000    -0.5500 O.2   1 <1>  -0.5700 
 14 C        1.5490    -4.3070    -0.0100 C.3   1 <1>  -0.1790 
 15 O       -4.1130    -2.0010     0.2680 O.2   1 <1>  -0.5700 
 16 N       -2.9140    -2.9320    -1.2930 N.am  1 <1>  -0.8000 
 17 C       -1.9410     4.8390     0.7180 C.3   1 <1>   0.2000 
 18 C       -3.1680     5.2790     1.5120 C.3   1 <1>  -0.2400 
 19 C       -1.8910     5.5190    -0.6500 C.3   1 <1>  -0.2400 
 20 H       -0.7350    -3.2920     0.0550 H     1 <1>   0.3700 
 21 H       -3.8280     2.0130    -0.2720 H     1 <1>   0.0800 
 22 H       -4.3020     0.6950     0.7650 H     1 <1>   0.0800 
 23 H       -4.2760     0.4960    -0.9690 H     1 <1>   0.0800 
 24 H        1.0630    -4.9160    -0.7490 H     1 <1>   0.0800 
 25 H        1.2390    -4.6100     0.9730 H     1 <1>   0.0800 
 26 H        2.6120    -4.4420    -0.0940 H     1 <1>   0.0800 
 27 H       -3.7110    -3.5400    -1.4860 H     1 <1>   0.3700 
 28 H       -2.2370    -2.8200    -2.0470 H     1 <1>   0.3700 
 29 H       -1.0480     5.0490     1.2860 H     1 <1>   0.0800 
 30 H       -4.0690     5.0540     0.9700 H     1 <1>   0.0800 
 31 H       -3.1300     6.3390     1.6900 H     1 <1>   0.0800 
 32 H       -3.1890     4.7770     2.4630 H     1 <1>   0.0800 
 33 H       -2.7660     5.2760    -1.2260 H     1 <1>   0.0800 
 34 H       -1.0120     5.2080    -1.1860 H     1 <1>   0.0800 
 35 H       -1.8450     6.5860    -0.5270 H     1 <1>   0.0800 
@<TRIPOS>BOND
  1   1   2  1   
  2   1   3  1   
  3   2   4  1   
  4   2   5  2   
  5   3   6  2   
  6   3   7  1   
  7   4   8  am  
  8   4  20  1   
  9   5   6  1   
 10   5   9  1   
 11   6  10  1   
 12   7  11  2   
 13   7  12  1   
 14   8  13  2   
 15   8  14  1   
 16   9  15  2   
 17   9  16  am  
 18  10  21  1   
 19  10  22  1   
 20  10  23  1   
 21  12  17  1   
 22  14  24  1   
 23  14  25  1   
 24  14  26  1   
 25  16  27  1   
 26  16  28  1   
 27  17  18  1   
 28  17  19  1   
 29  17  29  1   
 30  18  30  1   
 31  18  31  1   
 32  18  32  1   
 33  19  33  1   
 34  19  34  1   
 35  19  35  1   
@<TRIPOS>SUBSTRUCTURE
  1 ****   3 GROUP 4 **** **** 0

# MOE 2024.06 (io_trps.svl 2023.06)
