@<TRIPOS>MOLECULE
NONAME
51 52 1 0 0 
SMALL
USER_CHARGES


@<TRIPOS>ATOM
  1 BR       2.6320     1.6140    -2.1530 Br    1 <1>  -0.1110 
  2 C        1.4720     2.5110    -0.8940 C.ar  1 <1>   0.1110 
  3 C        1.9680     2.8640     0.3530 C.ar  1 <1>   0.0830 
  4 C        0.1720     2.7760    -1.2790 C.ar  1 <1>  -0.1500 
  5 O        3.2600     2.5600     0.6360 O.3   1 <1>  -0.3630 
  6 C        1.1100     3.5080     1.2400 C.ar  1 <1>  -0.1500 
  7 C       -0.6730     3.4190    -0.3890 C.ar  1 <1>  -0.1430 
  8 C        3.8490     2.8650     1.8940 C.3   1 <1>   0.1810 
  9 C       -0.1980     3.7790     0.8650 C.ar  1 <1>  -0.1500 
 10 C       -2.1090     3.7240    -0.7780 C.3   1 <1>  -0.0960 
 11 C        5.2990     2.3940     1.9210 C.2   1 <1>   0.5690 
 12 O        5.9770     2.6120     2.8960 O.2   1 <1>  -0.5700 
 13 N        5.8030     1.7410     0.8400 N.am  1 <1>  -0.7300 
 14 C        7.1700     1.2260     0.7260 C.3   1 <1>   0.2200 
 15 C        7.9830     2.1820    -0.1390 C.3   1 <1>  -0.1600 
 16 C        7.1310    -0.1520     0.0770 C.3   1 <1>  -0.1600 
 17 C        9.4160     1.6820    -0.3550 C.3   1 <1>   0.5030 
 18 C        8.5390    -0.7250    -0.1350 C.3   1 <1>   0.5030 
 19 N        9.4320     0.2660    -0.7610 N.4   1 <1>  -0.9060 
 20 C       10.2900     1.8840     0.8860 C.3   1 <1>  -0.2400 
 21 C       10.0530     2.4470    -1.5130 C.3   1 <1>  -0.2400 
 22 C        9.1550    -1.2380     1.1690 C.3   1 <1>  -0.2400 
 23 C        8.4700    -1.8930    -1.1180 C.3   1 <1>  -0.2400 
 24 H       -0.1660     2.4820    -2.2570 H     1 <1>   0.1500 
 25 H        1.4330     3.8060     2.2200 H     1 <1>   0.1500 
 26 H        3.2930     2.3630     2.6640 H     1 <1>   0.0800 
 27 H        3.8130     3.9290     2.0410 H     1 <1>   0.0800 
 28 H       -0.8530     4.2760     1.5600 H     1 <1>   0.1500 
 29 H       -2.2120     3.7660    -1.8470 H     1 <1>   0.0800 
 30 H       -2.4130     4.6720    -0.3710 H     1 <1>   0.0800 
 31 H       -2.7600     2.9580    -0.3970 H     1 <1>   0.0800 
 32 H        5.1690     1.6200     0.0410 H     1 <1>   0.3700 
 33 H        7.5980     1.1610     1.7130 H     1 <1>   0.0800 
 34 H        8.0100     3.1480     0.3350 H     1 <1>   0.0800 
 35 H        7.4930     2.3010    -1.0890 H     1 <1>   0.0800 
 36 H        6.6240    -0.0820    -0.8690 H     1 <1>   0.0800 
 37 H        6.5640    -0.8210     0.7010 H     1 <1>   0.0800 
 38 H       10.3910    -0.0750    -0.6740 H     1 <1>   0.4500 
 39 H        9.2150     0.2550    -1.7590 H     1 <1>   0.4500 
 40 H        9.8360     1.4990     1.7770 H     1 <1>   0.0800 
 41 H       10.4360     2.9370     1.0560 H     1 <1>   0.0800 
 42 H       11.2600     1.4390     0.7600 H     1 <1>   0.0800 
 43 H        9.4940     2.3210    -2.4230 H     1 <1>   0.0800 
 44 H       11.0690     2.1330    -1.6760 H     1 <1>   0.0800 
 45 H       10.0720     3.5000    -1.2890 H     1 <1>   0.0800 
 46 H        9.1090    -0.5150     1.9590 H     1 <1>   0.0800 
 47 H       10.1760    -1.5440     1.0270 H     1 <1>   0.0800 
 48 H        8.6040    -2.0960     1.5150 H     1 <1>   0.0800 
 49 H        8.0670    -1.5850    -2.0670 H     1 <1>   0.0800 
 50 H        7.8250    -2.6620    -0.7280 H     1 <1>   0.0800 
 51 H        9.4410    -2.3300    -1.2720 H     1 <1>   0.0800 
@<TRIPOS>BOND
  1   1   2  1   
  2   2   3  ar  
  3   2   4  ar  
  4   3   5  1   
  5   3   6  ar  
  6   4   7  ar  
  7   4  24  1   
  8   5   8  1   
  9   6   9  ar  
 10   6  25  1   
 11   7   9  ar  
 12   7  10  1   
 13   8  11  1   
 14   8  26  1   
 15   8  27  1   
 16   9  28  1   
 17  10  29  1   
 18  10  30  1   
 19  10  31  1   
 20  11  12  2   
 21  11  13  am  
 22  13  14  1   
 23  13  32  1   
 24  14  15  1   
 25  14  16  1   
 26  14  33  1   
 27  15  17  1   
 28  15  34  1   
 29  15  35  1   
 30  16  18  1   
 31  16  36  1   
 32  16  37  1   
 33  17  19  1   
 34  17  20  1   
 35  17  21  1   
 36  18  19  1   
 37  18  22  1   
 38  18  23  1   
 39  19  38  1   
 40  19  39  1   
 41  20  40  1   
 42  20  41  1   
 43  20  42  1   
 44  21  43  1   
 45  21  44  1   
 46  21  45  1   
 47  22  46  1   
 48  22  47  1   
 49  22  48  1   
 50  23  49  1   
 51  23  50  1   
 52  23  51  1   
@<TRIPOS>SUBSTRUCTURE
  1 ****  13 GROUP 4 **** **** 0

# MOE 2024.06 (io_trps.svl 2023.06)
