@<TRIPOS>MOLECULE
NONAME
36 36 1 0 0 
SMALL
USER_CHARGES


@<TRIPOS>ATOM
  1 O       -0.0370    -0.1840    -0.8420 O.2   1 <1>  -0.5700 
  2 C        0.0490    -1.2190    -0.2130 C.2   1 <1>   0.6900 
  3 N        1.2550    -1.7410     0.1520 N.am  1 <1>  -0.5470 
  4 N       -1.0540    -1.9230     0.1540 N.am  1 <1>  -0.7300 
  5 C        2.5530    -1.2180     0.0640 C.ar  1 <1>   0.1170 
  6 C       -2.4640    -1.6290    -0.1200 C.3   1 <1>   0.3000 
  7 C        3.6300    -2.0960     0.0600 C.ar  1 <1>  -0.1500 
  8 C        2.8180     0.1440     0.0020 C.ar  1 <1>  -0.1500 
  9 C       -3.2700    -2.7680     0.5020 C.3   1 <1>  -0.2400 
 10 C       -2.8580    -0.3070     0.5390 C.3   1 <1>  -0.2400 
 11 C       -2.7100    -1.5990    -1.6290 C.3   1 <1>  -0.2400 
 12 C        4.9380    -1.6420    -0.0060 C.ar  1 <1>  -0.1430 
 13 C        4.1180     0.6080    -0.0650 C.ar  1 <1>  -0.1500 
 14 C        5.1860    -0.2750    -0.0700 C.ar  1 <1>  -0.1430 
 15 C        6.0760    -2.6540    -0.0090 C.3   1 <1>  -0.0970 
 16 C        6.6020     0.2770    -0.1460 C.3   1 <1>  -0.0970 
 17 H        1.2070    -2.7110     0.4350 H     1 <1>   0.3700 
 18 H       -0.9320    -2.6660     0.8320 H     1 <1>   0.3700 
 19 H        3.4380    -3.1500     0.1060 H     1 <1>   0.1500 
 20 H        2.0080     0.8490     0.0090 H     1 <1>   0.1500 
 21 H       -3.1100    -2.8110     1.5650 H     1 <1>   0.0800 
 22 H       -2.9950    -3.7100     0.0620 H     1 <1>   0.0800 
 23 H       -4.3200    -2.6130     0.3300 H     1 <1>   0.0800 
 24 H       -2.6400    -0.3290     1.5910 H     1 <1>   0.0800 
 25 H       -3.9090    -0.1270     0.4110 H     1 <1>   0.0800 
 26 H       -2.3270     0.5130     0.0910 H     1 <1>   0.0800 
 27 H       -2.3800    -2.5150    -2.0830 H     1 <1>   0.0800 
 28 H       -2.1860    -0.7780    -2.0840 H     1 <1>   0.0800 
 29 H       -3.7570    -1.4730    -1.8320 H     1 <1>   0.0800 
 30 H        4.2900     1.6690    -0.1150 H     1 <1>   0.1500 
 31 H        5.7000    -3.6600     0.0430 H     1 <1>   0.0800 
 32 H        6.7170    -2.4890     0.8370 H     1 <1>   0.0800 
 33 H        6.6520    -2.5560    -0.9110 H     1 <1>   0.0800 
 34 H        7.0930    -0.0900    -1.0280 H     1 <1>   0.0800 
 35 H        7.1620    -0.0240     0.7210 H     1 <1>   0.0800 
 36 H        6.5950     1.3510    -0.1860 H     1 <1>   0.0800 
@<TRIPOS>BOND
  1   1   2  2   
  2   2   3  am  
  3   2   4  am  
  4   3   5  1   
  5   3  17  1   
  6   4   6  1   
  7   4  18  1   
  8   5   7  ar  
  9   5   8  ar  
 10   6   9  1   
 11   6  10  1   
 12   6  11  1   
 13   7  12  ar  
 14   7  19  1   
 15   8  13  ar  
 16   8  20  1   
 17   9  21  1   
 18   9  22  1   
 19   9  23  1   
 20  10  24  1   
 21  10  25  1   
 22  10  26  1   
 23  11  27  1   
 24  11  28  1   
 25  11  29  1   
 26  12  14  ar  
 27  12  15  1   
 28  13  14  ar  
 29  13  30  1   
 30  14  16  1   
 31  15  31  1   
 32  15  32  1   
 33  15  33  1   
 34  16  34  1   
 35  16  35  1   
 36  16  36  1   
@<TRIPOS>SUBSTRUCTURE
  1 ****   3 GROUP 4 **** **** 0

# MOE 2024.06 (io_trps.svl 2023.06)
