@<TRIPOS>MOLECULE
NONAME
34 34 1 0 0 
SMALL
USER_CHARGES


@<TRIPOS>ATOM
  1 F       -2.1270     0.5080     2.7830 F     1 <1>  -0.1900 
  2 C       -2.4080     1.0200     1.6130 C.ar  1 <1>   0.1900 
  3 C       -1.6210     2.0240     1.0760 C.ar  1 <1>   0.1900 
  4 C       -3.5080     0.5370     0.9290 C.ar  1 <1>  -0.1500 
  5 F       -0.5840     2.4770     1.7300 F     1 <1>  -0.1900 
  6 C       -1.9200     2.5640    -0.1610 C.ar  1 <1>  -0.1500 
  7 C       -3.8250     1.0800    -0.3130 C.ar  1 <1>  -0.1440 
  8 C       -3.0250     2.0860    -0.8530 C.ar  1 <1>  -0.1500 
  9 C       -5.0380     0.5750    -1.0750 C.3   1 <1>   0.4870 
 10 N       -6.2690     1.0930    -0.4140 N.4   1 <1>  -0.9590 
 11 C       -7.4780     0.3660    -0.9290 C.3   1 <1>   0.3430 
 12 C       -6.3740     2.5750    -0.5740 C.3   1 <1>   0.3430 
 13 C       -8.3620    -0.1710     0.2050 C.3   1 <1>   0.1200 
 14 C       -7.4540     3.1540     0.3400 C.3   1 <1>  -0.1600 
 15 O       -9.3980    -0.8750    -0.3770 O.3   1 <1>  -0.6800 
 16 C       -7.4310     4.6870     0.3070 C.3   1 <1>  -0.2400 
 17 H       -4.0870    -0.2520     1.3770 H     1 <1>   0.1500 
 18 H       -1.2950     3.3400    -0.5690 H     1 <1>   0.1500 
 19 H       -3.2460     2.5090    -1.8190 H     1 <1>   0.1500 
 20 H       -5.0360    -0.5030    -1.0630 H     1 <1>   0.0800 
 21 H       -4.9980     0.9030    -2.1010 H     1 <1>   0.0800 
 22 H       -6.1570     0.9010     0.5890 H     1 <1>   0.4500 
 23 H       -7.1700    -0.4750    -1.5290 H     1 <1>   0.0800 
 24 H       -8.0660     1.0220    -1.5500 H     1 <1>   0.0800 
 25 H       -6.5930     2.8250    -1.6000 H     1 <1>   0.0800 
 26 H       -5.4330     3.0330    -0.3130 H     1 <1>   0.0800 
 27 H       -8.7870     0.6270     0.7880 H     1 <1>   0.0800 
 28 H       -7.8150    -0.8500     0.8370 H     1 <1>   0.0800 
 29 H       -7.2890     2.8340     1.3540 H     1 <1>   0.0800 
 30 H       -8.4290     2.8280     0.0220 H     1 <1>   0.0800 
 31 H      -10.0170    -1.2400     0.2940 H     1 <1>   0.4000 
 32 H       -6.4800     5.0640     0.6440 H     1 <1>   0.0800 
 33 H       -8.1960     5.0810     0.9550 H     1 <1>   0.0800 
 34 H       -7.6150     5.0530    -0.6890 H     1 <1>   0.0800 
@<TRIPOS>BOND
  1   1   2  1   
  2   2   3  ar  
  3   2   4  ar  
  4   3   5  1   
  5   3   6  ar  
  6   4   7  ar  
  7   4  17  1   
  8   6   8  ar  
  9   6  18  1   
 10   7   8  ar  
 11   7   9  1   
 12   8  19  1   
 13   9  10  1   
 14   9  20  1   
 15   9  21  1   
 16  10  11  1   
 17  10  12  1   
 18  10  22  1   
 19  11  13  1   
 20  11  23  1   
 21  11  24  1   
 22  12  14  1   
 23  12  25  1   
 24  12  26  1   
 25  13  15  1   
 26  13  27  1   
 27  13  28  1   
 28  14  16  1   
 29  14  29  1   
 30  14  30  1   
 31  15  31  1   
 32  16  32  1   
 33  16  33  1   
 34  16  34  1   
@<TRIPOS>SUBSTRUCTURE
  1 ****   7 GROUP 4 **** **** 0

# MOE 2024.06 (io_trps.svl 2023.06)
