@<TRIPOS>MOLECULE
NONAME
49 50 1 0 0 
SMALL
USER_CHARGES


@<TRIPOS>ATOM
  1 O       -0.6950     0.0410     0.2630 O.2   1 <1>  -0.5700 
  2 C       -1.7160    -0.4860    -0.1360 C.2   1 <1>   0.7800 
  3 O       -1.7080    -1.7820    -0.4550 O.3   1 <1>  -0.4300 
  4 N       -2.8950     0.1950    -0.2690 N.am  1 <1>  -0.6600 
  5 C       -0.5300    -2.5460    -0.3440 C.3   1 <1>   0.1200 
  6 C       -4.1780    -0.4420    -0.6910 C.3   1 <1>   0.1400 
  7 C       -3.0230     1.6350     0.1060 C.3   1 <1>   0.1400 
  8 C       -0.8510    -3.9750    -0.7710 C.3   1 <1>  -0.2400 
  9 C       -5.2640    -0.2500     0.3810 C.3   1 <1>   0.1400 
 10 C       -4.1010     1.8180     1.1840 C.3   1 <1>   0.1400 
 11 N       -5.3930     1.1930     0.7580 N.am  1 <1>  -0.6600 
 12 C       -6.5130     1.9530     0.4910 C.2   1 <1>   0.5440 
 13 O       -6.3970     3.1620     0.4190 O.2   1 <1>  -0.5700 
 14 C       -7.8140     1.3480     0.2750 C.ar  1 <1>   0.0860 
 15 C       -8.5750     1.6630    -0.8460 C.ar  1 <1>  -0.1500 
 16 C       -8.3540     0.4320     1.1720 C.ar  1 <1>  -0.1500 
 17 C       -9.8050     1.0740    -1.0750 C.ar  1 <1>  -0.1500 
 18 C       -9.5840    -0.1580     0.9470 C.ar  1 <1>  -0.1500 
 19 C      -10.3360     0.1460    -0.1830 C.ar  1 <1>  -0.1440 
 20 C      -11.7040    -0.5400    -0.3950 C.3   1 <1>   0.1430 
 21 C      -12.4050    -0.1060    -1.6930 C.3   1 <1>  -0.2400 
 22 C      -11.5110    -2.0630    -0.4610 C.3   1 <1>  -0.2400 
 23 C      -12.6370    -0.1940     0.7750 C.3   1 <1>  -0.2400 
 24 H       -0.1980    -2.5130     0.6810 H     1 <1>   0.0800 
 25 H        0.2210    -2.1100    -0.9810 H     1 <1>   0.0800 
 26 H       -4.0440    -1.4930    -0.8730 H     1 <1>   0.0800 
 27 H       -4.5060     0.0110    -1.6100 H     1 <1>   0.0800 
 28 H       -3.2950     2.2060    -0.7650 H     1 <1>   0.0800 
 29 H       -2.0860     2.0180     0.4720 H     1 <1>   0.0800 
 30 H       -1.6100    -4.3910    -0.1330 H     1 <1>   0.0800 
 31 H        0.0320    -4.5820    -0.6940 H     1 <1>   0.0800 
 32 H       -1.1890    -3.9890    -1.7920 H     1 <1>   0.0800 
 33 H       -5.0040    -0.8210     1.2550 H     1 <1>   0.0800 
 34 H       -6.1930    -0.6320    -0.0010 H     1 <1>   0.0800 
 35 H       -4.2320     2.8680     1.3810 H     1 <1>   0.0800 
 36 H       -3.7690     1.3560     2.0970 H     1 <1>   0.0800 
 37 H       -8.1880     2.3840    -1.5460 H     1 <1>   0.1500 
 38 H       -7.7990     0.1840     2.0600 H     1 <1>   0.1500 
 39 H      -10.3350     1.3650    -1.9630 H     1 <1>   0.1500 
 40 H       -9.9560    -0.8610     1.6700 H     1 <1>   0.1500 
 41 H      -11.8000    -0.3470    -2.5490 H     1 <1>   0.0800 
 42 H      -12.5950     0.9520    -1.6840 H     1 <1>   0.0800 
 43 H      -13.3480    -0.6110    -1.8010 H     1 <1>   0.0800 
 44 H      -10.8310    -2.3130    -1.2560 H     1 <1>   0.0800 
 45 H      -12.4480    -2.5570    -0.6440 H     1 <1>   0.0800 
 46 H      -11.1080    -2.4440     0.4590 H     1 <1>   0.0800 
 47 H      -12.7520     0.8720     0.8500 H     1 <1>   0.0800 
 48 H      -12.2450    -0.5570     1.7060 H     1 <1>   0.0800 
 49 H      -13.6080    -0.6330     0.6280 H     1 <1>   0.0800 
@<TRIPOS>BOND
  1   1   2  2   
  2   2   3  1   
  3   2   4  am  
  4   3   5  1   
  5   4   6  1   
  6   4   7  1   
  7   5   8  1   
  8   5  24  1   
  9   5  25  1   
 10   6   9  1   
 11   6  26  1   
 12   6  27  1   
 13   7  10  1   
 14   7  28  1   
 15   7  29  1   
 16   8  30  1   
 17   8  31  1   
 18   8  32  1   
 19   9  11  1   
 20   9  33  1   
 21   9  34  1   
 22  10  11  1   
 23  10  35  1   
 24  10  36  1   
 25  11  12  am  
 26  12  13  2   
 27  12  14  1   
 28  14  15  ar  
 29  14  16  ar  
 30  15  17  ar  
 31  15  37  1   
 32  16  18  ar  
 33  16  38  1   
 34  17  19  ar  
 35  17  39  1   
 36  18  19  ar  
 37  18  40  1   
 38  19  20  1   
 39  20  21  1   
 40  20  22  1   
 41  20  23  1   
 42  21  41  1   
 43  21  42  1   
 44  21  43  1   
 45  22  44  1   
 46  22  45  1   
 47  22  46  1   
 48  23  47  1   
 49  23  48  1   
 50  23  49  1   
@<TRIPOS>SUBSTRUCTURE
  1 ****   9 GROUP 4 **** **** 0

# MOE 2024.06 (io_trps.svl 2023.06)
