@<TRIPOS>MOLECULE
NONAME
45 46 1 0 0 
SMALL
USER_CHARGES


@<TRIPOS>ATOM
  1 S        1.6180    -0.5040     1.5100 S.3   1 <1>  -0.3320 
  2 C        1.2850    -1.8560     0.3630 C.ar  1 <1>   0.1020 
  3 C        1.7210     1.0540     0.5210 C.3   1 <1>   0.0700 
  4 C        1.7980    -1.9290    -0.9390 C.ar  1 <1>   0.0860 
  5 C        0.4770    -2.8560     0.8750 C.ar  1 <1>  -0.1500 
  6 C        1.4660     2.2220     1.4690 C.3   1 <1>  -0.2400 
  7 C        2.7030    -0.9640    -1.5220 C.2   1 <1>   0.5440 
  8 C        1.4200    -3.0300    -1.7080 C.ar  1 <1>  -0.1500 
  9 C        0.1330    -3.9430     0.0930 C.ar  1 <1>  -0.1500 
 10 O        2.2750    -0.2000    -2.3660 O.2   1 <1>  -0.5700 
 11 N        4.0430    -0.9080    -1.1830 N.am  1 <1>  -0.6600 
 12 C        0.6020    -4.0250    -1.2050 C.ar  1 <1>  -0.1500 
 13 C        4.9870     0.0170    -1.8720 C.3   1 <1>   0.1400 
 14 C        4.6670    -1.7720    -0.1430 C.3   1 <1>   0.1400 
 15 C        5.7060     0.8930    -0.8420 C.3   1 <1>  -0.1600 
 16 C        5.3740    -0.8970     0.8960 C.3   1 <1>  -0.1600 
 17 C        6.4020     0.0500     0.2430 C.3   1 <1>  -0.0190 
 18 C        7.1010     0.9520     1.2740 C.2   1 <1>   0.6590 
 19 O        6.5410     1.2820     2.2840 O.2   1 <1>  -0.5700 
 20 O        8.3350     1.3950     1.0420 O.3   1 <1>  -0.4300 
 21 C        9.1850     1.0160    -0.0150 C.3   1 <1>   0.1200 
 22 C       10.4810     1.8060     0.1240 C.3   1 <1>  -0.2400 
 23 H        0.9770     0.9990    -0.2550 H     1 <1>   0.0800 
 24 H        2.7060     1.1100     0.0960 H     1 <1>   0.0800 
 25 H        0.1130    -2.7790     1.8840 H     1 <1>   0.1500 
 26 H        0.4920     2.1310     1.9150 H     1 <1>   0.0800 
 27 H        1.5160     3.1490     0.9280 H     1 <1>   0.0800 
 28 H        2.2110     2.2340     2.2460 H     1 <1>   0.0800 
 29 H        1.7820    -3.1000    -2.7200 H     1 <1>   0.1500 
 30 H       -0.5000    -4.7190     0.4910 H     1 <1>   0.1500 
 31 H        0.3310    -4.8650    -1.8230 H     1 <1>   0.1500 
 32 H        4.4660     0.6470    -2.5730 H     1 <1>   0.0800 
 33 H        5.7030    -0.5670    -2.4240 H     1 <1>   0.0800 
 34 H        5.3790    -2.4280    -0.6160 H     1 <1>   0.0800 
 35 H        3.9320    -2.3830     0.3500 H     1 <1>   0.0800 
 36 H        4.9860     1.5490    -0.3830 H     1 <1>   0.0800 
 37 H        6.4230     1.5110    -1.3500 H     1 <1>   0.0800 
 38 H        5.8670    -1.5280     1.6140 H     1 <1>   0.0800 
 39 H        4.6330    -0.3240     1.4270 H     1 <1>   0.0800 
 40 H        7.1380    -0.5740    -0.2270 H     1 <1>   0.0800 
 41 H        8.7040     1.2450    -0.9500 H     1 <1>   0.0800 
 42 H        9.3770    -0.0410     0.0600 H     1 <1>   0.0800 
 43 H       10.2810     2.8610     0.0650 H     1 <1>   0.0800 
 44 H       11.1590     1.5410    -0.6670 H     1 <1>   0.0800 
 45 H       10.9510     1.5840     1.0660 H     1 <1>   0.0800 
@<TRIPOS>BOND
  1   1   2  1   
  2   1   3  1   
  3   2   4  ar  
  4   2   5  ar  
  5   3   6  1   
  6   3  23  1   
  7   3  24  1   
  8   4   7  1   
  9   4   8  ar  
 10   5   9  ar  
 11   5  25  1   
 12   6  26  1   
 13   6  27  1   
 14   6  28  1   
 15   7  10  2   
 16   7  11  am  
 17   8  12  ar  
 18   8  29  1   
 19   9  12  ar  
 20   9  30  1   
 21  11  13  1   
 22  11  14  1   
 23  12  31  1   
 24  13  15  1   
 25  13  32  1   
 26  13  33  1   
 27  14  16  1   
 28  14  34  1   
 29  14  35  1   
 30  15  17  1   
 31  15  36  1   
 32  15  37  1   
 33  16  17  1   
 34  16  38  1   
 35  16  39  1   
 36  17  18  1   
 37  17  40  1   
 38  18  19  2   
 39  18  20  1   
 40  20  21  1   
 41  21  22  1   
 42  21  41  1   
 43  21  42  1   
 44  22  43  1   
 45  22  44  1   
 46  22  45  1   
@<TRIPOS>SUBSTRUCTURE
  1 ****  11 GROUP 4 **** **** 0

# MOE 2024.06 (io_trps.svl 2023.06)
