@<TRIPOS>MOLECULE
NONAME
43 46 1 0 0 
SMALL
USER_CHARGES


@<TRIPOS>ATOM
  1 O        0.8600     1.9180     3.0160 O.2   1 <1>  -0.5700 
  2 C        0.3910     1.7000     1.9260 C.2   1 <1>   0.5690 
  3 N        1.1550     1.3390     0.8670 N.am  1 <1>  -0.7300 
  4 C       -1.1110     1.8360     1.7320 C.3   1 <1>   0.0440 
  5 C        2.6170     1.1540     0.8440 C.3   1 <1>   0.2200 
  6 C       -1.5520     1.5290     0.3020 C.ar  1 <1>  -0.1440 
  7 C        3.2540     2.1290    -0.1700 C.3   1 <1>  -0.0800 
  8 C        2.9570    -0.2980     0.4430 C.3   1 <1>  -0.0800 
  9 C       -1.5980     2.5380    -0.6480 C.ar  1 <1>  -0.1500 
 10 C       -1.8810     0.2330    -0.0650 C.ar  1 <1>  -0.1500 
 11 C        4.7860     1.9510    -0.1230 C.3   1 <1>  -0.1600 
 12 C        2.7670     1.8250    -1.6050 C.3   1 <1>  -0.1600 
 13 C        4.4890    -0.4720     0.4890 C.3   1 <1>  -0.1600 
 14 C        2.4690    -0.6000    -0.9930 C.3   1 <1>  -0.1600 
 15 C       -1.9660     2.2540    -1.9510 C.ar  1 <1>  -0.1500 
 16 C       -2.2490    -0.0520    -1.3690 C.ar  1 <1>  -0.1500 
 17 C        5.1610     0.5030    -0.4980 C.3   1 <1>  -0.0800 
 18 C        3.1260     0.3760    -1.9890 C.3   1 <1>  -0.0800 
 19 C       -2.2910     0.9590    -2.3130 C.ar  1 <1>  -0.1500 
 20 C        4.6560     0.2050    -1.9230 C.3   1 <1>  -0.1600 
 21 H        0.6910     1.1700    -0.0290 H     1 <1>   0.3700 
 22 H       -1.3960     2.8370     1.9960 H     1 <1>   0.0800 
 23 H       -1.6010     1.1690     2.4170 H     1 <1>   0.0800 
 24 H        3.0090     1.3540     1.8280 H     1 <1>   0.0800 
 25 H        3.0050     3.1390     0.1030 H     1 <1>   0.0800 
 26 H        2.5010    -0.9760     1.1430 H     1 <1>   0.0800 
 27 H       -1.3430     3.5490    -0.3790 H     1 <1>   0.1500 
 28 H       -1.8470    -0.5620     0.6600 H     1 <1>   0.1500 
 29 H        5.1490     2.1760     0.8650 H     1 <1>   0.0800 
 30 H        5.2540     2.6380    -0.8060 H     1 <1>   0.0800 
 31 H        3.2310     2.5070    -2.2960 H     1 <1>   0.0800 
 32 H        1.7030     1.9710    -1.6800 H     1 <1>   0.0800 
 33 H        4.7490    -1.4850     0.2360 H     1 <1>   0.0800 
 34 H        4.8470    -0.2850     1.4870 H     1 <1>   0.0800 
 35 H        1.3980    -0.5180    -1.0520 H     1 <1>   0.0800 
 36 H        2.7260    -1.6110    -1.2560 H     1 <1>   0.0800 
 37 H       -2.0000     3.0410    -2.6850 H     1 <1>   0.1500 
 38 H       -2.5030    -1.0600    -1.6490 H     1 <1>   0.1500 
 39 H        6.2300     0.3820    -0.4590 H     1 <1>   0.0800 
 40 H        2.7800     0.1660    -2.9870 H     1 <1>   0.0800 
 41 H       -2.5780     0.7380    -3.3260 H     1 <1>   0.1500 
 42 H        4.9220    -0.8000    -2.2010 H     1 <1>   0.0800 
 43 H        5.1270     0.8720    -2.6230 H     1 <1>   0.0800 
@<TRIPOS>BOND
  1   1   2  2   
  2   2   3  am  
  3   2   4  1   
  4   3   5  1   
  5   3  21  1   
  6   4   6  1   
  7   4  22  1   
  8   4  23  1   
  9   5   7  1   
 10   5   8  1   
 11   5  24  1   
 12   6   9  ar  
 13   6  10  ar  
 14   7  11  1   
 15   7  12  1   
 16   7  25  1   
 17   8  13  1   
 18   8  14  1   
 19   8  26  1   
 20   9  15  ar  
 21   9  27  1   
 22  10  16  ar  
 23  10  28  1   
 24  11  17  1   
 25  11  29  1   
 26  11  30  1   
 27  12  18  1   
 28  12  31  1   
 29  12  32  1   
 30  13  17  1   
 31  13  33  1   
 32  13  34  1   
 33  14  18  1   
 34  14  35  1   
 35  14  36  1   
 36  15  19  ar  
 37  15  37  1   
 38  16  19  ar  
 39  16  38  1   
 40  17  20  1   
 41  17  39  1   
 42  18  20  1   
 43  18  40  1   
 44  19  41  1   
 45  20  42  1   
 46  20  43  1   
@<TRIPOS>SUBSTRUCTURE
  1 ****   3 GROUP 4 **** **** 0

# MOE 2024.06 (io_trps.svl 2023.06)
