@<TRIPOS>MOLECULE
NONAME
47 49 1 0 0 
SMALL
USER_CHARGES


@<TRIPOS>ATOM
  1 O        0.2480     0.9530    -0.8370 O.2   1 <1>  -0.5700 
  2 C        0.6010     1.8710    -0.1380 C.2   1 <1>   0.5690 
  3 N       -0.1880     2.8090     0.4380 N.am  1 <1>  -0.6600 
  4 C        2.0450     2.1080     0.1990 C.3   1 <1>  -0.0990 
  5 C       -1.6520     2.9900     0.2950 C.3   1 <1>   0.2200 
  6 C        0.5940     3.7830     1.2210 C.3   1 <1>   0.1400 
  7 C        1.9760     3.1240     1.3540 C.3   1 <1>  -0.0190 
  8 C       -2.4050     1.7740     0.8490 C.3   1 <1>  -0.1600 
  9 C       -2.0240     3.2620    -1.1690 C.3   1 <1>  -0.1600 
 10 C        3.1200     4.1270     1.3900 C.2   1 <1>   0.5690 
 11 C       -3.9230     1.9490     0.6930 C.3   1 <1>  -0.1600 
 12 C       -3.5410     3.4390    -1.3270 C.3   1 <1>  -0.1600 
 13 O        2.8950     5.2790     1.6690 O.2   1 <1>  -0.5700 
 14 N        4.3760     3.6930     1.1260 N.am  1 <1>  -0.7300 
 15 C       -4.3000     2.2260    -0.7690 C.3   1 <1>  -0.1600 
 16 C        5.5940     4.5320     1.0590 C.3   1 <1>   0.1400 
 17 C        6.4170     4.1570    -0.1830 C.3   1 <1>   0.2000 
 18 O        6.5550     2.7720    -0.2710 O.3   1 <1>  -0.5600 
 19 C        7.8460     4.6790    -0.1740 C.3   1 <1>  -0.1600 
 20 C        7.6630     2.4450    -1.0500 C.3   1 <1>   0.1200 
 21 C        8.5760     3.6710    -1.0470 C.3   1 <1>  -0.1600 
 22 H        2.5290     2.5230    -0.6660 H     1 <1>   0.0800 
 23 H        2.5260     1.1930     0.4920 H     1 <1>   0.0800 
 24 H       -1.9440     3.8500     0.8740 H     1 <1>   0.0800 
 25 H        0.1500     3.9560     2.1870 H     1 <1>   0.0800 
 26 H        0.6510     4.7090     0.6730 H     1 <1>   0.0800 
 27 H        1.9860     2.5860     2.2840 H     1 <1>   0.0800 
 28 H       -2.1620     1.6450     1.8880 H     1 <1>   0.0800 
 29 H       -2.1020     0.8900     0.3160 H     1 <1>   0.0800 
 30 H       -1.7060     2.4360    -1.7800 H     1 <1>   0.0800 
 31 H       -1.5200     4.1500    -1.5080 H     1 <1>   0.0800 
 32 H       -4.2550     2.7680     1.3090 H     1 <1>   0.0800 
 33 H       -4.4230     1.0580     1.0310 H     1 <1>   0.0800 
 34 H       -3.7810     3.5660    -2.3690 H     1 <1>   0.0800 
 35 H       -3.8550     4.3270    -0.8060 H     1 <1>   0.0800 
 36 H        4.5590     2.7250     0.8390 H     1 <1>   0.3700 
 37 H       -5.3600     2.3980    -0.8430 H     1 <1>   0.0800 
 38 H       -4.0660     1.3600    -1.3650 H     1 <1>   0.0800 
 39 H        6.1810     4.3650     1.9450 H     1 <1>   0.0800 
 40 H        5.3290     5.5750     1.0220 H     1 <1>   0.0800 
 41 H        5.9090     4.4880    -1.0730 H     1 <1>   0.0800 
 42 H        8.2410     4.6520     0.8270 H     1 <1>   0.0800 
 43 H        7.9100     5.6820    -0.5560 H     1 <1>   0.0800 
 44 H        7.3220     2.2120    -2.0440 H     1 <1>   0.0800 
 45 H        8.1410     1.5850    -0.6130 H     1 <1>   0.0800 
 46 H        9.5500     3.4340    -0.6560 H     1 <1>   0.0800 
 47 H        8.6830     4.0400    -2.0520 H     1 <1>   0.0800 
@<TRIPOS>BOND
  1   1   2  2   
  2   2   3  am  
  3   2   4  1   
  4   3   5  1   
  5   3   6  1   
  6   4   7  1   
  7   4  22  1   
  8   4  23  1   
  9   5   8  1   
 10   5   9  1   
 11   5  24  1   
 12   6   7  1   
 13   6  25  1   
 14   6  26  1   
 15   7  10  1   
 16   7  27  1   
 17   8  11  1   
 18   8  28  1   
 19   8  29  1   
 20   9  12  1   
 21   9  30  1   
 22   9  31  1   
 23  10  13  2   
 24  10  14  am  
 25  11  15  1   
 26  11  32  1   
 27  11  33  1   
 28  12  15  1   
 29  12  34  1   
 30  12  35  1   
 31  14  16  1   
 32  14  36  1   
 33  15  37  1   
 34  15  38  1   
 35  16  17  1   
 36  16  39  1   
 37  16  40  1   
 38  17  18  1   
 39  17  19  1   
 40  17  41  1   
 41  18  20  1   
 42  19  21  1   
 43  19  42  1   
 44  19  43  1   
 45  20  21  1   
 46  20  44  1   
 47  20  45  1   
 48  21  46  1   
 49  21  47  1   
@<TRIPOS>SUBSTRUCTURE
  1 ****   4 GROUP 4 **** **** 0

# MOE 2024.06 (io_trps.svl 2023.06)
