@<TRIPOS>MOLECULE
NONAME
47 49 1 0 0 
SMALL
USER_CHARGES


@<TRIPOS>ATOM
  1 CL       0.1310    -0.1730     0.4600 Cl    1 <1>  -0.1770 
  2 C        1.6760    -0.7700    -0.0960 C.ar  1 <1>   0.1770 
  3 C        2.7600    -0.7520     0.7610 C.ar  1 <1>  -0.1500 
  4 C        1.7940    -1.2510    -1.3860 C.ar  1 <1>  -0.1500 
  5 C        3.9810    -1.2290     0.3160 C.ar  1 <1>  -0.1500 
  6 C        3.0190    -1.7240    -1.8220 C.ar  1 <1>  -0.1500 
  7 C        4.1280    -1.7280    -0.9780 C.ar  1 <1>   0.1990 
  8 N        5.3630    -2.2120    -1.4060 N.am  1 <1>  -0.6930 
  9 S        5.5780    -3.8090    -2.0570 S.o2  1 <1>   1.4470 
 10 C        6.5730    -1.3350    -1.2970 C.3   1 <1>   0.2570 
 11 O        7.0010    -3.9770    -2.2580 O.2   1 <1>  -0.6500 
 12 O        4.6950    -3.9310    -3.1930 O.2   1 <1>  -0.6500 
 13 C        5.0310    -4.9010    -0.7150 C.ar  1 <1>  -0.0090 
 14 C        7.4740    -1.6410    -0.0950 C.2   1 <1>   0.5690 
 15 C        5.2430    -4.5870     0.6240 C.ar  1 <1>  -0.1500 
 16 C        4.3990    -6.1060    -1.0010 C.ar  1 <1>  -0.1500 
 17 O        7.4360    -0.9100     0.8660 O.2   1 <1>  -0.5700 
 18 N        8.2900    -2.7240    -0.1330 N.am  1 <1>  -0.7300 
 19 C        4.8390    -5.4390     1.6380 C.ar  1 <1>  -0.1500 
 20 C        3.9910    -6.9650     0.0050 C.ar  1 <1>  -0.1500 
 21 C        9.2900    -3.1100     0.8750 C.3   1 <1>   0.2200 
 22 C        4.2110    -6.6300     1.3280 C.ar  1 <1>  -0.1500 
 23 C       10.5150    -3.6450     0.1440 C.3   1 <1>  -0.1600 
 24 C        8.7900    -4.3310     1.6350 C.3   1 <1>  -0.1600 
 25 C       10.1690    -5.0900    -0.2390 C.3   1 <1>  -0.1600 
 26 C        9.0380    -5.5230     0.7050 C.3   1 <1>  -0.1600 
 27 H        2.6460    -0.3710     1.7590 H     1 <1>   0.1500 
 28 H        0.9380    -1.2520    -2.0370 H     1 <1>   0.1500 
 29 H        4.8230    -1.2170     0.9840 H     1 <1>   0.1500 
 30 H        3.1120    -2.0860    -2.8310 H     1 <1>   0.1500 
 31 H        6.2560    -0.3100    -1.2210 H     1 <1>   0.0800 
 32 H        7.1570    -1.4210    -2.1960 H     1 <1>   0.0800 
 33 H        5.7310    -3.6650     0.8860 H     1 <1>   0.1500 
 34 H        4.2220    -6.3780    -2.0290 H     1 <1>   0.1500 
 35 H        8.2270    -3.3710    -0.9330 H     1 <1>   0.3700 
 36 H        5.0130    -5.1730     2.6670 H     1 <1>   0.1500 
 37 H        3.5020    -7.8920    -0.2420 H     1 <1>   0.1500 
 38 H        9.5180    -2.2810     1.5250 H     1 <1>   0.0800 
 39 H        3.8950    -7.2950     2.1140 H     1 <1>   0.1500 
 40 H       11.3430    -3.6540     0.8300 H     1 <1>   0.0800 
 41 H       10.7800    -3.0410    -0.7070 H     1 <1>   0.0800 
 42 H        7.7640    -4.2370     1.9360 H     1 <1>   0.0800 
 43 H        9.3920    -4.4480     2.5190 H     1 <1>   0.0800 
 44 H       11.0300    -5.7290    -0.1410 H     1 <1>   0.0800 
 45 H        9.8210    -5.1290    -1.2580 H     1 <1>   0.0800 
 46 H        8.1500    -5.7300     0.1320 H     1 <1>   0.0800 
 47 H        9.3030    -6.4030     1.2650 H     1 <1>   0.0800 
@<TRIPOS>BOND
  1   1   2  1   
  2   2   3  ar  
  3   2   4  ar  
  4   3   5  ar  
  5   3  27  1   
  6   4   6  ar  
  7   4  28  1   
  8   5   7  ar  
  9   5  29  1   
 10   6   7  ar  
 11   6  30  1   
 12   7   8  1   
 13   8   9  am  
 14   8  10  1   
 15   9  11  2   
 16   9  12  2   
 17   9  13  1   
 18  10  14  1   
 19  10  31  1   
 20  10  32  1   
 21  13  15  ar  
 22  13  16  ar  
 23  14  17  2   
 24  14  18  am  
 25  15  19  ar  
 26  15  33  1   
 27  16  20  ar  
 28  16  34  1   
 29  18  21  1   
 30  18  35  1   
 31  19  22  ar  
 32  19  36  1   
 33  20  22  ar  
 34  20  37  1   
 35  21  23  1   
 36  21  24  1   
 37  21  38  1   
 38  22  39  1   
 39  23  25  1   
 40  23  40  1   
 41  23  41  1   
 42  24  26  1   
 43  24  42  1   
 44  24  43  1   
 45  25  26  1   
 46  25  44  1   
 47  25  45  1   
 48  26  46  1   
 49  26  47  1   
@<TRIPOS>SUBSTRUCTURE
  1 ****   8 GROUP 4 **** **** 0

# MOE 2024.06 (io_trps.svl 2023.06)
