@<TRIPOS>MOLECULE
NONAME
42 42 1 0 0 
SMALL
USER_CHARGES


@<TRIPOS>ATOM
  1 O       -1.1160     3.4030     1.0350 O.2   1 <1>  -0.5700 
  2 C       -0.5420     2.4560     0.5520 C.2   1 <1>   0.5690 
  3 N       -1.1820     1.3600     0.0460 N.am  1 <1>  -0.5470 
  4 C        0.9900     2.4690     0.4890 C.3   1 <1>  -0.0190 
  5 C       -2.5390     0.9950    -0.0680 C.ar  1 <1>   0.1170 
  6 C        1.6120     2.5680     1.8920 C.3   1 <1>  -0.2400 
  7 C        1.5070     3.6140    -0.3970 C.3   1 <1>  -0.2400 
  8 C       -2.8490    -0.1760    -0.7670 C.ar  1 <1>   0.0820 
  9 C       -3.5800     1.7340     0.4820 C.ar  1 <1>  -0.1500 
 10 O       -1.7990    -0.8860    -1.2860 O.3   1 <1>  -0.3620 
 11 C       -4.1730    -0.5770    -0.9100 C.ar  1 <1>  -0.1500 
 12 C       -4.8930     1.3270     0.3370 C.ar  1 <1>  -0.1500 
 13 C       -1.9990    -2.1150    -1.9500 C.3   1 <1>   0.0400 
 14 C       -5.2090     0.1670    -0.3610 C.ar  1 <1>   0.1170 
 15 N       -6.5330    -0.2680    -0.5480 N.am  1 <1>  -0.5470 
 16 C       -7.6480    -0.0690     0.2200 C.2   1 <1>   0.5690 
 17 O       -7.6310     0.5210     1.2740 O.2   1 <1>  -0.5700 
 18 C       -8.9740    -0.6460    -0.2880 C.3   1 <1>  -0.0190 
 19 C      -10.0540     0.4410    -0.4190 C.3   1 <1>  -0.2400 
 20 C       -9.4770    -1.7790     0.6210 C.3   1 <1>  -0.2400 
 21 H       -0.5770     0.6510    -0.3710 H     1 <1>   0.3700 
 22 H        1.3180     1.5430     0.0520 H     1 <1>   0.0800 
 23 H        1.3230     3.4930     2.3630 H     1 <1>   0.0800 
 24 H        2.6850     2.5280     1.8350 H     1 <1>   0.0800 
 25 H        1.2680     1.7550     2.5070 H     1 <1>   0.0800 
 26 H        1.2130     4.5640     0.0130 H     1 <1>   0.0800 
 27 H        1.0940     3.5310    -1.3870 H     1 <1>   0.0800 
 28 H        2.5800     3.5840    -0.4680 H     1 <1>   0.0800 
 29 H       -3.3770     2.6340     1.0310 H     1 <1>   0.1500 
 30 H       -4.4240    -1.4710    -1.4430 H     1 <1>   0.1500 
 31 H       -5.6750     1.9230     0.7710 H     1 <1>   0.1500 
 32 H       -1.0370    -2.4980    -2.2410 H     1 <1>   0.0800 
 33 H       -2.6030    -1.9470    -2.8240 H     1 <1>   0.0800 
 34 H       -2.4760    -2.8040    -1.2760 H     1 <1>   0.0800 
 35 H       -6.6780    -0.8470    -1.3710 H     1 <1>   0.3700 
 36 H       -8.8110    -1.0600    -1.2680 H     1 <1>   0.0800 
 37 H      -10.2670     0.8720     0.5440 H     1 <1>   0.0800 
 38 H      -10.9620     0.0280    -0.8220 H     1 <1>   0.0800 
 39 H       -9.7120     1.2250    -1.0720 H     1 <1>   0.0800 
 40 H       -9.6670    -1.4020     1.6120 H     1 <1>   0.0800 
 41 H       -8.7370    -2.5560     0.6920 H     1 <1>   0.0800 
 42 H      -10.3860    -2.2030     0.2330 H     1 <1>   0.0800 
@<TRIPOS>BOND
  1   1   2  2   
  2   2   3  am  
  3   2   4  1   
  4   3   5  1   
  5   3  21  1   
  6   4   6  1   
  7   4   7  1   
  8   4  22  1   
  9   5   8  ar  
 10   5   9  ar  
 11   6  23  1   
 12   6  24  1   
 13   6  25  1   
 14   7  26  1   
 15   7  27  1   
 16   7  28  1   
 17   8  10  1   
 18   8  11  ar  
 19   9  12  ar  
 20   9  29  1   
 21  10  13  1   
 22  11  14  ar  
 23  11  30  1   
 24  12  14  ar  
 25  12  31  1   
 26  13  32  1   
 27  13  33  1   
 28  13  34  1   
 29  14  15  1   
 30  15  16  am  
 31  15  35  1   
 32  16  17  2   
 33  16  18  1   
 34  18  19  1   
 35  18  20  1   
 36  18  36  1   
 37  19  37  1   
 38  19  38  1   
 39  19  39  1   
 40  20  40  1   
 41  20  41  1   
 42  20  42  1   
@<TRIPOS>SUBSTRUCTURE
  1 ****   9 GROUP 4 **** **** 0

# MOE 2024.06 (io_trps.svl 2023.06)
