@<TRIPOS>MOLECULE
NONAME
34 35 1 0 0 
SMALL
USER_CHARGES


@<TRIPOS>ATOM
  1 S       -0.0490     0.0420     0.3380 S.3   1 <1>  -0.0800 
  2 C       -0.9940    -0.8730    -0.8210 C.2   1 <1>  -0.1100 
  3 C       -1.0420    -0.5290     1.6650 C.2   1 <1>  -0.1100 
  4 C       -1.9900    -1.5410    -0.2070 C.2   1 <1>  -0.1810 
  5 C       -2.0100    -1.3490     1.2170 C.2   1 <1>  -0.1500 
  6 C       -3.0160    -2.4150    -0.8970 C.3   1 <1>   0.5240 
  7 N       -4.3320    -1.7400    -0.7810 N.4   1 <1>  -0.9590 
  8 C       -5.4760    -2.6290    -1.0700 C.3   1 <1>   0.3430 
  9 C       -4.4040    -0.4680    -1.5320 C.3   1 <1>   0.3430 
 10 C       -6.0990    -3.0440     0.2600 C.3   1 <1>  -0.1600 
 11 C       -4.9010     0.6260    -0.5860 C.3   1 <1>  -0.1600 
 12 C       -6.9780    -1.9650     0.9200 C.3   1 <1>  -0.1600 
 13 C       -6.2860     0.3820     0.0470 C.3   1 <1>  -0.1600 
 14 C       -6.3160    -0.6080     1.2330 C.3   1 <1>  -0.1600 
 15 H       -0.6880    -0.7990    -1.8510 H     1 <1>   0.1500 
 16 H       -0.7860    -0.1870     2.6530 H     1 <1>   0.1500 
 17 H       -2.7350    -1.8310     1.8510 H     1 <1>   0.1500 
 18 H       -3.0440    -3.3790    -0.4160 H     1 <1>   0.0800 
 19 H       -2.7540    -2.5500    -1.9340 H     1 <1>   0.0800 
 20 H       -4.4290    -1.4610     0.2020 H     1 <1>   0.4500 
 21 H       -5.1460    -3.4990    -1.6150 H     1 <1>   0.0800 
 22 H       -6.2180    -2.1170    -1.6630 H     1 <1>   0.0800 
 23 H       -5.0710    -0.5620    -2.3740 H     1 <1>   0.0800 
 24 H       -3.4290    -0.1930    -1.9000 H     1 <1>   0.0800 
 25 H       -5.3360    -3.3740     0.9430 H     1 <1>   0.0800 
 26 H       -6.7300    -3.8960     0.0690 H     1 <1>   0.0800 
 27 H       -4.9610     1.5330    -1.1640 H     1 <1>   0.0800 
 28 H       -4.1670     0.8060     0.1810 H     1 <1>   0.0800 
 29 H       -7.3300    -2.3750     1.8530 H     1 <1>   0.0800 
 30 H       -7.8580    -1.8010     0.3190 H     1 <1>   0.0800 
 31 H       -6.9990     0.1020    -0.7100 H     1 <1>   0.0800 
 32 H       -6.6190     1.3340     0.4280 H     1 <1>   0.0800 
 33 H       -5.3450    -0.7360     1.6790 H     1 <1>   0.0800 
 34 H       -6.9250    -0.1480     1.9960 H     1 <1>   0.0800 
@<TRIPOS>BOND
  1   1   2  1   
  2   1   3  1   
  3   2   4  2   
  4   2  15  1   
  5   3   5  2   
  6   3  16  1   
  7   4   5  1   
  8   4   6  1   
  9   5  17  1   
 10   6   7  1   
 11   6  18  1   
 12   6  19  1   
 13   7   8  1   
 14   7   9  1   
 15   7  20  1   
 16   8  10  1   
 17   8  21  1   
 18   8  22  1   
 19   9  11  1   
 20   9  23  1   
 21   9  24  1   
 22  10  12  1   
 23  10  25  1   
 24  10  26  1   
 25  11  13  1   
 26  11  27  1   
 27  11  28  1   
 28  12  14  1   
 29  12  29  1   
 30  12  30  1   
 31  13  14  1   
 32  13  31  1   
 33  13  32  1   
 34  14  33  1   
 35  14  34  1   
@<TRIPOS>SUBSTRUCTURE
  1 ****   7 GROUP 4 **** **** 0

# MOE 2024.06 (io_trps.svl 2023.06)
