@<TRIPOS>MOLECULE
NONAME
43 44 1 0 0 
SMALL
USER_CHARGES


@<TRIPOS>ATOM
  1 O        0.4100    -1.1710    -2.5590 O.2   1 <1>  -0.5700 
  2 C        0.8860    -2.1400    -1.9990 C.2   1 <1>   0.5440 
  3 N        2.2600    -2.2800    -1.9870 N.am  1 <1>  -0.6600 
  4 C        0.0160    -3.0750    -1.3260 C.ar  1 <1>   0.0860 
  5 C        3.1330    -1.2480    -2.6160 C.3   1 <1>   0.1400 
  6 C        2.9720    -3.0840    -0.9520 C.3   1 <1>   0.1400 
  7 C       -0.2080    -2.9840     0.0510 C.ar  1 <1>   0.0830 
  8 C       -0.6200    -4.1020    -2.0220 C.ar  1 <1>  -0.1500 
  9 C        3.6310    -0.2840    -1.5260 C.3   1 <1>   0.3430 
 10 C        3.5060    -2.1460     0.1510 C.3   1 <1>   0.3430 
 11 O        0.3800    -2.0060     0.7660 O.3   1 <1>  -0.3630 
 12 C       -1.0170    -3.8980     0.7080 C.ar  1 <1>  -0.1500 
 13 C       -1.4330    -5.0110    -1.3710 C.ar  1 <1>  -0.1500 
 14 N        4.3360    -1.0100    -0.4050 N.4   1 <1>  -0.9590 
 15 C       -0.3700    -0.8230     0.9190 C.3   1 <1>   0.1200 
 16 C       -1.6310    -4.9120    -0.0030 C.ar  1 <1>  -0.1500 
 17 C        4.7480    -0.0670     0.6550 C.3   1 <1>   0.4810 
 18 C        0.5270     0.2260     1.5700 C.3   1 <1>  -0.2400 
 19 C        5.8180    -0.7540     1.4710 C.2   1 <1>  -0.2880 
 20 C        7.1270    -0.4890     1.4050 C.2   1 <1>  -0.3000 
 21 H        2.5910    -0.6970    -3.3670 H     1 <1>   0.0800 
 22 H        3.9640    -1.7250    -3.1040 H     1 <1>   0.0800 
 23 H        3.7870    -3.6160    -1.4090 H     1 <1>   0.0800 
 24 H        2.3170    -3.8160    -0.5130 H     1 <1>   0.0800 
 25 H       -0.4730    -4.1800    -3.0860 H     1 <1>   0.1500 
 26 H        2.7760     0.2450    -1.1380 H     1 <1>   0.0800 
 27 H        4.2940     0.4390    -1.9720 H     1 <1>   0.0800 
 28 H        4.0920    -2.7230     0.8460 H     1 <1>   0.0800 
 29 H        2.6640    -1.7440     0.6880 H     1 <1>   0.0800 
 30 H       -1.1670    -3.8140     1.7690 H     1 <1>   0.1500 
 31 H       -1.9160    -5.7980    -1.9260 H     1 <1>   0.1500 
 32 H        5.2060    -1.4120    -0.7760 H     1 <1>   0.4500 
 33 H       -1.2250    -1.0390     1.5370 H     1 <1>   0.0800 
 34 H       -0.7010    -0.4930    -0.0530 H     1 <1>   0.0800 
 35 H       -2.2630    -5.6230     0.5020 H     1 <1>   0.1500 
 36 H        3.9110     0.2160     1.2730 H     1 <1>   0.0800 
 37 H        5.1660     0.8220     0.2090 H     1 <1>   0.0800 
 38 H        0.8700    -0.1220     2.5280 H     1 <1>   0.0800 
 39 H       -0.0350     1.1310     1.7190 H     1 <1>   0.0800 
 40 H        1.3630     0.4460     0.9340 H     1 <1>   0.0800 
 41 H        5.4230    -1.4980     2.1440 H     1 <1>   0.1500 
 42 H        7.8700    -0.9910     2.0060 H     1 <1>   0.1500 
 43 H        7.5810     0.2460     0.7610 H     1 <1>   0.1500 
@<TRIPOS>BOND
  1   1   2  2   
  2   2   3  am  
  3   2   4  1   
  4   3   5  1   
  5   3   6  1   
  6   4   7  ar  
  7   4   8  ar  
  8   5   9  1   
  9   5  21  1   
 10   5  22  1   
 11   6  10  1   
 12   6  23  1   
 13   6  24  1   
 14   7  11  1   
 15   7  12  ar  
 16   8  13  ar  
 17   8  25  1   
 18   9  14  1   
 19   9  26  1   
 20   9  27  1   
 21  10  14  1   
 22  10  28  1   
 23  10  29  1   
 24  11  15  1   
 25  12  16  ar  
 26  12  30  1   
 27  13  16  ar  
 28  13  31  1   
 29  14  17  1   
 30  14  32  1   
 31  15  18  1   
 32  15  33  1   
 33  15  34  1   
 34  16  35  1   
 35  17  19  1   
 36  17  36  1   
 37  17  37  1   
 38  18  38  1   
 39  18  39  1   
 40  18  40  1   
 41  19  20  2   
 42  19  41  1   
 43  20  42  1   
 44  20  43  1   
@<TRIPOS>SUBSTRUCTURE
  1 ****   3 GROUP 4 **** **** 0

# MOE 2024.06 (io_trps.svl 2023.06)
