@<TRIPOS>MOLECULE
NONAME
38 38 1 0 0 
SMALL
USER_CHARGES


@<TRIPOS>ATOM
  1 CL       0.0830     0.4620    -0.5220 Cl    1 <1>  -0.1770 
  2 C        1.8060     0.2090    -0.3100 C.ar  1 <1>   0.1770 
  3 C        2.6430     1.3120    -0.2010 C.ar  1 <1>  -0.1440 
  4 C        2.2990    -1.0890    -0.2550 C.ar  1 <1>  -0.1440 
  5 C        4.0010     1.0990    -0.0330 C.ar  1 <1>  -0.1500 
  6 C        2.0930     2.7290    -0.2630 C.3   1 <1>  -0.0960 
  7 C        3.6620    -1.2810    -0.0870 C.ar  1 <1>  -0.1500 
  8 C        1.3650    -2.2860    -0.3770 C.3   1 <1>  -0.0960 
  9 C        4.5170    -0.1870     0.0250 C.ar  1 <1>   0.0830 
 10 O        5.8590    -0.2920     0.1920 O.3   1 <1>  -0.3630 
 11 C        6.4910    -1.5480     0.3240 C.3   1 <1>   0.1200 
 12 C        7.9940    -1.3130     0.5200 C.3   1 <1>   0.2000 
 13 O        8.4610    -0.4720    -0.4930 O.3   1 <1>  -0.6800 
 14 C        8.8160    -2.6180     0.4900 C.3   1 <1>   0.3430 
 15 N       10.2330    -2.3100     0.1340 N.4   1 <1>  -0.9060 
 16 C       10.9940    -3.4500    -0.4130 C.3   1 <1>   0.3430 
 17 C       12.3830    -2.9550    -0.7810 C.3   1 <1>  -0.2400 
 18 H        4.6740     1.9320     0.0550 H     1 <1>   0.1500 
 19 H        1.6000     2.8910    -1.2050 H     1 <1>   0.0800 
 20 H        2.8790     3.4550    -0.1600 H     1 <1>   0.0800 
 21 H        1.3820     2.8820     0.5300 H     1 <1>   0.0800 
 22 H        4.0370    -2.2850    -0.0460 H     1 <1>   0.1500 
 23 H        0.8520    -2.2550    -1.3210 H     1 <1>   0.0800 
 24 H        0.6350    -2.2630     0.4130 H     1 <1>   0.0800 
 25 H        1.9060    -3.2120    -0.3140 H     1 <1>   0.0800 
 26 H        6.3050    -2.1160    -0.5710 H     1 <1>   0.0800 
 27 H        6.0680    -2.0520     1.1760 H     1 <1>   0.0800 
 28 H        8.1490    -0.8100     1.4600 H     1 <1>   0.0800 
 29 H        7.8020     0.2520    -0.6220 H     1 <1>   0.4000 
 30 H        8.3930    -3.2650    -0.2600 H     1 <1>   0.0800 
 31 H        8.7580    -3.1220     1.4410 H     1 <1>   0.0800 
 32 H       10.7250    -1.8850     0.9270 H     1 <1>   0.4500 
 33 H       10.1560    -1.5530    -0.5710 H     1 <1>   0.4500 
 34 H       10.5010    -3.8400    -1.2900 H     1 <1>   0.0800 
 35 H       11.0680    -4.2370     0.3220 H     1 <1>   0.0800 
 36 H       12.3300    -2.1830    -1.5290 H     1 <1>   0.0800 
 37 H       12.9540    -3.7710    -1.1890 H     1 <1>   0.0800 
 38 H       12.9040    -2.5860     0.0850 H     1 <1>   0.0800 
@<TRIPOS>BOND
  1   1   2  1   
  2   2   3  ar  
  3   2   4  ar  
  4   3   5  ar  
  5   3   6  1   
  6   4   7  ar  
  7   4   8  1   
  8   5   9  ar  
  9   5  18  1   
 10   6  19  1   
 11   6  20  1   
 12   6  21  1   
 13   7   9  ar  
 14   7  22  1   
 15   8  23  1   
 16   8  24  1   
 17   8  25  1   
 18   9  10  1   
 19  10  11  1   
 20  11  12  1   
 21  11  26  1   
 22  11  27  1   
 23  12  13  1   
 24  12  14  1   
 25  12  28  1   
 26  13  29  1   
 27  14  15  1   
 28  14  30  1   
 29  14  31  1   
 30  15  16  1   
 31  15  32  1   
 32  15  33  1   
 33  16  17  1   
 34  16  34  1   
 35  16  35  1   
 36  17  36  1   
 37  17  37  1   
 38  17  38  1   
@<TRIPOS>SUBSTRUCTURE
  1 ****  10 GROUP 4 **** **** 0

# MOE 2024.06 (io_trps.svl 2023.06)
