@<TRIPOS>MOLECULE
NONAME
37 37 1 0 0 
SMALL
USER_CHARGES


@<TRIPOS>ATOM
  1 O       -3.9830     1.9410    -1.0070 O.3   1 <1>  -0.3630 
  2 C       -4.7160     2.5430    -0.0400 C.ar  1 <1>   0.0830 
  3 C       -2.7240     2.4480    -1.3950 C.3   1 <1>   0.0400 
  4 C       -5.8940     1.9110     0.3200 C.ar  1 <1>  -0.1500 
  5 C       -4.3540     3.7290     0.5880 C.ar  1 <1>  -0.1500 
  6 C       -6.7210     2.4540     1.2910 C.ar  1 <1>  -0.1430 
  7 C       -5.1710     4.2690     1.5660 C.ar  1 <1>  -0.1500 
  8 C       -6.3510     3.6360     1.9190 C.ar  1 <1>  -0.1500 
  9 C       -8.0160     1.7680     1.6450 C.3   1 <1>   0.4860 
 10 N       -8.9990     2.2330     0.6350 N.4   1 <1>  -0.9060 
 11 C      -10.3720     1.6430     0.8090 C.3   1 <1>   0.3430 
 12 C      -11.4070     2.1360    -0.2470 C.3   1 <1>   0.3430 
 13 N      -12.8110     1.6070    -0.0560 N.4   1 <1>  -0.9590 
 14 C      -12.9320     0.1200    -0.2530 C.3   1 <1>   0.2630 
 15 C      -13.7560     2.2920    -1.0040 C.3   1 <1>   0.2630 
 16 H       -2.3170     1.7950    -2.1460 H     1 <1>   0.0800 
 17 H       -2.0740     2.4670    -0.5380 H     1 <1>   0.0800 
 18 H       -2.8530     3.4350    -1.8020 H     1 <1>   0.0800 
 19 H       -6.1320     0.9880    -0.1790 H     1 <1>   0.1500 
 20 H       -3.4450     4.2420     0.3330 H     1 <1>   0.1500 
 21 H       -4.8820     5.1850     2.0540 H     1 <1>   0.1500 
 22 H       -6.9600     4.0800     2.6890 H     1 <1>   0.1500 
 23 H       -8.3210     2.0460     2.6420 H     1 <1>   0.0800 
 24 H       -7.8880     0.6980     1.5990 H     1 <1>   0.0800 
 25 H       -8.5750     2.0130    -0.2780 H     1 <1>   0.4500 
 26 H       -8.9880     3.2620     0.6970 H     1 <1>   0.4500 
 27 H      -10.7370     1.8970     1.7910 H     1 <1>   0.0800 
 28 H      -10.3000     0.5690     0.7460 H     1 <1>   0.0800 
 29 H      -11.0640     1.8550    -1.2300 H     1 <1>   0.0800 
 30 H      -11.4430     3.2130    -0.2050 H     1 <1>   0.0800 
 31 H      -13.1550     1.8310     0.8950 H     1 <1>   0.4500 
 32 H      -12.6200    -0.1560    -1.2470 H     1 <1>   0.0800 
 33 H      -13.9580    -0.1900    -0.1240 H     1 <1>   0.0800 
 34 H      -12.3290    -0.4140     0.4630 H     1 <1>   0.0800 
 35 H      -13.4820     2.0870    -2.0270 H     1 <1>   0.0800 
 36 H      -13.7400     3.3600    -0.8510 H     1 <1>   0.0800 
 37 H      -14.7650     1.9440    -0.8470 H     1 <1>   0.0800 
@<TRIPOS>BOND
  1   1   2  1   
  2   1   3  1   
  3   2   4  ar  
  4   2   5  ar  
  5   3  16  1   
  6   3  17  1   
  7   3  18  1   
  8   4   6  ar  
  9   4  19  1   
 10   5   7  ar  
 11   5  20  1   
 12   6   8  ar  
 13   6   9  1   
 14   7   8  ar  
 15   7  21  1   
 16   8  22  1   
 17   9  10  1   
 18   9  23  1   
 19   9  24  1   
 20  10  11  1   
 21  10  25  1   
 22  10  26  1   
 23  11  12  1   
 24  11  27  1   
 25  11  28  1   
 26  12  13  1   
 27  12  29  1   
 28  12  30  1   
 29  13  14  1   
 30  13  15  1   
 31  13  31  1   
 32  14  32  1   
 33  14  33  1   
 34  14  34  1   
 35  15  35  1   
 36  15  36  1   
 37  15  37  1   
@<TRIPOS>SUBSTRUCTURE
  1 ****  10 GROUP 4 **** **** 0

# MOE 2024.06 (io_trps.svl 2023.06)
