@<TRIPOS>MOLECULE
NONAME
47 49 1 0 0 
SMALL
USER_CHARGES


@<TRIPOS>ATOM
  1 S        0.8450    -0.8510     0.5610 S.o2  1 <1>   1.4470 
  2 O        1.5250    -1.6720     1.5390 O.2   1 <1>  -0.6500 
  3 O        1.1690     0.5570     0.4690 O.2   1 <1>  -0.6500 
  4 N        1.1470    -1.5210    -0.9660 N.am  1 <1>  -0.8490 
  5 C       -0.9520    -1.0260     0.7400 C.ar  1 <1>  -0.0090 
  6 C        2.4770    -1.1090    -1.5030 C.3   1 <1>   0.2570 
  7 C        0.9520    -2.9760    -0.9760 C.3   1 <1>   0.1960 
  8 C       -1.8170    -0.5740    -0.2250 C.ar  1 <1>  -0.1500 
  9 C       -1.5010    -1.6370     1.8820 C.ar  1 <1>  -0.1500 
 10 C        3.7290    -1.7220    -0.8370 C.2   1 <1>   0.5690 
 11 C        0.8390    -3.5000    -2.4060 C.3   1 <1>  -0.2400 
 12 C       -3.2140    -0.7090    -0.1130 C.ar  1 <1>   0.0000 
 13 C       -2.8520    -1.7840     2.0250 C.ar  1 <1>  -0.1500 
 14 O        4.0760    -2.8080    -1.2470 O.2   1 <1>  -0.5700 
 15 N        4.4430    -1.0870     0.1530 N.am  1 <1>  -0.6600 
 16 C       -3.7450    -1.3290     1.0360 C.ar  1 <1>   0.0000 
 17 C       -4.1020    -0.2490    -1.1070 C.ar  1 <1>  -0.1500 
 18 C        4.2110     0.2950     0.6770 C.3   1 <1>   0.1400 
 19 C        5.5010    -1.8130     0.9210 C.3   1 <1>   0.1400 
 20 C       -5.1430    -1.4670     1.1480 C.ar  1 <1>  -0.1500 
 21 C       -5.4550    -0.3970    -0.9730 C.ar  1 <1>  -0.1500 
 22 C        5.5410     1.0460     0.8670 C.3   1 <1>   0.1200 
 23 C        6.7600    -0.9460     1.0750 C.3   1 <1>   0.1200 
 24 C       -5.9810    -1.0130     0.1680 C.ar  1 <1>  -0.1500 
 25 O        6.4400     0.2960     1.6330 O.3   1 <1>  -0.5600 
 26 H        2.5480    -0.0390    -1.4920 H     1 <1>   0.0800 
 27 H        2.5180    -1.3800    -2.5410 H     1 <1>   0.0800 
 28 H        0.0320    -3.2150    -0.4680 H     1 <1>   0.0800 
 29 H        1.7490    -3.4770    -0.4490 H     1 <1>   0.0800 
 30 H       -1.4240    -0.1000    -1.1070 H     1 <1>   0.1500 
 31 H       -0.8320    -1.9910     2.6490 H     1 <1>   0.1500 
 32 H        0.1030    -2.9390    -2.9530 H     1 <1>   0.0800 
 33 H        0.5350    -4.5300    -2.3830 H     1 <1>   0.0800 
 34 H        1.7870    -3.4520    -2.9100 H     1 <1>   0.0800 
 35 H       -3.2590    -2.2530     2.9030 H     1 <1>   0.1500 
 36 H       -3.6920     0.2240    -1.9810 H     1 <1>   0.1500 
 37 H        3.7040     0.2320     1.6250 H     1 <1>   0.0800 
 38 H        3.5990     0.8690     0.0100 H     1 <1>   0.0800 
 39 H        5.7660    -2.7330     0.4310 H     1 <1>   0.0800 
 40 H        5.1180    -2.0580     1.8960 H     1 <1>   0.0800 
 41 H       -5.5430    -1.9410     2.0270 H     1 <1>   0.1500 
 42 H       -6.1280    -0.0440    -1.7350 H     1 <1>   0.1500 
 43 H        5.3700     1.9750     1.3800 H     1 <1>   0.0800 
 44 H        5.9950     1.2560    -0.0860 H     1 <1>   0.0800 
 45 H        7.2290    -0.7880     0.1200 H     1 <1>   0.0800 
 46 H        7.4630    -1.4290     1.7310 H     1 <1>   0.0800 
 47 H       -7.0480    -1.1220     0.2580 H     1 <1>   0.1500 
@<TRIPOS>BOND
  1   1   2  2   
  2   1   3  2   
  3   1   4  am  
  4   1   5  1   
  5   4   6  1   
  6   4   7  1   
  7   5   8  ar  
  8   5   9  ar  
  9   6  10  1   
 10   6  26  1   
 11   6  27  1   
 12   7  11  1   
 13   7  28  1   
 14   7  29  1   
 15   8  12  ar  
 16   8  30  1   
 17   9  13  ar  
 18   9  31  1   
 19  10  14  2   
 20  10  15  am  
 21  11  32  1   
 22  11  33  1   
 23  11  34  1   
 24  12  16  ar  
 25  12  17  ar  
 26  13  16  ar  
 27  13  35  1   
 28  15  18  1   
 29  15  19  1   
 30  16  20  ar  
 31  17  21  ar  
 32  17  36  1   
 33  18  22  1   
 34  18  37  1   
 35  18  38  1   
 36  19  23  1   
 37  19  39  1   
 38  19  40  1   
 39  20  24  ar  
 40  20  41  1   
 41  21  24  ar  
 42  21  42  1   
 43  22  25  1   
 44  22  43  1   
 45  22  44  1   
 46  23  25  1   
 47  23  45  1   
 48  23  46  1   
 49  24  47  1   
@<TRIPOS>SUBSTRUCTURE
  1 ****   1 GROUP 4 **** **** 0

# MOE 2024.06 (io_trps.svl 2023.06)
