@<TRIPOS>MOLECULE
NONAME
46 48 1 0 0 
SMALL
USER_CHARGES


@<TRIPOS>ATOM
  1 F       -0.3840     0.2710    -2.2020 F     1 <1>  -0.1900 
  2 C       -1.4790     0.8260    -1.7640 C.ar  1 <1>   0.1900 
  3 C       -1.6100     2.1980    -1.8380 C.ar  1 <1>  -0.1500 
  4 C       -2.4720     0.0240    -1.2370 C.ar  1 <1>  -0.1500 
  5 C       -2.7750     2.7810    -1.3710 C.ar  1 <1>  -0.1500 
  6 C       -3.6310     0.6230    -0.7760 C.ar  1 <1>  -0.1500 
  7 C       -3.8160     2.0090    -0.8340 C.ar  1 <1>   0.0860 
  8 C       -5.0440     2.6120    -0.3450 C.2   1 <1>   0.5440 
  9 O       -5.7190     2.0530     0.4960 O.2   1 <1>  -0.5700 
 10 N       -5.4360     3.8330    -0.8330 N.am  1 <1>  -0.5470 
 11 C       -6.3640     4.7660    -0.3590 C.ar  1 <1>   0.1170 
 12 C       -6.0370     6.1290    -0.4140 C.ar  1 <1>   0.0860 
 13 C       -7.6000     4.3790     0.1480 C.ar  1 <1>  -0.1500 
 14 C       -4.7350     6.5440    -0.8930 C.2   1 <1>   0.5440 
 15 C       -6.9800     7.0620     0.0200 C.ar  1 <1>  -0.1500 
 16 C       -8.5150     5.3170     0.5830 C.ar  1 <1>  -0.1500 
 17 O       -4.3620     6.1840    -1.9980 O.2   1 <1>  -0.5700 
 18 N       -3.8700     7.2780    -0.1070 N.am  1 <1>  -0.6600 
 19 C       -8.2060     6.6650     0.5150 C.ar  1 <1>  -0.1500 
 20 C       -3.9550     7.3040     1.3790 C.3   1 <1>   0.1400 
 21 C       -2.5810     7.7980    -0.6390 C.3   1 <1>   0.1400 
 22 C       -2.8210     6.4530     1.9610 C.3   1 <1>  -0.1600 
 23 C       -1.4280     6.9570    -0.0840 C.3   1 <1>  -0.1600 
 24 C       -1.4450     6.9140     1.4530 C.3   1 <1>  -0.0800 
 25 C       -0.3400     5.9920     1.9790 C.3   1 <1>  -0.2400 
 26 H       -0.8150     2.7930    -2.2510 H     1 <1>   0.1500 
 27 H       -2.3370    -1.0420    -1.1910 H     1 <1>   0.1500 
 28 H       -2.8660     3.8530    -1.4210 H     1 <1>   0.1500 
 29 H       -4.4140     0.0110    -0.3590 H     1 <1>   0.1500 
 30 H       -4.8190     4.2290    -1.5530 H     1 <1>   0.3700 
 31 H       -7.8470     3.3320     0.1960 H     1 <1>   0.1500 
 32 H       -6.7380     8.1090    -0.0340 H     1 <1>   0.1500 
 33 H       -9.4680     4.9990     0.9720 H     1 <1>   0.1500 
 34 H       -8.9220     7.3970     0.8490 H     1 <1>   0.1500 
 35 H       -4.8980     6.9200     1.7250 H     1 <1>   0.0800 
 36 H       -3.8630     8.3210     1.7190 H     1 <1>   0.0800 
 37 H       -2.4660     8.8250    -0.3370 H     1 <1>   0.0800 
 38 H       -2.5730     7.7680    -1.7160 H     1 <1>   0.0800 
 39 H       -2.9890     5.4250     1.6890 H     1 <1>   0.0800 
 40 H       -2.8510     6.5150     3.0340 H     1 <1>   0.0800 
 41 H       -0.4960     7.3710    -0.4260 H     1 <1>   0.0800 
 42 H       -1.5100     5.9610    -0.4820 H     1 <1>   0.0800 
 43 H       -1.2610     7.9100     1.8230 H     1 <1>   0.0800 
 44 H       -0.4880     4.9850     1.6310 H     1 <1>   0.0800 
 45 H       -0.3390     5.9860     3.0550 H     1 <1>   0.0800 
 46 H        0.6230     6.3330     1.6430 H     1 <1>   0.0800 
@<TRIPOS>BOND
  1   1   2  1   
  2   2   3  ar  
  3   2   4  ar  
  4   3   5  ar  
  5   3  26  1   
  6   4   6  ar  
  7   4  27  1   
  8   5   7  ar  
  9   5  28  1   
 10   6   7  ar  
 11   6  29  1   
 12   7   8  1   
 13   8   9  2   
 14   8  10  am  
 15  10  11  1   
 16  10  30  1   
 17  11  12  ar  
 18  11  13  ar  
 19  12  14  1   
 20  12  15  ar  
 21  13  16  ar  
 22  13  31  1   
 23  14  17  2   
 24  14  18  am  
 25  15  19  ar  
 26  15  32  1   
 27  16  19  ar  
 28  16  33  1   
 29  18  20  1   
 30  18  21  1   
 31  19  34  1   
 32  20  22  1   
 33  20  35  1   
 34  20  36  1   
 35  21  23  1   
 36  21  37  1   
 37  21  38  1   
 38  22  24  1   
 39  22  39  1   
 40  22  40  1   
 41  23  24  1   
 42  23  41  1   
 43  23  42  1   
 44  24  25  1   
 45  24  43  1   
 46  25  44  1   
 47  25  45  1   
 48  25  46  1   
@<TRIPOS>SUBSTRUCTURE
  1 ****  10 GROUP 4 **** **** 0

# MOE 2024.06 (io_trps.svl 2023.06)
