@<TRIPOS>MOLECULE
NONAME
47 48 1 0 0 
SMALL
USER_CHARGES


@<TRIPOS>ATOM
  1 CL       0.5320     0.2500     0.3240 Cl    1 <1>  -0.1770 
  2 C       -0.7100     1.4820     0.3480 C.ar  1 <1>   0.1770 
  3 C       -0.5390     2.6610     1.0580 C.ar  1 <1>  -0.0090 
  4 C       -1.8590     1.2260    -0.3760 C.ar  1 <1>  -0.1500 
  5 S        0.9680     2.9890     1.9960 S.o2  1 <1>   1.4470 
  6 C       -1.5780     3.5860     1.0280 C.ar  1 <1>  -0.1500 
  7 C       -2.8830     2.1560    -0.4050 C.ar  1 <1>  -0.1430 
  8 O        1.1650     1.9730     3.0040 O.2   1 <1>  -0.6500 
  9 O        1.0060     4.3800     2.3900 O.2   1 <1>  -0.6500 
 10 N        2.2310     2.8210     0.8670 N.am  1 <1>  -0.8490 
 11 C       -2.7440     3.3450     0.3040 C.ar  1 <1>   0.0830 
 12 C       -4.1460     1.8640    -1.2050 C.3   1 <1>  -0.0970 
 13 C        3.4860     2.3990     1.5140 C.3   1 <1>   0.1960 
 14 C        2.4200     4.0140     0.0230 C.3   1 <1>   0.1960 
 15 O       -3.7750     4.2280     0.2540 O.3   1 <1>  -0.3630 
 16 C        4.6140     2.1700     0.4860 C.3   1 <1>   0.3430 
 17 C        3.5290     3.7940    -1.0310 C.3   1 <1>   0.3430 
 18 C       -3.8280     5.3780     1.0930 C.3   1 <1>   0.1810 
 19 N        4.8330     3.3680    -0.4070 N.4   1 <1>  -0.9590 
 20 C       -5.1340     6.1470     0.9110 C.2   1 <1>   0.5690 
 21 C        5.8590     3.1130    -1.4520 C.3   1 <1>   0.3430 
 22 O       -5.3400     7.1240     1.5850 O.2   1 <1>  -0.5700 
 23 N       -6.0510     5.7490     0.0060 N.am  1 <1>  -0.8000 
 24 C        7.2400     3.0470    -0.8110 C.3   1 <1>  -0.2400 
 25 H       -1.9450     0.2960    -0.9100 H     1 <1>   0.1500 
 26 H       -1.4570     4.5000     1.5820 H     1 <1>   0.1500 
 27 H       -4.0910     0.9040    -1.6850 H     1 <1>   0.0800 
 28 H       -4.2820     2.6170    -1.9610 H     1 <1>   0.0800 
 29 H       -5.0010     1.8700    -0.5520 H     1 <1>   0.0800 
 30 H        3.3280     1.4700     2.0380 H     1 <1>   0.0800 
 31 H        3.7920     3.1340     2.2400 H     1 <1>   0.0800 
 32 H        2.6780     4.8650     0.6320 H     1 <1>   0.0800 
 33 H        1.4980     4.2410    -0.4860 H     1 <1>   0.0800 
 34 H        4.3500     1.3160    -0.1150 H     1 <1>   0.0800 
 35 H        5.5230     1.9320     1.0140 H     1 <1>   0.0800 
 36 H        3.6700     4.7050    -1.5880 H     1 <1>   0.0800 
 37 H        3.1930     3.0340    -1.7180 H     1 <1>   0.0800 
 38 H       -3.0060     6.0220     0.8430 H     1 <1>   0.0800 
 39 H       -3.7480     5.0580     2.1160 H     1 <1>   0.0800 
 40 H        5.1680     4.1420     0.1830 H     1 <1>   0.4500 
 41 H        5.8490     3.9140    -2.1740 H     1 <1>   0.0800 
 42 H        5.6450     2.1900    -1.9690 H     1 <1>   0.0800 
 43 H       -6.9210     6.2700    -0.1110 H     1 <1>   0.3700 
 44 H       -5.9080     4.9250    -0.5790 H     1 <1>   0.3700 
 45 H        7.4600     3.9540    -0.2760 H     1 <1>   0.0800 
 46 H        7.9790     2.9350    -1.5850 H     1 <1>   0.0800 
 47 H        7.3320     2.2030    -0.1520 H     1 <1>   0.0800 
@<TRIPOS>BOND
  1   1   2  1   
  2   2   3  ar  
  3   2   4  ar  
  4   3   5  1   
  5   3   6  ar  
  6   4   7  ar  
  7   4  25  1   
  8   5   8  2   
  9   5   9  2   
 10   5  10  am  
 11   6  11  ar  
 12   6  26  1   
 13   7  11  ar  
 14   7  12  1   
 15  10  13  1   
 16  10  14  1   
 17  11  15  1   
 18  12  27  1   
 19  12  28  1   
 20  12  29  1   
 21  13  16  1   
 22  13  30  1   
 23  13  31  1   
 24  14  17  1   
 25  14  32  1   
 26  14  33  1   
 27  15  18  1   
 28  16  19  1   
 29  16  34  1   
 30  16  35  1   
 31  17  19  1   
 32  17  36  1   
 33  17  37  1   
 34  18  20  1   
 35  18  38  1   
 36  18  39  1   
 37  19  21  1   
 38  19  40  1   
 39  20  22  2   
 40  20  23  am  
 41  21  24  1   
 42  21  41  1   
 43  21  42  1   
 44  23  43  1   
 45  23  44  1   
 46  24  45  1   
 47  24  46  1   
 48  24  47  1   
@<TRIPOS>SUBSTRUCTURE
  1 ****   3 GROUP 4 **** **** 0

# MOE 2024.06 (io_trps.svl 2023.06)
