@<TRIPOS>MOLECULE
NONAME
48 51 1 0 0 
SMALL
USER_CHARGES


@<TRIPOS>ATOM
  1 O       -0.3050    -0.0050    -0.7330 O.2   1 <1>  -0.5700 
  2 C       -0.0070     0.7770     0.1470 C.2   1 <1>   0.6900 
  3 N        1.2820     0.9740     0.5430 N.am  1 <1>  -0.5470 
  4 N       -0.9660     1.5050     0.7710 N.am  1 <1>  -0.7300 
  5 C        2.4670     0.3100     0.1940 C.ar  1 <1>   0.1170 
  6 C       -2.4080     1.4460     0.4480 C.3   1 <1>   0.1400 
  7 C        3.6780     0.9750     0.3510 C.ar  1 <1>  -0.1500 
  8 C        2.4900    -0.9960    -0.2860 C.ar  1 <1>  -0.1500 
  9 C       -2.9920     2.8600     0.5240 C.3   1 <1>  -0.1600 
 10 C        4.8760     0.3590     0.0350 C.ar  1 <1>  -0.1500 
 11 C        3.6850    -1.6160    -0.6040 C.ar  1 <1>  -0.1500 
 12 C       -4.5020     2.9670     0.2100 C.3   1 <1>   0.0000 
 13 C        4.8810    -0.9390    -0.4440 C.ar  1 <1>  -0.1500 
 14 C       -4.8230     2.4890    -1.2270 C.3   1 <1>  -0.1600 
 15 C       -4.9220     4.4520     0.3300 C.3   1 <1>  -0.1600 
 16 C       -5.3540     2.1420     1.2050 C.3   1 <1>  -0.1600 
 17 C       -6.3230     2.6560    -1.5360 C.3   1 <1>  -0.0800 
 18 C       -6.4210     4.6300     0.0280 C.3   1 <1>  -0.0800 
 19 C       -6.8560     2.3080     0.9060 C.3   1 <1>  -0.0800 
 20 C       -6.7090     4.1400    -1.4030 C.3   1 <1>  -0.1600 
 21 C       -7.1430     1.8270    -0.5290 C.3   1 <1>  -0.1600 
 22 C       -7.2390     3.7930     1.0280 C.3   1 <1>  -0.1600 
 23 H        1.4090     1.8080     1.1040 H     1 <1>   0.3700 
 24 H       -0.7310     2.0070     1.6230 H     1 <1>   0.3700 
 25 H       -2.8930     0.7930     1.1510 H     1 <1>   0.0800 
 26 H       -2.5370     1.0400    -0.5410 H     1 <1>   0.0800 
 27 H        3.6880     1.9840     0.7190 H     1 <1>   0.1500 
 28 H        1.5700    -1.5370    -0.4120 H     1 <1>   0.1500 
 29 H       -2.4540     3.4800    -0.1720 H     1 <1>   0.0800 
 30 H       -2.8210     3.2470     1.5120 H     1 <1>   0.0800 
 31 H        5.8050     0.8880     0.1600 H     1 <1>   0.1500 
 32 H        3.6820    -2.6250    -0.9770 H     1 <1>   0.1500 
 33 H        5.8110    -1.4210    -0.6910 H     1 <1>   0.1500 
 34 H       -4.5640     1.4520    -1.3450 H     1 <1>   0.0800 
 35 H       -4.2450     3.0520    -1.9380 H     1 <1>   0.0800 
 36 H       -4.3500     5.0510    -0.3580 H     1 <1>   0.0800 
 37 H       -4.7170     4.8120     1.3220 H     1 <1>   0.0800 
 38 H       -5.1520     2.4610     2.2120 H     1 <1>   0.0800 
 39 H       -5.1060     1.0980     1.1350 H     1 <1>   0.0800 
 40 H       -6.5270     2.3160    -2.5370 H     1 <1>   0.0800 
 41 H       -6.6900     5.6690     0.1170 H     1 <1>   0.0800 
 42 H       -7.4320     1.7260     1.6050 H     1 <1>   0.0800 
 43 H       -6.1480     4.7270    -2.1090 H     1 <1>   0.0800 
 44 H       -7.7530     4.2670    -1.6280 H     1 <1>   0.0800 
 45 H       -6.8890     0.7860    -0.6230 H     1 <1>   0.0800 
 46 H       -8.1920     1.9280    -0.7440 H     1 <1>   0.0800 
 47 H       -8.2900     3.9160     0.8310 H     1 <1>   0.0800 
 48 H       -7.0520     4.1370     2.0300 H     1 <1>   0.0800 
@<TRIPOS>BOND
  1   1   2  2   
  2   2   3  am  
  3   2   4  am  
  4   3   5  1   
  5   3  23  1   
  6   4   6  1   
  7   4  24  1   
  8   5   7  ar  
  9   5   8  ar  
 10   6   9  1   
 11   6  25  1   
 12   6  26  1   
 13   7  10  ar  
 14   7  27  1   
 15   8  11  ar  
 16   8  28  1   
 17   9  12  1   
 18   9  29  1   
 19   9  30  1   
 20  10  13  ar  
 21  10  31  1   
 22  11  13  ar  
 23  11  32  1   
 24  12  14  1   
 25  12  15  1   
 26  12  16  1   
 27  13  33  1   
 28  14  17  1   
 29  14  34  1   
 30  14  35  1   
 31  15  18  1   
 32  15  36  1   
 33  15  37  1   
 34  16  19  1   
 35  16  38  1   
 36  16  39  1   
 37  17  20  1   
 38  17  21  1   
 39  17  40  1   
 40  18  20  1   
 41  18  22  1   
 42  18  41  1   
 43  19  21  1   
 44  19  22  1   
 45  19  42  1   
 46  20  43  1   
 47  20  44  1   
 48  21  45  1   
 49  21  46  1   
 50  22  47  1   
 51  22  48  1   
@<TRIPOS>SUBSTRUCTURE
  1 ****   6 GROUP 4 **** **** 0

# MOE 2024.06 (io_trps.svl 2023.06)
