@<TRIPOS>MOLECULE
NONAME
55 57 1 0 0 
SMALL
USER_CHARGES


@<TRIPOS>ATOM
  1 O       -2.2930     0.8560     2.0050 O.3   1 <1>  -0.3630 
  2 C       -2.6300     1.2630     0.7480 C.ar  1 <1>   0.0820 
  3 C       -0.9440     0.6620     2.3660 C.3   1 <1>   0.0400 
  4 C       -1.8870     2.1440    -0.0540 C.ar  1 <1>   0.0820 
  5 C       -3.8220     0.7450     0.2710 C.ar  1 <1>  -0.1500 
  6 O       -0.7290     2.6880     0.4230 O.3   1 <1>  -0.3630 
  7 C       -2.3670     2.4570    -1.3250 C.ar  1 <1>  -0.1500 
  8 C       -4.3010     1.0720    -0.9870 C.ar  1 <1>  -0.1430 
  9 C        0.0000     3.6580    -0.2980 C.3   1 <1>   0.0400 
 10 C       -3.5600     1.9280    -1.7850 C.ar  1 <1>  -0.1500 
 11 C       -5.6260     0.5000    -1.4750 C.3   1 <1>   0.2530 
 12 N       -6.6970     0.7400    -0.4860 N.3   1 <1>  -0.8100 
 13 C       -7.9530     0.0660    -0.8570 C.3   1 <1>   0.1100 
 14 C       -6.9090     2.1770    -0.2150 C.3   1 <1>   0.1100 
 15 C       -9.0160     0.2380     0.2480 C.3   1 <1>   0.3430 
 16 C       -7.9520     2.3770     0.9020 C.3   1 <1>   0.3430 
 17 N       -9.2500     1.6880     0.5840 N.4   1 <1>  -0.9590 
 18 C      -10.2300     1.8620     1.6750 C.3   1 <1>   0.4810 
 19 C      -11.5870     1.5270     1.1080 C.2   1 <1>  -0.2880 
 20 C      -12.5150     2.4330     0.7540 C.2   1 <1>  -0.1780 
 21 C      -13.8280     2.1820     0.2020 C.ar  1 <1>   0.0280 
 22 C      -14.5130     3.2020    -0.4540 C.ar  1 <1>  -0.1500 
 23 C      -14.4550     0.9400     0.2970 C.ar  1 <1>  -0.1500 
 24 C      -15.7660     2.9920    -1.0010 C.ar  1 <1>  -0.1500 
 25 C      -15.7070     0.7240    -0.2480 C.ar  1 <1>  -0.1500 
 26 C      -16.3650     1.7500    -0.9010 C.ar  1 <1>  -0.1500 
 27 H       -0.9160     0.0050     3.2170 H     1 <1>   0.0800 
 28 H       -0.5150     1.6120     2.6270 H     1 <1>   0.0800 
 29 H       -0.4180     0.2190     1.5390 H     1 <1>   0.0800 
 30 H       -4.3820     0.0770     0.9010 H     1 <1>   0.1500 
 31 H       -1.8280     3.1160    -1.9770 H     1 <1>   0.1500 
 32 H        0.8390     3.9590     0.3040 H     1 <1>   0.0800 
 33 H       -0.6370     4.5050    -0.4850 H     1 <1>   0.0800 
 34 H        0.3480     3.2230    -1.2170 H     1 <1>   0.0800 
 35 H       -3.9060     2.1900    -2.7690 H     1 <1>   0.1500 
 36 H       -5.5020    -0.5600    -1.6210 H     1 <1>   0.0800 
 37 H       -5.8940     0.9410    -2.4210 H     1 <1>   0.0800 
 38 H       -8.3260     0.4600    -1.7870 H     1 <1>   0.0800 
 39 H       -7.7650    -0.9860    -0.9920 H     1 <1>   0.0800 
 40 H       -5.9870     2.6280     0.1100 H     1 <1>   0.0800 
 41 H       -7.2260     2.6830    -1.1110 H     1 <1>   0.0800 
 42 H       -8.6750    -0.2860     1.1260 H     1 <1>   0.0800 
 43 H       -9.9360    -0.2180    -0.0770 H     1 <1>   0.0800 
 44 H       -8.1180     3.4320     1.0440 H     1 <1>   0.0800 
 45 H       -7.5410     1.9780     1.8150 H     1 <1>   0.0800 
 46 H       -9.6550     2.1330    -0.2480 H     1 <1>   0.4500 
 47 H       -9.9950     1.2300     2.5160 H     1 <1>   0.0800 
 48 H      -10.2300     2.8900     2.0030 H     1 <1>   0.0800 
 49 H      -11.7500     0.4690     1.0090 H     1 <1>   0.1500 
 50 H      -12.3090     3.4840     0.8700 H     1 <1>   0.1500 
 51 H      -14.0650     4.1750    -0.5420 H     1 <1>   0.1500 
 52 H      -13.9720     0.1290     0.8080 H     1 <1>   0.1500 
 53 H      -16.2770     3.7940    -1.5050 H     1 <1>   0.1500 
 54 H      -16.1750    -0.2420    -0.1650 H     1 <1>   0.1500 
 55 H      -17.3400     1.5840    -1.3260 H     1 <1>   0.1500 
@<TRIPOS>BOND
  1   1   2  1   
  2   1   3  1   
  3   2   4  ar  
  4   2   5  ar  
  5   3  27  1   
  6   3  28  1   
  7   3  29  1   
  8   4   6  1   
  9   4   7  ar  
 10   5   8  ar  
 11   5  30  1   
 12   6   9  1   
 13   7  10  ar  
 14   7  31  1   
 15   8  10  ar  
 16   8  11  1   
 17   9  32  1   
 18   9  33  1   
 19   9  34  1   
 20  10  35  1   
 21  11  12  1   
 22  11  36  1   
 23  11  37  1   
 24  12  13  1   
 25  12  14  1   
 26  13  15  1   
 27  13  38  1   
 28  13  39  1   
 29  14  16  1   
 30  14  40  1   
 31  14  41  1   
 32  15  17  1   
 33  15  42  1   
 34  15  43  1   
 35  16  17  1   
 36  16  44  1   
 37  16  45  1   
 38  17  18  1   
 39  17  46  1   
 40  18  19  1   
 41  18  47  1   
 42  18  48  1   
 43  19  20  2   
 44  19  49  1   
 45  20  21  1   
 46  20  50  1   
 47  21  22  ar  
 48  21  23  ar  
 49  22  24  ar  
 50  22  51  1   
 51  23  25  ar  
 52  23  52  1   
 53  24  26  ar  
 54  24  53  1   
 55  25  26  ar  
 56  25  54  1   
 57  26  55  1   
@<TRIPOS>SUBSTRUCTURE
  1 ****  14 GROUP 4 **** **** 0

# MOE 2024.06 (io_trps.svl 2023.06)
