@<TRIPOS>MOLECULE
NONAME
37 39 1 0 0 
SMALL
USER_CHARGES


@<TRIPOS>ATOM
  1 F        0.7460     1.2580    -0.4610 F     1 <1>  -0.3400 
  2 C        1.1140     2.4760    -0.0730 C.3   1 <1>   0.8800 
  3 F        2.2470     2.3030     0.5980 F     1 <1>  -0.3400 
  4 O        0.1490     2.9620     0.8270 O.3   1 <1>  -0.3630 
  5 C       -0.9310     3.5400     0.2480 C.ar  1 <1>   0.0820 
  6 C       -1.0210     4.9320     0.1250 C.ar  1 <1>   0.1170 
  7 C       -1.9670     2.7280    -0.1880 C.ar  1 <1>  -0.1500 
  8 N       -0.0290     5.8210     0.5580 N.am  1 <1>  -0.5470 
  9 C       -2.1660     5.4750    -0.4410 C.ar  1 <1>  -0.1500 
 10 C       -3.0970     3.2880    -0.7580 C.ar  1 <1>  -0.1500 
 11 C        1.2000     6.0370     0.0080 C.2   1 <1>   0.5690 
 12 C       -3.1960     4.6630    -0.8840 C.ar  1 <1>  -0.1500 
 13 O        1.6560     5.2780    -0.8170 O.2   1 <1>  -0.5700 
 14 C        2.0630     7.2160     0.5010 C.3   1 <1>  -0.0190 
 15 C        1.2880     8.7230     0.7940 C.3   1 <1>  -0.1860 
 16 C        3.3750     7.5600    -0.4640 C.3   1 <1>   0.0580 
 17 C       -0.1990     8.7310     0.4910 C.2   1 <1>   0.9060 
 18 C        2.1710     9.8790     0.0000 C.3   1 <1>   0.0580 
 19 C        4.2090     8.8270    -1.0220 C.2   1 <1>  -0.2880 
 20 C        2.6770     8.6590    -0.1830 C.3   1 <1>  -0.1600 
 21 O       -0.9430     8.2780     1.3680 O.co2 1 <1>  -0.9000 
 22 O       -0.6250     9.0650    -0.6130 O.co2 1 <1>  -0.9000 
 23 C        3.5770    10.0410    -0.7810 C.2   1 <1>  -0.2880 
 24 H        1.2710     3.1040    -0.9290 H     1 <1>   0.0800 
 25 H       -1.8910     1.6610    -0.0750 H     1 <1>   0.1500 
 26 H       -0.4220     6.6420     1.0620 H     1 <1>   0.3700 
 27 H       -2.2400     6.5490    -0.5310 H     1 <1>   0.1500 
 28 H       -3.8990     2.6570    -1.1000 H     1 <1>   0.1500 
 29 H       -4.0710     5.1090    -1.3220 H     1 <1>   0.1500 
 30 H        2.4420     6.8670     1.4500 H     1 <1>   0.0800 
 31 H        1.3450     8.9300     1.8520 H     1 <1>   0.0800 
 32 H        3.1890     7.0190    -1.3800 H     1 <1>   0.0800 
 33 H        1.4740    10.3040    -0.7100 H     1 <1>   0.0800 
 34 H        5.1440     8.6430    -1.5220 H     1 <1>   0.1500 
 35 H        2.0820     8.5520    -1.1810 H     1 <1>   0.0800 
 36 H        3.3380     8.7990     0.8310 H     1 <1>   0.0800 
 37 H        3.8990    11.0330    -1.0470 H     1 <1>   0.1500 
@<TRIPOS>BOND
  1   1   2  1   
  2   2   3  1   
  3   2   4  1   
  4   2  24  1   
  5   4   5  1   
  6   5   6  ar  
  7   5   7  ar  
  8   6   8  1   
  9   6   9  ar  
 10   7  10  ar  
 11   7  25  1   
 12   8  11  am  
 13   8  26  1   
 14   9  12  ar  
 15   9  27  1   
 16  10  12  ar  
 17  10  28  1   
 18  11  13  2   
 19  11  14  1   
 20  12  29  1   
 21  14  15  1   
 22  14  16  1   
 23  14  30  1   
 24  15  17  1   
 25  15  18  1   
 26  15  31  1   
 27  16  19  1   
 28  16  20  1   
 29  16  32  1   
 30  17  21  ar  
 31  17  22  ar  
 32  18  20  1   
 33  18  23  1   
 34  18  33  1   
 35  19  23  2   
 36  19  34  1   
 37  20  35  1   
 38  20  36  1   
 39  23  37  1   
@<TRIPOS>SUBSTRUCTURE
  1 ****  11 GROUP 4 **** **** 0

# MOE 2024.06 (io_trps.svl 2023.06)
