@<TRIPOS>MOLECULE
NONAME
36 38 1 0 0 
SMALL
USER_CHARGES


@<TRIPOS>ATOM
  1 O       -0.7020    -0.1590     1.6120 O.2   1 <1>  -0.5700 
  2 C       -0.7770    -1.1930     1.0010 C.2   1 <1>   0.5690 
  3 N        0.2420    -2.0700     0.7890 N.am  1 <1>  -0.4200 
  4 C       -2.0220    -1.7150     0.3160 C.3   1 <1>  -0.0190 
  5 C       -0.2090    -3.2290     0.2370 C.2   1 <1>   0.5690 
  6 C        1.6580    -1.7870     1.0900 C.3   1 <1>   0.3200 
  7 C       -3.4340    -1.5060     0.8800 C.3   1 <1>   0.0580 
  8 C       -1.7190    -3.2140     0.2380 C.3   1 <1>  -0.0190 
  9 O        0.4660    -4.1450    -0.1550 O.2   1 <1>  -0.5700 
 10 C        2.3590    -1.1400    -0.0930 C.2   1 <1>  -0.0400 
 11 C       -4.3800    -2.4190     0.0930 C.2   1 <1>  -0.2880 
 12 C       -3.8840    -0.0480     0.7380 C.3   1 <1>  -0.2400 
 13 C       -2.5320    -3.8470    -0.8920 C.3   1 <1>  -0.0220 
 14 O        3.6180    -0.7750     0.0600 O.3   1 <1>  -0.2800 
 15 C        1.9360    -0.8450    -1.3440 C.2   1 <1>  -0.1500 
 16 C       -3.9950    -3.4310    -0.7030 C.2   1 <1>  -0.2760 
 17 C        4.0240    -0.2430    -1.0760 C.2   1 <1>  -0.0100 
 18 C        3.0300    -0.2550    -1.9880 C.2   1 <1>  -0.1500 
 19 C       -4.9780    -4.2750    -1.4960 C.3   1 <1>  -0.1020 
 20 H       -2.0010    -1.3090    -0.6810 H     1 <1>   0.0800 
 21 H        2.1610    -2.7040     1.3400 H     1 <1>   0.0800 
 22 H        1.7160    -1.1270     1.9380 H     1 <1>   0.0800 
 23 H       -3.4600    -1.7810     1.9210 H     1 <1>   0.0800 
 24 H       -2.0200    -3.6820     1.1600 H     1 <1>   0.0800 
 25 H       -5.4170    -2.1640     0.2380 H     1 <1>   0.1500 
 26 H       -3.8940     0.2460    -0.2970 H     1 <1>   0.0800 
 27 H       -3.2220     0.6060     1.2770 H     1 <1>   0.0800 
 28 H       -4.8750     0.0740     1.1370 H     1 <1>   0.0800 
 29 H       -2.4320    -4.9170    -0.8370 H     1 <1>   0.0800 
 30 H       -2.1750    -3.5190    -1.8530 H     1 <1>   0.0800 
 31 H        0.9730    -1.0120    -1.7910 H     1 <1>   0.1500 
 32 H        5.0350     0.1180    -1.1480 H     1 <1>   0.1500 
 33 H        3.0410     0.1020    -3.0030 H     1 <1>   0.1500 
 34 H       -4.7600    -4.2090    -2.5470 H     1 <1>   0.0800 
 35 H       -5.9860    -3.9340    -1.3360 H     1 <1>   0.0800 
 36 H       -4.9160    -5.3040    -1.1910 H     1 <1>   0.0800 
@<TRIPOS>BOND
  1   1   2  2   
  2   2   3  am  
  3   2   4  1   
  4   3   5  am  
  5   3   6  1   
  6   4   7  1   
  7   4   8  1   
  8   4  20  1   
  9   5   8  1   
 10   5   9  2   
 11   6  10  1   
 12   6  21  1   
 13   6  22  1   
 14   7  11  1   
 15   7  12  1   
 16   7  23  1   
 17   8  13  1   
 18   8  24  1   
 19  10  14  1   
 20  10  15  2   
 21  11  16  2   
 22  11  25  1   
 23  12  26  1   
 24  12  27  1   
 25  12  28  1   
 26  13  16  1   
 27  13  29  1   
 28  13  30  1   
 29  14  17  1   
 30  15  18  1   
 31  15  31  1   
 32  16  19  1   
 33  17  18  2   
 34  17  32  1   
 35  18  33  1   
 36  19  34  1   
 37  19  35  1   
 38  19  36  1   
@<TRIPOS>SUBSTRUCTURE
  1 ****   3 GROUP 4 **** **** 0

# MOE 2024.06 (io_trps.svl 2023.06)
