@<TRIPOS>MOLECULE
NONAME
41 43 1 0 0 
SMALL
USER_CHARGES


@<TRIPOS>ATOM
  1 O       -2.1700    -0.3150     1.5650 O.2   1 <1>  -0.5700 
  2 C       -2.5760    -1.0190     0.6710 C.2   1 <1>   0.5690 
  3 N       -3.4520    -0.5770    -0.2660 N.am  1 <1>  -0.7300 
  4 C       -2.0970    -2.4720     0.5780 C.3   1 <1>   0.1710 
  5 C       -4.1070     0.7520    -0.3060 C.3   1 <1>   0.1400 
  6 N       -2.2690    -3.0850    -0.7700 N.3   1 <1>  -0.9000 
  7 C       -5.6470     0.6420    -0.2780 C.3   1 <1>   0.0000 
  8 C       -1.8570    -4.4880    -0.7810 C.3   1 <1>   0.0300 
  9 C       -6.1810    -0.1550    -1.4940 C.3   1 <1>  -0.1600 
 10 C       -6.2510     2.0650    -0.3280 C.3   1 <1>  -0.1600 
 11 C       -6.1350    -0.0470     1.0190 C.3   1 <1>  -0.1600 
 12 C       -7.7200    -0.2220    -1.4670 C.3   1 <1>  -0.0800 
 13 C       -7.7900     2.0110    -0.2980 C.3   1 <1>  -0.0800 
 14 C       -7.6730    -0.1140     1.0550 C.3   1 <1>  -0.0800 
 15 C       -8.2910     1.2070    -1.5110 C.3   1 <1>  -0.1600 
 16 C       -8.1730    -0.9100    -0.1650 C.3   1 <1>  -0.1600 
 17 C       -8.2450     1.3140     0.9980 C.3   1 <1>  -0.1600 
 18 H       -3.7510    -1.2650    -0.9630 H     1 <1>   0.3700 
 19 H       -2.6530    -3.0420     1.3010 H     1 <1>   0.0800 
 20 H       -1.0590    -2.5000     0.8570 H     1 <1>   0.0800 
 21 H       -3.7970     1.2610    -1.2020 H     1 <1>   0.0800 
 22 H       -3.7750     1.3360     0.5360 H     1 <1>   0.0800 
 23 H       -1.6790    -2.5590    -1.4310 H     1 <1>   0.3600 
 24 H       -2.4630    -5.0560    -0.0950 H     1 <1>   0.0800 
 25 H       -0.8220    -4.5800    -0.4990 H     1 <1>   0.0800 
 26 H       -1.9870    -4.8940    -1.7700 H     1 <1>   0.0800 
 27 H       -5.7910    -1.1580    -1.4810 H     1 <1>   0.0800 
 28 H       -5.8570     0.3100    -2.4080 H     1 <1>   0.0800 
 29 H       -5.9310     2.5680    -1.2240 H     1 <1>   0.0800 
 30 H       -5.9000     2.6400     0.5110 H     1 <1>   0.0800 
 31 H       -5.7750     0.4950     1.8770 H     1 <1>   0.0800 
 32 H       -5.7370    -1.0440     1.0800 H     1 <1>   0.0800 
 33 H       -8.0740    -0.7820    -2.3160 H     1 <1>   0.0800 
 34 H       -8.1910     3.0100    -0.3330 H     1 <1>   0.0800 
 35 H       -7.9940    -0.5980     1.9620 H     1 <1>   0.0800 
 36 H       -9.3660     1.1690    -1.5040 H     1 <1>   0.0800 
 37 H       -7.9880     1.6930    -2.4220 H     1 <1>   0.0800 
 38 H       -7.7850    -1.9130    -0.1290 H     1 <1>   0.0800 
 39 H       -9.2470    -0.9740    -0.1430 H     1 <1>   0.0800 
 40 H       -7.9080     1.8750     1.8520 H     1 <1>   0.0800 
 41 H       -9.3190     1.2780     1.0340 H     1 <1>   0.0800 
@<TRIPOS>BOND
  1   1   2  2   
  2   2   3  am  
  3   2   4  1   
  4   3   5  1   
  5   3  18  1   
  6   4   6  1   
  7   4  19  1   
  8   4  20  1   
  9   5   7  1   
 10   5  21  1   
 11   5  22  1   
 12   6   8  1   
 13   6  23  1   
 14   7   9  1   
 15   7  10  1   
 16   7  11  1   
 17   8  24  1   
 18   8  25  1   
 19   8  26  1   
 20   9  12  1   
 21   9  27  1   
 22   9  28  1   
 23  10  13  1   
 24  10  29  1   
 25  10  30  1   
 26  11  14  1   
 27  11  31  1   
 28  11  32  1   
 29  12  15  1   
 30  12  16  1   
 31  12  33  1   
 32  13  15  1   
 33  13  17  1   
 34  13  34  1   
 35  14  16  1   
 36  14  17  1   
 37  14  35  1   
 38  15  36  1   
 39  15  37  1   
 40  16  38  1   
 41  16  39  1   
 42  17  40  1   
 43  17  41  1   
@<TRIPOS>SUBSTRUCTURE
  1 ****   7 GROUP 4 **** **** 0

# MOE 2024.06 (io_trps.svl 2023.06)
