@<TRIPOS>MOLECULE
NONAME
28 28 1 0 0 
SMALL
USER_CHARGES


@<TRIPOS>ATOM
  1 CL      -0.0410     0.0460    -0.6070 Cl    1 <1>  -0.1770 
  2 C        0.8610     1.5160    -0.3370 C.ar  1 <1>   0.1770 
  3 C        0.1880     2.7190    -0.2710 C.ar  1 <1>  -0.1500 
  4 C        2.2320     1.4510    -0.1950 C.ar  1 <1>  -0.1500 
  5 C        0.8820     3.9060    -0.0490 C.ar  1 <1>  -0.0090 
  6 C        2.9390     2.6200     0.0130 C.ar  1 <1>  -0.1500 
  7 S        0.0330     5.5060     0.0380 S.o2  1 <1>   1.4470 
  8 C        2.2690     3.8430     0.0810 C.ar  1 <1>   0.0830 
  9 O        0.0900     6.1840    -1.2370 O.2   1 <1>  -0.6500 
 10 O        0.3240     6.2170     1.2610 O.2   1 <1>  -0.6500 
 11 N       -1.5770     5.0990     0.2870 N.am  1 <1>  -0.9140 
 12 O        2.9240     5.0150     0.2690 O.3   1 <1>  -0.3620 
 13 C       -2.4990     6.1130    -0.2200 C.3   1 <1>   0.1960 
 14 C        4.3250     5.0870     0.4220 C.3   1 <1>   0.0400 
 15 C       -3.9370     5.7760     0.1880 C.3   1 <1>   0.1200 
 16 O       -4.7960     6.7830    -0.2320 O.3   1 <1>  -0.6800 
 17 H       -0.8800     2.7200    -0.3970 H     1 <1>   0.1500 
 18 H        2.7320     0.5010    -0.2500 H     1 <1>   0.1500 
 19 H        4.0070     2.5600     0.1170 H     1 <1>   0.1500 
 20 H       -1.6380     5.1240     1.3050 H     1 <1>   0.4200 
 21 H       -2.4400     6.1450    -1.2960 H     1 <1>   0.0800 
 22 H       -2.2250     7.0780     0.1740 H     1 <1>   0.0800 
 23 H        4.5910     6.1200     0.5600 H     1 <1>   0.0800 
 24 H        4.7960     4.7060    -0.4670 H     1 <1>   0.0800 
 25 H        4.6130     4.5190     1.2890 H     1 <1>   0.0800 
 26 H       -4.0270     5.6860     1.2570 H     1 <1>   0.0800 
 27 H       -4.2520     4.8600    -0.2820 H     1 <1>   0.0800 
 28 H       -4.6170     7.6230     0.2350 H     1 <1>   0.4000 
@<TRIPOS>BOND
  1   1   2  1   
  2   2   3  ar  
  3   2   4  ar  
  4   3   5  ar  
  5   3  17  1   
  6   4   6  ar  
  7   4  18  1   
  8   5   7  1   
  9   5   8  ar  
 10   6   8  ar  
 11   6  19  1   
 12   7   9  2   
 13   7  10  2   
 14   7  11  am  
 15   8  12  1   
 16  11  13  1   
 17  11  20  1   
 18  12  14  1   
 19  13  15  1   
 20  13  21  1   
 21  13  22  1   
 22  14  23  1   
 23  14  24  1   
 24  14  25  1   
 25  15  16  1   
 26  15  26  1   
 27  15  27  1   
 28  16  28  1   
@<TRIPOS>SUBSTRUCTURE
  1 ****   5 GROUP 4 **** **** 0

# MOE 2024.06 (io_trps.svl 2023.06)
