@<TRIPOS>MOLECULE
NONAME
43 43 1 0 0 
SMALL
USER_CHARGES


@<TRIPOS>ATOM
  1 S        0.4790    -0.1750     0.2690 S.o2  1 <1>   1.3330 
  2 O        1.5300    -0.7610    -0.5280 O.2   1 <1>  -0.6500 
  3 O        0.6980     0.0970     1.6680 O.2   1 <1>  -0.6500 
  4 N        0.0260     1.3000    -0.5060 N.am  1 <1>  -0.6930 
  5 C       -0.9810    -1.1730     0.0740 C.3   1 <1>  -0.1350 
  6 C       -1.1230     1.9660    -0.0820 C.ar  1 <1>   0.1990 
  7 C        1.1670     2.1070    -1.0510 C.3   1 <1>   0.3370 
  8 C       -2.2290     2.0280    -0.9210 C.ar  1 <1>  -0.1500 
  9 C       -1.2060     2.5520     1.1750 C.ar  1 <1>  -0.1500 
 10 C        1.8480     3.0270     0.0020 C.2   1 <1>   0.5690 
 11 C        0.6860     2.8800    -2.2900 C.3   1 <1>  -0.2400 
 12 C       -3.3950     2.6560    -0.5180 C.ar  1 <1>  -0.1500 
 13 C       -2.3680     3.1800     1.5840 C.ar  1 <1>  -0.1500 
 14 O        1.3980     4.1440     0.1460 O.2   1 <1>  -0.5700 
 15 N        2.9360     2.6160     0.7520 N.am  1 <1>  -0.6600 
 16 C       -3.4690     3.2360     0.7450 C.ar  1 <1>   0.0830 
 17 C        3.6450     1.3100     0.6280 C.3   1 <1>   0.0600 
 18 C        3.4520     3.4520     1.8740 C.3   1 <1>   0.0600 
 19 O       -4.5720     3.8700     1.2260 O.3   1 <1>  -0.3630 
 20 C       -5.6940     4.0890     0.4040 C.3   1 <1>   0.1200 
 21 C       -6.7210     4.8760     1.2110 C.3   1 <1>  -0.2400 
 22 H       -0.8160    -2.1490     0.4880 H     1 <1>   0.0800 
 23 H       -1.2240    -1.2750    -0.9650 H     1 <1>   0.0800 
 24 H       -1.8100    -0.7220     0.5830 H     1 <1>   0.0800 
 25 H        1.9110     1.4310    -1.4210 H     1 <1>   0.0800 
 26 H       -2.1680     1.5810    -1.8950 H     1 <1>   0.1500 
 27 H       -0.3560     2.5190     1.8330 H     1 <1>   0.1500 
 28 H       -0.0450     3.6200    -2.0170 H     1 <1>   0.0800 
 29 H        0.2650     2.2040    -3.0110 H     1 <1>   0.0800 
 30 H        1.5190     3.3880    -2.7400 H     1 <1>   0.0800 
 31 H       -4.2270     2.6830    -1.1950 H     1 <1>   0.1500 
 32 H       -2.4260     3.6330     2.5570 H     1 <1>   0.1500 
 33 H        3.2440     0.6110     1.3410 H     1 <1>   0.0800 
 34 H        4.6930     1.4450     0.8330 H     1 <1>   0.0800 
 35 H        3.5560     0.8990    -0.3590 H     1 <1>   0.0800 
 36 H        2.8520     4.3350     2.0130 H     1 <1>   0.0800 
 37 H        4.4630     3.7550     1.6650 H     1 <1>   0.0800 
 38 H        3.4320     2.8840     2.7870 H     1 <1>   0.0800 
 39 H       -6.0930     3.1340     0.1100 H     1 <1>   0.0800 
 40 H       -5.3790     4.6480    -0.4600 H     1 <1>   0.0800 
 41 H       -7.0130     4.3170     2.0820 H     1 <1>   0.0800 
 42 H       -7.5940     5.0590     0.6110 H     1 <1>   0.0800 
 43 H       -6.3070     5.8210     1.5130 H     1 <1>   0.0800 
@<TRIPOS>BOND
  1   1   2  2   
  2   1   3  2   
  3   1   4  am  
  4   1   5  1   
  5   4   6  1   
  6   4   7  1   
  7   5  22  1   
  8   5  23  1   
  9   5  24  1   
 10   6   8  ar  
 11   6   9  ar  
 12   7  10  1   
 13   7  11  1   
 14   7  25  1   
 15   8  12  ar  
 16   8  26  1   
 17   9  13  ar  
 18   9  27  1   
 19  10  14  2   
 20  10  15  am  
 21  11  28  1   
 22  11  29  1   
 23  11  30  1   
 24  12  16  ar  
 25  12  31  1   
 26  13  16  ar  
 27  13  32  1   
 28  15  17  1   
 29  15  18  1   
 30  16  19  1   
 31  17  33  1   
 32  17  34  1   
 33  17  35  1   
 34  18  36  1   
 35  18  37  1   
 36  18  38  1   
 37  19  20  1   
 38  20  21  1   
 39  20  39  1   
 40  20  40  1   
 41  21  41  1   
 42  21  42  1   
 43  21  43  1   
@<TRIPOS>SUBSTRUCTURE
  1 ****   6 GROUP 4 **** **** 0

# MOE 2024.06 (io_trps.svl 2023.06)
