@<TRIPOS>MOLECULE
NONAME
42 43 1 0 0 
SMALL
USER_CHARGES


@<TRIPOS>ATOM
  1 O        0.7670    -0.2600     0.4840 O.3   1 <1>  -0.3630 
  2 C        2.0930    -0.4150     0.2480 C.ar  1 <1>   0.0830 
  3 C       -0.1940    -1.0520    -0.1760 C.3   1 <1>   0.1200 
  4 C        2.9540     0.4020     0.9620 C.ar  1 <1>  -0.1500 
  5 C        2.6190    -1.3350    -0.6550 C.ar  1 <1>  -0.1500 
  6 C       -1.5790    -0.6330     0.3160 C.3   1 <1>  -0.1600 
  7 C        4.3220     0.3080     0.7830 C.ar  1 <1>  -0.1500 
  8 C        3.9890    -1.4260    -0.8330 C.ar  1 <1>  -0.1500 
  9 C       -2.6830    -1.4560    -0.3610 C.3   1 <1>  -0.1600 
 10 C        4.8500    -0.6070    -0.1160 C.ar  1 <1>  -0.1430 
 11 C       -4.0680    -1.0330     0.1360 C.3   1 <1>  -0.2400 
 12 C        6.3610    -0.7040    -0.3020 C.3   1 <1>   0.3530 
 13 N        6.9190     0.5760    -0.8290 N.pl3 1 <1>  -0.8380 
 14 C        7.9960     1.1950    -0.2390 C.ar  1 <1>   0.7200 
 15 C        6.1830     1.1840    -1.9770 C.3   1 <1>   0.1290 
 16 N        8.7660     0.4760     0.5410 N.ar  1 <1>  -0.6200 
 17 N        8.1790     2.4740    -0.5070 N.ar  1 <1>  -0.6200 
 18 C        9.7510     1.1400     1.0630 C.ar  1 <1>   0.7200 
 19 C        9.2110     3.0050     0.0840 C.ar  1 <1>   0.4700 
 20 N       10.0450     2.3990     0.8810 N.ar  1 <1>  -0.6200 
 21 N       10.5700     0.4590     1.8660 N.pl3 1 <1>  -0.9000 
 22 H       -0.0030    -2.0840     0.0600 H     1 <1>   0.0800 
 23 H       -0.1010    -0.8860    -1.2350 H     1 <1>   0.0800 
 24 H        2.5450     1.1120     1.6580 H     1 <1>   0.1500 
 25 H        1.9820    -1.9830    -1.2250 H     1 <1>   0.1500 
 26 H       -1.7260     0.4110     0.1000 H     1 <1>   0.0800 
 27 H       -1.6290    -0.7750     1.3820 H     1 <1>   0.0800 
 28 H        4.9820     0.9520     1.3380 H     1 <1>   0.1500 
 29 H        4.3830    -2.1400    -1.5350 H     1 <1>   0.1500 
 30 H       -2.5370    -2.5020    -0.1500 H     1 <1>   0.0800 
 31 H       -2.6340    -1.3190    -1.4280 H     1 <1>   0.0800 
 32 H       -4.1470    -1.1800     1.1980 H     1 <1>   0.0800 
 33 H       -4.8280    -1.6190    -0.3490 H     1 <1>   0.0800 
 34 H       -4.2450     0.0060    -0.0840 H     1 <1>   0.0800 
 35 H        6.6000    -1.4950    -0.9910 H     1 <1>   0.0800 
 36 H        6.7980    -0.9550     0.6490 H     1 <1>   0.0800 
 37 H        5.8000     0.4130    -2.6220 H     1 <1>   0.0800 
 38 H        6.8340     1.8170    -2.5540 H     1 <1>   0.0800 
 39 H        5.3610     1.7730    -1.6070 H     1 <1>   0.0800 
 40 H        9.3950     4.0490    -0.1070 H     1 <1>   0.1500 
 41 H       11.4670     0.8850     2.0820 H     1 <1>   0.4000 
 42 H       10.5290    -0.5550     1.8190 H     1 <1>   0.4000 
@<TRIPOS>BOND
  1   1   2  1   
  2   1   3  1   
  3   2   4  ar  
  4   2   5  ar  
  5   3   6  1   
  6   3  22  1   
  7   3  23  1   
  8   4   7  ar  
  9   4  24  1   
 10   5   8  ar  
 11   5  25  1   
 12   6   9  1   
 13   6  26  1   
 14   6  27  1   
 15   7  10  ar  
 16   7  28  1   
 17   8  10  ar  
 18   8  29  1   
 19   9  11  1   
 20   9  30  1   
 21   9  31  1   
 22  10  12  1   
 23  11  32  1   
 24  11  33  1   
 25  11  34  1   
 26  12  13  1   
 27  12  35  1   
 28  12  36  1   
 29  13  14  1   
 30  13  15  1   
 31  14  16  ar  
 32  14  17  ar  
 33  15  37  1   
 34  15  38  1   
 35  15  39  1   
 36  16  18  ar  
 37  17  19  ar  
 38  18  20  ar  
 39  18  21  1   
 40  19  20  ar  
 41  19  40  1   
 42  21  41  1   
 43  21  42  1   
@<TRIPOS>SUBSTRUCTURE
  1 ****   7 GROUP 4 **** **** 0

# MOE 2024.06 (io_trps.svl 2023.06)
