@<TRIPOS>MOLECULE
NONAME
46 48 1 0 0 
SMALL
USER_CHARGES


@<TRIPOS>ATOM
  1 S       -0.0120    -0.2180     1.5210 S.o2  1 <1>   1.4470 
  2 O        0.3450     0.9300     2.3280 O.2   1 <1>  -0.6500 
  3 O       -0.5650    -1.3800     2.1820 O.2   1 <1>  -0.6500 
  4 N       -1.1630     0.3300     0.4030 N.am  1 <1>  -0.8490 
  5 C        1.3940    -0.7130     0.4700 C.ar  1 <1>  -0.0090 
  6 C       -2.4840     0.4610     1.0250 C.3   1 <1>   0.1960 
  7 C       -0.7580     1.5890    -0.2320 C.3   1 <1>   0.1960 
  8 C        1.3500    -1.7970    -0.4120 C.ar  1 <1>  -0.1440 
  9 C        2.5670     0.0290     0.5240 C.ar  1 <1>  -0.1500 
 10 C       -3.5380     0.8020    -0.0330 C.3   1 <1>  -0.1600 
 11 C       -1.7430     1.9610    -1.3440 C.3   1 <1>  -0.1600 
 12 C        2.4540    -2.1040    -1.1920 C.ar  1 <1>  -0.1500 
 13 C        0.1080    -2.6710    -0.5500 C.3   1 <1>  -0.0970 
 14 C        3.6890    -0.2610    -0.2470 C.ar  1 <1>   0.0860 
 15 C       -3.1730     2.0770    -0.8030 C.3   1 <1>  -0.1600 
 16 C        3.6050    -1.3470    -1.1130 C.ar  1 <1>  -0.1500 
 17 C        4.8890     0.5450    -0.1420 C.2   1 <1>   0.5440 
 18 O        4.8070     1.7450     0.0190 O.2   1 <1>  -0.5700 
 19 N        6.1110    -0.0700    -0.2060 N.am  1 <1>  -0.5470 
 20 C        7.4100     0.3820    -0.1790 C.ar  1 <1>   0.4270 
 21 N        8.2810    -0.6140    -0.1350 N.ar  1 <1>  -0.6200 
 22 C        7.7840     1.7250    -0.2060 C.ar  1 <1>  -0.1500 
 23 C        9.5580    -0.2680    -0.1080 C.ar  1 <1>   0.1600 
 24 C        9.1160     2.0700    -0.1790 C.ar  1 <1>  -0.1500 
 25 C       10.0240     1.0340    -0.1280 C.ar  1 <1>  -0.1500 
 26 H       -2.4560     1.2260     1.7840 H     1 <1>   0.0800 
 27 H       -2.7590    -0.4690     1.4960 H     1 <1>   0.0800 
 28 H        0.2250     1.4840    -0.6600 H     1 <1>   0.0800 
 29 H       -0.7220     2.3790     0.5020 H     1 <1>   0.0800 
 30 H        2.6230     0.8730     1.1930 H     1 <1>   0.1500 
 31 H       -4.4940     0.9290     0.4440 H     1 <1>   0.0800 
 32 H       -3.6190    -0.0250    -0.7170 H     1 <1>   0.0800 
 33 H       -1.7020     1.2060    -2.1100 H     1 <1>   0.0800 
 34 H       -1.4470     2.8960    -1.7860 H     1 <1>   0.0800 
 35 H        2.4210    -2.9380    -1.8720 H     1 <1>   0.1500 
 36 H       -0.7540    -2.0710    -0.7830 H     1 <1>   0.0800 
 37 H       -0.0770    -3.2030     0.3660 H     1 <1>   0.0800 
 38 H        0.2260    -3.3940    -1.3370 H     1 <1>   0.0800 
 39 H       -3.2380     2.9240    -0.1420 H     1 <1>   0.0800 
 40 H       -3.8640     2.2290    -1.6140 H     1 <1>   0.0800 
 41 H        4.4420    -1.6000    -1.7400 H     1 <1>   0.1500 
 42 H        6.0970    -1.0860    -0.2020 H     1 <1>   0.3700 
 43 H        7.0400     2.4970    -0.2500 H     1 <1>   0.1500 
 44 H       10.2770    -1.0700    -0.0690 H     1 <1>   0.1500 
 45 H        9.4320     3.0990    -0.1980 H     1 <1>   0.1500 
 46 H       11.0800     1.2330    -0.1040 H     1 <1>   0.1500 
@<TRIPOS>BOND
  1   1   2  2   
  2   1   3  2   
  3   1   4  am  
  4   1   5  1   
  5   4   6  1   
  6   4   7  1   
  7   5   8  ar  
  8   5   9  ar  
  9   6  10  1   
 10   6  26  1   
 11   6  27  1   
 12   7  11  1   
 13   7  28  1   
 14   7  29  1   
 15   8  12  ar  
 16   8  13  1   
 17   9  14  ar  
 18   9  30  1   
 19  10  15  1   
 20  10  31  1   
 21  10  32  1   
 22  11  15  1   
 23  11  33  1   
 24  11  34  1   
 25  12  16  ar  
 26  12  35  1   
 27  13  36  1   
 28  13  37  1   
 29  13  38  1   
 30  14  16  ar  
 31  14  17  1   
 32  15  39  1   
 33  15  40  1   
 34  16  41  1   
 35  17  18  2   
 36  17  19  am  
 37  19  20  1   
 38  19  42  1   
 39  20  21  ar  
 40  20  22  ar  
 41  21  23  ar  
 42  22  24  ar  
 43  22  43  1   
 44  23  25  ar  
 45  23  44  1   
 46  24  25  ar  
 47  24  45  1   
 48  25  46  1   
@<TRIPOS>SUBSTRUCTURE
  1 ****   9 GROUP 4 **** **** 0

# MOE 2024.06 (io_trps.svl 2023.06)
