@<TRIPOS>MOLECULE
NONAME
31 31 1 0 0 
SMALL
USER_CHARGES


@<TRIPOS>ATOM
  1 O       -0.0740    -1.6290    -2.0680 O.2   1 <1>  -0.5700 
  2 C       -0.3420    -1.7780    -0.8890 C.2   1 <1>   0.6900 
  3 N        0.6100    -2.1960     0.0080 N.am  1 <1>  -0.6600 
  4 N       -1.5950    -1.5250    -0.4510 N.am  1 <1>  -0.7300 
  5 C        2.0440    -2.2940    -0.3800 C.3   1 <1>   0.0600 
  6 C        0.3000    -2.6460     1.3910 C.3   1 <1>   0.0600 
  7 C       -2.7590    -1.2350    -1.3020 C.3   1 <1>   0.2840 
  8 C       -3.8870    -2.1690    -0.8940 C.ar  1 <1>  -0.1430 
  9 C       -4.8460    -1.7830     0.0390 C.ar  1 <1>   0.0830 
 10 C       -3.9510    -3.4310    -1.4630 C.ar  1 <1>  -0.1500 
 11 O       -4.7360    -0.5420     0.5840 O.3   1 <1>  -0.3630 
 12 C       -5.8650    -2.6700     0.3820 C.ar  1 <1>  -0.1500 
 13 C       -4.9650    -4.3080    -1.1180 C.ar  1 <1>  -0.1500 
 14 C       -5.6950    -0.0420     1.4880 C.3   1 <1>   0.0400 
 15 C       -5.9220    -3.9250    -0.1960 C.ar  1 <1>  -0.1500 
 16 H       -1.8080    -1.6590     0.5310 H     1 <1>   0.3700 
 17 H        2.2210    -1.7930    -1.3160 H     1 <1>   0.0800 
 18 H        2.3190    -3.3290    -0.4850 H     1 <1>   0.0800 
 19 H        2.6580    -1.8340     0.3740 H     1 <1>   0.0800 
 20 H       -0.6940    -3.0560     1.4410 H     1 <1>   0.0800 
 21 H        0.3790    -1.8140     2.0680 H     1 <1>   0.0800 
 22 H        0.9930    -3.4120     1.6920 H     1 <1>   0.0800 
 23 H       -2.5110    -1.3890    -2.3380 H     1 <1>   0.0800 
 24 H       -3.0460    -0.2060    -1.1780 H     1 <1>   0.0800 
 25 H       -3.2050    -3.7350    -2.1780 H     1 <1>   0.1500 
 26 H       -6.6200    -2.4040     1.0960 H     1 <1>   0.1500 
 27 H       -5.0060    -5.2850    -1.5660 H     1 <1>   0.1500 
 28 H       -5.4100     0.9600     1.7570 H     1 <1>   0.0800 
 29 H       -5.7080    -0.6650     2.3650 H     1 <1>   0.0800 
 30 H       -6.6570    -0.0310     1.0070 H     1 <1>   0.0800 
 31 H       -6.7110    -4.6070     0.0720 H     1 <1>   0.1500 
@<TRIPOS>BOND
  1   1   2  2   
  2   2   3  am  
  3   2   4  am  
  4   3   5  1   
  5   3   6  1   
  6   4   7  1   
  7   4  16  1   
  8   5  17  1   
  9   5  18  1   
 10   5  19  1   
 11   6  20  1   
 12   6  21  1   
 13   6  22  1   
 14   7   8  1   
 15   7  23  1   
 16   7  24  1   
 17   8   9  ar  
 18   8  10  ar  
 19   9  11  1   
 20   9  12  ar  
 21  10  13  ar  
 22  10  25  1   
 23  11  14  1   
 24  12  15  ar  
 25  12  26  1   
 26  13  15  ar  
 27  13  27  1   
 28  14  28  1   
 29  14  29  1   
 30  14  30  1   
 31  15  31  1   
@<TRIPOS>SUBSTRUCTURE
  1 ****   8 GROUP 4 **** **** 0

# MOE 2024.06 (io_trps.svl 2023.06)
