@<TRIPOS>MOLECULE
NONAME
45 45 1 0 0 
SMALL
USER_CHARGES


@<TRIPOS>ATOM
  1 O       -3.0820    -0.8870    -0.1450 O.2   1 <1>  -0.5700 
  2 C       -2.3370     0.0310    -0.4170 C.2   1 <1>   0.6900 
  3 N       -2.7370     1.3450    -0.4700 N.am  1 <1>  -0.3680 
  4 N       -1.0530    -0.2660    -0.6760 N.am  1 <1>  -0.8000 
  5 N       -4.0320     1.8460    -0.3780 N.2   1 <1>  -0.5120 
  6 C       -4.3170     3.0820    -0.3530 C.2   1 <1>   0.3890 
  7 C       -5.7570     3.5760    -0.2430 C.3   1 <1>  -0.1000 
  8 C       -3.3120     4.2210    -0.4410 C.3   1 <1>  -0.1790 
  9 C       -6.8360     2.9670     0.6270 C.3   1 <1>  -0.1900 
 10 C       -6.2140     4.2890     0.9940 C.3   1 <1>  -0.1950 
 11 C       -6.5230     1.8190     1.6170 C.3   1 <1>  -0.0650 
 12 C       -8.2930     2.9370     0.1020 C.3   1 <1>  -0.0650 
 13 C       -6.8790     5.6670     0.8690 C.3   1 <1>  -0.0650 
 14 C       -6.7290     0.4070     1.0480 C.3   1 <1>  -0.1600 
 15 C       -8.4350     2.2300    -1.2560 C.3   1 <1>  -0.1600 
 16 C       -5.8320     6.7830     0.9060 C.3   1 <1>  -0.2400 
 17 C       -6.2000    -0.6630     2.0080 C.3   1 <1>  -0.2400 
 18 C       -9.9030     2.1390    -1.6850 C.3   1 <1>  -0.2400 
 19 H       -1.9750     2.0140    -0.5400 H     1 <1>   0.3700 
 20 H       -0.8130    -1.2570    -0.6870 H     1 <1>   0.3700 
 21 H       -0.4310     0.3530    -1.1860 H     1 <1>   0.3700 
 22 H       -6.0770     3.9880    -1.1830 H     1 <1>   0.1000 
 23 H       -3.5880     4.8780    -1.2450 H     1 <1>   0.0800 
 24 H       -2.3130     3.8760    -0.6180 H     1 <1>   0.0800 
 25 H       -3.3230     4.7760     0.4780 H     1 <1>   0.0800 
 26 H       -5.5580     4.2610     1.8480 H     1 <1>   0.1000 
 27 H       -5.5020     1.9020     1.9460 H     1 <1>   0.0800 
 28 H       -7.1430     1.9330     2.4880 H     1 <1>   0.0800 
 29 H       -8.9200     2.4500     0.8290 H     1 <1>   0.0800 
 30 H       -8.6790     3.9310    -0.0090 H     1 <1>   0.0800 
 31 H       -7.4290     5.7440    -0.0520 H     1 <1>   0.0800 
 32 H       -7.5680     5.7980     1.6850 H     1 <1>   0.0800 
 33 H       -7.7740     0.2300     0.8700 H     1 <1>   0.0800 
 34 H       -6.2050     0.3170     0.1120 H     1 <1>   0.0800 
 35 H       -7.8860     2.7720    -2.0050 H     1 <1>   0.0800 
 36 H       -8.0210     1.2390    -1.2090 H     1 <1>   0.0800 
 37 H       -5.1530     6.6860     0.0780 H     1 <1>   0.0800 
 38 H       -5.2720     6.7430     1.8230 H     1 <1>   0.0800 
 39 H       -6.3150     7.7420     0.8410 H     1 <1>   0.0800 
 40 H       -6.6930    -0.5970     2.9610 H     1 <1>   0.0800 
 41 H       -5.1400    -0.5390     2.1480 H     1 <1>   0.0800 
 42 H       -6.3700    -1.6400     1.5940 H     1 <1>   0.0800 
 43 H      -10.3320     3.1210    -1.7720 H     1 <1>   0.0800 
 44 H      -10.4690     1.5730    -0.9660 H     1 <1>   0.0800 
 45 H       -9.9760     1.6480    -2.6390 H     1 <1>   0.0800 
@<TRIPOS>BOND
  1   1   2  2   
  2   2   3  am  
  3   2   4  am  
  4   3   5  1   
  5   3  19  1   
  6   4  20  1   
  7   4  21  1   
  8   5   6  2   
  9   6   7  1   
 10   6   8  1   
 11   7   9  1   
 12   7  10  1   
 13   7  22  1   
 14   8  23  1   
 15   8  24  1   
 16   8  25  1   
 17   9  10  1   
 18   9  11  1   
 19   9  12  1   
 20  10  13  1   
 21  10  26  1   
 22  11  14  1   
 23  11  27  1   
 24  11  28  1   
 25  12  15  1   
 26  12  29  1   
 27  12  30  1   
 28  13  16  1   
 29  13  31  1   
 30  13  32  1   
 31  14  17  1   
 32  14  33  1   
 33  14  34  1   
 34  15  18  1   
 35  15  35  1   
 36  15  36  1   
 37  16  37  1   
 38  16  38  1   
 39  16  39  1   
 40  17  40  1   
 41  17  41  1   
 42  17  42  1   
 43  18  43  1   
 44  18  44  1   
 45  18  45  1   
@<TRIPOS>SUBSTRUCTURE
  1 ****   7 GROUP 4 **** **** 0

# MOE 2024.06 (io_trps.svl 2023.06)
