@<TRIPOS>MOLECULE
NONAME
48 50 1 0 0 
SMALL
USER_CHARGES


@<TRIPOS>ATOM
  1 S       -0.0380     0.1410    -0.8290 S.3   1 <1>  -0.0800 
  2 C        1.5320     0.7990    -0.3810 C.ar  1 <1>   0.2970 
  3 C       -0.9120     1.2220     0.2990 C.2   1 <1>  -0.0450 
  4 N        2.6530     0.3540    -0.9180 N.ar  1 <1>  -0.5670 
  5 C        1.3700     1.7910     0.5730 C.ar  1 <1>   0.0000 
  6 C       -0.0060     2.0230     0.9310 C.2   1 <1>   0.0830 
  7 C       -2.3410     1.1680     0.3720 C.2   1 <1>   0.7150 
  8 C        3.7370     0.9560    -0.4570 C.ar  1 <1>   0.1670 
  9 C        2.5260     2.3970     1.0380 C.ar  1 <1>  -0.1500 
 10 N       -0.3550     3.0000     1.8430 N.pl3 1 <1>  -0.8830 
 11 O       -2.9650     2.1600     0.7270 O.2   1 <1>  -0.5700 
 12 N       -3.0660     0.0330     0.0590 N.am  1 <1>  -0.6600 
 13 C        3.7280     1.9710     0.5090 C.ar  1 <1>  -0.1430 
 14 C        5.0430     0.4770    -1.0750 C.3   1 <1>  -0.0170 
 15 C       -2.6360    -1.3120     0.5400 C.3   1 <1>   0.1400 
 16 C       -4.4100     0.1590    -0.5720 C.3   1 <1>   0.1400 
 17 C        5.0140     2.6150     1.0140 C.3   1 <1>  -0.0170 
 18 C        6.2980     0.9270    -0.3160 C.3   1 <1>  -0.1600 
 19 C       -3.5880    -1.8400     1.6120 C.3   1 <1>  -0.2400 
 20 C       -4.4500    -0.6110    -1.8910 C.3   1 <1>  -0.2400 
 21 C        6.2050     2.4130     0.0630 C.3   1 <1>  -0.0800 
 22 C        7.4960     2.9360     0.7240 C.3   1 <1>  -0.1600 
 23 C        8.6980     2.9700    -0.2300 C.3   1 <1>  -0.2400 
 24 H        2.4730     3.1650     1.7870 H     1 <1>   0.1500 
 25 H        0.2720     3.7910     2.0090 H     1 <1>   0.4000 
 26 H       -1.3560     3.2470     1.8890 H     1 <1>   0.4000 
 27 H        5.0840     0.8540    -2.0810 H     1 <1>   0.0800 
 28 H        5.0320    -0.5970    -1.1320 H     1 <1>   0.0800 
 29 H       -1.6520    -1.2460     0.9720 H     1 <1>   0.0800 
 30 H       -2.5840    -1.9970    -0.2890 H     1 <1>   0.0800 
 31 H       -4.6210     1.1960    -0.7740 H     1 <1>   0.0800 
 32 H       -5.1700    -0.1990     0.0990 H     1 <1>   0.0800 
 33 H        5.2450     2.1860     1.9730 H     1 <1>   0.0800 
 34 H        4.8520     3.6700     1.1550 H     1 <1>   0.0800 
 35 H        7.1530     0.7420    -0.9390 H     1 <1>   0.0800 
 36 H        6.4040     0.3350     0.5770 H     1 <1>   0.0800 
 37 H       -3.6960    -1.1170     2.4010 H     1 <1>   0.0800 
 38 H       -3.1860    -2.7440     2.0320 H     1 <1>   0.0800 
 39 H       -4.5500    -2.0670     1.1940 H     1 <1>   0.0800 
 40 H       -3.6570    -0.2780    -2.5370 H     1 <1>   0.0800 
 41 H       -5.3890    -0.4310    -2.3820 H     1 <1>   0.0800 
 42 H       -4.3590    -1.6680    -1.7210 H     1 <1>   0.0800 
 43 H        6.0220     2.9870    -0.8310 H     1 <1>   0.0800 
 44 H        7.7390     2.3310     1.5810 H     1 <1>   0.0800 
 45 H        7.3240     3.9400     1.0740 H     1 <1>   0.0800 
 46 H        8.9990     1.9780    -0.5110 H     1 <1>   0.0800 
 47 H        9.5320     3.4450     0.2550 H     1 <1>   0.0800 
 48 H        8.4600     3.5290    -1.1180 H     1 <1>   0.0800 
@<TRIPOS>BOND
  1   1   2  1   
  2   1   3  1   
  3   2   4  ar  
  4   2   5  ar  
  5   3   6  2   
  6   3   7  1   
  7   4   8  ar  
  8   5   6  1   
  9   5   9  ar  
 10   6  10  1   
 11   7  11  2   
 12   7  12  am  
 13   8  13  ar  
 14   8  14  1   
 15   9  13  ar  
 16   9  24  1   
 17  10  25  1   
 18  10  26  1   
 19  12  15  1   
 20  12  16  1   
 21  13  17  1   
 22  14  18  1   
 23  14  27  1   
 24  14  28  1   
 25  15  19  1   
 26  15  29  1   
 27  15  30  1   
 28  16  20  1   
 29  16  31  1   
 30  16  32  1   
 31  17  21  1   
 32  17  33  1   
 33  17  34  1   
 34  18  21  1   
 35  18  35  1   
 36  18  36  1   
 37  19  37  1   
 38  19  38  1   
 39  19  39  1   
 40  20  40  1   
 41  20  41  1   
 42  20  42  1   
 43  21  22  1   
 44  21  43  1   
 45  22  23  1   
 46  22  44  1   
 47  22  45  1   
 48  23  46  1   
 49  23  47  1   
 50  23  48  1   
@<TRIPOS>SUBSTRUCTURE
  1 ****   2 GROUP 4 **** **** 0

# MOE 2024.06 (io_trps.svl 2023.06)
