@<TRIPOS>MOLECULE
NONAME
56 59 1 0 0 
SMALL
USER_CHARGES


@<TRIPOS>ATOM
  1 O        0.4110    -0.6880     1.8360 O.2   1 <1>  -0.5700 
  2 C        0.3560    -1.6480     1.1090 C.2   1 <1>   0.4950 
  3 C        1.3580    -2.0290     0.1650 C.2   1 <1>  -0.1240 
  4 C       -0.8390    -2.5690     1.3080 C.3   1 <1>  -0.0990 
  5 C        1.3890    -3.2770    -0.3820 C.2   1 <1>  -0.0380 
  6 C        2.5220    -1.1160    -0.2800 C.3   1 <1>   0.3400 
  7 C       -1.0830    -3.5370     0.1310 C.3   1 <1>   0.0000 
  8 N        2.5340    -3.7490    -1.0060 N.pl3 1 <1>  -0.6000 
  9 C        0.2340    -4.2570    -0.2320 C.3   1 <1>  -0.0220 
 10 C        3.8000    -1.9470    -0.0780 C.2   1 <1>  -0.1240 
 11 C        2.4720     0.4310    -0.2260 C.ar  1 <1>  -0.1430 
 12 C       -1.6200    -2.7600    -1.0870 C.3   1 <1>  -0.2400 
 13 C       -2.1420    -4.5750     0.5360 C.3   1 <1>  -0.2400 
 14 C        3.7420    -3.1940    -0.6340 C.2   1 <1>   0.2090 
 15 C        4.9650    -1.5910     0.6540 C.2   1 <1>   0.6160 
 16 C        1.2540     1.1060    -0.2340 C.ar  1 <1>  -0.1500 
 17 C        3.6220     1.2130    -0.2840 C.ar  1 <1>  -0.1500 
 18 N        4.8710    -3.9700    -0.7050 N.am  1 <1>  -0.5390 
 19 O        5.0650    -0.6600     1.4300 O.2   1 <1>  -0.5700 
 20 N        6.0610    -2.3950     0.5340 N.am  1 <1>  -0.4900 
 21 C        1.1820     2.4890    -0.1990 C.ar  1 <1>   0.0820 
 22 C        3.5700     2.5980    -0.2410 C.ar  1 <1>   0.0820 
 23 C        6.0400    -3.5760    -0.1290 C.2   1 <1>   0.6900 
 24 O       -0.0440     3.0630    -0.1810 O.3   1 <1>  -0.3630 
 25 C        2.3440     3.2530    -0.1960 C.ar  1 <1>   0.0820 
 26 O        4.7300     3.2990    -0.2510 O.3   1 <1>  -0.3620 
 27 O        7.0260    -4.2730    -0.1950 O.2   1 <1>  -0.5700 
 28 C       -0.4700     3.5070     1.0850 C.3   1 <1>   0.0400 
 29 O        2.2780     4.6120    -0.1420 O.3   1 <1>  -0.3630 
 30 C        5.4770     3.2370     0.9420 C.3   1 <1>   0.0400 
 31 C        2.4360     5.2620    -1.3800 C.3   1 <1>   0.0400 
 32 H       -1.7130    -1.9660     1.4760 H     1 <1>   0.0800 
 33 H       -0.6580    -3.1290     2.2070 H     1 <1>   0.0800 
 34 H        2.4170    -1.1850    -1.3510 H     1 <1>   0.0800 
 35 H        2.5270    -4.6740    -1.4480 H     1 <1>   0.4000 
 36 H        0.4910    -4.9630     0.5390 H     1 <1>   0.0800 
 37 H        0.1000    -4.8040    -1.1490 H     1 <1>   0.0800 
 38 H       -0.9180    -2.0190    -1.4250 H     1 <1>   0.0800 
 39 H       -2.5390    -2.2580    -0.8400 H     1 <1>   0.0800 
 40 H       -1.8150    -3.4290    -1.9060 H     1 <1>   0.0800 
 41 H       -1.8140    -5.1440     1.3890 H     1 <1>   0.0800 
 42 H       -2.3330    -5.2590    -0.2730 H     1 <1>   0.0800 
 43 H       -3.0680    -4.0900     0.7930 H     1 <1>   0.0800 
 44 H        0.3220     0.5780    -0.2720 H     1 <1>   0.1500 
 45 H        4.5930     0.7770    -0.3850 H     1 <1>   0.1500 
 46 H        4.8840    -4.8910    -1.1360 H     1 <1>   0.3700 
 47 H        6.8970    -2.1450     1.0490 H     1 <1>   0.3700 
 48 H       -1.4650     3.9000     0.9890 H     1 <1>   0.0800 
 49 H        0.2010     4.2750     1.4290 H     1 <1>   0.0800 
 50 H       -0.4630     2.6730     1.7650 H     1 <1>   0.0800 
 51 H        6.3510     3.8520     0.8260 H     1 <1>   0.0800 
 52 H        5.7630     2.2170     1.1310 H     1 <1>   0.0800 
 53 H        4.8680     3.6090     1.7480 H     1 <1>   0.0800 
 54 H        3.4120     5.0350    -1.7710 H     1 <1>   0.0800 
 55 H        2.3390     6.3200    -1.2190 H     1 <1>   0.0800 
 56 H        1.6700     4.9150    -2.0510 H     1 <1>   0.0800 
@<TRIPOS>BOND
  1   1   2  2   
  2   2   3  1   
  3   2   4  1   
  4   3   5  2   
  5   3   6  1   
  6   4   7  1   
  7   4  32  1   
  8   4  33  1   
  9   5   8  1   
 10   5   9  1   
 11   6  10  1   
 12   6  11  1   
 13   6  34  1   
 14   7   9  1   
 15   7  12  1   
 16   7  13  1   
 17   8  14  1   
 18   8  35  1   
 19   9  36  1   
 20   9  37  1   
 21  10  14  2   
 22  10  15  1   
 23  11  16  ar  
 24  11  17  ar  
 25  12  38  1   
 26  12  39  1   
 27  12  40  1   
 28  13  41  1   
 29  13  42  1   
 30  13  43  1   
 31  14  18  1   
 32  15  19  2   
 33  15  20  am  
 34  16  21  ar  
 35  16  44  1   
 36  17  22  ar  
 37  17  45  1   
 38  18  23  am  
 39  18  46  1   
 40  20  23  am  
 41  20  47  1   
 42  21  24  1   
 43  21  25  ar  
 44  22  25  ar  
 45  22  26  1   
 46  23  27  2   
 47  24  28  1   
 48  25  29  1   
 49  26  30  1   
 50  28  48  1   
 51  28  49  1   
 52  28  50  1   
 53  29  31  1   
 54  30  51  1   
 55  30  52  1   
 56  30  53  1   
 57  31  54  1   
 58  31  55  1   
 59  31  56  1   
@<TRIPOS>SUBSTRUCTURE
  1 ****   6 GROUP 4 **** **** 0

# MOE 2024.06 (io_trps.svl 2023.06)
