@<TRIPOS>MOLECULE
NONAME
49 50 1 0 0 
SMALL
USER_CHARGES


@<TRIPOS>ATOM
  1 S       -0.2690     0.4450    -0.3890 S.3   1 <1>  -0.0800 
  2 C        0.4420    -1.1380    -0.2260 C.2   1 <1>   0.1040 
  3 C        1.2590     1.2770    -0.0950 C.2   1 <1>  -0.0450 
  4 N       -0.3350    -2.2740    -0.3480 N.am  1 <1>  -0.4940 
  5 C        1.7840    -1.0400     0.0410 C.2   1 <1>  -0.0860 
  6 C        2.2170     0.3320     0.1490 C.2   1 <1>  -0.1810 
  7 C        1.2040     2.7120    -0.1680 C.2   1 <1>   0.5940 
  8 C       -1.6450    -2.4670    -0.7200 C.2   1 <1>   0.5690 
  9 C        2.5980    -2.2280     0.1770 C.2   1 <1>   0.8060 
 10 C        3.6470     0.6770     0.5630 C.3   1 <1>  -0.0590 
 11 O        0.2060     3.3540     0.0500 O.2   1 <1>  -0.5700 
 12 C        2.4250     3.5110    -0.5680 C.3   1 <1>  -0.1790 
 13 O       -2.3600    -1.6040    -1.1650 O.2   1 <1>  -0.5700 
 14 C       -2.2650    -3.8640    -0.5540 C.3   1 <1>   0.4040 
 15 O        2.1080    -3.3390     0.3190 O.2   1 <1>  -0.5700 
 16 O        3.9280    -2.1320     0.1160 O.3   1 <1>  -0.4300 
 17 N       -3.7700    -3.8280    -0.4040 N.4   1 <1>  -0.9590 
 18 C        4.7680    -3.2610     0.2210 C.3   1 <1>   0.1200 
 19 C       -4.1820    -3.1660     0.8700 C.3   1 <1>   0.3430 
 20 C       -4.4010    -5.1640    -0.5970 C.3   1 <1>   0.3430 
 21 C        6.2130    -2.7820     0.1340 C.3   1 <1>  -0.2400 
 22 C       -5.7020    -2.9940     0.8890 C.3   1 <1>  -0.1600 
 23 C       -5.9240    -5.0170    -0.5980 C.3   1 <1>  -0.1600 
 24 C       -6.4320    -4.3270     0.6750 C.3   1 <1>  -0.1600 
 25 H        0.2040    -3.1200    -0.1190 H     1 <1>   0.3700 
 26 H        3.9440     0.0790     1.4060 H     1 <1>   0.0800 
 27 H        4.3260     0.4950    -0.2510 H     1 <1>   0.0800 
 28 H        3.7390     1.7010     0.8680 H     1 <1>   0.0800 
 29 H        2.1190     4.3500    -1.1640 H     1 <1>   0.0800 
 30 H        2.9210     3.8770     0.3110 H     1 <1>   0.0800 
 31 H        3.0990     2.9100    -1.1480 H     1 <1>   0.0800 
 32 H       -1.8270    -4.3420     0.3050 H     1 <1>   0.0800 
 33 H       -2.0080    -4.4380    -1.4270 H     1 <1>   0.0800 
 34 H       -4.1000    -3.1950    -1.1530 H     1 <1>   0.4500 
 35 H        4.5380    -3.9370    -0.5850 H     1 <1>   0.0800 
 36 H        4.5790    -3.7440     1.1660 H     1 <1>   0.0800 
 37 H       -3.7160    -2.1960     0.9510 H     1 <1>   0.0800 
 38 H       -3.8770    -3.7650     1.7120 H     1 <1>   0.0800 
 39 H       -4.1060    -5.8260     0.2020 H     1 <1>   0.0800 
 40 H       -4.0840    -5.5940    -1.5330 H     1 <1>   0.0800 
 41 H        6.3870    -2.2920    -0.8080 H     1 <1>   0.0800 
 42 H        6.8790    -3.6230     0.2090 H     1 <1>   0.0800 
 43 H        6.4310    -2.1030     0.9390 H     1 <1>   0.0800 
 44 H       -5.9880    -2.2910     0.1260 H     1 <1>   0.0800 
 45 H       -5.9950    -2.5740     1.8360 H     1 <1>   0.0800 
 46 H       -6.3720    -5.9930    -0.6760 H     1 <1>   0.0800 
 47 H       -6.2270    -4.4550    -1.4640 H     1 <1>   0.0800 
 48 H       -7.4930    -4.1540     0.5990 H     1 <1>   0.0800 
 49 H       -6.2650    -4.9690     1.5250 H     1 <1>   0.0800 
@<TRIPOS>BOND
  1   1   2  1   
  2   1   3  1   
  3   2   4  1   
  4   2   5  2   
  5   3   6  2   
  6   3   7  1   
  7   4   8  am  
  8   4  25  1   
  9   5   6  1   
 10   5   9  1   
 11   6  10  1   
 12   7  11  2   
 13   7  12  1   
 14   8  13  2   
 15   8  14  1   
 16   9  15  2   
 17   9  16  1   
 18  10  26  1   
 19  10  27  1   
 20  10  28  1   
 21  12  29  1   
 22  12  30  1   
 23  12  31  1   
 24  14  17  1   
 25  14  32  1   
 26  14  33  1   
 27  16  18  1   
 28  17  19  1   
 29  17  20  1   
 30  17  34  1   
 31  18  21  1   
 32  18  35  1   
 33  18  36  1   
 34  19  22  1   
 35  19  37  1   
 36  19  38  1   
 37  20  23  1   
 38  20  39  1   
 39  20  40  1   
 40  21  41  1   
 41  21  42  1   
 42  21  43  1   
 43  22  24  1   
 44  22  44  1   
 45  22  45  1   
 46  23  24  1   
 47  23  46  1   
 48  23  47  1   
 49  24  48  1   
 50  24  49  1   
@<TRIPOS>SUBSTRUCTURE
  1 ****   4 GROUP 4 **** **** 0

# MOE 2024.06 (io_trps.svl 2023.06)
