@<TRIPOS>MOLECULE
NONAME
35 35 1 0 0 
SMALL
USER_CHARGES


@<TRIPOS>ATOM
  1 O       -0.8590     2.6090    -1.6280 O.2   1 <1>  -0.5700 
  2 C       -0.0570     3.4230    -1.2500 C.2   1 <1>   0.6590 
  3 O        0.0900     3.7530     0.0270 O.3   1 <1>  -0.4300 
  4 C        0.8530     4.1370    -2.2150 C.3   1 <1>  -0.1790 
  5 C       -0.5690     3.2800     1.1930 C.3   1 <1>   0.2000 
  6 C       -0.5640     1.7430     1.2950 C.3   1 <1>  -0.1600 
  7 C       -1.9750     3.8840     1.3110 C.3   1 <1>  -0.1600 
  8 C       -1.9640     1.1260     1.2320 C.3   1 <1>   0.3430 
  9 C       -3.0360     3.2140     0.4300 C.3   1 <1>   0.3430 
 10 N       -2.7340     1.7750     0.1360 N.4   1 <1>  -0.9590 
 11 C       -3.9070     1.0070    -0.3500 C.3   1 <1>   0.7030 
 12 C       -4.8890     0.8630     0.7660 C.1   1 <1>  -0.2000 
 13 C       -4.5550     1.7420    -1.5270 C.3   1 <1>  -0.2400 
 14 C       -3.4550    -0.3730    -0.8320 C.3   1 <1>  -0.2400 
 15 C       -5.6690     0.7510     1.6580 C.1   1 <1>  -0.1770 
 16 H        0.6840     5.1960    -2.1550 H     1 <1>   0.0800 
 17 H        0.6600     3.8050    -3.2180 H     1 <1>   0.0800 
 18 H        1.8770     3.9280    -1.9660 H     1 <1>   0.0800 
 19 H        0.0180     3.6650     2.0120 H     1 <1>   0.0800 
 20 H       -0.1370     1.4660     2.2430 H     1 <1>   0.0800 
 21 H        0.0630     1.3100     0.5370 H     1 <1>   0.0800 
 22 H       -2.2950     3.7800     2.3320 H     1 <1>   0.0800 
 23 H       -1.9420     4.9390     1.1080 H     1 <1>   0.0800 
 24 H       -1.8670     0.0670     1.0660 H     1 <1>   0.0800 
 25 H       -2.4790     1.2740     2.1680 H     1 <1>   0.0800 
 26 H       -3.0960     3.7490    -0.5040 H     1 <1>   0.0800 
 27 H       -3.9930     3.2980     0.9190 H     1 <1>   0.0800 
 28 H       -2.0880     1.8080    -0.6740 H     1 <1>   0.4500 
 29 H       -5.0100     2.6660    -1.2210 H     1 <1>   0.0800 
 30 H       -5.3380     1.1350    -1.9460 H     1 <1>   0.0800 
 31 H       -3.8330     1.9330    -2.3010 H     1 <1>   0.0800 
 32 H       -3.1340    -0.9970    -0.0200 H     1 <1>   0.0800 
 33 H       -2.6650    -0.2850    -1.5570 H     1 <1>   0.0800 
 34 H       -4.2800    -0.8800    -1.3010 H     1 <1>   0.0800 
 35 H       -6.3860     0.6420     2.4550 H     1 <1>   0.1770 
@<TRIPOS>BOND
  1   1   2  2   
  2   2   3  1   
  3   2   4  1   
  4   3   5  1   
  5   4  16  1   
  6   4  17  1   
  7   4  18  1   
  8   5   6  1   
  9   5   7  1   
 10   5  19  1   
 11   6   8  1   
 12   6  20  1   
 13   6  21  1   
 14   7   9  1   
 15   7  22  1   
 16   7  23  1   
 17   8  10  1   
 18   8  24  1   
 19   8  25  1   
 20   9  10  1   
 21   9  26  1   
 22   9  27  1   
 23  10  11  1   
 24  10  28  1   
 25  11  12  1   
 26  11  13  1   
 27  11  14  1   
 28  12  15  3   
 29  13  29  1   
 30  13  30  1   
 31  13  31  1   
 32  14  32  1   
 33  14  33  1   
 34  14  34  1   
 35  15  35  1   
@<TRIPOS>SUBSTRUCTURE
  1 ****  10 GROUP 4 **** **** 0

# MOE 2024.06 (io_trps.svl 2023.06)
