@<TRIPOS>MOLECULE
NONAME
41 42 1 0 0 
SMALL
USER_CHARGES


@<TRIPOS>ATOM
  1 O        1.6580    -1.4760     2.0260 O.3   1 <1>  -0.5600 
  2 C        0.8000    -1.7870     0.9630 C.3   1 <1>   0.1200 
  3 C        2.3390    -0.2560     1.8840 C.3   1 <1>   0.1200 
  4 C        1.5880    -1.9430    -0.3590 C.3   1 <1>   0.3430 
  5 C        3.0790    -0.1620     0.5290 C.3   1 <1>   0.3430 
  6 N        2.9970    -1.4560    -0.2230 N.4   1 <1>  -0.9590 
  7 C        3.7870    -1.4930    -1.4770 C.3   1 <1>   0.4860 
  8 C        5.2460    -1.2470    -1.1410 C.ar  1 <1>  -0.1430 
  9 C        5.9360    -2.1340    -0.3150 C.ar  1 <1>   0.0820 
 10 C        5.8820    -0.1310    -1.6640 C.ar  1 <1>  -0.1500 
 11 O        5.1930    -3.1830     0.1620 O.3   1 <1>  -0.3630 
 12 C        7.2940    -1.8990    -0.0360 C.ar  1 <1>   0.0820 
 13 C        7.2060     0.1170    -1.3590 C.ar  1 <1>  -0.1500 
 14 C        5.5950    -3.9820     1.2580 C.3   1 <1>   0.0400 
 15 O        8.0260    -2.7790     0.7020 O.3   1 <1>  -0.3630 
 16 C        7.9070    -0.7470    -0.5400 C.ar  1 <1>   0.0820 
 17 C        8.9890    -3.5300    -0.0080 C.3   1 <1>   0.0400 
 18 O        9.1970    -0.4220    -0.2760 O.3   1 <1>  -0.3630 
 19 C        9.5140    -0.0910     1.0590 C.3   1 <1>   0.0400 
 20 H        0.0620    -1.0070     0.8780 H     1 <1>   0.0800 
 21 H        0.2920    -2.7050     1.2030 H     1 <1>   0.0800 
 22 H        3.0440    -0.1830     2.6930 H     1 <1>   0.0800 
 23 H        1.6300     0.5480     1.9850 H     1 <1>   0.0800 
 24 H        1.0770    -1.3970    -1.1350 H     1 <1>   0.0800 
 25 H        1.5910    -2.9840    -0.6410 H     1 <1>   0.0800 
 26 H        4.1090     0.0980     0.7100 H     1 <1>   0.0800 
 27 H        2.6420     0.6300    -0.0560 H     1 <1>   0.0800 
 28 H        3.4740    -2.1410     0.3930 H     1 <1>   0.4500 
 29 H        3.4310    -0.7460    -2.1670 H     1 <1>   0.0800 
 30 H        3.6960    -2.4630    -1.9390 H     1 <1>   0.0800 
 31 H        5.3620     0.5560    -2.3110 H     1 <1>   0.1500 
 32 H        7.7080     0.9830    -1.7560 H     1 <1>   0.1500 
 33 H        5.9200    -3.3440     2.0620 H     1 <1>   0.0800 
 34 H        6.3910    -4.6320     0.9440 H     1 <1>   0.0800 
 35 H        4.7550    -4.5720     1.5760 H     1 <1>   0.0800 
 36 H        9.4340    -4.2350     0.6710 H     1 <1>   0.0800 
 37 H        9.7450    -2.8690    -0.3940 H     1 <1>   0.0800 
 38 H        8.5020    -4.0500    -0.8130 H     1 <1>   0.0800 
 39 H       10.5320     0.2530     1.0860 H     1 <1>   0.0800 
 40 H        9.4080    -0.9620     1.6800 H     1 <1>   0.0800 
 41 H        8.8540     0.6900     1.3910 H     1 <1>   0.0800 
@<TRIPOS>BOND
  1   1   2  1   
  2   1   3  1   
  3   2   4  1   
  4   2  20  1   
  5   2  21  1   
  6   3   5  1   
  7   3  22  1   
  8   3  23  1   
  9   4   6  1   
 10   4  24  1   
 11   4  25  1   
 12   5   6  1   
 13   5  26  1   
 14   5  27  1   
 15   6   7  1   
 16   6  28  1   
 17   7   8  1   
 18   7  29  1   
 19   7  30  1   
 20   8   9  ar  
 21   8  10  ar  
 22   9  11  1   
 23   9  12  ar  
 24  10  13  ar  
 25  10  31  1   
 26  11  14  1   
 27  12  15  1   
 28  12  16  ar  
 29  13  16  ar  
 30  13  32  1   
 31  14  33  1   
 32  14  34  1   
 33  14  35  1   
 34  15  17  1   
 35  16  18  1   
 36  17  36  1   
 37  17  37  1   
 38  17  38  1   
 39  18  19  1   
 40  19  39  1   
 41  19  40  1   
 42  19  41  1   
@<TRIPOS>SUBSTRUCTURE
  1 ****   9 GROUP 4 **** **** 0

# MOE 2024.06 (io_trps.svl 2023.06)
