@<TRIPOS>MOLECULE
NONAME
30 30 1 0 0 
SMALL
USER_CHARGES


@<TRIPOS>ATOM
  1 O        0.3550     4.7470    -0.6640 O.3   1 <1>  -0.5600 
  2 C        0.3350     3.8470     0.4060 C.3   1 <1>   0.1200 
  3 C       -0.8220     5.4960    -0.7740 C.3   1 <1>   0.1200 
  4 C       -0.8390     2.8610     0.2570 C.3   1 <1>   0.1100 
  5 C       -2.0370     4.5690    -0.9570 C.3   1 <1>   0.1100 
  6 N       -2.1230     3.5780     0.1400 N.3   1 <1>  -0.8100 
  7 C       -3.2350     2.6350    -0.0490 C.3   1 <1>   0.3100 
  8 C       -4.5370     3.3470     0.0910 C.1   1 <1>  -0.2000 
  9 C       -5.5520     3.9600     0.2100 C.1   1 <1>  -0.2000 
 10 C       -6.7810     4.7960     0.3810 C.3   1 <1>   0.4800 
 11 O       -6.0130     5.7500     0.9840 O.3   1 <1>  -0.6800 
 12 C       -6.9600     5.7330    -0.8650 C.3   1 <1>  -0.2400 
 13 C       -7.7190     3.7000    -0.1910 C.3   1 <1>  -0.2400 
 14 H        0.2470     4.4020     1.3240 H     1 <1>   0.0800 
 15 H        1.2700     3.3170     0.4070 H     1 <1>   0.0800 
 16 H       -0.7190     6.1480    -1.6220 H     1 <1>   0.0800 
 17 H       -0.9360     6.0930     0.1140 H     1 <1>   0.0800 
 18 H       -0.8650     2.2180     1.1200 H     1 <1>   0.0800 
 19 H       -0.6720     2.2530    -0.6150 H     1 <1>   0.0800 
 20 H       -1.9520     4.0660    -1.9050 H     1 <1>   0.0800 
 21 H       -2.9280     5.1710    -0.9740 H     1 <1>   0.0800 
 22 H       -3.1850     1.8670     0.7030 H     1 <1>   0.0800 
 23 H       -3.1710     2.1720    -1.0190 H     1 <1>   0.0800 
 24 H       -5.1170     5.3610     1.0350 H     1 <1>   0.4000 
 25 H       -6.0750     6.2970    -1.1250 H     1 <1>   0.0800 
 26 H       -7.7470     6.4350    -0.6530 H     1 <1>   0.0800 
 27 H       -7.2220     5.2530    -1.7920 H     1 <1>   0.0800 
 28 H       -7.7980     2.8940     0.5190 H     1 <1>   0.0800 
 29 H       -7.4080     3.2590    -1.1270 H     1 <1>   0.0800 
 30 H       -8.7170     4.0830    -0.3160 H     1 <1>   0.0800 
@<TRIPOS>BOND
  1   1   2  1   
  2   1   3  1   
  3   2   4  1   
  4   2  14  1   
  5   2  15  1   
  6   3   5  1   
  7   3  16  1   
  8   3  17  1   
  9   4   6  1   
 10   4  18  1   
 11   4  19  1   
 12   5   6  1   
 13   5  20  1   
 14   5  21  1   
 15   6   7  1   
 16   7   8  1   
 17   7  22  1   
 18   7  23  1   
 19   8   9  3   
 20   9  10  1   
 21  10  11  1   
 22  10  12  1   
 23  10  13  1   
 24  11  24  1   
 25  12  25  1   
 26  12  26  1   
 27  12  27  1   
 28  13  28  1   
 29  13  29  1   
 30  13  30  1   
@<TRIPOS>SUBSTRUCTURE
  1 ****   8 GROUP 4 **** **** 0

# MOE 2024.06 (io_trps.svl 2023.06)
