@<TRIPOS>MOLECULE
NONAME
33 33 1 0 0 
SMALL
USER_CHARGES


@<TRIPOS>ATOM
  1 CL      -1.4150     3.2360     3.3500 Cl    1 <1>  -0.1770 
  2 C       -0.5630     3.1650     1.8290 C.ar  1 <1>   0.1770 
  3 C        0.6490     3.8090     1.6980 C.ar  1 <1>  -0.1500 
  4 C       -1.1200     2.4610     0.7800 C.ar  1 <1>  -0.1500 
  5 C        1.3660     3.7780     0.4970 C.ar  1 <1>   0.0860 
  6 C       -0.4410     2.4090    -0.4210 C.ar  1 <1>  -0.1500 
  7 C        0.7800     3.0560    -0.5640 C.ar  1 <1>   0.0830 
  8 C        2.6440     4.4730     0.4220 C.2   1 <1>   0.5440 
  9 O        1.3720     2.9590    -1.7680 O.3   1 <1>  -0.5320 
 10 O        2.9900     5.2270     1.3210 O.2   1 <1>  -0.5700 
 11 N        3.4910     4.3220    -0.6370 N.am  1 <1>  -0.4300 
 12 N        4.8970     4.7370    -0.6730 N.am  1 <1>  -0.4300 
 13 C        5.9620     3.9270    -0.4180 C.2   1 <1>   0.5690 
 14 O        5.8380     2.7180    -0.3780 O.2   1 <1>  -0.5700 
 15 C        7.3660     4.5450    -0.1910 C.3   1 <1>   0.0610 
 16 C        7.8970     4.1290     1.1930 C.3   1 <1>  -0.2400 
 17 C        8.3430     4.0340    -1.2660 C.3   1 <1>  -0.2400 
 18 C        7.3610     6.0890    -0.2490 C.3   1 <1>  -0.2400 
 19 H        1.0420     4.3440     2.5450 H     1 <1>   0.1500 
 20 H       -2.0670     1.9660     0.9110 H     1 <1>   0.1500 
 21 H       -0.8710     1.8620    -1.2410 H     1 <1>   0.1500 
 22 H        0.8750     2.4180    -2.4120 H     1 <1>   0.4500 
 23 H        3.1640     3.7280    -1.4110 H     1 <1>   0.3700 
 24 H        5.0510     5.7480    -0.6930 H     1 <1>   0.3700 
 25 H        7.9620     3.0570     1.2610 H     1 <1>   0.0800 
 26 H        7.2310     4.4720     1.9650 H     1 <1>   0.0800 
 27 H        8.8740     4.5410     1.3720 H     1 <1>   0.0800 
 28 H        8.0000     4.3120    -2.2470 H     1 <1>   0.0800 
 29 H        8.4090     2.9600    -1.2280 H     1 <1>   0.0800 
 30 H        9.3270     4.4400    -1.1170 H     1 <1>   0.0800 
 31 H        7.0370     6.4350    -1.2150 H     1 <1>   0.0800 
 32 H        8.3510     6.4740    -0.0740 H     1 <1>   0.0800 
 33 H        6.7100     6.4950     0.5060 H     1 <1>   0.0800 
@<TRIPOS>BOND
  1   1   2  1   
  2   2   3  ar  
  3   2   4  ar  
  4   3   5  ar  
  5   3  19  1   
  6   4   6  ar  
  7   4  20  1   
  8   5   7  ar  
  9   5   8  1   
 10   6   7  ar  
 11   6  21  1   
 12   7   9  1   
 13   8  10  2   
 14   8  11  am  
 15   9  22  1   
 16  11  12  1   
 17  11  23  1   
 18  12  13  am  
 19  12  24  1   
 20  13  14  2   
 21  13  15  1   
 22  15  16  1   
 23  15  17  1   
 24  15  18  1   
 25  16  25  1   
 26  16  26  1   
 27  16  27  1   
 28  17  28  1   
 29  17  29  1   
 30  17  30  1   
 31  18  31  1   
 32  18  32  1   
 33  18  33  1   
@<TRIPOS>SUBSTRUCTURE
  1 ****   8 GROUP 4 **** **** 0

# MOE 2024.06 (io_trps.svl 2023.06)
