@<TRIPOS>MOLECULE
NONAME
35 37 1 0 0 
SMALL
USER_CHARGES


@<TRIPOS>ATOM
  1 S       -0.7700     0.3240    -2.2470 S.3   1 <1>  -0.0800 
  2 C       -0.6380    -0.8650    -0.9540 C.2   1 <1>   0.3250 
  3 C        0.8240    -0.0780    -2.7980 C.2   1 <1>  -0.1100 
  4 N        0.4990    -1.4760    -0.9710 N.2   1 <1>  -0.5650 
  5 C       -1.7450    -1.0480    -0.0390 C.ar  1 <1>   0.0530 
  6 C        1.3160    -1.0390    -2.0030 C.2   1 <1>   0.0460 
  7 C       -1.8320    -2.2110     0.7290 C.ar  1 <1>  -0.1500 
  8 C       -2.7550    -0.0980     0.1300 C.ar  1 <1>  -0.1500 
  9 C        2.6910    -1.6850    -2.1070 C.3   1 <1>   0.5240 
 10 C       -2.8690    -2.4180     1.6200 C.ar  1 <1>  -0.1500 
 11 C       -3.7950    -0.2990     1.0190 C.ar  1 <1>  -0.1500 
 12 N        3.2390    -1.7950    -0.7280 N.4   1 <1>  -0.9590 
 13 C       -3.8550    -1.4600     1.7670 C.ar  1 <1>  -0.1500 
 14 C        3.6530    -0.4640    -0.1690 C.3   1 <1>   0.3430 
 15 C        4.3200    -2.8250    -0.5890 C.3   1 <1>   0.3430 
 16 C        4.2530    -0.6140     1.2420 C.3   1 <1>   0.1200 
 17 C        4.8860    -2.8490     0.8440 C.3   1 <1>   0.1200 
 18 O        5.2800    -1.5640     1.2320 O.3   1 <1>  -0.5600 
 19 H        1.2040     0.4530    -3.6530 H     1 <1>   0.1500 
 20 H       -1.0770    -2.9690     0.6250 H     1 <1>   0.1500 
 21 H       -2.7390     0.8190    -0.4310 H     1 <1>   0.1500 
 22 H        3.3420    -1.1050    -2.7400 H     1 <1>   0.0800 
 23 H        2.5730    -2.6680    -2.5310 H     1 <1>   0.0800 
 24 H       -2.9130    -3.3250     2.1990 H     1 <1>   0.1500 
 25 H       -4.5620     0.4480     1.1320 H     1 <1>   0.1500 
 26 H        2.4110    -2.0900    -0.1790 H     1 <1>   0.4500 
 27 H       -4.6640    -1.6180     2.4590 H     1 <1>   0.1500 
 28 H        2.8030     0.1980    -0.1250 H     1 <1>   0.0800 
 29 H        4.3960    -0.0130    -0.8060 H     1 <1>   0.0800 
 30 H        5.1280    -2.6010    -1.2660 H     1 <1>   0.0800 
 31 H        3.9370    -3.8010    -0.8360 H     1 <1>   0.0800 
 32 H        3.5040    -0.9180     1.9530 H     1 <1>   0.0800 
 33 H        4.6740     0.3210     1.5680 H     1 <1>   0.0800 
 34 H        5.7540    -3.4840     0.8910 H     1 <1>   0.0800 
 35 H        4.1560    -3.2150     1.5460 H     1 <1>   0.0800 
@<TRIPOS>BOND
  1   1   2  1   
  2   1   3  1   
  3   2   4  2   
  4   2   5  1   
  5   3   6  2   
  6   3  19  1   
  7   4   6  1   
  8   5   7  ar  
  9   5   8  ar  
 10   6   9  1   
 11   7  10  ar  
 12   7  20  1   
 13   8  11  ar  
 14   8  21  1   
 15   9  12  1   
 16   9  22  1   
 17   9  23  1   
 18  10  13  ar  
 19  10  24  1   
 20  11  13  ar  
 21  11  25  1   
 22  12  14  1   
 23  12  15  1   
 24  12  26  1   
 25  13  27  1   
 26  14  16  1   
 27  14  28  1   
 28  14  29  1   
 29  15  17  1   
 30  15  30  1   
 31  15  31  1   
 32  16  18  1   
 33  16  32  1   
 34  16  33  1   
 35  17  18  1   
 36  17  34  1   
 37  17  35  1   
@<TRIPOS>SUBSTRUCTURE
  1 ****   4 GROUP 4 **** **** 0

# MOE 2024.06 (io_trps.svl 2023.06)
