@<TRIPOS>MOLECULE
NONAME
45 46 1 0 0 
SMALL
USER_CHARGES


@<TRIPOS>ATOM
  1 O        0.5820    -1.4830    -2.4110 O.2   1 <1>  -0.5700 
  2 C        0.6300    -1.9220    -1.2880 C.2   1 <1>   0.5690 
  3 N        1.5250    -1.5010    -0.3540 N.am  1 <1>  -0.7300 
  4 C       -0.3490    -3.0070    -0.9040 C.3   1 <1>  -0.0990 
  5 C        2.4500    -0.3680    -0.4230 C.3   1 <1>   0.3000 
  6 C       -1.1910    -2.6430     0.3290 C.3   1 <1>   0.2070 
  7 C        3.1470    -0.2970     0.9340 C.3   1 <1>  -0.2400 
  8 C        3.4840    -0.6080    -1.5220 C.3   1 <1>  -0.2400 
  9 C        1.6620     0.9210    -0.6620 C.3   1 <1>  -0.2400 
 10 C       -2.1140    -3.8180     0.6680 C.ar  1 <1>  -0.1440 
 11 C       -1.9620    -1.3170     0.2370 C.ar  1 <1>  -0.1440 
 12 C       -1.6640    -4.8740     1.4580 C.ar  1 <1>   0.0820 
 13 C       -3.4160    -3.8630     0.1850 C.ar  1 <1>  -0.1500 
 14 C       -2.2940    -0.7030    -0.9660 C.ar  1 <1>  -0.1500 
 15 C       -2.3520    -0.7060     1.4210 C.ar  1 <1>  -0.1500 
 16 O       -0.4080    -4.8860     1.9370 O.3   1 <1>  -0.5330 
 17 C       -2.4960    -5.9400     1.7630 C.ar  1 <1>  -0.1500 
 18 C       -4.2490    -4.9270     0.4870 C.ar  1 <1>  -0.1500 
 19 C       -2.9880     0.4950    -0.9800 C.ar  1 <1>  -0.1500 
 20 C       -3.0470     0.4910     1.4100 C.ar  1 <1>  -0.1500 
 21 C       -3.7900    -5.9660     1.2770 C.ar  1 <1>  -0.1500 
 22 C       -3.3640     1.0940     0.2070 C.ar  1 <1>  -0.1500 
 23 H        1.5130    -1.9470     0.5600 H     1 <1>   0.3700 
 24 H        0.2060    -3.9040    -0.7040 H     1 <1>   0.0800 
 25 H       -0.9980    -3.2100    -1.7360 H     1 <1>   0.0800 
 26 H       -0.5080    -2.5190     1.1500 H     1 <1>   0.0800 
 27 H        3.6930    -1.2030     1.1270 H     1 <1>   0.0800 
 28 H        2.4310    -0.1370     1.7200 H     1 <1>   0.0800 
 29 H        3.8440     0.5220     0.9470 H     1 <1>   0.0800 
 30 H        3.0110    -0.6310    -2.4870 H     1 <1>   0.0800 
 31 H        3.9950    -1.5390    -1.3620 H     1 <1>   0.0800 
 32 H        4.2090     0.1850    -1.5280 H     1 <1>   0.0800 
 33 H        1.1960     0.9060    -1.6300 H     1 <1>   0.0800 
 34 H        2.3190     1.7710    -0.6250 H     1 <1>   0.0800 
 35 H        0.9000     1.0420     0.0870 H     1 <1>   0.0800 
 36 H       -3.7960    -3.0670    -0.4320 H     1 <1>   0.1500 
 37 H       -2.0190    -1.1410    -1.9090 H     1 <1>   0.1500 
 38 H       -2.1180    -1.1670     2.3650 H     1 <1>   0.1500 
 39 H       -0.2210    -5.6750     2.4760 H     1 <1>   0.4500 
 40 H       -2.1450    -6.7510     2.3750 H     1 <1>   0.1500 
 41 H       -5.2550    -4.9440     0.1070 H     1 <1>   0.1500 
 42 H       -3.2310     0.9600    -1.9190 H     1 <1>   0.1500 
 43 H       -3.3410     0.9500     2.3370 H     1 <1>   0.1500 
 44 H       -4.4410    -6.7910     1.5110 H     1 <1>   0.1500 
 45 H       -3.9030     2.0250     0.1950 H     1 <1>   0.1500 
@<TRIPOS>BOND
  1   1   2  2   
  2   2   3  am  
  3   2   4  1   
  4   3   5  1   
  5   3  23  1   
  6   4   6  1   
  7   4  24  1   
  8   4  25  1   
  9   5   7  1   
 10   5   8  1   
 11   5   9  1   
 12   6  10  1   
 13   6  11  1   
 14   6  26  1   
 15   7  27  1   
 16   7  28  1   
 17   7  29  1   
 18   8  30  1   
 19   8  31  1   
 20   8  32  1   
 21   9  33  1   
 22   9  34  1   
 23   9  35  1   
 24  10  12  ar  
 25  10  13  ar  
 26  11  14  ar  
 27  11  15  ar  
 28  12  16  1   
 29  12  17  ar  
 30  13  18  ar  
 31  13  36  1   
 32  14  19  ar  
 33  14  37  1   
 34  15  20  ar  
 35  15  38  1   
 36  16  39  1   
 37  17  21  ar  
 38  17  40  1   
 39  18  21  ar  
 40  18  41  1   
 41  19  22  ar  
 42  19  42  1   
 43  20  22  ar  
 44  20  43  1   
 45  21  44  1   
 46  22  45  1   
@<TRIPOS>SUBSTRUCTURE
  1 ****   6 GROUP 4 **** **** 0

# MOE 2024.06 (io_trps.svl 2023.06)
