@<TRIPOS>MOLECULE
NONAME
53 55 1 0 0 
SMALL
USER_CHARGES


@<TRIPOS>ATOM
  1 N       -0.6140    -0.1340     0.6030 N.3   1 <1>  -0.8100 
  2 C        0.5790     0.7300     0.3880 C.3   1 <1>   0.1900 
  3 C       -0.2850    -1.5700     0.8580 C.3   1 <1>   0.1100 
  4 C       -1.5110     0.3560     1.6990 C.3   1 <1>   0.1100 
  5 C        0.1440     2.1880     0.1380 C.3   1 <1>  -0.1600 
  6 C        1.3900     0.2310    -0.8230 C.3   1 <1>  -0.1600 
  7 C       -1.5380    -2.4780     0.9440 C.3   1 <1>   0.3430 
  8 C       -2.6680    -0.6090     2.0590 C.3   1 <1>   0.3430 
  9 C        1.2970     3.0930    -0.2900 C.3   1 <1>   0.3430 
 10 C        2.5100     1.1860    -1.2310 C.3   1 <1>   0.3430 
 11 N       -2.8020    -1.6820     1.0290 N.4   1 <1>  -0.9590 
 12 N        1.9490     2.5350    -1.5020 N.4   1 <1>  -0.9590 
 13 C       -4.0100    -2.5250     1.1650 C.3   1 <1>   0.4810 
 14 C        3.0040     3.4600    -2.0170 C.3   1 <1>   0.2630 
 15 C       -5.2090    -1.6600     0.8610 C.2   1 <1>  -0.2880 
 16 C       -5.9080    -1.6970    -0.2870 C.2   1 <1>  -0.1780 
 17 C       -7.0650    -0.9050    -0.6460 C.ar  1 <1>   0.0280 
 18 C       -7.8090    -0.1940     0.2950 C.ar  1 <1>  -0.1500 
 19 C       -7.4750    -0.8380    -1.9760 C.ar  1 <1>  -0.1500 
 20 C       -8.9080     0.5580    -0.0770 C.ar  1 <1>  -0.1500 
 21 C       -8.5750    -0.0890    -2.3540 C.ar  1 <1>  -0.1500 
 22 C       -9.2940     0.6130    -1.4040 C.ar  1 <1>  -0.1500 
 23 H        1.2050     0.6980     1.2670 H     1 <1>   0.0800 
 24 H        0.3270    -1.9690     0.0710 H     1 <1>   0.0800 
 25 H        0.2740    -1.6540     1.7750 H     1 <1>   0.0800 
 26 H       -0.9350     0.5510     2.5880 H     1 <1>   0.0800 
 27 H       -1.9650     1.2840     1.3980 H     1 <1>   0.0800 
 28 H       -0.6210     2.2160    -0.6180 H     1 <1>   0.0800 
 29 H       -0.2580     2.6120     1.0390 H     1 <1>   0.0800 
 30 H        1.8630    -0.7040    -0.5920 H     1 <1>   0.0800 
 31 H        0.7350     0.0790    -1.6640 H     1 <1>   0.0800 
 32 H       -1.4450    -3.1220     1.8030 H     1 <1>   0.0800 
 33 H       -1.5690    -3.1060     0.0690 H     1 <1>   0.0800 
 34 H       -3.5820    -0.0420     2.1330 H     1 <1>   0.0800 
 35 H       -2.4760    -1.0500     3.0230 H     1 <1>   0.0800 
 36 H        2.0160     3.1690     0.5100 H     1 <1>   0.0800 
 37 H        0.9180     4.0810    -0.4980 H     1 <1>   0.0800 
 38 H        2.9990     0.8070    -2.1150 H     1 <1>   0.0800 
 39 H        3.2410     1.2460    -0.4410 H     1 <1>   0.0800 
 40 H       -2.8730    -1.1770     0.1340 H     1 <1>   0.4500 
 41 H        1.2240     2.4330    -2.2280 H     1 <1>   0.4500 
 42 H       -3.9700    -3.3330     0.4520 H     1 <1>   0.0800 
 43 H       -4.0820    -2.9430     2.1570 H     1 <1>   0.0800 
 44 H        3.7820     3.5910    -1.2820 H     1 <1>   0.0800 
 45 H        2.5790     4.4240    -2.2440 H     1 <1>   0.0800 
 46 H        3.4450     3.0620    -2.9170 H     1 <1>   0.0800 
 47 H       -5.4630    -0.9990     1.6690 H     1 <1>   0.1500 
 48 H       -5.6140    -2.3780    -1.0680 H     1 <1>   0.1500 
 49 H       -7.5390    -0.2270     1.3320 H     1 <1>   0.1500 
 50 H       -6.9300    -1.3760    -2.7300 H     1 <1>   0.1500 
 51 H       -9.4690     1.1000     0.6650 H     1 <1>   0.1500 
 52 H       -8.8730    -0.0500    -3.3880 H     1 <1>   0.1500 
 53 H      -10.1490     1.1970    -1.6960 H     1 <1>   0.1500 
@<TRIPOS>BOND
  1   1   2  1   
  2   1   3  1   
  3   1   4  1   
  4   2   5  1   
  5   2   6  1   
  6   2  23  1   
  7   3   7  1   
  8   3  24  1   
  9   3  25  1   
 10   4   8  1   
 11   4  26  1   
 12   4  27  1   
 13   5   9  1   
 14   5  28  1   
 15   5  29  1   
 16   6  10  1   
 17   6  30  1   
 18   6  31  1   
 19   7  11  1   
 20   7  32  1   
 21   7  33  1   
 22   8  11  1   
 23   8  34  1   
 24   8  35  1   
 25   9  12  1   
 26   9  36  1   
 27   9  37  1   
 28  10  12  1   
 29  10  38  1   
 30  10  39  1   
 31  11  13  1   
 32  11  40  1   
 33  12  14  1   
 34  12  41  1   
 35  13  15  1   
 36  13  42  1   
 37  13  43  1   
 38  14  44  1   
 39  14  45  1   
 40  14  46  1   
 41  15  16  2   
 42  15  47  1   
 43  16  17  1   
 44  16  48  1   
 45  17  18  ar  
 46  17  19  ar  
 47  18  20  ar  
 48  18  49  1   
 49  19  21  ar  
 50  19  50  1   
 51  20  22  ar  
 52  20  51  1   
 53  21  22  ar  
 54  21  52  1   
 55  22  53  1   
@<TRIPOS>SUBSTRUCTURE
  1 ****  11 GROUP 4 **** **** 0

# MOE 2024.06 (io_trps.svl 2023.06)
