@<TRIPOS>MOLECULE
NONAME
29 29 1 0 0 
SMALL
USER_CHARGES


@<TRIPOS>ATOM
  1 O      -13.6240    -0.2630    -1.6470 O.2   1 <1>  -0.5700 
  2 C      -13.2910    -0.4990    -0.5160 C.2   1 <1>   0.5690 
  3 N      -12.2830     0.1220     0.1450 N.am  1 <1>  -0.4200 
  4 C      -13.9230    -1.5640     0.3500 C.3   1 <1>  -0.0990 
  5 C      -12.0760    -0.4230     1.3720 C.2   1 <1>   0.5690 
  6 C      -11.4720     1.2250    -0.4260 C.3   1 <1>   0.2010 
  7 C      -13.0910    -1.5100     1.6490 C.3   1 <1>  -0.0990 
  8 O      -11.1960    -0.1190     2.1360 O.2   1 <1>  -0.5700 
  9 C      -10.0990     0.7130    -0.8390 C.2   1 <1>   0.3280 
 10 N       -9.1530     0.7260     0.0060 N.2   1 <1>  -0.3180 
 11 C      -10.0210     0.1830    -2.2650 C.3   1 <1>  -0.1790 
 12 N       -7.8530     0.2620    -0.2080 N.pl3 1 <1>  -0.6490 
 13 C       -6.9740    -0.0220     0.7460 C.cat 1 <1>   1.2000 
 14 N       -7.3400     0.0250     1.9840 N.pl3 1 <1>  -0.9670 
 15 N       -5.7560    -0.3640     0.4650 N.pl3 1 <1>  -0.9670 
 16 H      -14.9550    -1.3260     0.5300 H     1 <1>   0.0800 
 17 H      -13.8450    -2.5230    -0.1310 H     1 <1>   0.0800 
 18 H      -11.9790     1.6620    -1.2680 H     1 <1>   0.0800 
 19 H      -11.3560     1.9860     0.3260 H     1 <1>   0.0800 
 20 H      -12.5900    -2.4420     1.8370 H     1 <1>   0.0800 
 21 H      -13.6970    -1.2390     2.4940 H     1 <1>   0.0800 
 22 H      -10.2040     0.9830    -2.9610 H     1 <1>   0.0800 
 23 H      -10.7730    -0.5720    -2.4130 H     1 <1>   0.0800 
 24 H       -9.0650    -0.2500    -2.4870 H     1 <1>   0.0800 
 25 H       -7.5450     0.1160    -1.1670 H     1 <1>   0.4500 
 26 H       -6.7670    -0.1740     2.7950 H     1 <1>   0.4500 
 27 H       -8.3210     0.2610     2.1650 H     1 <1>   0.4500 
 28 H       -5.3850    -0.4100    -0.4790 H     1 <1>   0.4500 
 29 H       -5.0880    -0.5840     1.1980 H     1 <1>   0.4500 
@<TRIPOS>BOND
  1   1   2  2   
  2   2   3  am  
  3   2   4  1   
  4   3   5  am  
  5   3   6  1   
  6   4   7  1   
  7   4  16  1   
  8   4  17  1   
  9   5   7  1   
 10   5   8  2   
 11   6   9  1   
 12   6  18  1   
 13   6  19  1   
 14   7  20  1   
 15   7  21  1   
 16   9  10  2   
 17   9  11  1   
 18  10  12  1   
 19  11  22  1   
 20  11  23  1   
 21  11  24  1   
 22  12  13  ar  
 23  12  25  1   
 24  13  14  ar  
 25  13  15  ar  
 26  14  26  1   
 27  14  27  1   
 28  15  28  1   
 29  15  29  1   
@<TRIPOS>SUBSTRUCTURE
  1 ****   9 GROUP 4 **** **** 0

# MOE 2024.06 (io_trps.svl 2023.06)
