@<TRIPOS>MOLECULE
NONAME
46 49 1 0 0 
SMALL
USER_CHARGES


@<TRIPOS>ATOM
  1 S        3.5560    -0.1660     2.4950 S.3   1 <1>  -0.2420 
  2 C        3.4400     0.5690     0.8950 C.2   1 <1>   0.6510 
  3 C        1.9140     0.3560     2.9160 C.2   1 <1>  -0.0490 
  4 N        4.4020     0.5330     0.0290 N.2   1 <1>  -0.6210 
  5 N        2.2130     1.1610     0.7570 N.am  1 <1>  -0.2290 
  6 C        1.3780     1.0300     1.8900 C.2   1 <1>  -0.0410 
  7 C        4.1500     1.1520    -1.1690 C.2   1 <1>   0.0330 
  8 C        1.9480     1.8040    -0.4260 C.2   1 <1>   0.6160 
  9 C        2.9690     1.7800    -1.4110 C.2   1 <1>  -0.1360 
 10 C        5.2800     1.0890    -2.1980 C.3   1 <1>   0.4810 
 11 O        0.8860     2.3730    -0.6090 O.2   1 <1>  -0.5700 
 12 N        6.5680     1.2890    -1.4870 N.4   1 <1>  -0.9590 
 13 C        6.8040     2.7260    -1.0970 C.3   1 <1>   0.3430 
 14 C        7.7520     0.7120    -2.2160 C.3   1 <1>   0.3430 
 15 C        8.1140     2.9080    -0.3060 C.3   1 <1>   0.2090 
 16 C        9.0650     0.8870    -1.4270 C.3   1 <1>   0.2090 
 17 N        9.2740     2.3140    -1.0380 N.pl3 1 <1>  -0.8380 
 18 C       10.5200     2.5720    -0.4480 C.ar  1 <1>   0.1000 
 19 C       10.9140     2.0690     0.8070 C.ar  1 <1>   0.0830 
 20 C       11.4060     3.3710    -1.1550 C.ar  1 <1>  -0.1500 
 21 O       10.0330     1.2790     1.4990 O.3   1 <1>  -0.3620 
 22 C       12.1750     2.3830     1.3070 C.ar  1 <1>  -0.1500 
 23 C       12.6560     3.6780    -0.6510 C.ar  1 <1>  -0.1500 
 24 C       10.3570     0.7600     2.7710 C.3   1 <1>   0.0400 
 25 C       13.0410     3.1840     0.5810 C.ar  1 <1>  -0.1500 
 26 H        1.5460     0.0900     3.8930 H     1 <1>   0.1500 
 27 H        0.3930     1.4690     1.8500 H     1 <1>   0.1500 
 28 H        2.7380     2.2770    -2.3350 H     1 <1>   0.1500 
 29 H        5.1450     1.8310    -2.9670 H     1 <1>   0.0800 
 30 H        5.2680     0.1120    -2.6520 H     1 <1>   0.0800 
 31 H        6.4410     0.7660    -0.6020 H     1 <1>   0.4500 
 32 H        5.9830     3.0820    -0.4970 H     1 <1>   0.0800 
 33 H        6.8620     3.3370    -1.9820 H     1 <1>   0.0800 
 34 H        7.8670     1.2050    -3.1670 H     1 <1>   0.0800 
 35 H        7.5940    -0.3380    -2.4010 H     1 <1>   0.0800 
 36 H        8.0130     2.4480     0.6610 H     1 <1>   0.0800 
 37 H        8.2970     3.9580    -0.1520 H     1 <1>   0.0800 
 38 H        9.8940     0.5650    -2.0350 H     1 <1>   0.0800 
 39 H        9.0410     0.2660    -0.5500 H     1 <1>   0.0800 
 40 H       11.1060     3.7560    -2.1130 H     1 <1>   0.1500 
 41 H       12.5110     2.0190     2.2580 H     1 <1>   0.1500 
 42 H       13.3280     4.3010    -1.2170 H     1 <1>   0.1500 
 43 H        9.5220     0.1820     3.1220 H     1 <1>   0.0800 
 44 H       10.5430     1.5770     3.4460 H     1 <1>   0.0800 
 45 H       11.2240     0.1290     2.6810 H     1 <1>   0.0800 
 46 H       14.0140     3.4220     0.9750 H     1 <1>   0.1500 
@<TRIPOS>BOND
  1   1   2  1   
  2   1   3  1   
  3   2   4  2   
  4   2   5  1   
  5   3   6  2   
  6   3  26  1   
  7   4   7  1   
  8   5   6  1   
  9   5   8  am  
 10   6  27  1   
 11   7   9  2   
 12   7  10  1   
 13   8   9  1   
 14   8  11  2   
 15   9  28  1   
 16  10  12  1   
 17  10  29  1   
 18  10  30  1   
 19  12  13  1   
 20  12  14  1   
 21  12  31  1   
 22  13  15  1   
 23  13  32  1   
 24  13  33  1   
 25  14  16  1   
 26  14  34  1   
 27  14  35  1   
 28  15  17  1   
 29  15  36  1   
 30  15  37  1   
 31  16  17  1   
 32  16  38  1   
 33  16  39  1   
 34  17  18  1   
 35  18  19  ar  
 36  18  20  ar  
 37  19  21  1   
 38  19  22  ar  
 39  20  23  ar  
 40  20  40  1   
 41  21  24  1   
 42  22  25  ar  
 43  22  41  1   
 44  23  25  ar  
 45  23  42  1   
 46  24  43  1   
 47  24  44  1   
 48  24  45  1   
 49  25  46  1   
@<TRIPOS>SUBSTRUCTURE
  1 ****  13 GROUP 4 **** **** 0

# MOE 2024.06 (io_trps.svl 2023.06)
