@<TRIPOS>MOLECULE
NONAME
49 50 1 0 0 
SMALL
USER_CHARGES


@<TRIPOS>ATOM
  1 O       -0.7850    -0.4030     0.7320 O.3   1 <1>  -0.3630 
  2 C       -1.9190    -0.7370     0.0610 C.ar  1 <1>   0.0830 
  3 C        0.3850    -1.0340     0.2630 C.3   1 <1>   0.0400 
  4 C       -2.3360     0.0100    -1.0490 C.ar  1 <1>   0.0830 
  5 C       -2.6620    -1.8610     0.4450 C.ar  1 <1>   0.0820 
  6 O       -1.7370     1.1460    -1.5010 O.3   1 <1>  -0.3630 
  7 C       -3.4340    -0.4040    -1.7830 C.ar  1 <1>  -0.1500 
  8 O       -2.3920    -2.6420     1.5260 O.3   1 <1>  -0.3630 
  9 C       -3.7570    -2.2540    -0.3060 C.ar  1 <1>  -0.1500 
 10 C       -1.2060     2.0870    -0.5920 C.3   1 <1>   0.0400 
 11 C       -4.1530    -1.5310    -1.4200 C.ar  1 <1>  -0.1430 
 12 C       -2.0030    -2.0450     2.7460 C.3   1 <1>   0.0400 
 13 C       -5.3660    -1.9610    -2.2190 C.3   1 <1>   0.4860 
 14 N       -6.5870    -1.6000    -1.4520 N.4   1 <1>  -0.9590 
 15 C       -7.7980    -2.2730    -1.9900 C.3   1 <1>   0.4860 
 16 C       -6.7640    -0.1300    -1.3170 C.3   1 <1>   0.3430 
 17 C       -8.9160    -2.1380    -0.9760 C.ar  1 <1>  -0.1430 
 18 C       -6.6580     0.2340     0.1570 C.3   1 <1>  -0.2400 
 19 C       -8.9050    -2.9030     0.1830 C.ar  1 <1>  -0.1500 
 20 C       -9.9560    -1.2460    -1.1940 C.ar  1 <1>  -0.1500 
 21 C       -9.9150    -2.7660     1.1180 C.ar  1 <1>  -0.1500 
 22 C      -10.9660    -1.1100    -0.2580 C.ar  1 <1>  -0.1500 
 23 C      -10.9440    -1.8680     0.8990 C.ar  1 <1>  -0.1500 
 24 H        0.5370    -0.7640    -0.7670 H     1 <1>   0.0800 
 25 H        0.2680    -2.1000     0.3590 H     1 <1>   0.0800 
 26 H        1.2130    -0.6980     0.8600 H     1 <1>   0.0800 
 27 H       -3.7100     0.1810    -2.6440 H     1 <1>   0.1500 
 28 H       -4.2850    -3.1380     0.0050 H     1 <1>   0.1500 
 29 H       -1.1610     3.0420    -1.0840 H     1 <1>   0.0800 
 30 H       -0.2150     1.7810    -0.3100 H     1 <1>   0.0800 
 31 H       -1.8440     2.1460     0.2720 H     1 <1>   0.0800 
 32 H       -2.2430    -2.7240     3.5440 H     1 <1>   0.0800 
 33 H       -2.5370    -1.1190     2.8760 H     1 <1>   0.0800 
 34 H       -0.9430    -1.8700     2.7300 H     1 <1>   0.0800 
 35 H       -5.3230    -3.0270    -2.3730 H     1 <1>   0.0800 
 36 H       -5.3680    -1.4740    -3.1810 H     1 <1>   0.0800 
 37 H       -6.4550    -1.9480    -0.4950 H     1 <1>   0.4500 
 38 H       -7.6020    -3.3200    -2.1550 H     1 <1>   0.0800 
 39 H       -8.0920    -1.8270    -2.9260 H     1 <1>   0.0800 
 40 H       -7.7290     0.1720    -1.6920 H     1 <1>   0.0800 
 41 H       -6.0040     0.3970    -1.8730 H     1 <1>   0.0800 
 42 H       -7.4300    -0.2510     0.7290 H     1 <1>   0.0800 
 43 H       -6.7830     1.2960     0.2690 H     1 <1>   0.0800 
 44 H       -5.6910    -0.0270     0.5510 H     1 <1>   0.0800 
 45 H       -8.1190    -3.6150     0.3740 H     1 <1>   0.1500 
 46 H       -9.9990    -0.6480    -2.0890 H     1 <1>   0.1500 
 47 H       -9.9080    -3.3580     2.0170 H     1 <1>   0.1500 
 48 H      -11.7730    -0.4170    -0.4260 H     1 <1>   0.1500 
 49 H      -11.7310    -1.7620     1.6270 H     1 <1>   0.1500 
@<TRIPOS>BOND
  1   1   2  1   
  2   1   3  1   
  3   2   4  ar  
  4   2   5  ar  
  5   3  24  1   
  6   3  25  1   
  7   3  26  1   
  8   4   6  1   
  9   4   7  ar  
 10   5   8  1   
 11   5   9  ar  
 12   6  10  1   
 13   7  11  ar  
 14   7  27  1   
 15   8  12  1   
 16   9  11  ar  
 17   9  28  1   
 18  10  29  1   
 19  10  30  1   
 20  10  31  1   
 21  11  13  1   
 22  12  32  1   
 23  12  33  1   
 24  12  34  1   
 25  13  14  1   
 26  13  35  1   
 27  13  36  1   
 28  14  15  1   
 29  14  16  1   
 30  14  37  1   
 31  15  17  1   
 32  15  38  1   
 33  15  39  1   
 34  16  18  1   
 35  16  40  1   
 36  16  41  1   
 37  17  19  ar  
 38  17  20  ar  
 39  18  42  1   
 40  18  43  1   
 41  18  44  1   
 42  19  21  ar  
 43  19  45  1   
 44  20  22  ar  
 45  20  46  1   
 46  21  23  ar  
 47  21  47  1   
 48  22  23  ar  
 49  22  48  1   
 50  23  49  1   
@<TRIPOS>SUBSTRUCTURE
  1 ****  11 GROUP 4 **** **** 0

# MOE 2024.06 (io_trps.svl 2023.06)
