@<TRIPOS>MOLECULE
NONAME
47 49 1 0 0 
SMALL
USER_CHARGES


@<TRIPOS>ATOM
  1 CL      -0.1180    -0.7340    -1.0730 Cl    1 <1>  -0.1770 
  2 C        0.8060    -1.9580    -0.2400 C.ar  1 <1>   0.1770 
  3 C        2.1830    -1.9370    -0.3250 C.ar  1 <1>  -0.1500 
  4 C        0.1410    -2.9250     0.4920 C.ar  1 <1>  -0.1500 
  5 C        2.9280    -2.9060     0.3350 C.ar  1 <1>   0.1000 
  6 C        0.8790    -3.8940     1.1520 C.ar  1 <1>  -0.1500 
  7 N        4.3140    -2.9220     0.2750 N.pl3 1 <1>  -0.8380 
  8 C        2.2610    -3.8800     1.0700 C.ar  1 <1>  -0.1500 
  9 C        4.9070    -3.2490    -1.0590 C.3   1 <1>   0.2090 
 10 C        5.0120    -1.7750     0.9350 C.3   1 <1>   0.2090 
 11 C        6.4390    -3.3990    -0.9790 C.3   1 <1>   0.1960 
 12 C        6.5380    -1.9770     0.9550 C.3   1 <1>   0.1960 
 13 N        7.0790    -2.2090    -0.3970 N.am  1 <1>  -0.8490 
 14 S        8.7540    -2.3840    -0.3730 S.o2  1 <1>   1.5760 
 15 O        9.0830    -3.2900     0.7040 O.2   1 <1>  -0.6500 
 16 O        9.2070    -2.6490    -1.7210 O.2   1 <1>  -0.6500 
 17 N        9.2130    -0.8120     0.0450 N.am  1 <1>  -0.8490 
 18 C        8.9320     0.1160    -1.0560 C.3   1 <1>   0.1960 
 19 C       10.6130    -0.7750     0.4800 C.3   1 <1>   0.1960 
 20 C        9.1030     1.5910    -0.6690 C.3   1 <1>  -0.1600 
 21 C       10.8450     0.4040     1.4300 C.3   1 <1>  -0.1600 
 22 C       10.5730     2.0270    -0.5890 C.3   1 <1>  -0.1600 
 23 C       11.2480     1.7250     0.7550 C.3   1 <1>  -0.1600 
 24 H        2.6730    -1.1750    -0.9000 H     1 <1>   0.1500 
 25 H       -0.9320    -2.9170     0.5410 H     1 <1>   0.1500 
 26 H        0.3800    -4.6560     1.7260 H     1 <1>   0.1500 
 27 H        2.8450    -4.6260     1.5780 H     1 <1>   0.1500 
 28 H        4.6690    -2.4680    -1.7600 H     1 <1>   0.0800 
 29 H        4.4770    -4.1660    -1.4200 H     1 <1>   0.0800 
 30 H        4.6520    -1.6780     1.9440 H     1 <1>   0.0800 
 31 H        4.7870    -0.8640     0.4090 H     1 <1>   0.0800 
 32 H        6.8180    -3.5620    -1.9730 H     1 <1>   0.0800 
 33 H        6.6740    -4.2690    -0.3870 H     1 <1>   0.0800 
 34 H        6.7650    -2.8130     1.5950 H     1 <1>   0.0800 
 35 H        6.9950    -1.1010     1.3820 H     1 <1>   0.0800 
 36 H        7.9100    -0.0150    -1.3670 H     1 <1>   0.0800 
 37 H        9.5550    -0.1160    -1.9040 H     1 <1>   0.0800 
 38 H       11.2820    -0.7450    -0.3640 H     1 <1>   0.0800 
 39 H       10.8380    -1.6690     1.0380 H     1 <1>   0.0800 
 40 H        8.5800     1.8010     0.2480 H     1 <1>   0.0800 
 41 H        8.6340     2.1740    -1.4410 H     1 <1>   0.0800 
 42 H       11.6300     0.1350     2.1140 H     1 <1>   0.0800 
 43 H        9.9570     0.5500     2.0200 H     1 <1>   0.0800 
 44 H       10.6300     3.0890    -0.7570 H     1 <1>   0.0800 
 45 H       11.1260     1.5560    -1.3830 H     1 <1>   0.0800 
 46 H       12.3140     1.7280     0.6000 H     1 <1>   0.0800 
 47 H       11.0290     2.5250     1.4410 H     1 <1>   0.0800 
@<TRIPOS>BOND
  1   1   2  1   
  2   2   3  ar  
  3   2   4  ar  
  4   3   5  ar  
  5   3  24  1   
  6   4   6  ar  
  7   4  25  1   
  8   5   7  1   
  9   5   8  ar  
 10   6   8  ar  
 11   6  26  1   
 12   7   9  1   
 13   7  10  1   
 14   8  27  1   
 15   9  11  1   
 16   9  28  1   
 17   9  29  1   
 18  10  12  1   
 19  10  30  1   
 20  10  31  1   
 21  11  13  1   
 22  11  32  1   
 23  11  33  1   
 24  12  13  1   
 25  12  34  1   
 26  12  35  1   
 27  13  14  am  
 28  14  15  2   
 29  14  16  2   
 30  14  17  am  
 31  17  18  1   
 32  17  19  1   
 33  18  20  1   
 34  18  36  1   
 35  18  37  1   
 36  19  21  1   
 37  19  38  1   
 38  19  39  1   
 39  20  22  1   
 40  20  40  1   
 41  20  41  1   
 42  21  23  1   
 43  21  42  1   
 44  21  43  1   
 45  22  23  1   
 46  22  44  1   
 47  22  45  1   
 48  23  46  1   
 49  23  47  1   
@<TRIPOS>SUBSTRUCTURE
  1 ****  12 GROUP 4 **** **** 0

# MOE 2024.06 (io_trps.svl 2023.06)
