@<TRIPOS>MOLECULE
NONAME
32 32 1 0 0 
SMALL
USER_CHARGES


@<TRIPOS>ATOM
  1 CL      -0.6110     0.0860    -0.0880 Cl    1 <1>  -0.1770 
  2 C       -0.4320     1.8260    -0.1540 C.ar  1 <1>   0.1770 
  3 C       -1.4760     2.6900     0.2010 C.ar  1 <1>   0.0860 
  4 C        0.8040     2.2910    -0.5670 C.ar  1 <1>  -0.1500 
  5 C       -2.7960     2.2570     0.6270 C.2   1 <1>   0.5440 
  6 C       -1.2050     4.0590     0.1310 C.ar  1 <1>  -0.1500 
  7 C        1.0410     3.6520    -0.6330 C.ar  1 <1>  -0.1500 
  8 O       -3.4320     2.9370     1.4100 O.2   1 <1>  -0.5700 
  9 N       -3.3760     1.1190     0.1480 N.am  1 <1>  -0.7300 
 10 C        0.0320     4.5260    -0.2790 C.ar  1 <1>   0.1010 
 11 C       -4.7180     0.6130     0.5090 C.3   1 <1>   0.1400 
 12 S        0.4060     6.2850    -0.3780 S.3   1 <1>  -0.3310 
 13 C       -5.3700    -0.0860    -0.6960 C.3   1 <1>  -0.0800 
 14 C       -1.0860     7.1840     0.2390 C.3   1 <1>  -0.0100 
 15 C       -6.7900    -0.5370    -0.3320 C.3   1 <1>  -0.2400 
 16 C       -4.5550    -1.2970    -1.1790 C.3   1 <1>  -0.2400 
 17 H        1.5780     1.5920    -0.8320 H     1 <1>   0.1500 
 18 H       -1.9840     4.7450     0.4040 H     1 <1>   0.1500 
 19 H        1.9960     4.0350    -0.9510 H     1 <1>   0.1500 
 20 H       -2.8100     0.4710    -0.4050 H     1 <1>   0.3700 
 21 H       -5.3360     1.4350     0.8300 H     1 <1>   0.0800 
 22 H       -4.6240    -0.0770     1.3300 H     1 <1>   0.0800 
 23 H       -5.4450     0.6290    -1.4980 H     1 <1>   0.0800 
 24 H       -0.8640     8.2360     0.2160 H     1 <1>   0.0800 
 25 H       -1.2800     6.8580     1.2450 H     1 <1>   0.0800 
 26 H       -1.9090     6.9540    -0.4140 H     1 <1>   0.0800 
 27 H       -6.7670    -1.2560     0.4690 H     1 <1>   0.0800 
 28 H       -7.2690    -0.9870    -1.1840 H     1 <1>   0.0800 
 29 H       -7.3820     0.3060    -0.0200 H     1 <1>   0.0800 
 30 H       -4.4210    -2.0060    -0.3810 H     1 <1>   0.0800 
 31 H       -3.5880    -0.9930    -1.5360 H     1 <1>   0.0800 
 32 H       -5.0640    -1.7880    -1.9900 H     1 <1>   0.0800 
@<TRIPOS>BOND
  1   1   2  1   
  2   2   3  ar  
  3   2   4  ar  
  4   3   5  1   
  5   3   6  ar  
  6   4   7  ar  
  7   4  17  1   
  8   5   8  2   
  9   5   9  am  
 10   6  10  ar  
 11   6  18  1   
 12   7  10  ar  
 13   7  19  1   
 14   9  11  1   
 15   9  20  1   
 16  10  12  1   
 17  11  13  1   
 18  11  21  1   
 19  11  22  1   
 20  12  14  1   
 21  13  15  1   
 22  13  16  1   
 23  13  23  1   
 24  14  24  1   
 25  14  25  1   
 26  14  26  1   
 27  15  27  1   
 28  15  28  1   
 29  15  29  1   
 30  16  30  1   
 31  16  31  1   
 32  16  32  1   
@<TRIPOS>SUBSTRUCTURE
  1 ****   3 GROUP 4 **** **** 0

# MOE 2024.06 (io_trps.svl 2023.06)
