@<TRIPOS>MOLECULE
NONAME
56 58 1 0 0 
SMALL
USER_CHARGES


@<TRIPOS>ATOM
  1 O       -1.0080    -9.2010     0.1640 O.3   1 <1>  -0.3630 
  2 C       -1.6330   -10.3950     0.2510 C.ar  1 <1>   0.0820 
  3 C       -1.5000    -8.1930     1.0180 C.3   1 <1>   0.1200 
  4 C       -2.7530   -10.6510    -0.5370 C.ar  1 <1>  -0.1440 
  5 C       -1.1420   -11.3610     1.1240 C.ar  1 <1>  -0.1440 
  6 C       -0.5750    -6.9800     0.8940 C.3   1 <1>   0.2000 
  7 C       -3.3970   -11.8700    -0.4120 C.ar  1 <1>  -0.1500 
  8 C       -3.2880    -9.6340    -1.5350 C.3   1 <1>  -0.0960 
  9 C       -1.8040   -12.5730     1.2290 C.ar  1 <1>  -0.1500 
 10 C        0.1070   -11.1220     1.9620 C.3   1 <1>  -0.0960 
 11 O       -1.1430    -5.9070     1.5770 O.3   1 <1>  -0.6800 
 12 C       -0.3440    -6.6280    -0.6000 C.3   1 <1>   0.3430 
 13 C       -2.9330   -12.8310     0.4700 C.ar  1 <1>  -0.1430 
 14 N        0.4720    -5.3900    -0.8910 N.4   1 <1>  -0.9590 
 15 C       -3.6490   -14.1640     0.5950 C.3   1 <1>  -0.0970 
 16 C        1.7970    -5.3730    -0.1760 C.3   1 <1>   0.3430 
 17 C       -0.2770    -4.1160    -0.5870 C.3   1 <1>   0.3430 
 18 C        2.6500    -4.1500    -0.5680 C.3   1 <1>   0.2090 
 19 C        0.5270    -2.8620    -0.9850 C.3   1 <1>   0.2090 
 20 N        1.9050    -2.8650    -0.4010 N.pl3 1 <1>  -0.8380 
 21 C        2.6430    -1.7470    -0.7200 C.ar  1 <1>   0.4100 
 22 N        3.0050    -1.6290    -1.9900 N.ar  1 <1>  -0.6200 
 23 C        2.9630    -0.8220     0.2680 C.ar  1 <1>  -0.1500 
 24 C        3.7120    -0.5480    -2.2820 C.ar  1 <1>   0.1600 
 25 C        3.6990     0.2950    -0.0520 C.ar  1 <1>  -0.1500 
 26 C        4.0810     0.4260    -1.3720 C.ar  1 <1>  -0.1500 
 27 H       -1.5080    -8.5750     2.0240 H     1 <1>   0.0800 
 28 H       -2.5010    -7.9530     0.7070 H     1 <1>   0.0800 
 29 H        0.3620    -7.2140     1.3680 H     1 <1>   0.0800 
 30 H       -4.2680   -12.0800    -1.0080 H     1 <1>   0.1500 
 31 H       -2.4770    -9.1460    -2.0420 H     1 <1>   0.0800 
 32 H       -3.8860    -8.9000    -1.0270 H     1 <1>   0.0800 
 33 H       -3.8990   -10.1190    -2.2770 H     1 <1>   0.0800 
 34 H       -1.4390   -13.3260     1.9040 H     1 <1>   0.1500 
 35 H       -0.1250   -10.4830     2.7940 H     1 <1>   0.0800 
 36 H        0.8720   -10.6620     1.3640 H     1 <1>   0.0800 
 37 H        0.4930   -12.0510     2.3420 H     1 <1>   0.0800 
 38 H       -1.3070    -6.1320     2.5190 H     1 <1>   0.4000 
 39 H       -1.3080    -6.5360    -1.0720 H     1 <1>   0.0800 
 40 H        0.1420    -7.4750    -1.0560 H     1 <1>   0.0800 
 41 H        0.6770    -5.3690    -1.8980 H     1 <1>   0.4500 
 42 H       -4.6980   -14.0480     0.3930 H     1 <1>   0.0800 
 43 H       -3.5370   -14.5600     1.5880 H     1 <1>   0.0800 
 44 H       -3.2350   -14.8650    -0.1080 H     1 <1>   0.0800 
 45 H        2.3480    -6.2700    -0.4000 H     1 <1>   0.0800 
 46 H        1.6300    -5.3380     0.8880 H     1 <1>   0.0800 
 47 H       -0.4800    -4.0530     0.4680 H     1 <1>   0.0800 
 48 H       -1.2210    -4.1100    -1.1040 H     1 <1>   0.0800 
 49 H        2.9710    -4.2500    -1.5920 H     1 <1>   0.0800 
 50 H        3.5340    -4.1220     0.0460 H     1 <1>   0.0800 
 51 H        0.0050    -1.9840    -0.6420 H     1 <1>   0.0800 
 52 H        0.5920    -2.8010    -2.0580 H     1 <1>   0.0800 
 53 H        2.6290    -0.9960     1.2720 H     1 <1>   0.1500 
 54 H        4.0170    -0.4320    -3.3080 H     1 <1>   0.1500 
 55 H        3.9650     1.0300     0.6880 H     1 <1>   0.1500 
 56 H        4.6580     1.2760    -1.6900 H     1 <1>   0.1500 
@<TRIPOS>BOND
  1   1   2  1   
  2   1   3  1   
  3   2   4  ar  
  4   2   5  ar  
  5   3   6  1   
  6   3  27  1   
  7   3  28  1   
  8   4   7  ar  
  9   4   8  1   
 10   5   9  ar  
 11   5  10  1   
 12   6  11  1   
 13   6  12  1   
 14   6  29  1   
 15   7  13  ar  
 16   7  30  1   
 17   8  31  1   
 18   8  32  1   
 19   8  33  1   
 20   9  13  ar  
 21   9  34  1   
 22  10  35  1   
 23  10  36  1   
 24  10  37  1   
 25  11  38  1   
 26  12  14  1   
 27  12  39  1   
 28  12  40  1   
 29  13  15  1   
 30  14  16  1   
 31  14  17  1   
 32  14  41  1   
 33  15  42  1   
 34  15  43  1   
 35  15  44  1   
 36  16  18  1   
 37  16  45  1   
 38  16  46  1   
 39  17  19  1   
 40  17  47  1   
 41  17  48  1   
 42  18  20  1   
 43  18  49  1   
 44  18  50  1   
 45  19  20  1   
 46  19  51  1   
 47  19  52  1   
 48  20  21  1   
 49  21  22  ar  
 50  21  23  ar  
 51  22  24  ar  
 52  23  25  ar  
 53  23  53  1   
 54  24  26  ar  
 55  24  54  1   
 56  25  26  ar  
 57  25  55  1   
 58  26  56  1   
@<TRIPOS>SUBSTRUCTURE
  1 ****  12 GROUP 4 **** **** 0

# MOE 2024.06 (io_trps.svl 2023.06)
