@<TRIPOS>MOLECULE
NONAME
41 43 1 0 0 
SMALL
USER_CHARGES


@<TRIPOS>ATOM
  1 S       -0.2310    -0.6850     0.1570 S.3   1 <1>  -0.0800 
  2 C       -0.8310     0.7890     0.8370 C.2   1 <1>   0.4420 
  3 C        1.3270    -0.3070     0.8330 C.2   1 <1>   0.3250 
  4 N        0.0780     1.4280     1.4750 N.2   1 <1>  -0.3380 
  5 N       -2.1360     1.1980     0.6920 N.am  1 <1>  -0.4940 
  6 N        1.2900     0.8110     1.4720 N.2   1 <1>  -0.3380 
  7 C        2.4450    -1.2040     0.6400 C.ar  1 <1>   0.0530 
  8 C       -3.2040     0.6350     0.0520 C.2   1 <1>   0.5690 
  9 C        2.3550    -2.3980    -0.0800 C.ar  1 <1>  -0.1500 
 10 C        3.6930    -0.8910     1.1870 C.ar  1 <1>  -0.1500 
 11 O       -3.1430    -0.4130    -0.5390 O.2   1 <1>  -0.5700 
 12 C       -4.5340     1.3890     0.1010 C.3   1 <1>  -0.0190 
 13 C        3.4430    -3.2370    -0.2480 C.ar  1 <1>   0.0830 
 14 C        4.7880    -1.7190     1.0270 C.ar  1 <1>  -0.1500 
 15 C       -5.6220     0.5620     0.8130 C.3   1 <1>  -0.1600 
 16 C       -5.0010     1.7940    -1.3110 C.3   1 <1>  -0.1600 
 17 O        3.2340    -4.3690    -0.9660 O.3   1 <1>  -0.3630 
 18 C        4.6700    -2.8940     0.3100 C.ar  1 <1>  -0.1500 
 19 C       -6.9620     1.3110     0.8570 C.3   1 <1>  -0.1600 
 20 C       -6.3410     2.5440    -1.2690 C.3   1 <1>  -0.1600 
 21 C        4.2720    -5.2940    -1.1990 C.3   1 <1>   0.0400 
 22 C       -7.4150     1.7160    -0.5510 C.3   1 <1>  -0.1600 
 23 H       -2.3170     2.0840     1.1550 H     1 <1>   0.3700 
 24 H        1.4270    -2.7020    -0.5270 H     1 <1>   0.1500 
 25 H        3.8050     0.0210     1.7490 H     1 <1>   0.1500 
 26 H       -4.3910     2.2920     0.6670 H     1 <1>   0.0800 
 27 H        5.7340    -1.4460     1.4610 H     1 <1>   0.1500 
 28 H       -5.3070     0.3320     1.8160 H     1 <1>   0.0800 
 29 H       -5.7570    -0.3710     0.2920 H     1 <1>   0.0800 
 30 H       -5.1120     0.9090    -1.9150 H     1 <1>   0.0800 
 31 H       -4.2560     2.4160    -1.7760 H     1 <1>   0.0800 
 32 H        5.5330    -3.5220     0.1980 H     1 <1>   0.1500 
 33 H       -6.8620     2.1920     1.4670 H     1 <1>   0.0800 
 34 H       -7.7110     0.6820     1.3070 H     1 <1>   0.0800 
 35 H       -6.6640     2.7580    -2.2730 H     1 <1>   0.0800 
 36 H       -6.2120     3.4820    -0.7570 H     1 <1>   0.0800 
 37 H        3.8730    -6.1030    -1.7850 H     1 <1>   0.0800 
 38 H        4.6260    -5.6680    -0.2540 H     1 <1>   0.0800 
 39 H        5.0610    -4.8050    -1.7410 H     1 <1>   0.0800 
 40 H       -8.3270     2.2860    -0.4870 H     1 <1>   0.0800 
 41 H       -7.6220     0.8290    -1.1260 H     1 <1>   0.0800 
@<TRIPOS>BOND
  1   1   2  1   
  2   1   3  1   
  3   2   4  2   
  4   2   5  1   
  5   3   6  2   
  6   3   7  1   
  7   4   6  1   
  8   5   8  am  
  9   5  23  1   
 10   7   9  ar  
 11   7  10  ar  
 12   8  11  2   
 13   8  12  1   
 14   9  13  ar  
 15   9  24  1   
 16  10  14  ar  
 17  10  25  1   
 18  12  15  1   
 19  12  16  1   
 20  12  26  1   
 21  13  17  1   
 22  13  18  ar  
 23  14  18  ar  
 24  14  27  1   
 25  15  19  1   
 26  15  28  1   
 27  15  29  1   
 28  16  20  1   
 29  16  30  1   
 30  16  31  1   
 31  17  21  1   
 32  18  32  1   
 33  19  22  1   
 34  19  33  1   
 35  19  34  1   
 36  20  22  1   
 37  20  35  1   
 38  20  36  1   
 39  21  37  1   
 40  21  38  1   
 41  21  39  1   
 42  22  40  1   
 43  22  41  1   
@<TRIPOS>SUBSTRUCTURE
  1 ****   1 GROUP 4 **** **** 0

# MOE 2024.06 (io_trps.svl 2023.06)
