@<TRIPOS>MOLECULE
NONAME
51 52 1 0 0 
SMALL
USER_CHARGES


@<TRIPOS>ATOM
  1 S      -10.0820    -2.2400    -1.7800 S.3   1 <1>  -0.4600 
  2 C       -9.1790    -0.7130    -1.4430 C.3   1 <1>   0.5940 
  3 C       -9.3220    -3.2580    -0.4960 C.3   1 <1>   0.1310 
  4 N       -8.2680    -1.0620    -0.3280 N.am  1 <1>  -0.6600 
  5 C      -10.1650     0.3850    -1.0590 C.ar  1 <1>  -0.1440 
  6 C       -8.3500    -2.3220     0.1840 C.2   1 <1>   0.5690 
  7 C       -7.4850     0.0100     0.3310 C.3   1 <1>   0.1400 
  8 C      -10.9880     0.2600     0.0520 C.ar  1 <1>  -0.1500 
  9 C      -10.2310     1.5410    -1.8190 C.ar  1 <1>  -0.1500 
 10 O       -7.6900    -2.6900     1.1270 O.2   1 <1>  -0.5700 
 11 C       -5.9950    -0.1820     0.0300 C.3   1 <1>  -0.1600 
 12 C      -11.8720     1.2760     0.4040 C.ar  1 <1>   0.0830 
 13 C      -11.0910     2.5740    -1.4850 C.ar  1 <1>   0.0830 
 14 C       -5.1500     0.6420     0.9990 C.3   1 <1>   0.3430 
 15 O      -12.6910     1.1830     1.4930 O.3   1 <1>  -0.3630 
 16 C      -11.9340     2.4360    -0.3740 C.ar  1 <1>   0.0830 
 17 O      -11.0310     3.6610    -2.3060 O.3   1 <1>  -0.3630 
 18 N       -3.7170     0.2350     0.9140 N.4   1 <1>  -0.9590 
 19 C      -12.7240     0.0320     2.3070 C.3   1 <1>   0.0400 
 20 O      -12.8220     3.4130    -0.0410 O.3   1 <1>  -0.3630 
 21 C      -11.2430     4.9610    -1.7990 C.3   1 <1>   0.0400 
 22 C       -2.9450     0.7870     2.0700 C.3   1 <1>   0.2630 
 23 C       -3.0780     0.6330    -0.3810 C.3   1 <1>   0.2630 
 24 C      -14.1530     3.1770    -0.4390 C.3   1 <1>   0.0400 
 25 H       -8.6250    -0.4650    -2.3330 H     1 <1>   0.0800 
 26 H       -8.8210    -4.0830    -0.9660 H     1 <1>   0.0800 
 27 H      -10.0920    -3.5910     0.1760 H     1 <1>   0.0800 
 28 H       -7.6590    -0.0570     1.3930 H     1 <1>   0.0800 
 29 H       -7.8160     0.9820     0.0020 H     1 <1>   0.0800 
 30 H      -10.9270    -0.6390     0.6340 H     1 <1>   0.1500 
 31 H       -9.6110     1.6650    -2.6890 H     1 <1>   0.1500 
 32 H       -5.8040     0.1090    -0.9860 H     1 <1>   0.0800 
 33 H       -5.7470    -1.2210     0.1580 H     1 <1>   0.0800 
 34 H       -5.5080     0.4650     2.0010 H     1 <1>   0.0800 
 35 H       -5.2560     1.6940     0.7850 H     1 <1>   0.0800 
 36 H       -3.6910    -0.7960     0.9840 H     1 <1>   0.4500 
 37 H      -13.4530     0.1920     3.0800 H     1 <1>   0.0800 
 38 H      -11.7530    -0.1130     2.7460 H     1 <1>   0.0800 
 39 H      -13.0080    -0.8140     1.7060 H     1 <1>   0.0800 
 40 H      -10.7930     5.6630    -2.4770 H     1 <1>   0.0800 
 41 H      -10.7870     5.0400    -0.8280 H     1 <1>   0.0800 
 42 H      -12.3000     5.1430    -1.7380 H     1 <1>   0.0800 
 43 H       -2.9510     1.8650     2.0460 H     1 <1>   0.0800 
 44 H       -1.9220     0.4480     2.0320 H     1 <1>   0.0800 
 45 H       -3.3780     0.4600     3.0010 H     1 <1>   0.0800 
 46 H       -3.1080     1.7040    -0.5000 H     1 <1>   0.0800 
 47 H       -3.5940     0.1780    -1.2110 H     1 <1>   0.0800 
 48 H       -2.0490     0.3120    -0.4030 H     1 <1>   0.0800 
 49 H      -14.7440     4.0280    -0.1550 H     1 <1>   0.0800 
 50 H      -14.5170     2.2950     0.0560 H     1 <1>   0.0800 
 51 H      -14.1770     3.0460    -1.5060 H     1 <1>   0.0800 
@<TRIPOS>BOND
  1   1   2  1   
  2   1   3  1   
  3   2   4  1   
  4   2   5  1   
  5   2  25  1   
  6   3   6  1   
  7   3  26  1   
  8   3  27  1   
  9   4   6  am  
 10   4   7  1   
 11   5   8  ar  
 12   5   9  ar  
 13   6  10  2   
 14   7  11  1   
 15   7  28  1   
 16   7  29  1   
 17   8  12  ar  
 18   8  30  1   
 19   9  13  ar  
 20   9  31  1   
 21  11  14  1   
 22  11  32  1   
 23  11  33  1   
 24  12  15  1   
 25  12  16  ar  
 26  13  16  ar  
 27  13  17  1   
 28  14  18  1   
 29  14  34  1   
 30  14  35  1   
 31  15  19  1   
 32  16  20  1   
 33  17  21  1   
 34  18  22  1   
 35  18  23  1   
 36  18  36  1   
 37  19  37  1   
 38  19  38  1   
 39  19  39  1   
 40  20  24  1   
 41  21  40  1   
 42  21  41  1   
 43  21  42  1   
 44  22  43  1   
 45  22  44  1   
 46  22  45  1   
 47  23  46  1   
 48  23  47  1   
 49  23  48  1   
 50  24  49  1   
 51  24  50  1   
 52  24  51  1   
@<TRIPOS>SUBSTRUCTURE
  1 ****   5 GROUP 4 **** **** 0

# MOE 2024.06 (io_trps.svl 2023.06)
