@<TRIPOS>MOLECULE
NONAME
40 41 1 0 0 
SMALL
USER_CHARGES


@<TRIPOS>ATOM
  1 O        0.4770     0.6980    -1.3710 O.2   1 <1>  -0.5700 
  2 C        0.6040     1.8070    -0.9000 C.2   1 <1>   0.8050 
  3 O       -0.4710     2.5930    -0.8880 O.3   1 <1>  -0.4300 
  4 C        1.8480     2.2510    -0.3300 C.2   1 <1>  -0.2370 
  5 C       -0.8680     3.2500     0.2940 C.3   1 <1>   0.1200 
  6 N        2.6800     1.3490     0.2650 N.pl3 1 <1>   0.0330 
  7 C        2.4580     3.4770    -0.2440 C.2   1 <1>  -0.1810 
  8 C       -2.0290     4.1760    -0.0520 C.3   1 <1>  -0.2400 
  9 C        3.7590     1.9920     0.7480 C.2   1 <1>  -0.3320 
 10 C        3.6720     3.3340     0.4520 C.2   1 <1>  -0.0860 
 11 C        1.9710     4.7990    -0.8200 C.3   1 <1>  -0.0590 
 12 C        4.8480     1.2500     1.5080 C.3   1 <1>  -0.0600 
 13 C        4.6040     4.4000     0.7530 C.2   1 <1>   0.5700 
 14 O        4.1980     5.4450     1.2250 O.2   1 <1>  -0.5700 
 15 C        6.0210     4.2320     0.4850 C.ar  1 <1>   0.0860 
 16 C        6.9820     4.9160     1.2310 C.ar  1 <1>  -0.1500 
 17 C        6.4860     3.3870    -0.5260 C.ar  1 <1>  -0.1500 
 18 C        8.3340     4.7560     0.9930 C.ar  1 <1>  -0.1500 
 19 C        7.8370     3.2240    -0.7680 C.ar  1 <1>  -0.1500 
 20 C        8.7710     3.9050    -0.0080 C.ar  1 <1>  -0.1440 
 21 C       10.2560     3.7290    -0.2720 C.3   1 <1>  -0.0970 
 22 H       -0.0430     3.8100     0.6960 H     1 <1>   0.0800 
 23 H       -1.1740     2.5020     1.0060 H     1 <1>   0.0800 
 24 H        2.4830     0.3410     0.3170 H     1 <1>   0.2700 
 25 H       -1.7160     4.9110    -0.7710 H     1 <1>   0.0800 
 26 H       -2.3650     4.6840     0.8340 H     1 <1>   0.0800 
 27 H       -2.8490     3.6070    -0.4530 H     1 <1>   0.0800 
 28 H        1.1260     4.6530    -1.4670 H     1 <1>   0.0800 
 29 H        2.7570     5.2590    -1.3920 H     1 <1>   0.0800 
 30 H        1.6940     5.4660    -0.0240 H     1 <1>   0.0800 
 31 H        4.4120     0.6460     2.2840 H     1 <1>   0.0800 
 32 H        5.5350     1.9360     1.9680 H     1 <1>   0.0800 
 33 H        5.3970     0.6110     0.8380 H     1 <1>   0.0800 
 34 H        6.6570     5.5840     2.0100 H     1 <1>   0.1500 
 35 H        5.7790     2.8500    -1.1340 H     1 <1>   0.1500 
 36 H        9.0460     5.3000     1.5890 H     1 <1>   0.1500 
 37 H        8.1610     2.5640    -1.5550 H     1 <1>   0.1500 
 38 H       10.5870     4.4610    -0.9860 H     1 <1>   0.0800 
 39 H       10.4560     2.7470    -0.6630 H     1 <1>   0.0800 
 40 H       10.8170     3.8520     0.6370 H     1 <1>   0.0800 
@<TRIPOS>BOND
  1   1   2  2   
  2   2   3  1   
  3   2   4  1   
  4   3   5  1   
  5   4   6  1   
  6   4   7  2   
  7   5   8  1   
  8   5  22  1   
  9   5  23  1   
 10   6   9  1   
 11   6  24  1   
 12   7  10  1   
 13   7  11  1   
 14   8  25  1   
 15   8  26  1   
 16   8  27  1   
 17   9  10  2   
 18   9  12  1   
 19  10  13  1   
 20  11  28  1   
 21  11  29  1   
 22  11  30  1   
 23  12  31  1   
 24  12  32  1   
 25  12  33  1   
 26  13  14  2   
 27  13  15  1   
 28  15  16  ar  
 29  15  17  ar  
 30  16  18  ar  
 31  16  34  1   
 32  17  19  ar  
 33  17  35  1   
 34  18  20  ar  
 35  18  36  1   
 36  19  20  ar  
 37  19  37  1   
 38  20  21  1   
 39  21  38  1   
 40  21  39  1   
 41  21  40  1   
@<TRIPOS>SUBSTRUCTURE
  1 ****  10 GROUP 4 **** **** 0

# MOE 2024.06 (io_trps.svl 2023.06)
