@<TRIPOS>MOLECULE
NONAME
39 40 1 0 0 
SMALL
USER_CHARGES


@<TRIPOS>ATOM
  1 BR       2.4930     0.3940     1.9680 Br    1 <1>  -0.1110 
  2 C        2.6930    -1.2750     1.0340 C.ar  1 <1>   0.1110 
  3 C        3.1650    -2.3720     1.7270 C.ar  1 <1>  -0.1500 
  4 C        2.3650    -1.3340    -0.3060 C.ar  1 <1>  -0.1500 
  5 C        3.3250    -3.5660     1.0450 C.ar  1 <1>  -0.1500 
  6 C        2.5260    -2.5360    -0.9750 C.ar  1 <1>  -0.1500 
  7 C        3.0140    -3.6580    -0.3110 C.ar  1 <1>  -0.1430 
  8 C        3.2300    -4.9520    -1.0990 C.3   1 <1>   0.5940 
  9 S        2.7580    -6.3900    -0.1130 S.3   1 <1>  -0.4600 
 10 N        4.6750    -5.1370    -1.3560 N.am  1 <1>  -0.6600 
 11 C        4.3990    -7.1270     0.0350 C.3   1 <1>   0.1310 
 12 C        5.3000    -6.1550    -0.6940 C.2   1 <1>   0.5690 
 13 C        5.3070    -4.2440    -2.3710 C.3   1 <1>   0.1400 
 14 O        6.5020    -6.2670    -0.6310 O.2   1 <1>  -0.5700 
 15 C        6.5440    -3.5180    -1.8300 C.3   1 <1>  -0.1600 
 16 C        6.3050    -2.9420    -0.4320 C.3   1 <1>   0.3430 
 17 N        7.5990    -2.6680     0.2530 N.4   1 <1>  -0.9590 
 18 C        8.2210    -3.9490     0.7270 C.3   1 <1>   0.2630 
 19 C        7.3900    -1.7320     1.3980 C.3   1 <1>   0.2630 
 20 H        3.3900    -2.2920     2.7760 H     1 <1>   0.1500 
 21 H        1.9870    -0.4610    -0.8090 H     1 <1>   0.1500 
 22 H        3.6880    -4.4240     1.5840 H     1 <1>   0.1500 
 23 H        2.2650    -2.5870    -2.0190 H     1 <1>   0.1500 
 24 H        2.6560    -4.9830    -2.0090 H     1 <1>   0.0800 
 25 H        4.3840    -8.0890    -0.4410 H     1 <1>   0.0800 
 26 H        4.6470    -7.2040     1.0770 H     1 <1>   0.0800 
 27 H        4.5890    -3.5140    -2.7030 H     1 <1>   0.0800 
 28 H        5.5870    -4.8360    -3.2280 H     1 <1>   0.0800 
 29 H        6.8040    -2.7250    -2.5070 H     1 <1>   0.0800 
 30 H        7.3580    -4.2190    -1.8310 H     1 <1>   0.0800 
 31 H        5.7430    -3.6440     0.1610 H     1 <1>   0.0800 
 32 H        5.7210    -2.0390    -0.5150 H     1 <1>   0.0800 
 33 H        8.2330    -2.2250    -0.4290 H     1 <1>   0.4500 
 34 H        7.5680    -4.4460     1.4250 H     1 <1>   0.0800 
 35 H        9.1630    -3.7530     1.2130 H     1 <1>   0.0800 
 36 H        8.3960    -4.6180    -0.1000 H     1 <1>   0.0800 
 37 H        6.7210    -2.1700     2.1210 H     1 <1>   0.0800 
 38 H        6.9640    -0.8050     1.0510 H     1 <1>   0.0800 
 39 H        8.3300    -1.5180     1.8820 H     1 <1>   0.0800 
@<TRIPOS>BOND
  1   1   2  1   
  2   2   3  ar  
  3   2   4  ar  
  4   3   5  ar  
  5   3  20  1   
  6   4   6  ar  
  7   4  21  1   
  8   5   7  ar  
  9   5  22  1   
 10   6   7  ar  
 11   6  23  1   
 12   7   8  1   
 13   8   9  1   
 14   8  10  1   
 15   8  24  1   
 16   9  11  1   
 17  10  12  am  
 18  10  13  1   
 19  11  12  1   
 20  11  25  1   
 21  11  26  1   
 22  12  14  2   
 23  13  15  1   
 24  13  27  1   
 25  13  28  1   
 26  15  16  1   
 27  15  29  1   
 28  15  30  1   
 29  16  17  1   
 30  16  31  1   
 31  16  32  1   
 32  17  18  1   
 33  17  19  1   
 34  17  33  1   
 35  18  34  1   
 36  18  35  1   
 37  18  36  1   
 38  19  37  1   
 39  19  38  1   
 40  19  39  1   
@<TRIPOS>SUBSTRUCTURE
  1 ****   7 GROUP 4 **** **** 0

# MOE 2024.06 (io_trps.svl 2023.06)
