@<TRIPOS>MOLECULE
NONAME
32 32 1 0 0 
SMALL
USER_CHARGES


@<TRIPOS>ATOM
  1 O       -0.0480     0.7330     1.0030 O.2   1 <1>  -0.5700 
  2 C       -0.3870    -0.4100     0.8220 C.2   1 <1>   0.6590 
  3 O        0.4730    -1.3420     0.4230 O.3   1 <1>  -0.4300 
  4 C       -1.8150    -0.8680     1.0640 C.3   1 <1>   0.1810 
  5 C        1.8220    -1.0400     0.1640 C.3   1 <1>   0.1200 
  6 O       -2.4110    -1.3260    -0.1420 O.3   1 <1>  -0.3630 
  7 C        2.5170    -2.3250    -0.2730 C.3   1 <1>  -0.2400 
  8 C       -3.4450    -2.1930    -0.0210 C.ar  1 <1>   0.0830 
  9 C       -3.2910    -3.4770     0.5160 C.ar  1 <1>   0.0830 
 10 C       -4.6920    -1.7750    -0.4540 C.ar  1 <1>  -0.1500 
 11 O       -2.0900    -3.9590     0.9250 O.3   1 <1>  -0.3630 
 12 C       -4.3960    -4.3000     0.6520 C.ar  1 <1>  -0.1500 
 13 C       -5.7900    -2.6100    -0.3280 C.ar  1 <1>  -0.1500 
 14 C       -1.0950    -4.1640    -0.0570 C.3   1 <1>   0.1200 
 15 C       -5.6430    -3.8690     0.2300 C.ar  1 <1>  -0.1500 
 16 C       -1.3250    -5.5180    -0.7260 C.3   1 <1>  -0.2400 
 17 H       -2.4040    -0.0490     1.4330 H     1 <1>   0.0800 
 18 H       -1.8120    -1.6580     1.7900 H     1 <1>   0.0800 
 19 H        2.2630    -0.6460     1.0650 H     1 <1>   0.0800 
 20 H        1.8610    -0.2940    -0.6130 H     1 <1>   0.0800 
 21 H        2.4610    -3.0610     0.5080 H     1 <1>   0.0800 
 22 H        3.5530    -2.1240    -0.4810 H     1 <1>   0.0800 
 23 H        2.0580    -2.7090    -1.1660 H     1 <1>   0.0800 
 24 H       -4.8000    -0.7960    -0.8840 H     1 <1>   0.1500 
 25 H       -4.2730    -5.2770     1.0830 H     1 <1>   0.1500 
 26 H       -6.7580    -2.2790    -0.6620 H     1 <1>   0.1500 
 27 H       -0.1410    -4.1470     0.4400 H     1 <1>   0.0800 
 28 H       -1.1260    -3.3660    -0.7780 H     1 <1>   0.0800 
 29 H       -6.4980    -4.5150     0.3340 H     1 <1>   0.1500 
 30 H       -1.3100    -6.3020     0.0100 H     1 <1>   0.0800 
 31 H       -0.5460    -5.7040    -1.4430 H     1 <1>   0.0800 
 32 H       -2.2690    -5.5230    -1.2410 H     1 <1>   0.0800 
@<TRIPOS>BOND
  1   1   2  2   
  2   2   3  1   
  3   2   4  1   
  4   3   5  1   
  5   4   6  1   
  6   4  17  1   
  7   4  18  1   
  8   5   7  1   
  9   5  19  1   
 10   5  20  1   
 11   6   8  1   
 12   7  21  1   
 13   7  22  1   
 14   7  23  1   
 15   8   9  ar  
 16   8  10  ar  
 17   9  11  1   
 18   9  12  ar  
 19  10  13  ar  
 20  10  24  1   
 21  11  14  1   
 22  12  15  ar  
 23  12  25  1   
 24  13  15  ar  
 25  13  26  1   
 26  14  16  1   
 27  14  27  1   
 28  14  28  1   
 29  15  29  1   
 30  16  30  1   
 31  16  31  1   
 32  16  32  1   
@<TRIPOS>SUBSTRUCTURE
  1 ****   6 GROUP 4 **** **** 0

# MOE 2024.06 (io_trps.svl 2023.06)
