@<TRIPOS>MOLECULE
NONAME
51 53 1 0 0 
SMALL
USER_CHARGES


@<TRIPOS>ATOM
  1 O        5.6120     4.1630     0.4200 O.3   1 <1>  -0.1650 
  2 C        5.0960     5.2400    -0.2220 C.ar  1 <1>   0.0830 
  3 C        6.8810     3.7360     0.1960 C.ar  1 <1>   0.0830 
  4 C        3.7480     5.2170    -0.5430 C.ar  1 <1>  -0.1500 
  5 C        5.8640     6.3520    -0.5420 C.ar  1 <1>  -0.1500 
  6 C        7.4390     3.7250    -1.0770 C.ar  1 <1>  -0.1500 
  7 C        7.6210     3.2850     1.2790 C.ar  1 <1>  -0.1500 
  8 C        3.1600     6.2960    -1.1860 C.ar  1 <1>  -0.1430 
  9 C        5.2850     7.4240    -1.1960 C.ar  1 <1>  -0.1500 
 10 C        8.7370     3.2780    -1.2580 C.ar  1 <1>  -0.1500 
 11 C        8.9180     2.8390     1.0950 C.ar  1 <1>  -0.1500 
 12 C        3.9390     7.3970    -1.5200 C.ar  1 <1>  -0.1500 
 13 C        1.6810     6.2750    -1.5130 C.3   1 <1>   0.4860 
 14 C        9.4760     2.8370    -0.1730 C.ar  1 <1>  -0.1500 
 15 N        0.9080     6.4220    -0.2340 N.4   1 <1>  -0.9590 
 16 C       -0.5500     6.0830    -0.3550 C.3   1 <1>   0.4230 
 17 C        1.1730     7.7990     0.3210 C.3   1 <1>   0.2630 
 18 C       -1.2620     6.2770     0.9950 C.3   1 <1>  -0.1600 
 19 C       -0.7300     4.6290    -0.8240 C.3   1 <1>  -0.1600 
 20 C       -2.7260     5.8370     0.9420 C.3   1 <1>   0.3430 
 21 C       -2.2020     4.2110    -0.8500 C.3   1 <1>   0.3430 
 22 N       -2.8190     4.4230     0.4870 N.4   1 <1>  -0.9590 
 23 C       -4.2520     3.9750     0.4750 C.3   1 <1>   0.2630 
 24 H        3.1870     4.3370    -0.2830 H     1 <1>   0.1500 
 25 H        6.9080     6.3820    -0.2820 H     1 <1>   0.1500 
 26 H        6.8660     4.0570    -1.9230 H     1 <1>   0.1500 
 27 H        7.1810     3.2870     2.2600 H     1 <1>   0.1500 
 28 H        5.8880     8.2800    -1.4520 H     1 <1>   0.1500 
 29 H        9.1720     3.2710    -2.2430 H     1 <1>   0.1500 
 30 H        9.4920     2.4920     1.9360 H     1 <1>   0.1500 
 31 H        3.5170     8.2440    -2.0350 H     1 <1>   0.1500 
 32 H        1.4590     5.3380    -1.9930 H     1 <1>   0.0800 
 33 H        1.4410     7.0750    -2.1950 H     1 <1>   0.0800 
 34 H       10.4840     2.4900    -0.3150 H     1 <1>   0.1500 
 35 H        1.3570     5.7620     0.4170 H     1 <1>   0.4500 
 36 H       -1.0050     6.7410    -1.0800 H     1 <1>   0.0800 
 37 H        0.7450     8.5550    -0.3180 H     1 <1>   0.0800 
 38 H        2.2350     7.9770     0.3960 H     1 <1>   0.0800 
 39 H        0.7560     7.9010     1.3090 H     1 <1>   0.0800 
 40 H       -1.2630     7.3150     1.2700 H     1 <1>   0.0800 
 41 H       -0.7610     5.7230     1.7690 H     1 <1>   0.0800 
 42 H       -0.1900     3.9560    -0.1810 H     1 <1>   0.0800 
 43 H       -0.3590     4.5090    -1.8250 H     1 <1>   0.0800 
 44 H       -3.2750     6.4730     0.2650 H     1 <1>   0.0800 
 45 H       -3.1680     5.9370     1.9220 H     1 <1>   0.0800 
 46 H       -2.2760     3.1700    -1.1270 H     1 <1>   0.0800 
 47 H       -2.7330     4.7890    -1.5910 H     1 <1>   0.0800 
 48 H       -2.3300     3.8250     1.1740 H     1 <1>   0.4500 
 49 H       -4.8260     4.5610    -0.2250 H     1 <1>   0.0800 
 50 H       -4.6890     4.0860     1.4550 H     1 <1>   0.0800 
 51 H       -4.3200     2.9370     0.1890 H     1 <1>   0.0800 
@<TRIPOS>BOND
  1   1   2  1   
  2   1   3  1   
  3   2   4  ar  
  4   2   5  ar  
  5   3   6  ar  
  6   3   7  ar  
  7   4   8  ar  
  8   4  24  1   
  9   5   9  ar  
 10   5  25  1   
 11   6  10  ar  
 12   6  26  1   
 13   7  11  ar  
 14   7  27  1   
 15   8  12  ar  
 16   8  13  1   
 17   9  12  ar  
 18   9  28  1   
 19  10  14  ar  
 20  10  29  1   
 21  11  14  ar  
 22  11  30  1   
 23  12  31  1   
 24  13  15  1   
 25  13  32  1   
 26  13  33  1   
 27  14  34  1   
 28  15  16  1   
 29  15  17  1   
 30  15  35  1   
 31  16  18  1   
 32  16  19  1   
 33  16  36  1   
 34  17  37  1   
 35  17  38  1   
 36  17  39  1   
 37  18  20  1   
 38  18  40  1   
 39  18  41  1   
 40  19  21  1   
 41  19  42  1   
 42  19  43  1   
 43  20  22  1   
 44  20  44  1   
 45  20  45  1   
 46  21  22  1   
 47  21  46  1   
 48  21  47  1   
 49  22  23  1   
 50  22  48  1   
 51  23  49  1   
 52  23  50  1   
 53  23  51  1   
@<TRIPOS>SUBSTRUCTURE
  1 ****   4 GROUP 4 **** **** 0

# MOE 2024.06 (io_trps.svl 2023.06)
