@<TRIPOS>MOLECULE
NONAME
30 31 1 0 0 
SMALL
USER_CHARGES


@<TRIPOS>ATOM
  1 O       -0.4520    -0.2010     0.2330 O.2   1 <1>  -0.5700 
  2 C       -1.4350    -0.9010     0.1700 C.2   1 <1>   0.5690 
  3 N       -2.6710    -0.3500    -0.0500 N.am  1 <1>  -0.6600 
  4 C       -1.2630    -2.4110     0.3500 C.3   1 <1>  -0.0990 
  5 C       -3.9420    -1.1590    -0.0300 C.3   1 <1>   0.5640 
  6 C       -2.7720     1.1330    -0.2590 C.3   1 <1>   0.1400 
  7 C        0.1970    -2.8840     0.4720 C.3   1 <1>  -0.2400 
  8 C       -4.1620    -1.8620    -1.3400 C.1   1 <1>   0.3570 
  9 C       -5.1670    -0.3110     0.3170 C.ar  1 <1>  -0.1440 
 10 C       -4.0840     1.5590    -0.9220 C.3   1 <1>  -0.0170 
 11 N       -4.3040    -2.4330    -2.3150 N.1   1 <1>  -0.5570 
 12 C       -5.2480     1.0000    -0.1280 C.ar  1 <1>  -0.1430 
 13 C       -6.2110    -0.8430     1.0620 C.ar  1 <1>  -0.1500 
 14 C       -6.3630     1.7690     0.1630 C.ar  1 <1>  -0.1500 
 15 C       -7.3230    -0.0730     1.3550 C.ar  1 <1>  -0.1500 
 16 C       -7.4000     1.2320     0.9050 C.ar  1 <1>  -0.1500 
 17 H       -1.7000    -2.9130    -0.4930 H     1 <1>   0.0800 
 18 H       -1.7860    -2.7120     1.2390 H     1 <1>   0.0800 
 19 H       -3.8520    -1.9150     0.7270 H     1 <1>   0.0800 
 20 H       -1.9460     1.4680    -0.8660 H     1 <1>   0.0800 
 21 H       -2.6910     1.6150     0.7000 H     1 <1>   0.0800 
 22 H        0.7500    -2.6100    -0.4100 H     1 <1>   0.0800 
 23 H        0.2370    -3.9530     0.5870 H     1 <1>   0.0800 
 24 H        0.6670    -2.4260     1.3250 H     1 <1>   0.0800 
 25 H       -4.1190     1.1980    -1.9340 H     1 <1>   0.0800 
 26 H       -4.1300     2.6330    -0.9500 H     1 <1>   0.0800 
 27 H       -6.1740    -1.8580     1.4180 H     1 <1>   0.1500 
 28 H       -6.4300     2.7860    -0.1830 H     1 <1>   0.1500 
 29 H       -8.1310    -0.4890     1.9320 H     1 <1>   0.1500 
 30 H       -8.2660     1.8300     1.1310 H     1 <1>   0.1500 
@<TRIPOS>BOND
  1   1   2  2   
  2   2   3  am  
  3   2   4  1   
  4   3   5  1   
  5   3   6  1   
  6   4   7  1   
  7   4  17  1   
  8   4  18  1   
  9   5   8  1   
 10   5   9  1   
 11   5  19  1   
 12   6  10  1   
 13   6  20  1   
 14   6  21  1   
 15   7  22  1   
 16   7  23  1   
 17   7  24  1   
 18   8  11  3   
 19   9  12  ar  
 20   9  13  ar  
 21  10  12  1   
 22  10  25  1   
 23  10  26  1   
 24  12  14  ar  
 25  13  15  ar  
 26  13  27  1   
 27  14  16  ar  
 28  14  28  1   
 29  15  16  ar  
 30  15  29  1   
 31  16  30  1   
@<TRIPOS>SUBSTRUCTURE
  1 ****   5 GROUP 4 **** **** 0

# MOE 2024.06 (io_trps.svl 2023.06)
