@<TRIPOS>MOLECULE
NONAME
29 29 1 0 0 
SMALL
USER_CHARGES


@<TRIPOS>ATOM
  1 S        0.1510     0.0590    -0.7610 S.o2  1 <1>   1.5000 
  2 O        0.3710    -0.1460    -2.1740 O.2   1 <1>  -0.6500 
  3 O        0.4790     1.3270    -0.1510 O.2   1 <1>  -0.6500 
  4 N        1.1150    -1.1200    -0.0610 N.am  1 <1>  -0.9140 
  5 C       -1.5130    -0.4540    -0.2720 C.2   1 <1>  -0.0220 
  6 C        2.4910    -0.7120     0.1290 C.3   1 <1>   0.2760 
  7 S       -2.7850    -0.4330    -1.4920 S.3   1 <1>  -0.0800 
  8 C       -2.0330    -0.8590     0.9060 C.2   1 <1>  -0.1500 
  9 C        3.3900    -1.9070    -0.2470 C.3   1 <1>  -0.1600 
 10 C        2.6520    -0.2740     1.5970 C.3   1 <1>  -0.1600 
 11 C       -3.9860    -0.9890    -0.3410 C.2   1 <1>  -0.1100 
 12 C       -3.4310    -1.1650     0.8700 C.2   1 <1>  -0.1500 
 13 C        4.6710    -1.4770    -0.9780 C.3   1 <1>  -0.2400 
 14 C        4.0520     0.2470     1.9510 C.3   1 <1>  -0.2400 
 15 H        1.1380    -1.8240    -0.7940 H     1 <1>   0.4200 
 16 H        2.7210     0.1150    -0.5260 H     1 <1>   0.0800 
 17 H       -1.4720    -0.9540     1.8210 H     1 <1>   0.1500 
 18 H        2.8660    -2.5780    -0.9040 H     1 <1>   0.0800 
 19 H        3.6510    -2.4630     0.6380 H     1 <1>   0.0800 
 20 H        2.4130    -1.1000     2.2440 H     1 <1>   0.0800 
 21 H        1.9510     0.5150     1.8020 H     1 <1>   0.0800 
 22 H       -4.9920    -1.1260    -0.7000 H     1 <1>   0.1500 
 23 H       -3.9480    -1.5000     1.7530 H     1 <1>   0.1500 
 24 H        4.4250    -0.9710    -1.8960 H     1 <1>   0.0800 
 25 H        5.2650    -2.3420    -1.2170 H     1 <1>   0.0800 
 26 H        5.2650    -0.8170    -0.3730 H     1 <1>   0.0800 
 27 H        4.7810    -0.5420     1.9010 H     1 <1>   0.0800 
 28 H        4.0510     0.6370     2.9530 H     1 <1>   0.0800 
 29 H        4.3390     1.0390     1.2800 H     1 <1>   0.0800 
@<TRIPOS>BOND
  1   1   2  2   
  2   1   3  2   
  3   1   4  am  
  4   1   5  1   
  5   4   6  1   
  6   4  15  1   
  7   5   7  1   
  8   5   8  2   
  9   6   9  1   
 10   6  10  1   
 11   6  16  1   
 12   7  11  1   
 13   8  12  1   
 14   8  17  1   
 15   9  13  1   
 16   9  18  1   
 17   9  19  1   
 18  10  14  1   
 19  10  20  1   
 20  10  21  1   
 21  11  12  2   
 22  11  22  1   
 23  12  23  1   
 24  13  24  1   
 25  13  25  1   
 26  13  26  1   
 27  14  27  1   
 28  14  28  1   
 29  14  29  1   
@<TRIPOS>SUBSTRUCTURE
  1 ****   4 GROUP 4 **** **** 0

# MOE 2024.06 (io_trps.svl 2023.06)
