@<TRIPOS>MOLECULE
NONAME
50 53 1 0 0 
SMALL
USER_CHARGES


@<TRIPOS>ATOM
  1 O       -0.3730    -1.3710     1.7620 O.2   1 <1>  -0.5700 
  2 C       -0.7020    -1.6690     0.6360 C.2   1 <1>   0.5690 
  3 N        0.2140    -2.1270    -0.2610 N.am  1 <1>  -0.7300 
  4 C       -2.1760    -1.5500     0.1920 C.3   1 <1>   0.0610 
  5 C        1.6780    -2.3670    -0.0230 C.3   1 <1>   0.2810 
  6 C       -3.0740    -0.9800     1.3240 C.3   1 <1>  -0.1600 
  7 C       -2.7330    -2.9420    -0.2020 C.3   1 <1>  -0.1600 
  8 C       -2.2980    -0.6060    -1.0320 C.3   1 <1>  -0.1600 
  9 C        1.9500    -3.5160     0.9710 C.2   1 <1>   0.5690 
 10 C        2.3710    -1.0560     0.3870 C.3   1 <1>  -0.0170 
 11 C       -4.5400    -0.8680     0.8680 C.3   1 <1>  -0.0800 
 12 C       -4.1970    -2.8390    -0.6680 C.3   1 <1>  -0.0800 
 13 C       -3.7610    -0.4960    -1.5010 C.3   1 <1>  -0.0800 
 14 O        2.5720    -4.4850     0.6150 O.2   1 <1>  -0.5700 
 15 N        1.4710    -3.4580     2.2310 N.am  1 <1>  -0.8000 
 16 C        3.8780    -1.1390     0.1960 C.ar  1 <1>  -0.1440 
 17 C       -5.0540    -2.2650     0.4760 C.3   1 <1>  -0.1600 
 18 C       -4.6200     0.0650    -0.3530 C.3   1 <1>  -0.1600 
 19 C       -4.2770    -1.8960    -1.8830 C.3   1 <1>  -0.1600 
 20 C        4.6850    -1.6690     1.1910 C.ar  1 <1>  -0.1500 
 21 C        4.4580    -0.6860    -0.9800 C.ar  1 <1>  -0.1500 
 22 C        6.0550    -1.7470     1.0130 C.ar  1 <1>  -0.1500 
 23 C        5.8290    -0.7620    -1.1580 C.ar  1 <1>  -0.1500 
 24 C        6.6280    -1.2930    -0.1610 C.ar  1 <1>  -0.1500 
 25 H       -0.1220    -2.4460    -1.1700 H     1 <1>   0.3700 
 26 H        2.1040    -2.6690    -0.9630 H     1 <1>   0.0800 
 27 H       -3.0160    -1.6180     2.1890 H     1 <1>   0.0800 
 28 H       -2.7140    -0.0090     1.6170 H     1 <1>   0.0800 
 29 H       -2.6700    -3.6060     0.6430 H     1 <1>   0.0800 
 30 H       -2.1430    -3.3700    -0.9930 H     1 <1>   0.0800 
 31 H       -1.6980    -0.9710    -1.8460 H     1 <1>   0.0800 
 32 H       -1.9300     0.3710    -0.7710 H     1 <1>   0.0800 
 33 H        2.1560    -0.8280     1.4160 H     1 <1>   0.0800 
 34 H        1.9890    -0.2500    -0.2120 H     1 <1>   0.0800 
 35 H       -5.1410    -0.4720     1.6690 H     1 <1>   0.0800 
 36 H       -4.5630    -3.8150    -0.9390 H     1 <1>   0.0800 
 37 H       -3.8230     0.1590    -2.3530 H     1 <1>   0.0800 
 38 H        0.8130    -2.7130     2.5050 H     1 <1>   0.3700 
 39 H        1.5950    -4.2380     2.8740 H     1 <1>   0.3700 
 40 H       -6.0820    -2.2010     0.1640 H     1 <1>   0.0800 
 41 H       -5.0130    -2.9220     1.3280 H     1 <1>   0.0800 
 42 H       -4.2740     1.0480    -0.0840 H     1 <1>   0.0800 
 43 H       -5.6430     0.1560    -0.6740 H     1 <1>   0.0800 
 44 H       -3.6920    -2.2940    -2.6940 H     1 <1>   0.0800 
 45 H       -5.2970    -1.8270    -2.2210 H     1 <1>   0.0800 
 46 H        4.2510    -2.0280     2.1080 H     1 <1>   0.1500 
 47 H        3.8490    -0.2700    -1.7620 H     1 <1>   0.1500 
 48 H        6.6730    -2.1630     1.7890 H     1 <1>   0.1500 
 49 H        6.2740    -0.4090    -2.0720 H     1 <1>   0.1500 
 50 H        7.6930    -1.3550    -0.2990 H     1 <1>   0.1500 
@<TRIPOS>BOND
  1   1   2  2   
  2   2   3  am  
  3   2   4  1   
  4   3   5  1   
  5   3  25  1   
  6   4   6  1   
  7   4   7  1   
  8   4   8  1   
  9   5   9  1   
 10   5  10  1   
 11   5  26  1   
 12   6  11  1   
 13   6  27  1   
 14   6  28  1   
 15   7  12  1   
 16   7  29  1   
 17   7  30  1   
 18   8  13  1   
 19   8  31  1   
 20   8  32  1   
 21   9  14  2   
 22   9  15  am  
 23  10  16  1   
 24  10  33  1   
 25  10  34  1   
 26  11  17  1   
 27  11  18  1   
 28  11  35  1   
 29  12  17  1   
 30  12  19  1   
 31  12  36  1   
 32  13  18  1   
 33  13  19  1   
 34  13  37  1   
 35  15  38  1   
 36  15  39  1   
 37  16  20  ar  
 38  16  21  ar  
 39  17  40  1   
 40  17  41  1   
 41  18  42  1   
 42  18  43  1   
 43  19  44  1   
 44  19  45  1   
 45  20  22  ar  
 46  20  46  1   
 47  21  23  ar  
 48  21  47  1   
 49  22  24  ar  
 50  22  48  1   
 51  23  24  ar  
 52  23  49  1   
 53  24  50  1   
@<TRIPOS>SUBSTRUCTURE
  1 ****   3 GROUP 4 **** **** 0

# MOE 2024.06 (io_trps.svl 2023.06)
