@<TRIPOS>MOLECULE
NONAME
50 51 1 0 0 
SMALL
USER_CHARGES


@<TRIPOS>ATOM
  1 O        0.3760     0.6260    -0.6650 O.3   1 <1>  -0.5600 
  2 C        1.3660    -0.3270    -0.4170 C.3   1 <1>   0.1200 
  3 C        0.4620     1.7820     0.1130 C.3   1 <1>   0.1200 
  4 C        2.7580     0.2760    -0.6890 C.3   1 <1>   0.3430 
  5 C        1.8110     2.4840    -0.1340 C.3   1 <1>   0.3430 
  6 N        2.9820     1.5540     0.0900 N.4   1 <1>  -0.9590 
  7 C        4.2630     2.2410    -0.2480 C.3   1 <1>   0.3430 
  8 C        5.4780     1.4600     0.2760 C.3   1 <1>  -0.1600 
  9 C        6.7800     2.2320     0.0190 C.3   1 <1>   0.3430 
 10 N        7.9420     1.4720     0.5530 N.4   1 <1>  -0.9060 
 11 C        9.2370     2.1670     0.3540 C.3   1 <1>   0.4230 
 12 C       10.3720     1.1700     0.6060 C.3   1 <1>  -0.1600 
 13 C        9.3140     3.4060     1.2660 C.3   1 <1>  -0.1600 
 14 C       11.6130     1.4510    -0.2580 C.3   1 <1>  -0.1600 
 15 C        9.4130     4.7020     0.4490 C.3   1 <1>  -0.1600 
 16 C       12.2360     2.8480    -0.0890 C.3   1 <1>  -0.1600 
 17 C       10.8400     5.0340    -0.0170 C.3   1 <1>  -0.1600 
 18 C       11.5380     3.9720    -0.8860 C.3   1 <1>  -0.1600 
 19 H        1.1870    -1.1600    -1.0750 H     1 <1>   0.0800 
 20 H        1.2750    -0.6690     0.5990 H     1 <1>   0.0800 
 21 H        0.3370     1.5170     1.1490 H     1 <1>   0.0800 
 22 H       -0.3510     2.4280    -0.1740 H     1 <1>   0.0800 
 23 H        2.8340     0.4750    -1.7460 H     1 <1>   0.0800 
 24 H        3.5090    -0.4530    -0.4340 H     1 <1>   0.0800 
 25 H        1.8860     3.3390     0.5180 H     1 <1>   0.0800 
 26 H        1.8180     2.8430    -1.1500 H     1 <1>   0.0800 
 27 H        2.9660     1.3100     1.0910 H     1 <1>   0.4500 
 28 H        4.2610     3.2240     0.1980 H     1 <1>   0.0800 
 29 H        4.3340     2.3650    -1.3180 H     1 <1>   0.0800 
 30 H        5.5340     0.5080    -0.2220 H     1 <1>   0.0800 
 31 H        5.3650     1.3080     1.3350 H     1 <1>   0.0800 
 32 H        6.7300     3.1990     0.4970 H     1 <1>   0.0800 
 33 H        6.9100     2.3900    -1.0410 H     1 <1>   0.0800 
 34 H        8.0190     0.5570     0.0940 H     1 <1>   0.4500 
 35 H        7.8490     1.2930     1.5610 H     1 <1>   0.4500 
 36 H        9.3020     2.4830    -0.6750 H     1 <1>   0.0800 
 37 H       10.0520     0.1720     0.3620 H     1 <1>   0.0800 
 38 H       10.6560     1.1710     1.6450 H     1 <1>   0.0800 
 39 H       10.1690     3.3560     1.9190 H     1 <1>   0.0800 
 40 H        8.4530     3.4680     1.9070 H     1 <1>   0.0800 
 41 H       11.3870     1.2850    -1.2980 H     1 <1>   0.0800 
 42 H       12.3640     0.7260     0.0100 H     1 <1>   0.0800 
 43 H        9.0840     5.5200     1.0690 H     1 <1>   0.0800 
 44 H        8.7550     4.6690    -0.4020 H     1 <1>   0.0800 
 45 H       13.2450     2.7820    -0.4620 H     1 <1>   0.0800 
 46 H       12.3260     3.0980     0.9540 H     1 <1>   0.0800 
 47 H       11.4570     5.2620     0.8370 H     1 <1>   0.0800 
 48 H       10.7820     5.9420    -0.5950 H     1 <1>   0.0800 
 49 H       10.8660     3.5820    -1.6300 H     1 <1>   0.0800 
 50 H       12.3110     4.4870    -1.4320 H     1 <1>   0.0800 
@<TRIPOS>BOND
  1   1   2  1   
  2   1   3  1   
  3   2   4  1   
  4   2  19  1   
  5   2  20  1   
  6   3   5  1   
  7   3  21  1   
  8   3  22  1   
  9   4   6  1   
 10   4  23  1   
 11   4  24  1   
 12   5   6  1   
 13   5  25  1   
 14   5  26  1   
 15   6   7  1   
 16   6  27  1   
 17   7   8  1   
 18   7  28  1   
 19   7  29  1   
 20   8   9  1   
 21   8  30  1   
 22   8  31  1   
 23   9  10  1   
 24   9  32  1   
 25   9  33  1   
 26  10  11  1   
 27  10  34  1   
 28  10  35  1   
 29  11  12  1   
 30  11  13  1   
 31  11  36  1   
 32  12  14  1   
 33  12  37  1   
 34  12  38  1   
 35  13  15  1   
 36  13  39  1   
 37  13  40  1   
 38  14  16  1   
 39  14  41  1   
 40  14  42  1   
 41  15  17  1   
 42  15  43  1   
 43  15  44  1   
 44  16  18  1   
 45  16  45  1   
 46  16  46  1   
 47  17  18  1   
 48  17  47  1   
 49  17  48  1   
 50  18  49  1   
 51  18  50  1   
@<TRIPOS>SUBSTRUCTURE
  1 ****   9 GROUP 4 **** **** 0

# MOE 2024.06 (io_trps.svl 2023.06)
