@<TRIPOS>MOLECULE
NONAME
49 51 1 0 0 
SMALL
USER_CHARGES


@<TRIPOS>ATOM
  1 F        0.3120     0.3910    -0.1300 F     1 <1>  -0.1900 
  2 C        1.4510     1.0300    -0.0370 C.ar  1 <1>   0.1900 
  3 C        1.9520     1.6640    -1.1580 C.ar  1 <1>  -0.1500 
  4 C        2.1100     1.0450     1.1770 C.ar  1 <1>  -0.1500 
  5 C        3.1570     2.3380    -1.0530 C.ar  1 <1>  -0.1500 
  6 C        3.3130     1.7230     1.2660 C.ar  1 <1>  -0.1500 
  7 C        3.8470     2.3730     0.1580 C.ar  1 <1>   0.1000 
  8 N        5.0580     3.0440     0.2820 N.pl3 1 <1>  -0.8380 
  9 C        5.0010     4.5300     0.2130 C.3   1 <1>   0.2090 
 10 C        6.2230     2.4440    -0.4270 C.3   1 <1>   0.2090 
 11 C        6.3350     5.1520     0.6780 C.3   1 <1>   0.3430 
 12 C        7.5430     3.0890     0.0450 C.3   1 <1>   0.3430 
 13 N        7.5440     4.6030    -0.0560 N.4   1 <1>  -0.9590 
 14 C        8.8300     5.2120     0.4120 C.3   1 <1>   0.4230 
 15 C        8.7830     6.7440     0.2540 C.3   1 <1>  -0.1600 
 16 C       10.0130     4.6420    -0.3910 C.3   1 <1>  -0.1600 
 17 C       10.1170     7.4040     0.6300 C.3   1 <1>  -0.1600 
 18 C       11.3470     5.3090    -0.0220 C.3   1 <1>  -0.1600 
 19 C       11.2880     6.8370    -0.1870 C.3   1 <1>  -0.0800 
 20 C       12.5990     7.5180     0.2490 C.3   1 <1>  -0.1600 
 21 C       13.8030     7.1390    -0.6230 C.3   1 <1>  -0.2400 
 22 H        1.4070     1.6280    -2.0840 H     1 <1>   0.1500 
 23 H        1.6870     0.5390     2.0270 H     1 <1>   0.1500 
 24 H        3.5620     2.8370    -1.9130 H     1 <1>   0.1500 
 25 H        3.8480     1.7520     2.1970 H     1 <1>   0.1500 
 26 H        4.2040     4.8810     0.8470 H     1 <1>   0.0800 
 27 H        4.7820     4.8400    -0.7940 H     1 <1>   0.0800 
 28 H        6.1090     2.5750    -1.4890 H     1 <1>   0.0800 
 29 H        6.2500     1.3860    -0.2250 H     1 <1>   0.0800 
 30 H        6.4400     4.9620     1.7330 H     1 <1>   0.0800 
 31 H        6.2710     6.2180     0.5410 H     1 <1>   0.0800 
 32 H        8.3440     2.6780    -0.5450 H     1 <1>   0.0800 
 33 H        7.7070     2.7990     1.0700 H     1 <1>   0.0800 
 34 H        7.4390     4.8460    -1.0470 H     1 <1>   0.4500 
 35 H        8.9800     4.9800     1.4550 H     1 <1>   0.0800 
 36 H        8.0340     7.1700     0.8950 H     1 <1>   0.0800 
 37 H        8.5520     6.9980    -0.7660 H     1 <1>   0.0800 
 38 H        9.8410     4.7860    -1.4430 H     1 <1>   0.0800 
 39 H       10.1300     3.5910    -0.2020 H     1 <1>   0.0800 
 40 H       10.3080     7.2570     1.6800 H     1 <1>   0.0800 
 41 H       10.0450     8.4660     0.4600 H     1 <1>   0.0800 
 42 H       12.1170     4.9040    -0.6550 H     1 <1>   0.0800 
 43 H       11.6020     5.0680     0.9960 H     1 <1>   0.0800 
 44 H       11.1210     7.0680    -1.2260 H     1 <1>   0.0800 
 45 H       12.8170     7.2760     1.2750 H     1 <1>   0.0800 
 46 H       12.4730     8.5860     0.1900 H     1 <1>   0.0800 
 47 H       14.0630     6.1030    -0.5000 H     1 <1>   0.0800 
 48 H       14.6560     7.7290    -0.3390 H     1 <1>   0.0800 
 49 H       13.5930     7.3270    -1.6620 H     1 <1>   0.0800 
@<TRIPOS>BOND
  1   1   2  1   
  2   2   3  ar  
  3   2   4  ar  
  4   3   5  ar  
  5   3  22  1   
  6   4   6  ar  
  7   4  23  1   
  8   5   7  ar  
  9   5  24  1   
 10   6   7  ar  
 11   6  25  1   
 12   7   8  1   
 13   8   9  1   
 14   8  10  1   
 15   9  11  1   
 16   9  26  1   
 17   9  27  1   
 18  10  12  1   
 19  10  28  1   
 20  10  29  1   
 21  11  13  1   
 22  11  30  1   
 23  11  31  1   
 24  12  13  1   
 25  12  32  1   
 26  12  33  1   
 27  13  14  1   
 28  13  34  1   
 29  14  15  1   
 30  14  16  1   
 31  14  35  1   
 32  15  17  1   
 33  15  36  1   
 34  15  37  1   
 35  16  18  1   
 36  16  38  1   
 37  16  39  1   
 38  17  19  1   
 39  17  40  1   
 40  17  41  1   
 41  18  19  1   
 42  18  42  1   
 43  18  43  1   
 44  19  20  1   
 45  19  44  1   
 46  20  21  1   
 47  20  45  1   
 48  20  46  1   
 49  21  47  1   
 50  21  48  1   
 51  21  49  1   
@<TRIPOS>SUBSTRUCTURE
  1 ****  13 GROUP 4 **** **** 0

# MOE 2024.06 (io_trps.svl 2023.06)
