@<TRIPOS>MOLECULE
NONAME
49 51 1 0 0 
SMALL
USER_CHARGES


@<TRIPOS>ATOM
  1 S       -0.3290     0.2310    -0.1300 S.o2  1 <1>   1.5760 
  2 O       -0.3660     0.0290    -1.5570 O.2   1 <1>  -0.6500 
  3 O        0.9060     0.2210     0.6160 O.2   1 <1>  -0.6500 
  4 N       -1.2070     1.6140     0.2560 N.am  1 <1>  -0.8490 
  5 N       -1.3850    -0.8950     0.5910 N.am  1 <1>  -0.7570 
  6 C       -0.3890     2.8100     0.2840 C.3   1 <1>   0.1960 
  7 C       -2.3100     1.9160    -0.6450 C.3   1 <1>   0.1960 
  8 C       -1.3750    -2.2530     0.3190 C.ar  1 <1>   0.1990 
  9 C       -1.3890     3.9610     0.2590 C.3   1 <1>  -0.1600 
 10 C       -2.6710     3.3590    -0.3190 C.3   1 <1>  -0.1600 
 11 C       -2.5750    -2.9520     0.0890 C.ar  1 <1>   0.0860 
 12 C       -0.1630    -2.9380     0.2810 C.ar  1 <1>  -0.1500 
 13 C       -3.8650    -2.2940     0.1640 C.2   1 <1>   0.5440 
 14 C       -2.4930    -4.3160    -0.2120 C.ar  1 <1>  -0.1500 
 15 C       -0.1110    -4.2850    -0.0060 C.ar  1 <1>  -0.1500 
 16 O       -4.0100    -1.1300    -0.1690 O.2   1 <1>  -0.5700 
 17 N       -4.9650    -2.9650     0.6270 N.am  1 <1>  -0.7300 
 18 C       -1.2820    -4.9770    -0.2590 C.ar  1 <1>  -0.1500 
 19 C       -6.3050    -2.3570     0.8130 C.3   1 <1>   0.1400 
 20 C       -7.1020    -2.4310    -0.4890 C.3   1 <1>  -0.0170 
 21 C       -8.4440    -1.7400    -0.3150 C.ar  1 <1>  -0.1430 
 22 C       -8.5320    -0.3630    -0.4490 C.ar  1 <1>  -0.1500 
 23 C       -9.5840    -2.4690    -0.0150 C.ar  1 <1>  -0.1500 
 24 C       -9.7470     0.2800    -0.2850 C.ar  1 <1>  -0.1500 
 25 C      -10.8000    -1.8280     0.1500 C.ar  1 <1>  -0.1500 
 26 C      -10.8820    -0.4530     0.0150 C.ar  1 <1>  -0.1500 
 27 H       -2.3160    -0.4800     0.5210 H     1 <1>   0.4200 
 28 H        0.2360     2.8480    -0.5940 H     1 <1>   0.0800 
 29 H        0.2300     2.8310     1.1670 H     1 <1>   0.0800 
 30 H       -3.1430     1.2510    -0.4880 H     1 <1>   0.0800 
 31 H       -1.9880     1.8520    -1.6720 H     1 <1>   0.0800 
 32 H       -1.0170     4.7720    -0.3420 H     1 <1>   0.0800 
 33 H       -1.5610     4.3150     1.2600 H     1 <1>   0.0800 
 34 H       -3.4540     3.3730     0.4190 H     1 <1>   0.0800 
 35 H       -3.0070     3.8790    -1.1990 H     1 <1>   0.0800 
 36 H        0.7520    -2.4080     0.4810 H     1 <1>   0.1500 
 37 H       -3.3920    -4.8670    -0.4210 H     1 <1>   0.1500 
 38 H        0.8370    -4.7960    -0.0360 H     1 <1>   0.1500 
 39 H       -4.8520    -3.9090     1.0000 H     1 <1>   0.3700 
 40 H       -1.2420    -6.0280    -0.4920 H     1 <1>   0.1500 
 41 H       -6.1940    -1.3260     1.1050 H     1 <1>   0.0800 
 42 H       -6.8320    -2.8710     1.5980 H     1 <1>   0.0800 
 43 H       -7.2510    -3.4580    -0.7680 H     1 <1>   0.0800 
 44 H       -6.5520    -1.9420    -1.2740 H     1 <1>   0.0800 
 45 H       -7.6530     0.2140    -0.6820 H     1 <1>   0.1500 
 46 H       -9.5320    -3.5380     0.0920 H     1 <1>   0.1500 
 47 H       -9.8070     1.3490    -0.3900 H     1 <1>   0.1500 
 48 H      -11.6820    -2.3980     0.3820 H     1 <1>   0.1500 
 49 H      -11.8270     0.0450     0.1430 H     1 <1>   0.1500 
@<TRIPOS>BOND
  1   1   2  2   
  2   1   3  2   
  3   1   4  am  
  4   1   5  am  
  5   4   6  1   
  6   4   7  1   
  7   5   8  1   
  8   5  27  1   
  9   6   9  1   
 10   6  28  1   
 11   6  29  1   
 12   7  10  1   
 13   7  30  1   
 14   7  31  1   
 15   8  11  ar  
 16   8  12  ar  
 17   9  10  1   
 18   9  32  1   
 19   9  33  1   
 20  10  34  1   
 21  10  35  1   
 22  11  13  1   
 23  11  14  ar  
 24  12  15  ar  
 25  12  36  1   
 26  13  16  2   
 27  13  17  am  
 28  14  18  ar  
 29  14  37  1   
 30  15  18  ar  
 31  15  38  1   
 32  17  19  1   
 33  17  39  1   
 34  18  40  1   
 35  19  20  1   
 36  19  41  1   
 37  19  42  1   
 38  20  21  1   
 39  20  43  1   
 40  20  44  1   
 41  21  22  ar  
 42  21  23  ar  
 43  22  24  ar  
 44  22  45  1   
 45  23  25  ar  
 46  23  46  1   
 47  24  26  ar  
 48  24  47  1   
 49  25  26  ar  
 50  25  48  1   
 51  26  49  1   
@<TRIPOS>SUBSTRUCTURE
  1 ****  16 GROUP 4 **** **** 0

# MOE 2024.06 (io_trps.svl 2023.06)
