@<TRIPOS>MOLECULE
NONAME
33 33 1 0 0 
SMALL
USER_CHARGES


@<TRIPOS>ATOM
  1 P       -0.1490    -0.0030     0.5530 P.3   1 <1>   1.0390 
  2 O        1.0250    -0.2070    -0.3500 O.co2 1 <1>  -0.9500 
  3 O       -0.1030    -0.3960     1.9950 O.co2 1 <1>  -0.9500 
  4 C       -0.7190     1.7150     0.4180 C.ar  1 <1>  -0.1390 
  5 C       -1.5360    -0.8760    -0.1850 C.3   1 <1>  -0.1600 
  6 C       -1.4760     2.3130     1.4180 C.ar  1 <1>  -0.1500 
  7 C       -0.4480     2.4870    -0.7050 C.ar  1 <1>  -0.1500 
  8 C       -1.3670    -2.4050    -0.2250 C.3   1 <1>  -0.1600 
  9 C       -1.9480     3.6100     1.3080 C.ar  1 <1>  -0.1500 
 10 C       -0.9100     3.7860    -0.8340 C.ar  1 <1>  -0.1500 
 11 C       -2.5010    -3.1380    -0.9610 C.3   1 <1>  -0.1600 
 12 C       -1.6660     4.3510     0.1750 C.ar  1 <1>  -0.1500 
 13 C       -3.8540    -3.0270    -0.2430 C.3   1 <1>  -0.1600 
 14 C       -4.9240    -3.8720    -0.9450 C.3   1 <1>  -0.1600 
 15 C       -6.2730    -3.7570    -0.2310 C.3   1 <1>  -0.2400 
 16 H       -1.6820    -0.5310    -1.1890 H     1 <1>   0.0800 
 17 H       -2.4250    -0.6450     0.3660 H     1 <1>   0.0800 
 18 H       -1.6860     1.7340     2.3020 H     1 <1>   0.1500 
 19 H        0.1490     2.0450    -1.4860 H     1 <1>   0.1500 
 20 H       -1.2810    -2.7710     0.7850 H     1 <1>   0.0800 
 21 H       -0.4350    -2.6210    -0.7190 H     1 <1>   0.0800 
 22 H       -2.5290     4.0350     2.1050 H     1 <1>   0.1500 
 23 H       -0.6760     4.3500    -1.7190 H     1 <1>   0.1500 
 24 H       -2.2300    -4.1770    -1.0370 H     1 <1>   0.0800 
 25 H       -2.5860    -2.7490    -1.9600 H     1 <1>   0.0800 
 26 H       -2.0290     5.3590     0.0830 H     1 <1>   0.1500 
 27 H       -4.1730    -2.0000    -0.2250 H     1 <1>   0.0800 
 28 H       -3.7440    -3.3600     0.7750 H     1 <1>   0.0800 
 29 H       -4.6170    -4.9040    -0.9590 H     1 <1>   0.0800 
 30 H       -5.0320    -3.5410    -1.9640 H     1 <1>   0.0800 
 31 H       -6.1900    -4.0990     0.7850 H     1 <1>   0.0800 
 32 H       -7.0100    -4.3560    -0.7360 H     1 <1>   0.0800 
 33 H       -6.6080    -2.7340    -0.2250 H     1 <1>   0.0800 
@<TRIPOS>BOND
  1   1   2  ar  
  2   1   3  ar  
  3   1   4  1   
  4   1   5  1   
  5   4   6  ar  
  6   4   7  ar  
  7   5   8  1   
  8   5  16  1   
  9   5  17  1   
 10   6   9  ar  
 11   6  18  1   
 12   7  10  ar  
 13   7  19  1   
 14   8  11  1   
 15   8  20  1   
 16   8  21  1   
 17   9  12  ar  
 18   9  22  1   
 19  10  12  ar  
 20  10  23  1   
 21  11  13  1   
 22  11  24  1   
 23  11  25  1   
 24  12  26  1   
 25  13  14  1   
 26  13  27  1   
 27  13  28  1   
 28  14  15  1   
 29  14  29  1   
 30  14  30  1   
 31  15  31  1   
 32  15  32  1   
 33  15  33  1   
@<TRIPOS>SUBSTRUCTURE
  1 ****   5 GROUP 4 **** **** 0

# MOE 2024.06 (io_trps.svl 2023.06)
