@<TRIPOS>MOLECULE
NONAME
44 46 1 0 0 
SMALL
USER_CHARGES


@<TRIPOS>ATOM
  1 CL      -0.1770     2.0520    -2.3660 Cl    1 <1>  -0.1770 
  2 C       -0.4460     3.0380    -0.9510 C.ar  1 <1>   0.1770 
  3 C       -1.6200     3.7520    -0.8390 C.ar  1 <1>  -0.1500 
  4 C        0.5220     3.0870     0.0340 C.ar  1 <1>  -0.1500 
  5 C       -1.8490     4.5420     0.2810 C.ar  1 <1>   0.1000 
  6 C        0.3010     3.8720     1.1530 C.ar  1 <1>  -0.1500 
  7 N       -3.0350     5.2650     0.3980 N.pl3 1 <1>  -0.8380 
  8 C       -0.8740     4.5970     1.2810 C.ar  1 <1>  -0.1430 
  9 C       -3.2200     6.4710    -0.4600 C.3   1 <1>   0.2090 
 10 C       -4.2930     4.5210     0.6950 C.3   1 <1>   0.2090 
 11 C       -1.0950     5.4530     2.5200 C.3   1 <1>  -0.0960 
 12 C       -4.1190     6.1880    -1.6810 C.3   1 <1>   0.1100 
 13 C       -5.1540     4.3070    -0.5660 C.3   1 <1>   0.1100 
 14 N       -5.4120     5.5710    -1.3040 N.3   1 <1>  -0.8100 
 15 C       -6.2460     5.3140    -2.5170 C.3   1 <1>   0.1710 
 16 C       -7.7230     5.0860    -2.1940 C.2   1 <1>   0.5690 
 17 O       -8.4080     4.4640    -2.9660 O.2   1 <1>  -0.5700 
 18 N       -8.1640     5.6200    -1.0210 N.am  1 <1>  -0.4940 
 19 C       -9.4120     5.6130    -0.4400 C.2   1 <1>   0.4420 
 20 S       -9.5530     6.3820     1.1070 S.3   1 <1>  -0.0800 
 21 N      -10.5280     5.1260    -0.8430 N.2   1 <1>  -0.3380 
 22 C      -11.2280     5.9550     1.0830 C.2   1 <1>   0.1980 
 23 N      -11.5610     5.3250     0.0320 N.2   1 <1>  -0.3380 
 24 C      -12.0850     6.3580     2.2610 C.3   1 <1>  -0.0600 
 25 H       -2.3510     3.6940    -1.6190 H     1 <1>   0.1500 
 26 H        1.4290     2.5210    -0.0760 H     1 <1>   0.1500 
 27 H        1.0520     3.9130     1.9230 H     1 <1>   0.1500 
 28 H       -2.2590     6.8210    -0.7970 H     1 <1>   0.0800 
 29 H       -3.6640     7.2520     0.1320 H     1 <1>   0.0800 
 30 H       -4.8600     5.0760     1.4210 H     1 <1>   0.0800 
 31 H       -4.0490     3.5660     1.1280 H     1 <1>   0.0800 
 32 H       -1.9830     5.1280     3.0300 H     1 <1>   0.0800 
 33 H       -1.2230     6.4800     2.2300 H     1 <1>   0.0800 
 34 H       -0.2640     5.3860     3.1970 H     1 <1>   0.0800 
 35 H       -3.5890     5.5430    -2.3590 H     1 <1>   0.0800 
 36 H       -4.3030     7.1190    -2.1880 H     1 <1>   0.0800 
 37 H       -6.0870     3.8620    -0.2670 H     1 <1>   0.0800 
 38 H       -4.6510     3.6050    -1.2080 H     1 <1>   0.0800 
 39 H       -5.8690     4.4620    -3.0550 H     1 <1>   0.0800 
 40 H       -6.1980     6.1650    -3.1720 H     1 <1>   0.0800 
 41 H       -7.4060     6.0550    -0.4920 H     1 <1>   0.3700 
 42 H      -12.0850     7.4270     2.3650 H     1 <1>   0.0800 
 43 H      -11.7020     5.9120     3.1610 H     1 <1>   0.0800 
 44 H      -13.0940     6.0220     2.1070 H     1 <1>   0.0800 
@<TRIPOS>BOND
  1   1   2  1   
  2   2   3  ar  
  3   2   4  ar  
  4   3   5  ar  
  5   3  25  1   
  6   4   6  ar  
  7   4  26  1   
  8   5   7  1   
  9   5   8  ar  
 10   6   8  ar  
 11   6  27  1   
 12   7   9  1   
 13   7  10  1   
 14   8  11  1   
 15   9  12  1   
 16   9  28  1   
 17   9  29  1   
 18  10  13  1   
 19  10  30  1   
 20  10  31  1   
 21  11  32  1   
 22  11  33  1   
 23  11  34  1   
 24  12  14  1   
 25  12  35  1   
 26  12  36  1   
 27  13  14  1   
 28  13  37  1   
 29  13  38  1   
 30  14  15  1   
 31  15  16  1   
 32  15  39  1   
 33  15  40  1   
 34  16  17  2   
 35  16  18  am  
 36  18  19  1   
 37  18  41  1   
 38  19  20  1   
 39  19  21  2   
 40  20  22  1   
 41  21  23  1   
 42  22  23  2   
 43  22  24  1   
 44  24  42  1   
 45  24  43  1   
 46  24  44  1   
@<TRIPOS>SUBSTRUCTURE
  1 ****  13 GROUP 4 **** **** 0

# MOE 2024.06 (io_trps.svl 2023.06)
