@<TRIPOS>MOLECULE
NONAME
43 44 1 0 0 
SMALL
USER_CHARGES


@<TRIPOS>ATOM
  1 F        2.7190    -2.0320     3.1870 F     1 <1>  -0.1900 
  2 C        3.3550    -1.7400     2.0840 C.ar  1 <1>   0.1900 
  3 C        3.7100    -2.7650     1.2270 C.ar  1 <1>  -0.1500 
  4 C        3.6480    -0.4170     1.8140 C.ar  1 <1>  -0.1500 
  5 C        4.3870    -2.4550     0.0590 C.ar  1 <1>  -0.1500 
  6 C        4.3260    -0.1160     0.6450 C.ar  1 <1>  -0.1500 
  7 C        4.7020    -1.1260    -0.2330 C.ar  1 <1>   0.0830 
  8 O        5.3750    -0.7320    -1.3440 O.3   1 <1>  -0.3630 
  9 C        5.9060    -1.6600    -2.2810 C.3   1 <1>   0.2610 
 10 C        7.0330    -2.5330    -1.6840 C.2   1 <1>   0.5690 
 11 C        6.3590    -0.8670    -3.5120 C.3   1 <1>  -0.2400 
 12 O        7.0360    -3.6960    -2.0150 O.2   1 <1>  -0.5700 
 13 N        8.0020    -2.0660    -0.8140 N.am  1 <1>  -0.6600 
 14 C        8.9020    -3.0290    -0.1010 C.3   1 <1>   0.1400 
 15 C        8.1820    -0.6380    -0.4000 C.3   1 <1>   0.1400 
 16 C       10.3720    -2.5850    -0.1810 C.3   1 <1>   0.3430 
 17 C        9.6650    -0.2180    -0.4430 C.3   1 <1>   0.3430 
 18 N       10.5580    -1.1740     0.3030 N.4   1 <1>  -0.9590 
 19 C       11.9810    -0.7730     0.2500 C.3   1 <1>   0.4810 
 20 C       12.1370     0.4310     1.1490 C.2   1 <1>  -0.2880 
 21 C       12.6900     0.4150     2.3670 C.2   1 <1>  -0.3000 
 22 H        3.4580    -3.7810     1.4730 H     1 <1>   0.1500 
 23 H        3.3490     0.3530     2.5030 H     1 <1>   0.1500 
 24 H        4.6500    -3.2610    -0.6010 H     1 <1>   0.1500 
 25 H        4.5600     0.9060     0.4050 H     1 <1>   0.1500 
 26 H        5.0980    -2.3040    -2.5800 H     1 <1>   0.0800 
 27 H        7.1560    -0.1910    -3.2680 H     1 <1>   0.0800 
 28 H        5.5300    -0.3120    -3.9150 H     1 <1>   0.0800 
 29 H        6.7080    -1.5480    -4.2680 H     1 <1>   0.0800 
 30 H        8.8200    -4.0160    -0.5240 H     1 <1>   0.0800 
 31 H        8.5980    -3.0980     0.9290 H     1 <1>   0.0800 
 32 H        7.7930    -0.5080     0.5960 H     1 <1>   0.0800 
 33 H        7.6350     0.0210    -1.0480 H     1 <1>   0.0800 
 34 H       10.6940    -2.6650    -1.2070 H     1 <1>   0.0800 
 35 H       10.9730    -3.2590     0.4080 H     1 <1>   0.0800 
 36 H        9.7570     0.7710    -0.0260 H     1 <1>   0.0800 
 37 H        9.9720    -0.1700    -1.4750 H     1 <1>   0.0800 
 38 H       10.2950    -1.1350     1.2970 H     1 <1>   0.4500 
 39 H       12.2870    -0.5450    -0.7590 H     1 <1>   0.0800 
 40 H       12.5990    -1.5720     0.6260 H     1 <1>   0.0800 
 41 H       11.7630     1.3410     0.7100 H     1 <1>   0.1500 
 42 H       12.7970     1.2910     2.9880 H     1 <1>   0.1500 
 43 H       13.0890    -0.4580     2.8570 H     1 <1>   0.1500 
@<TRIPOS>BOND
  1   1   2  1   
  2   2   3  ar  
  3   2   4  ar  
  4   3   5  ar  
  5   3  22  1   
  6   4   6  ar  
  7   4  23  1   
  8   5   7  ar  
  9   5  24  1   
 10   6   7  ar  
 11   6  25  1   
 12   7   8  1   
 13   8   9  1   
 14   9  10  1   
 15   9  11  1   
 16   9  26  1   
 17  10  12  2   
 18  10  13  am  
 19  11  27  1   
 20  11  28  1   
 21  11  29  1   
 22  13  14  1   
 23  13  15  1   
 24  14  16  1   
 25  14  30  1   
 26  14  31  1   
 27  15  17  1   
 28  15  32  1   
 29  15  33  1   
 30  16  18  1   
 31  16  34  1   
 32  16  35  1   
 33  17  18  1   
 34  17  36  1   
 35  17  37  1   
 36  18  19  1   
 37  18  38  1   
 38  19  20  1   
 39  19  39  1   
 40  19  40  1   
 41  20  21  2   
 42  20  41  1   
 43  21  42  1   
 44  21  43  1   
@<TRIPOS>SUBSTRUCTURE
  1 ****  13 GROUP 4 **** **** 0

# MOE 2024.06 (io_trps.svl 2023.06)
