@<TRIPOS>MOLECULE
NONAME
31 32 1 0 0 
SMALL
USER_CHARGES


@<TRIPOS>ATOM
  1 S       -0.4590    -0.2200    -0.0710 S.o2  1 <1>   1.6260 
  2 O        0.1820    -1.3430    -0.7100 O.2   1 <1>  -0.6500 
  3 O       -1.3970    -0.3340     1.0190 O.2   1 <1>  -0.6500 
  4 N       -1.0560     0.8400    -1.2150 N.2   1 <1>  -0.6380 
  5 N        0.7910     0.7420     0.4580 N.am  1 <1>  -0.9140 
  6 C       -0.6420     1.9880    -0.9510 C.2   1 <1>   0.4390 
  7 C        0.3250     2.0920     0.2420 C.3   1 <1>   0.4800 
  8 N       -1.0220     3.0660    -1.6920 N.pl3 1 <1>  -0.8500 
  9 C        1.4860     3.0700     0.0000 C.ar  1 <1>  -0.1430 
 10 C        1.2340     4.4360     0.1110 C.ar  1 <1>   0.0830 
 11 C        2.7730     2.6510    -0.3270 C.ar  1 <1>  -0.1500 
 12 O       -0.0310     4.8140     0.4420 O.3   1 <1>  -0.3630 
 13 C        2.2450     5.3760    -0.1350 C.ar  1 <1>   0.0830 
 14 C        3.7800     3.5720    -0.5490 C.ar  1 <1>  -0.1500 
 15 C       -0.2080     5.6220     1.5880 C.3   1 <1>   0.0400 
 16 O        1.9420     6.7050    -0.0730 O.3   1 <1>  -0.3630 
 17 C        3.5210     4.9270    -0.4570 C.ar  1 <1>  -0.1500 
 18 C        2.8870     7.7040    -0.3890 C.3   1 <1>   0.0400 
 19 H        1.4830     0.5640    -0.2590 H     1 <1>   0.4200 
 20 H       -0.2370     2.4010     1.1070 H     1 <1>   0.0800 
 21 H       -1.6950     2.9670    -2.4540 H     1 <1>   0.4000 
 22 H       -0.7490     4.0230    -1.4270 H     1 <1>   0.4000 
 23 H        3.0260     1.6100    -0.4130 H     1 <1>   0.1500 
 24 H        4.7710     3.2330    -0.7970 H     1 <1>   0.1500 
 25 H        0.5040     5.3320     2.3410 H     1 <1>   0.0800 
 26 H       -1.2090     5.4770     1.9520 H     1 <1>   0.0800 
 27 H       -0.0690     6.6530     1.3170 H     1 <1>   0.0800 
 28 H        4.3280     5.6090    -0.6430 H     1 <1>   0.1500 
 29 H        3.7080     7.6410     0.3030 H     1 <1>   0.0800 
 30 H        2.4050     8.6600    -0.2960 H     1 <1>   0.0800 
 31 H        3.2220     7.5620    -1.4020 H     1 <1>   0.0800 
@<TRIPOS>BOND
  1   1   2  2   
  2   1   3  2   
  3   1   4  1   
  4   1   5  am  
  5   4   6  2   
  6   5   7  1   
  7   5  19  1   
  8   6   7  1   
  9   6   8  1   
 10   7   9  1   
 11   7  20  1   
 12   8  21  1   
 13   8  22  1   
 14   9  10  ar  
 15   9  11  ar  
 16  10  12  1   
 17  10  13  ar  
 18  11  14  ar  
 19  11  23  1   
 20  12  15  1   
 21  13  16  1   
 22  13  17  ar  
 23  14  17  ar  
 24  14  24  1   
 25  15  25  1   
 26  15  26  1   
 27  15  27  1   
 28  16  18  1   
 29  17  28  1   
 30  18  29  1   
 31  18  30  1   
 32  18  31  1   
@<TRIPOS>SUBSTRUCTURE
  1 ****   9 GROUP 4 **** **** 0

# MOE 2024.06 (io_trps.svl 2023.06)
