@<TRIPOS>MOLECULE
NONAME
37 40 1 0 0 
SMALL
USER_CHARGES


@<TRIPOS>ATOM
  1 O        0.0630     0.4110    -0.8030 O.2   1 <1>  -0.5700 
  2 C        0.2480     1.4240    -0.1780 C.2   1 <1>   0.5690 
  3 N        1.4490     1.9840     0.2420 N.am  1 <1>  -0.2370 
  4 C       -0.8530     2.3030     0.3280 C.3   1 <1>  -0.0190 
  5 C        2.7090     1.3420     0.2500 C.ar  1 <1>   0.1170 
  6 C        1.1950     3.2860     0.6520 C.2   1 <1>   0.5690 
  7 C       -2.3070     2.7070     0.0140 C.3   1 <1>   0.4180 
  8 C       -0.1610     3.6440     0.1380 C.3   1 <1>  -0.0190 
  9 C        3.8810     2.0520     0.0040 C.ar  1 <1>  -0.1500 
 10 C        2.8210    -0.0220     0.5030 C.ar  1 <1>  -0.1500 
 11 O        1.8950     4.0370     1.2800 O.2   1 <1>  -0.5700 
 12 O       -2.1560     3.9500    -0.5920 O.3   1 <1>  -0.5600 
 13 C       -2.8400     3.2190     1.3350 C.2   1 <1>  -0.2880 
 14 C       -3.1940     1.7860    -0.8070 C.3   1 <1>  -0.2400 
 15 C       -1.3340     4.5990     0.3260 C.3   1 <1>   0.4180 
 16 C        5.1100     1.4220     0.0130 C.ar  1 <1>  -0.1500 
 17 C        4.0530    -0.6470     0.5110 C.ar  1 <1>  -0.1500 
 18 C       -2.1890     4.3590     1.5570 C.2   1 <1>  -0.2880 
 19 C       -1.1460     6.0530    -0.0820 C.3   1 <1>  -0.2400 
 20 C        5.2340     0.0550     0.2660 C.ar  1 <1>  -0.1790 
 21 C        6.5330    -0.6070     0.2750 C.2   1 <1>   0.9790 
 22 O        7.5720     0.0290     0.0190 O.co2 1 <1>  -0.9000 
 23 O        6.6270    -1.8200     0.5390 O.co2 1 <1>  -0.9000 
 24 H       -0.8620     2.0300     1.3720 H     1 <1>   0.0800 
 25 H        0.0660     3.7810    -0.9100 H     1 <1>   0.0800 
 26 H        3.8430     3.1070    -0.1940 H     1 <1>   0.1500 
 27 H        1.9430    -0.6110     0.6950 H     1 <1>   0.1500 
 28 H       -3.5640     2.6640     1.9060 H     1 <1>   0.1500 
 29 H       -2.7320     1.5840    -1.7560 H     1 <1>   0.0800 
 30 H       -4.1530     2.2460    -0.9620 H     1 <1>   0.0800 
 31 H       -3.3330     0.8560    -0.2880 H     1 <1>   0.0800 
 32 H        6.0080     1.9870    -0.1780 H     1 <1>   0.1500 
 33 H        4.1210    -1.7040     0.7080 H     1 <1>   0.1500 
 34 H       -2.1960     5.0550     2.3770 H     1 <1>   0.1500 
 35 H       -0.4830     6.5380     0.6110 H     1 <1>   0.0800 
 36 H       -2.0930     6.5600    -0.0680 H     1 <1>   0.0800 
 37 H       -0.7220     6.1160    -1.0680 H     1 <1>   0.0800 
@<TRIPOS>BOND
  1   1   2  2   
  2   2   3  am  
  3   2   4  1   
  4   3   5  1   
  5   3   6  am  
  6   4   7  1   
  7   4   8  1   
  8   4  24  1   
  9   5   9  ar  
 10   5  10  ar  
 11   6   8  1   
 12   6  11  2   
 13   7  12  1   
 14   7  13  1   
 15   7  14  1   
 16   8  15  1   
 17   8  25  1   
 18   9  16  ar  
 19   9  26  1   
 20  10  17  ar  
 21  10  27  1   
 22  12  15  1   
 23  13  18  2   
 24  13  28  1   
 25  14  29  1   
 26  14  30  1   
 27  14  31  1   
 28  15  18  1   
 29  15  19  1   
 30  16  20  ar  
 31  16  32  1   
 32  17  20  ar  
 33  17  33  1   
 34  18  34  1   
 35  19  35  1   
 36  19  36  1   
 37  19  37  1   
 38  20  21  1   
 39  21  22  ar  
 40  21  23  ar  
@<TRIPOS>SUBSTRUCTURE
  1 ****   3 GROUP 4 **** **** 0

# MOE 2024.06 (io_trps.svl 2023.06)
