@<TRIPOS>MOLECULE
NONAME
53 55 1 0 0 
SMALL
USER_CHARGES


@<TRIPOS>ATOM
  1 O        1.6980    -1.7200     1.9980 O.2   1 <1>  -0.5700 
  2 C        1.9100    -1.8220     0.8120 C.2   1 <1>   0.5690 
  3 N        1.2320    -2.7240     0.0300 N.am  1 <1>  -0.6600 
  4 C        2.9810    -0.9010     0.2360 C.3   1 <1>  -0.0190 
  5 C        1.4160    -2.9110    -1.4350 C.3   1 <1>   0.1400 
  6 C        0.1820    -3.5920     0.6350 C.3   1 <1>   0.1400 
  7 C        3.9920    -0.5840     1.3460 C.3   1 <1>   0.3430 
  8 C        2.3690     0.4020    -0.3280 C.3   1 <1>  -0.1600 
  9 C        2.4310    -4.0250    -1.6850 C.3   1 <1>  -0.2400 
 10 C       -1.1780    -2.9090     0.5140 C.3   1 <1>  -0.2400 
 11 N        5.0910     0.3460     0.9010 N.4   1 <1>  -0.9590 
 12 C        3.3980     1.5430    -0.4540 C.3   1 <1>  -0.1600 
 13 C        4.8440     1.0470    -0.4000 C.3   1 <1>   0.3430 
 14 C        6.4170    -0.3300     0.9160 C.3   1 <1>   0.4860 
 15 C        7.4950     0.7190     0.7290 C.ar  1 <1>  -0.1440 
 16 C        8.1800     0.8250    -0.4540 C.ar  1 <1>  -0.1500 
 17 C        7.7920     1.6020     1.7780 C.ar  1 <1>  -0.1500 
 18 C        9.1640     1.8130    -0.6520 C.ar  1 <1>   0.0000 
 19 C        8.7430     2.5700     1.6130 C.ar  1 <1>  -0.1500 
 20 C        9.4480     2.7080     0.4010 C.ar  1 <1>   0.0000 
 21 C        9.8750     1.9450    -1.8620 C.ar  1 <1>  -0.1500 
 22 C       10.4260     3.7020     0.2020 C.ar  1 <1>  -0.1500 
 23 C       10.8190     2.9200    -2.0280 C.ar  1 <1>  -0.1500 
 24 C       11.0970     3.8090    -0.9840 C.ar  1 <1>  -0.1500 
 25 H        3.5060    -1.4260    -0.5370 H     1 <1>   0.0800 
 26 H        1.7480    -1.9990    -1.8960 H     1 <1>   0.0800 
 27 H        0.4740    -3.1730    -1.8870 H     1 <1>   0.0800 
 28 H        0.4030    -3.7700     1.6740 H     1 <1>   0.0800 
 29 H        0.1610    -4.5470     0.1380 H     1 <1>   0.0800 
 30 H        4.4060    -1.5060     1.7220 H     1 <1>   0.0800 
 31 H        3.4520    -0.1240     2.1590 H     1 <1>   0.0800 
 32 H        1.5690     0.7320     0.3160 H     1 <1>   0.0800 
 33 H        1.9320     0.2000    -1.2910 H     1 <1>   0.0800 
 34 H        3.3800    -3.7860    -1.2420 H     1 <1>   0.0800 
 35 H        2.5700    -4.1550    -2.7430 H     1 <1>   0.0800 
 36 H        2.0750    -4.9540    -1.2770 H     1 <1>   0.0800 
 37 H       -1.1640    -1.9660     1.0310 H     1 <1>   0.0800 
 38 H       -1.9330    -3.5290     0.9620 H     1 <1>   0.0800 
 39 H       -1.4380    -2.7490    -0.5170 H     1 <1>   0.0800 
 40 H        5.1560     1.0890     1.6090 H     1 <1>   0.4500 
 41 H        3.2480     2.2580     0.3360 H     1 <1>   0.0800 
 42 H        3.2390     2.0640    -1.3830 H     1 <1>   0.0800 
 43 H        5.0160     0.3690    -1.2200 H     1 <1>   0.0800 
 44 H        5.5230     1.8800    -0.5050 H     1 <1>   0.0800 
 45 H        6.4710    -1.0600     0.1250 H     1 <1>   0.0800 
 46 H        6.5710    -0.8330     1.8580 H     1 <1>   0.0800 
 47 H        7.9870     0.1550    -1.2740 H     1 <1>   0.1500 
 48 H        7.2790     1.5190     2.7210 H     1 <1>   0.1500 
 49 H        8.9770     3.2500     2.4140 H     1 <1>   0.1500 
 50 H        9.6650     1.2610    -2.6650 H     1 <1>   0.1500 
 51 H       10.6400     4.3830     1.0070 H     1 <1>   0.1500 
 52 H       11.3590     3.0170    -2.9540 H     1 <1>   0.1500 
 53 H       11.8440     4.5710    -1.1310 H     1 <1>   0.1500 
@<TRIPOS>BOND
  1   1   2  2   
  2   2   3  am  
  3   2   4  1   
  4   3   5  1   
  5   3   6  1   
  6   4   7  1   
  7   4   8  1   
  8   4  25  1   
  9   5   9  1   
 10   5  26  1   
 11   5  27  1   
 12   6  10  1   
 13   6  28  1   
 14   6  29  1   
 15   7  11  1   
 16   7  30  1   
 17   7  31  1   
 18   8  12  1   
 19   8  32  1   
 20   8  33  1   
 21   9  34  1   
 22   9  35  1   
 23   9  36  1   
 24  10  37  1   
 25  10  38  1   
 26  10  39  1   
 27  11  13  1   
 28  11  14  1   
 29  11  40  1   
 30  12  13  1   
 31  12  41  1   
 32  12  42  1   
 33  13  43  1   
 34  13  44  1   
 35  14  15  1   
 36  14  45  1   
 37  14  46  1   
 38  15  16  ar  
 39  15  17  ar  
 40  16  18  ar  
 41  16  47  1   
 42  17  19  ar  
 43  17  48  1   
 44  18  20  ar  
 45  18  21  ar  
 46  19  20  ar  
 47  19  49  1   
 48  20  22  ar  
 49  21  23  ar  
 50  21  50  1   
 51  22  24  ar  
 52  22  51  1   
 53  23  24  ar  
 54  23  52  1   
 55  24  53  1   
@<TRIPOS>SUBSTRUCTURE
  1 ****  11 GROUP 4 **** **** 0

# MOE 2024.06 (io_trps.svl 2023.06)
