@<TRIPOS>MOLECULE
NONAME
36 37 1 0 0 
SMALL
USER_CHARGES


@<TRIPOS>ATOM
  1 CL      -0.4380     2.5200    -1.7320 Cl    1 <1>  -0.1770 
  2 C       -1.5120     2.1780    -0.3970 C.ar  1 <1>   0.1770 
  3 C       -1.1810     2.5830     0.8940 C.ar  1 <1>   0.0860 
  4 C       -2.6750     1.4820    -0.6720 C.ar  1 <1>  -0.1500 
  5 C        0.0260     3.3210     1.1800 C.2   1 <1>   0.5440 
  6 C       -2.0670     2.2390     1.9160 C.ar  1 <1>  -0.1500 
  7 C       -3.5420     1.1630     0.3580 C.ar  1 <1>  -0.1500 
  8 O        0.8700     2.8540     1.9230 O.2   1 <1>  -0.5700 
  9 N        0.2170     4.5930     0.6670 N.am  1 <1>  -0.2980 
 10 C       -3.2330     1.5410     1.6540 C.ar  1 <1>  -0.1500 
 11 N       -0.7770     5.4060     0.1630 N.2   1 <1>  -0.5120 
 12 C        1.5260     5.3100     0.7330 C.3   1 <1>   0.5800 
 13 C       -0.3190     6.5560    -0.0580 C.2   1 <1>   0.3280 
 14 O        1.8490     5.3970     2.0920 O.3   1 <1>  -0.6800 
 15 C        2.6680     4.6750    -0.1650 C.3   1 <1>   1.0200 
 16 C        1.1450     6.7250     0.2620 C.3   1 <1>  -0.0990 
 17 C       -1.1100     7.7250    -0.6170 C.3   1 <1>  -0.0990 
 18 F        2.3070     4.5450    -1.4400 F     1 <1>  -0.3400 
 19 F        3.0750     3.4690     0.2220 F     1 <1>  -0.3400 
 20 F        3.7660     5.4290    -0.1890 F     1 <1>  -0.3400 
 21 C       -1.2840     8.8550     0.4080 C.3   1 <1>  -0.1600 
 22 C       -2.1300     9.9960    -0.1630 C.3   1 <1>  -0.2400 
 23 H       -2.8960     1.1920    -1.6840 H     1 <1>   0.1500 
 24 H       -1.8320     2.5270     2.9270 H     1 <1>   0.1500 
 25 H       -4.4510     0.6220     0.1540 H     1 <1>   0.1500 
 26 H       -3.9030     1.2900     2.4590 H     1 <1>   0.1500 
 27 H        1.7380     4.4890     2.4620 H     1 <1>   0.4000 
 28 H        1.6790     7.0180    -0.6220 H     1 <1>   0.0800 
 29 H        1.2940     7.4570     1.0350 H     1 <1>   0.0800 
 30 H       -2.0800     7.3660    -0.9140 H     1 <1>   0.0800 
 31 H       -0.6140     8.0970    -1.4960 H     1 <1>   0.0800 
 32 H       -0.3220     9.2440     0.6970 H     1 <1>   0.0800 
 33 H       -1.7640     8.4650     1.2900 H     1 <1>   0.0800 
 34 H       -1.6610    10.4160    -1.0360 H     1 <1>   0.0800 
 35 H       -2.2420    10.7750     0.5720 H     1 <1>   0.0800 
 36 H       -3.1100     9.6410    -0.4320 H     1 <1>   0.0800 
@<TRIPOS>BOND
  1   1   2  1   
  2   2   3  ar  
  3   2   4  ar  
  4   3   5  1   
  5   3   6  ar  
  6   4   7  ar  
  7   4  23  1   
  8   5   8  2   
  9   5   9  am  
 10   6  10  ar  
 11   6  24  1   
 12   7  10  ar  
 13   7  25  1   
 14   9  11  1   
 15   9  12  1   
 16  10  26  1   
 17  11  13  2   
 18  12  14  1   
 19  12  15  1   
 20  12  16  1   
 21  13  16  1   
 22  13  17  1   
 23  14  27  1   
 24  15  18  1   
 25  15  19  1   
 26  15  20  1   
 27  16  28  1   
 28  16  29  1   
 29  17  21  1   
 30  17  30  1   
 31  17  31  1   
 32  21  22  1   
 33  21  32  1   
 34  21  33  1   
 35  22  34  1   
 36  22  35  1   
 37  22  36  1   
@<TRIPOS>SUBSTRUCTURE
  1 ****   9 GROUP 4 **** **** 0

# MOE 2024.06 (io_trps.svl 2023.06)
