@<TRIPOS>MOLECULE
NONAME
49 51 1 0 0 
SMALL
USER_CHARGES


@<TRIPOS>ATOM
  1 O        0.4900    -0.2780    -0.2310 O.2   1 <1>  -0.5700 
  2 C        0.8480    -1.4230    -0.0410 C.2   1 <1>   0.6340 
  3 O        2.1540    -1.6570     0.1460 O.3   1 <1>  -0.4300 
  4 C       -0.0560    -2.5540    -0.0100 C.ar  1 <1>   0.0860 
  5 C        3.1060    -0.6120     0.1330 C.3   1 <1>   0.0400 
  6 C       -1.4390    -2.3800    -0.1210 C.ar  1 <1>  -0.1500 
  7 C        0.4070    -3.8660     0.1300 C.ar  1 <1>  -0.1500 
  8 C       -2.3200    -3.4480    -0.0950 C.ar  1 <1>   0.1170 
  9 C       -0.4590    -4.9410     0.1520 C.ar  1 <1>  -0.1500 
 10 N       -3.7140    -3.3270    -0.2060 N.am  1 <1>  -0.5470 
 11 C       -1.8290    -4.7550     0.0340 C.ar  1 <1>   0.1000 
 12 C       -4.6000    -2.2840    -0.1260 C.2   1 <1>   0.5440 
 13 N       -2.7090    -5.8430     0.0530 N.pl3 1 <1>  -0.8380 
 14 O       -4.2010    -1.1680     0.1420 O.2   1 <1>  -0.5700 
 15 C       -6.0150    -2.5320    -0.3320 C.ar  1 <1>   0.0860 
 16 C       -2.5200    -6.9000    -0.9880 C.3   1 <1>   0.2090 
 17 C       -2.9900    -6.4340     1.3960 C.3   1 <1>   0.2090 
 18 C       -6.9800    -1.6830     0.2160 C.ar  1 <1>  -0.1500 
 19 C       -6.4790    -3.6210    -1.0770 C.ar  1 <1>  -0.1500 
 20 C       -3.6780    -7.9130    -0.9530 C.3   1 <1>   0.1200 
 21 C       -4.1210    -7.4760     1.3110 C.3   1 <1>   0.1200 
 22 C       -8.3330    -1.9080     0.0480 C.ar  1 <1>  -0.1500 
 23 C       -7.8310    -3.8550    -1.2490 C.ar  1 <1>  -0.1500 
 24 O       -3.8410    -8.4420     0.3350 O.3   1 <1>  -0.5600 
 25 C       -8.7700    -3.0050    -0.6880 C.ar  1 <1>   0.0830 
 26 O      -10.0710    -3.3030    -0.9010 O.3   1 <1>  -0.3620 
 27 C      -11.1100    -2.4900    -0.4010 C.3   1 <1>   0.0400 
 28 H        4.0790    -1.0340     0.3050 H     1 <1>   0.0800 
 29 H        2.8620     0.0900     0.9110 H     1 <1>   0.0800 
 30 H        3.0750    -0.1260    -0.8270 H     1 <1>   0.0800 
 31 H       -1.8210    -1.3810    -0.2310 H     1 <1>   0.1500 
 32 H        1.4640    -4.0470     0.2230 H     1 <1>   0.1500 
 33 H       -0.0710    -5.9370     0.2640 H     1 <1>   0.1500 
 34 H       -4.1220    -4.2650    -0.2430 H     1 <1>   0.3700 
 35 H       -1.5940    -7.4210    -0.8160 H     1 <1>   0.0800 
 36 H       -2.4720    -6.4390    -1.9590 H     1 <1>   0.0800 
 37 H       -3.2720    -5.6510     2.0790 H     1 <1>   0.0800 
 38 H       -2.1020    -6.9070     1.7770 H     1 <1>   0.0800 
 39 H       -6.6520    -0.8300     0.7860 H     1 <1>   0.1500 
 40 H       -5.7780    -4.2930    -1.5380 H     1 <1>   0.1500 
 41 H       -3.4750    -8.7310    -1.6200 H     1 <1>   0.0800 
 42 H       -4.5990    -7.4430    -1.2510 H     1 <1>   0.0800 
 43 H       -5.0540    -6.9990     1.0660 H     1 <1>   0.0800 
 44 H       -4.2290    -7.9830     2.2530 H     1 <1>   0.0800 
 45 H       -9.0310    -1.2240     0.4930 H     1 <1>   0.1500 
 46 H       -8.1730    -4.6970    -1.8230 H     1 <1>   0.1500 
 47 H      -12.0470    -2.9210    -0.7050 H     1 <1>   0.0800 
 48 H      -11.0110    -1.5030    -0.8170 H     1 <1>   0.0800 
 49 H      -11.0490    -2.4650     0.6720 H     1 <1>   0.0800 
@<TRIPOS>BOND
  1   1   2  2   
  2   2   3  1   
  3   2   4  1   
  4   3   5  1   
  5   4   6  ar  
  6   4   7  ar  
  7   5  28  1   
  8   5  29  1   
  9   5  30  1   
 10   6   8  ar  
 11   6  31  1   
 12   7   9  ar  
 13   7  32  1   
 14   8  10  1   
 15   8  11  ar  
 16   9  11  ar  
 17   9  33  1   
 18  10  12  am  
 19  10  34  1   
 20  11  13  1   
 21  12  14  2   
 22  12  15  1   
 23  13  16  1   
 24  13  17  1   
 25  15  18  ar  
 26  15  19  ar  
 27  16  20  1   
 28  16  35  1   
 29  16  36  1   
 30  17  21  1   
 31  17  37  1   
 32  17  38  1   
 33  18  22  ar  
 34  18  39  1   
 35  19  23  ar  
 36  19  40  1   
 37  20  24  1   
 38  20  41  1   
 39  20  42  1   
 40  21  24  1   
 41  21  43  1   
 42  21  44  1   
 43  22  25  ar  
 44  22  45  1   
 45  23  25  ar  
 46  23  46  1   
 47  25  26  1   
 48  26  27  1   
 49  27  47  1   
 50  27  48  1   
 51  27  49  1   
@<TRIPOS>SUBSTRUCTURE
  1 ****  10 GROUP 4 **** **** 0

# MOE 2024.06 (io_trps.svl 2023.06)
