@<TRIPOS>MOLECULE
NONAME
42 45 1 0 0 
SMALL
USER_CHARGES


@<TRIPOS>ATOM
  1 O       -0.0850     0.6240    -0.5920 O.3   1 <1>  -0.3630 
  2 C        0.9820     0.3160     0.1880 C.ar  1 <1>   0.0830 
  3 C       -0.6860     1.8980    -0.5330 C.3   1 <1>   0.1200 
  4 C        1.4520    -0.9860     0.1150 C.ar  1 <1>  -0.1500 
  5 C        1.6080     1.2230     1.0390 C.ar  1 <1>  -0.1500 
  6 C       -1.9050     1.8930    -1.4490 C.3   1 <1>   0.0960 
  7 C        2.5320    -1.3860     0.8810 C.ar  1 <1>  -0.1500 
  8 C        2.6890     0.8210     1.8050 C.ar  1 <1>  -0.1500 
  9 N       -2.5640     3.2070    -1.3990 N.pl3 1 <1>   0.3140 
 10 C        3.1510    -0.4820     1.7280 C.ar  1 <1>  -0.1500 
 11 N       -2.4840     4.1020    -2.4130 N.2   1 <1>  -0.7070 
 12 C       -3.2990     3.6930    -0.3630 C.ar  1 <1>   0.1050 
 13 C       -3.1710     5.1190    -2.0040 C.2   1 <1>   0.1390 
 14 N       -3.6110     3.1170     0.8070 N.ar  1 <1>  -0.5670 
 15 C       -3.7050     4.9470    -0.7170 C.ar  1 <1>   0.0000 
 16 C       -4.3560     3.8640     1.5810 C.ar  1 <1>   0.4700 
 17 C       -4.4820     5.6610     0.2110 C.ar  1 <1>   0.4100 
 18 N       -4.8160     5.1020     1.3530 N.ar  1 <1>  -0.6200 
 19 N       -4.9230     6.9480    -0.0310 N.pl3 1 <1>  -0.8380 
 20 C       -5.8910     7.6260     0.8660 C.3   1 <1>   0.2090 
 21 C       -4.1550     7.9450    -0.8110 C.3   1 <1>   0.2090 
 22 C       -5.8980     9.0790     0.4080 C.3   1 <1>  -0.1600 
 23 C       -4.5130     9.2910    -0.1920 C.3   1 <1>  -0.1600 
 24 H        0.0330     2.6280    -0.8630 H     1 <1>   0.0800 
 25 H       -0.9810     2.0830     0.4860 H     1 <1>   0.0800 
 26 H        0.9670    -1.6820    -0.5450 H     1 <1>   0.1500 
 27 H        1.2740     2.2400     1.1200 H     1 <1>   0.1500 
 28 H       -2.6070     1.1480    -1.1260 H     1 <1>   0.0800 
 29 H       -1.6070     1.6980    -2.4620 H     1 <1>   0.0800 
 30 H        2.8900    -2.3990     0.8190 H     1 <1>   0.1500 
 31 H        3.1730     1.5220     2.4630 H     1 <1>   0.1500 
 32 H        3.9910    -0.7920     2.3250 H     1 <1>   0.1500 
 33 H       -3.3210     6.0060    -2.5940 H     1 <1>   0.1500 
 34 H       -4.6430     3.4400     2.5290 H     1 <1>   0.1500 
 35 H       -5.5460     7.5590     1.8840 H     1 <1>   0.0800 
 36 H       -6.8660     7.1750     0.7840 H     1 <1>   0.0800 
 37 H       -4.4810     7.9130    -1.8370 H     1 <1>   0.0800 
 38 H       -3.0960     7.7580    -0.7530 H     1 <1>   0.0800 
 39 H       -6.1030     9.7510     1.2220 H     1 <1>   0.0800 
 40 H       -6.6510     9.2000    -0.3500 H     1 <1>   0.0800 
 41 H       -4.4960    10.0830    -0.9190 H     1 <1>   0.0800 
 42 H       -3.8060     9.5130     0.5880 H     1 <1>   0.0800 
@<TRIPOS>BOND
  1   1   2  1   
  2   1   3  1   
  3   2   4  ar  
  4   2   5  ar  
  5   3   6  1   
  6   3  24  1   
  7   3  25  1   
  8   4   7  ar  
  9   4  26  1   
 10   5   8  ar  
 11   5  27  1   
 12   6   9  1   
 13   6  28  1   
 14   6  29  1   
 15   7  10  ar  
 16   7  30  1   
 17   8  10  ar  
 18   8  31  1   
 19   9  11  1   
 20   9  12  1   
 21  10  32  1   
 22  11  13  2   
 23  12  14  ar  
 24  12  15  ar  
 25  13  15  1   
 26  13  33  1   
 27  14  16  ar  
 28  15  17  ar  
 29  16  18  ar  
 30  16  34  1   
 31  17  18  ar  
 32  17  19  1   
 33  19  20  1   
 34  19  21  1   
 35  20  22  1   
 36  20  35  1   
 37  20  36  1   
 38  21  23  1   
 39  21  37  1   
 40  21  38  1   
 41  22  23  1   
 42  22  39  1   
 43  22  40  1   
 44  23  41  1   
 45  23  42  1   
@<TRIPOS>SUBSTRUCTURE
  1 ****  12 GROUP 4 **** **** 0

# MOE 2024.06 (io_trps.svl 2023.06)
