@<TRIPOS>MOLECULE
NONAME
35 36 1 0 0 
SMALL
USER_CHARGES


@<TRIPOS>ATOM
  1 BR      -0.0200     0.3080    -0.4360 Br    1 <1>  -0.1110 
  2 C        1.7810     0.9660    -0.2610 C.ar  1 <1>   0.1110 
  3 C        1.9800     2.2250     0.2720 C.ar  1 <1>  -0.1500 
  4 C        2.8260     0.1620    -0.6730 C.ar  1 <1>  -0.1500 
  5 C        3.2780     2.6910     0.3940 C.ar  1 <1>  -0.1500 
  6 C        4.1220     0.6370    -0.5470 C.ar  1 <1>  -0.1500 
  7 C        4.3500     1.9060    -0.0110 C.ar  1 <1>   0.0830 
  8 O        5.5860     2.4450     0.1480 O.3   1 <1>  -0.3630 
  9 C        6.7480     1.7350    -0.2020 C.3   1 <1>   0.1200 
 10 C        7.9420     2.6430     0.1130 C.3   1 <1>   0.3430 
 11 N        9.2610     2.0250    -0.2470 N.4   1 <1>  -0.9590 
 12 C        9.5920     0.8470     0.6150 C.3   1 <1>   0.3430 
 13 C       10.3400     3.0560    -0.1830 C.3   1 <1>   0.3430 
 14 C       10.8900     0.2010     0.1280 C.3   1 <1>  -0.1600 
 15 C       11.6550     2.4600    -0.6890 C.3   1 <1>  -0.1600 
 16 C       12.0500     1.2050     0.1000 C.3   1 <1>  -0.1600 
 17 H        1.1410     2.8230     0.5820 H     1 <1>   0.1500 
 18 H        2.6250    -0.8120    -1.0830 H     1 <1>   0.1500 
 19 H        3.4630     3.6670     0.8050 H     1 <1>   0.1500 
 20 H        4.9260     0.0050    -0.8710 H     1 <1>   0.1500 
 21 H        6.7000     1.5140    -1.2540 H     1 <1>   0.0800 
 22 H        6.7730     0.8340     0.3850 H     1 <1>   0.0800 
 23 H        7.9300     2.8820     1.1640 H     1 <1>   0.0800 
 24 H        7.8160     3.5580    -0.4420 H     1 <1>   0.0800 
 25 H        9.2250     1.6980    -1.2220 H     1 <1>   0.4500 
 26 H        8.7980     0.1190     0.5770 H     1 <1>   0.0800 
 27 H        9.7120     1.1660     1.6380 H     1 <1>   0.0800 
 28 H       10.4650     3.3920     0.8340 H     1 <1>   0.0800 
 29 H       10.0760     3.9070    -0.7920 H     1 <1>   0.0800 
 30 H       10.7390    -0.2140    -0.8540 H     1 <1>   0.0800 
 31 H       11.1440    -0.6150     0.7840 H     1 <1>   0.0800 
 32 H       12.4340     3.1970    -0.5950 H     1 <1>   0.0800 
 33 H       11.5630     2.2230    -1.7350 H     1 <1>   0.0800 
 34 H       12.9190     0.7490    -0.3460 H     1 <1>   0.0800 
 35 H       12.3090     1.4820     1.1090 H     1 <1>   0.0800 
@<TRIPOS>BOND
  1   1   2  1   
  2   2   3  ar  
  3   2   4  ar  
  4   3   5  ar  
  5   3  17  1   
  6   4   6  ar  
  7   4  18  1   
  8   5   7  ar  
  9   5  19  1   
 10   6   7  ar  
 11   6  20  1   
 12   7   8  1   
 13   8   9  1   
 14   9  10  1   
 15   9  21  1   
 16   9  22  1   
 17  10  11  1   
 18  10  23  1   
 19  10  24  1   
 20  11  12  1   
 21  11  13  1   
 22  11  25  1   
 23  12  14  1   
 24  12  26  1   
 25  12  27  1   
 26  13  15  1   
 27  13  28  1   
 28  13  29  1   
 29  14  16  1   
 30  14  30  1   
 31  14  31  1   
 32  15  16  1   
 33  15  32  1   
 34  15  33  1   
 35  16  34  1   
 36  16  35  1   
@<TRIPOS>SUBSTRUCTURE
  1 ****   9 GROUP 4 **** **** 0

# MOE 2024.06 (io_trps.svl 2023.06)
