@<TRIPOS>MOLECULE
NONAME
56 58 1 0 0 
SMALL
USER_CHARGES


@<TRIPOS>ATOM
  1 F       -3.0040    -0.5620    -0.9500 F     1 <1>  -0.1900 
  2 C       -3.0950     0.7180    -0.7140 C.ar  1 <1>   0.1900 
  3 C       -3.6820     1.5320    -1.6620 C.ar  1 <1>  -0.1500 
  4 C       -2.6000     1.2130     0.4770 C.ar  1 <1>  -0.1500 
  5 C       -3.7810     2.8890    -1.4040 C.ar  1 <1>  -0.1500 
  6 C       -2.7030     2.5710     0.7270 C.ar  1 <1>  -0.1500 
  7 C       -3.2980     3.4120    -0.2090 C.ar  1 <1>  -0.1430 
  8 C       -3.4270     4.8970     0.0800 C.3   1 <1>   0.4870 
  9 N       -4.8500     5.2020     0.3730 N.4   1 <1>  -0.9590 
 10 C       -5.1620     6.6650     0.4790 C.3   1 <1>   0.3430 
 11 C       -5.4120     4.4490     1.5430 C.3   1 <1>   0.3430 
 12 C       -6.6710     6.9040     0.7400 C.3   1 <1>   0.1100 
 13 C       -6.9420     4.6530     1.6400 C.3   1 <1>   0.1100 
 14 N       -7.4590     5.6520     0.6620 N.3   1 <1>  -0.8100 
 15 C       -8.9130     5.9100     0.9010 C.3   1 <1>   0.1710 
 16 C       -9.7900     4.6540     0.8540 C.2   1 <1>   0.5690 
 17 O      -10.1860     4.1990     1.9000 O.2   1 <1>  -0.5700 
 18 N      -10.0490     4.0830    -0.3560 N.am  1 <1>  -0.7300 
 19 C      -10.8200     2.8500    -0.6310 C.3   1 <1>   0.2200 
 20 C      -12.2930     3.0760    -0.2640 C.3   1 <1>  -0.1600 
 21 C      -10.1460     1.6520     0.0560 C.3   1 <1>  -0.1600 
 22 C      -13.2120     1.8690    -0.5170 C.3   1 <1>  -0.1600 
 23 C      -10.6110     0.3060    -0.5240 C.3   1 <1>  -0.1600 
 24 C      -12.9830     0.7400     0.4970 C.3   1 <1>  -0.1600 
 25 C      -11.8870    -0.2670     0.1140 C.3   1 <1>  -0.1600 
 26 H       -4.0490     1.1050    -2.5790 H     1 <1>   0.1500 
 27 H       -2.1440     0.5430     1.1860 H     1 <1>   0.1500 
 28 H       -4.2340     3.5240    -2.1470 H     1 <1>   0.1500 
 29 H       -2.3120     2.9580     1.6530 H     1 <1>   0.1500 
 30 H       -3.0980     5.4560    -0.7810 H     1 <1>   0.0800 
 31 H       -2.8070     5.1650     0.9200 H     1 <1>   0.0800 
 32 H       -5.4280     4.8680    -0.4120 H     1 <1>   0.4500 
 33 H       -4.8870     7.1620    -0.4380 H     1 <1>   0.0800 
 34 H       -4.5920     7.1110     1.2770 H     1 <1>   0.0800 
 35 H       -4.9500     4.7850     2.4560 H     1 <1>   0.0800 
 36 H       -5.2110     3.3940     1.4410 H     1 <1>   0.0800 
 37 H       -7.0430     7.6100     0.0160 H     1 <1>   0.0800 
 38 H       -6.7920     7.3490     1.7140 H     1 <1>   0.0800 
 39 H       -7.1930     4.9530     2.6440 H     1 <1>   0.0800 
 40 H       -7.4190     3.7020     1.4660 H     1 <1>   0.0800 
 41 H       -9.2790     6.5970     0.1590 H     1 <1>   0.0800 
 42 H       -9.0460     6.3680     1.8650 H     1 <1>   0.0800 
 43 H       -9.6210     4.5000    -1.1820 H     1 <1>   0.3700 
 44 H      -10.7750     2.6840    -1.6940 H     1 <1>   0.0800 
 45 H      -12.6580     3.9010    -0.8500 H     1 <1>   0.0800 
 46 H      -12.3690     3.3570     0.7720 H     1 <1>   0.0800 
 47 H      -10.3140     1.6780     1.1180 H     1 <1>   0.0800 
 48 H       -9.0870     1.7270    -0.1130 H     1 <1>   0.0800 
 49 H      -13.1050     1.5060    -1.5250 H     1 <1>   0.0800 
 50 H      -14.2270     2.2090    -0.4060 H     1 <1>   0.0800 
 51 H       -9.8260    -0.4170    -0.3880 H     1 <1>   0.0800 
 52 H      -10.7570     0.4040    -1.5860 H     1 <1>   0.0800 
 53 H      -13.9020     0.1920     0.6150 H     1 <1>   0.0800 
 54 H      -12.7550     1.1650     1.4600 H     1 <1>   0.0800 
 55 H      -11.6120    -0.8050     1.0050 H     1 <1>   0.0800 
 56 H      -12.3030    -0.9880    -0.5690 H     1 <1>   0.0800 
@<TRIPOS>BOND
  1   1   2  1   
  2   2   3  ar  
  3   2   4  ar  
  4   3   5  ar  
  5   3  26  1   
  6   4   6  ar  
  7   4  27  1   
  8   5   7  ar  
  9   5  28  1   
 10   6   7  ar  
 11   6  29  1   
 12   7   8  1   
 13   8   9  1   
 14   8  30  1   
 15   8  31  1   
 16   9  10  1   
 17   9  11  1   
 18   9  32  1   
 19  10  12  1   
 20  10  33  1   
 21  10  34  1   
 22  11  13  1   
 23  11  35  1   
 24  11  36  1   
 25  12  14  1   
 26  12  37  1   
 27  12  38  1   
 28  13  14  1   
 29  13  39  1   
 30  13  40  1   
 31  14  15  1   
 32  15  16  1   
 33  15  41  1   
 34  15  42  1   
 35  16  17  2   
 36  16  18  am  
 37  18  19  1   
 38  18  43  1   
 39  19  20  1   
 40  19  21  1   
 41  19  44  1   
 42  20  22  1   
 43  20  45  1   
 44  20  46  1   
 45  21  23  1   
 46  21  47  1   
 47  21  48  1   
 48  22  24  1   
 49  22  49  1   
 50  22  50  1   
 51  23  25  1   
 52  23  51  1   
 53  23  52  1   
 54  24  25  1   
 55  24  53  1   
 56  24  54  1   
 57  25  55  1   
 58  25  56  1   
@<TRIPOS>SUBSTRUCTURE
  1 ****  13 GROUP 4 **** **** 0

# MOE 2024.06 (io_trps.svl 2023.06)
