@<TRIPOS>MOLECULE
NONAME
53 55 1 0 0 
SMALL
USER_CHARGES


@<TRIPOS>ATOM
  1 O       -0.2370    -9.2820    -0.0100 O.3   1 <1>  -0.3630 
  2 C       -0.3630   -10.6310    -0.0650 C.ar  1 <1>   0.0830 
  3 C       -1.0310    -8.5100     0.8640 C.3   1 <1>   0.1200 
  4 C       -1.2530   -11.3590     0.7210 C.ar  1 <1>  -0.1500 
  5 C        0.4490   -11.3000    -0.9660 C.ar  1 <1>  -0.1500 
  6 C       -0.7010    -7.0350     0.6260 C.3   1 <1>   0.2000 
  7 C       -1.3210   -12.7350     0.5950 C.ar  1 <1>  -0.1500 
  8 C        0.3770   -12.6760    -1.0890 C.ar  1 <1>  -0.1500 
  9 O       -1.5720    -6.2560     1.3840 O.3   1 <1>  -0.6800 
 10 C       -0.8450    -6.6860    -0.8790 C.3   1 <1>   0.3430 
 11 C       -0.5080   -13.4020    -0.3080 C.ar  1 <1>  -0.1440 
 12 N       -0.3210    -5.3360    -1.3050 N.4   1 <1>  -0.9590 
 13 C       -0.5890   -14.9140    -0.4440 C.3   1 <1>  -0.0170 
 14 C        1.1800    -5.2520    -1.1850 C.3   1 <1>   0.3430 
 15 C       -0.9540    -4.1930    -0.5440 C.3   1 <1>   0.3430 
 16 C       -1.6290   -15.3030    -1.4970 C.3   1 <1>  -0.2400 
 17 C        1.7370    -3.8900    -1.6570 C.3   1 <1>   0.2090 
 18 C       -0.4370    -2.8140    -1.0080 C.3   1 <1>   0.2090 
 19 N        1.0550    -2.7480    -0.9760 N.pl3 1 <1>  -0.8380 
 20 C        1.5940    -2.3770     0.2370 C.ar  1 <1>   0.4100 
 21 N        1.5640    -3.2930     1.1990 N.ar  1 <1>  -0.6200 
 22 C        2.1210    -1.1000     0.3960 C.ar  1 <1>  -0.1500 
 23 C        2.0820    -2.9120     2.3580 C.ar  1 <1>   0.1600 
 24 C        2.6530    -0.7220     1.6060 C.ar  1 <1>  -0.1500 
 25 C        2.6280    -1.6660     2.6120 C.ar  1 <1>  -0.1500 
 26 H       -0.7980    -8.7990     1.8740 H     1 <1>   0.0800 
 27 H       -2.0660    -8.7070     0.6400 H     1 <1>   0.0800 
 28 H       -1.8990   -10.8830     1.4340 H     1 <1>   0.1500 
 29 H        1.1400   -10.7440    -1.5730 H     1 <1>   0.1500 
 30 H        0.3020    -6.8410     0.9650 H     1 <1>   0.0800 
 31 H       -2.0140   -13.2910     1.2030 H     1 <1>   0.1500 
 32 H        1.0130   -13.1820    -1.7940 H     1 <1>   0.1500 
 33 H       -1.4410    -6.4110     2.3440 H     1 <1>   0.4000 
 34 H       -1.8880    -6.7650    -1.1350 H     1 <1>   0.0800 
 35 H       -0.3250    -7.4420    -1.4440 H     1 <1>   0.0800 
 36 H       -0.5560    -5.2010    -2.2950 H     1 <1>   0.4500 
 37 H       -0.8540   -15.3500     0.5040 H     1 <1>   0.0800 
 38 H        0.3730   -15.3050    -0.7240 H     1 <1>   0.0800 
 39 H        1.6410    -6.0390    -1.7580 H     1 <1>   0.0800 
 40 H        1.4660    -5.3830    -0.1540 H     1 <1>   0.0800 
 41 H       -0.7200    -4.2870     0.5030 H     1 <1>   0.0800 
 42 H       -2.0250    -4.2290    -0.6450 H     1 <1>   0.0800 
 43 H       -2.5980   -14.9310    -1.2170 H     1 <1>   0.0800 
 44 H       -1.6810   -16.3730    -1.5880 H     1 <1>   0.0800 
 45 H       -1.3630   -14.8870    -2.4520 H     1 <1>   0.0800 
 46 H        1.6170    -3.7920    -2.7220 H     1 <1>   0.0800 
 47 H        2.7920    -3.8500    -1.4440 H     1 <1>   0.0800 
 48 H       -0.8410    -2.0540    -0.3600 H     1 <1>   0.0800 
 49 H       -0.7830    -2.6070    -2.0060 H     1 <1>   0.0800 
 50 H        2.1040    -0.4230    -0.4370 H     1 <1>   0.1500 
 51 H        2.0720    -3.6330     3.1580 H     1 <1>   0.1500 
 52 H        3.0690     0.2580     1.7620 H     1 <1>   0.1500 
 53 H        3.0280    -1.4360     3.5840 H     1 <1>   0.1500 
@<TRIPOS>BOND
  1   1   2  1   
  2   1   3  1   
  3   2   4  ar  
  4   2   5  ar  
  5   3   6  1   
  6   3  26  1   
  7   3  27  1   
  8   4   7  ar  
  9   4  28  1   
 10   5   8  ar  
 11   5  29  1   
 12   6   9  1   
 13   6  10  1   
 14   6  30  1   
 15   7  11  ar  
 16   7  31  1   
 17   8  11  ar  
 18   8  32  1   
 19   9  33  1   
 20  10  12  1   
 21  10  34  1   
 22  10  35  1   
 23  11  13  1   
 24  12  14  1   
 25  12  15  1   
 26  12  36  1   
 27  13  16  1   
 28  13  37  1   
 29  13  38  1   
 30  14  17  1   
 31  14  39  1   
 32  14  40  1   
 33  15  18  1   
 34  15  41  1   
 35  15  42  1   
 36  16  43  1   
 37  16  44  1   
 38  16  45  1   
 39  17  19  1   
 40  17  46  1   
 41  17  47  1   
 42  18  19  1   
 43  18  48  1   
 44  18  49  1   
 45  19  20  1   
 46  20  21  ar  
 47  20  22  ar  
 48  21  23  ar  
 49  22  24  ar  
 50  22  50  1   
 51  23  25  ar  
 52  23  51  1   
 53  24  25  ar  
 54  24  52  1   
 55  25  53  1   
@<TRIPOS>SUBSTRUCTURE
  1 ****   6 GROUP 4 **** **** 0

# MOE 2024.06 (io_trps.svl 2023.06)
