@<TRIPOS>MOLECULE
NONAME
36 36 1 0 0 
SMALL
USER_CHARGES


@<TRIPOS>ATOM
  1 O        0.4070    -1.3430     3.1130 O.2   1 <1>  -0.5700 
  2 C        0.1120    -2.0970     2.2030 C.2   1 <1>   0.6900 
  3 N        0.9450    -2.9730     1.6140 N.am  1 <1>  -0.5390 
  4 N       -1.0940    -2.1930     1.6130 N.am  1 <1>  -0.5390 
  5 C        0.2480    -3.6560     0.5990 C.2   1 <1>   0.1230 
  6 C       -1.0170    -3.1470     0.6280 C.2   1 <1>  -0.0290 
  7 C        0.8440    -4.6620    -0.2440 C.2   1 <1>   0.4950 
  8 C       -2.2440    -3.4620    -0.2080 C.3   1 <1>  -0.1020 
  9 O        0.2530    -5.2400    -1.1230 O.2   1 <1>  -0.5700 
 10 C        2.3080    -5.0320    -0.0460 C.3   1 <1>  -0.0990 
 11 C        3.2500    -4.0140    -0.7090 C.3   1 <1>  -0.1600 
 12 C        4.7210    -4.3700    -0.4580 C.3   1 <1>  -0.1600 
 13 C        5.6600    -3.3380    -1.1040 C.3   1 <1>  -0.0990 
 14 C        7.1200    -3.6690    -0.8670 C.2   1 <1>   0.6590 
 15 O        7.8310    -4.0560    -1.7570 O.2   1 <1>  -0.5700 
 16 O        7.5580    -3.5060     0.3740 O.3   1 <1>  -0.4300 
 17 C        8.8950    -3.7820     0.7190 C.3   1 <1>   0.1200 
 18 C        9.0660    -3.5080     2.2100 C.3   1 <1>  -0.2400 
 19 H        1.9170    -3.0610     1.9020 H     1 <1>   0.3700 
 20 H       -1.8830    -1.6150     1.9030 H     1 <1>   0.3700 
 21 H       -2.5660    -2.5800    -0.7310 H     1 <1>   0.0800 
 22 H       -3.0420    -3.8020     0.4270 H     1 <1>   0.0800 
 23 H       -2.0370    -4.2280    -0.9310 H     1 <1>   0.0800 
 24 H        2.4750    -6.0040    -0.4780 H     1 <1>   0.0800 
 25 H        2.5170    -5.1090     1.0050 H     1 <1>   0.0800 
 26 H        3.0500    -3.0280    -0.3250 H     1 <1>   0.0800 
 27 H        3.0590    -4.0000    -1.7700 H     1 <1>   0.0800 
 28 H        4.9330    -5.3440    -0.8670 H     1 <1>   0.0800 
 29 H        4.9110    -4.4050     0.6020 H     1 <1>   0.0800 
 30 H        5.4680    -2.3600    -0.7040 H     1 <1>   0.0800 
 31 H        5.4890    -3.3060    -2.1650 H     1 <1>   0.0800 
 32 H        9.5370    -3.1460     0.1320 H     1 <1>   0.0800 
 33 H        9.1010    -4.8140     0.4890 H     1 <1>   0.0800 
 34 H        8.8490    -2.4770     2.4250 H     1 <1>   0.0800 
 35 H       10.0810    -3.7110     2.5010 H     1 <1>   0.0800 
 36 H        8.4130    -4.1410     2.7810 H     1 <1>   0.0800 
@<TRIPOS>BOND
  1   1   2  2   
  2   2   3  am  
  3   2   4  am  
  4   3   5  1   
  5   3  19  1   
  6   4   6  1   
  7   4  20  1   
  8   5   6  2   
  9   5   7  1   
 10   6   8  1   
 11   7   9  2   
 12   7  10  1   
 13   8  21  1   
 14   8  22  1   
 15   8  23  1   
 16  10  11  1   
 17  10  24  1   
 18  10  25  1   
 19  11  12  1   
 20  11  26  1   
 21  11  27  1   
 22  12  13  1   
 23  12  28  1   
 24  12  29  1   
 25  13  14  1   
 26  13  30  1   
 27  13  31  1   
 28  14  15  2   
 29  14  16  1   
 30  16  17  1   
 31  17  18  1   
 32  17  32  1   
 33  17  33  1   
 34  18  34  1   
 35  18  35  1   
 36  18  36  1   
@<TRIPOS>SUBSTRUCTURE
  1 ****  11 GROUP 4 **** **** 0

# MOE 2024.06 (io_trps.svl 2023.06)
