@<TRIPOS>MOLECULE
NONAME
42 44 1 0 0 
SMALL
USER_CHARGES


@<TRIPOS>ATOM
  1 CL       1.4270    -1.2550    -3.6460 Cl    1 <1>  -0.1770 
  2 C        1.8060    -2.1170    -2.1760 C.ar  1 <1>   0.1770 
  3 C        3.0030    -1.8750    -1.5360 C.ar  1 <1>  -0.1500 
  4 C        0.9000    -3.0340    -1.6820 C.ar  1 <1>  -0.1500 
  5 C        3.3190    -2.5570    -0.3650 C.ar  1 <1>   0.1170 
  6 C        1.2060    -3.7200    -0.5190 C.ar  1 <1>  -0.1500 
  7 N        4.5380    -2.3440     0.2950 N.am  1 <1>  -0.5470 
  8 C        2.4050    -3.4890     0.1400 C.ar  1 <1>  -0.1430 
  9 C        5.3490    -1.2490     0.3570 C.2   1 <1>   0.6900 
 10 C        2.6970    -4.2610     1.4210 C.3   1 <1>  -0.0960 
 11 O        4.9900    -0.1750    -0.0880 O.2   1 <1>  -0.5700 
 12 N        6.5700    -1.3740     0.9650 N.am  1 <1>  -0.6600 
 13 C        7.3720    -0.1630     1.3320 C.3   1 <1>   0.1400 
 14 C        7.3880    -2.6300     0.9240 C.3   1 <1>   0.1400 
 15 C        8.6080    -0.0160     0.4290 C.3   1 <1>   0.2090 
 16 C        8.6380    -2.4600     0.0430 C.3   1 <1>   0.2090 
 17 N        9.4310    -1.2610     0.4500 N.pl3 1 <1>  -0.8380 
 18 C       10.7340    -1.1570     0.0010 C.ar  1 <1>   0.4100 
 19 N       11.0310    -1.7390    -1.1560 N.ar  1 <1>  -0.6200 
 20 C       11.6670    -0.4540     0.7600 C.ar  1 <1>  -0.1500 
 21 C       12.2820    -1.6100    -1.5640 C.ar  1 <1>   0.1600 
 22 C       12.9650    -0.3280     0.3240 C.ar  1 <1>  -0.1500 
 23 C       13.2730    -0.9290    -0.8790 C.ar  1 <1>  -0.1500 
 24 H        3.6840    -1.1570    -1.9520 H     1 <1>   0.1500 
 25 H       -0.0260    -3.2050    -2.2000 H     1 <1>   0.1500 
 26 H        0.4980    -4.4340    -0.1330 H     1 <1>   0.1500 
 27 H        4.7980    -3.0560     0.9660 H     1 <1>   0.3700 
 28 H        2.8910    -3.5770     2.2280 H     1 <1>   0.0800 
 29 H        3.5510    -4.8990     1.2820 H     1 <1>   0.0800 
 30 H        1.8600    -4.8760     1.7000 H     1 <1>   0.0800 
 31 H        7.6950    -0.2530     2.3540 H     1 <1>   0.0800 
 32 H        6.7700     0.7260     1.2570 H     1 <1>   0.0800 
 33 H        6.8110    -3.4520     0.5410 H     1 <1>   0.0800 
 34 H        7.7000    -2.8780     1.9230 H     1 <1>   0.0800 
 35 H        9.1970     0.8200     0.7630 H     1 <1>   0.0800 
 36 H        8.2880     0.1840    -0.5800 H     1 <1>   0.0800 
 37 H        8.3400    -2.3560    -0.9870 H     1 <1>   0.0800 
 38 H        9.2550    -3.3390     0.1220 H     1 <1>   0.0800 
 39 H       11.3550    -0.0220     1.6910 H     1 <1>   0.1500 
 40 H       12.5330    -2.0760    -2.5010 H     1 <1>   0.1500 
 41 H       13.7050     0.2090     0.8920 H     1 <1>   0.1500 
 42 H       14.2680    -0.8710    -1.2800 H     1 <1>   0.1500 
@<TRIPOS>BOND
  1   1   2  1   
  2   2   3  ar  
  3   2   4  ar  
  4   3   5  ar  
  5   3  24  1   
  6   4   6  ar  
  7   4  25  1   
  8   5   7  1   
  9   5   8  ar  
 10   6   8  ar  
 11   6  26  1   
 12   7   9  am  
 13   7  27  1   
 14   8  10  1   
 15   9  11  2   
 16   9  12  am  
 17  10  28  1   
 18  10  29  1   
 19  10  30  1   
 20  12  13  1   
 21  12  14  1   
 22  13  15  1   
 23  13  31  1   
 24  13  32  1   
 25  14  16  1   
 26  14  33  1   
 27  14  34  1   
 28  15  17  1   
 29  15  35  1   
 30  15  36  1   
 31  16  17  1   
 32  16  37  1   
 33  16  38  1   
 34  17  18  1   
 35  18  19  ar  
 36  18  20  ar  
 37  19  21  ar  
 38  20  22  ar  
 39  20  39  1   
 40  21  23  ar  
 41  21  40  1   
 42  22  23  ar  
 43  22  41  1   
 44  23  42  1   
@<TRIPOS>SUBSTRUCTURE
  1 ****  12 GROUP 4 **** **** 0

# MOE 2024.06 (io_trps.svl 2023.06)
