@<TRIPOS>MOLECULE
NONAME
47 48 1 0 0 
SMALL
USER_CHARGES


@<TRIPOS>ATOM
  1 S        1.8860    -0.9020    -0.0600 S.o2  1 <1>   1.4470 
  2 O        2.3650    -0.1370    -1.1950 O.2   1 <1>  -0.6500 
  3 O        2.7940    -1.8340     0.5650 O.2   1 <1>  -0.6500 
  4 N        1.5330     0.1580     1.1910 N.am  1 <1>  -0.9140 
  5 C        0.3160    -1.7230    -0.4260 C.ar  1 <1>  -0.0090 
  6 C        2.1460     1.4810     1.0600 C.3   1 <1>   0.3370 
  7 C       -0.7730    -1.0040    -0.9150 C.ar  1 <1>   0.0830 
  8 C        0.1680    -3.0910    -0.2240 C.ar  1 <1>  -0.1500 
  9 C        3.6920     1.4750     1.2070 C.2   1 <1>   0.5690 
 10 C        1.4580     2.3750     2.0960 C.3   1 <1>  -0.2400 
 11 O       -0.6130     0.3310    -1.1050 O.3   1 <1>  -0.3630 
 12 C       -1.9730    -1.6550    -1.1910 C.ar  1 <1>  -0.1500 
 13 C       -1.0230    -3.7420    -0.4950 C.ar  1 <1>  -0.1440 
 14 O        4.1970     1.6570     2.2920 O.2   1 <1>  -0.5700 
 15 N        4.4510     1.2300     0.1090 N.am  1 <1>  -0.7300 
 16 C       -1.6300     1.1420    -1.6480 C.3   1 <1>   0.0400 
 17 C       -2.0950    -3.0160    -0.9820 C.ar  1 <1>  -0.1500 
 18 C       -1.1530    -5.2380    -0.2660 C.3   1 <1>  -0.0970 
 19 C        5.9050     1.0260     0.0970 C.3   1 <1>   0.2200 
 20 C        6.4620     1.5840    -1.2060 C.3   1 <1>  -0.1600 
 21 C        6.1830    -0.4670    -0.0160 C.3   1 <1>  -0.1600 
 22 C        6.1900     0.5090    -2.2650 C.3   1 <1>  -0.1600 
 23 C        6.0140    -0.8100    -1.5000 C.3   1 <1>  -0.1600 
 24 H        1.9710    -0.2790     2.0010 H     1 <1>   0.4200 
 25 H        1.9060     1.8850     0.0910 H     1 <1>   0.0800 
 26 H        1.0040    -3.6570     0.1520 H     1 <1>   0.1500 
 27 H        1.6460     2.0120     3.0910 H     1 <1>   0.0800 
 28 H        0.3980     2.4010     1.9180 H     1 <1>   0.0800 
 29 H        1.8440     3.3750     2.0220 H     1 <1>   0.0800 
 30 H       -2.8250    -1.1220    -1.5680 H     1 <1>   0.1500 
 31 H        3.9810     0.8950    -0.7440 H     1 <1>   0.3700 
 32 H       -1.2520     2.1460    -1.7210 H     1 <1>   0.0800 
 33 H       -2.4830     1.1190    -0.9930 H     1 <1>   0.0800 
 34 H       -1.8830     0.7760    -2.6280 H     1 <1>   0.0800 
 35 H       -3.0270    -3.5080    -1.2010 H     1 <1>   0.1500 
 36 H       -0.4780    -5.5620     0.5060 H     1 <1>   0.0800 
 37 H       -0.9210    -5.7670    -1.1730 H     1 <1>   0.0800 
 38 H       -2.1550    -5.4860     0.0350 H     1 <1>   0.0800 
 39 H        6.3610     1.4680     0.9690 H     1 <1>   0.0800 
 40 H        7.5260     1.7050    -1.0970 H     1 <1>   0.0800 
 41 H        6.0310     2.5370    -1.4580 H     1 <1>   0.0800 
 42 H        5.5390    -1.0510     0.6200 H     1 <1>   0.0800 
 43 H        7.2040    -0.6470     0.2720 H     1 <1>   0.0800 
 44 H        6.9990     0.4500    -2.9730 H     1 <1>   0.0800 
 45 H        5.2810     0.7390    -2.7950 H     1 <1>   0.0800 
 46 H        5.0240    -1.1980    -1.6720 H     1 <1>   0.0800 
 47 H        6.7340    -1.5470    -1.8100 H     1 <1>   0.0800 
@<TRIPOS>BOND
  1   1   2  2   
  2   1   3  2   
  3   1   4  am  
  4   1   5  1   
  5   4   6  1   
  6   4  24  1   
  7   5   7  ar  
  8   5   8  ar  
  9   6   9  1   
 10   6  10  1   
 11   6  25  1   
 12   7  11  1   
 13   7  12  ar  
 14   8  13  ar  
 15   8  26  1   
 16   9  14  2   
 17   9  15  am  
 18  10  27  1   
 19  10  28  1   
 20  10  29  1   
 21  11  16  1   
 22  12  17  ar  
 23  12  30  1   
 24  13  17  ar  
 25  13  18  1   
 26  15  19  1   
 27  15  31  1   
 28  16  32  1   
 29  16  33  1   
 30  16  34  1   
 31  17  35  1   
 32  18  36  1   
 33  18  37  1   
 34  18  38  1   
 35  19  20  1   
 36  19  21  1   
 37  19  39  1   
 38  20  22  1   
 39  20  40  1   
 40  20  41  1   
 41  21  23  1   
 42  21  42  1   
 43  21  43  1   
 44  22  23  1   
 45  22  44  1   
 46  22  45  1   
 47  23  46  1   
 48  23  47  1   
@<TRIPOS>SUBSTRUCTURE
  1 ****   1 GROUP 4 **** **** 0

# MOE 2024.06 (io_trps.svl 2023.06)
