@<TRIPOS>MOLECULE
NONAME
31 31 1 0 0 
SMALL
USER_CHARGES


@<TRIPOS>ATOM
  1 CL       0.1050    -0.0320    -1.0960 Cl    1 <1>  -0.1770 
  2 C        0.9740     1.4570    -0.8290 C.ar  1 <1>   0.1770 
  3 C        0.2670     2.6230    -0.6120 C.ar  1 <1>  -0.1500 
  4 C        2.3540     1.4460    -0.8390 C.ar  1 <1>  -0.1500 
  5 C        0.9360     3.8230    -0.3880 C.ar  1 <1>  -0.0090 
  6 C        3.0350     2.6310    -0.6320 C.ar  1 <1>  -0.1500 
  7 S        0.0440     5.3770    -0.1050 S.o2  1 <1>   1.4470 
  8 C        2.3300     3.8150    -0.4120 C.ar  1 <1>   0.0830 
  9 O        0.4360     6.0190     1.1280 O.2   1 <1>  -0.6500 
 10 O       -0.0570     6.1390    -1.3290 O.2   1 <1>  -0.6500 
 11 N       -1.5150     4.8870     0.2790 N.am  1 <1>  -0.9140 
 12 O        2.9540     5.0020    -0.2190 O.3   1 <1>  -0.3620 
 13 C       -2.5220     5.8900    -0.0620 C.3   1 <1>   0.1960 
 14 C        4.3560     5.1330    -0.1980 C.3   1 <1>   0.1200 
 15 C       -3.8960     5.4660     0.4670 C.3   1 <1>   0.1200 
 16 C        4.6800     6.6010     0.0570 C.3   1 <1>  -0.2400 
 17 O       -4.8290     6.4600     0.2050 O.3   1 <1>  -0.6800 
 18 H       -0.8080     2.5840    -0.6220 H     1 <1>   0.1500 
 19 H        2.8800     0.5240    -1.0100 H     1 <1>   0.1500 
 20 H        4.1090     2.6120    -0.6470 H     1 <1>   0.1500 
 21 H       -1.4700     4.8440     1.2970 H     1 <1>   0.4200 
 22 H       -2.5760     5.9940    -1.1340 H     1 <1>   0.0800 
 23 H       -2.2430     6.8390     0.3680 H     1 <1>   0.0800 
 24 H        4.7440     4.8180    -1.1510 H     1 <1>   0.0800 
 25 H        4.7460     4.5150     0.5930 H     1 <1>   0.0800 
 26 H       -3.8700     5.3050     1.5310 H     1 <1>   0.0800 
 27 H       -4.2240     4.5690    -0.0290 H     1 <1>   0.0800 
 28 H        4.2720     7.2120    -0.7290 H     1 <1>   0.0800 
 29 H        5.7450     6.7420     0.0840 H     1 <1>   0.0800 
 30 H        4.2680     6.9120     1.0010 H     1 <1>   0.0800 
 31 H       -4.6360     7.2740     0.7100 H     1 <1>   0.4000 
@<TRIPOS>BOND
  1   1   2  1   
  2   2   3  ar  
  3   2   4  ar  
  4   3   5  ar  
  5   3  18  1   
  6   4   6  ar  
  7   4  19  1   
  8   5   7  1   
  9   5   8  ar  
 10   6   8  ar  
 11   6  20  1   
 12   7   9  2   
 13   7  10  2   
 14   7  11  am  
 15   8  12  1   
 16  11  13  1   
 17  11  21  1   
 18  12  14  1   
 19  13  15  1   
 20  13  22  1   
 21  13  23  1   
 22  14  16  1   
 23  14  24  1   
 24  14  25  1   
 25  15  17  1   
 26  15  26  1   
 27  15  27  1   
 28  16  28  1   
 29  16  29  1   
 30  16  30  1   
 31  17  31  1   
@<TRIPOS>SUBSTRUCTURE
  1 ****   5 GROUP 4 **** **** 0

# MOE 2024.06 (io_trps.svl 2023.06)
