@<TRIPOS>MOLECULE
NONAME
32 33 1 0 0 
SMALL
USER_CHARGES


@<TRIPOS>ATOM
  1 CL      -0.9250    -3.2560    -0.1350 Cl    1 <1>  -0.1770 
  2 C       -2.3200    -2.1960    -0.1410 C.ar  1 <1>   0.1770 
  3 C       -2.2060    -0.8640     0.2500 C.ar  1 <1>   0.0820 
  4 C       -3.5340    -2.7200    -0.5400 C.ar  1 <1>  -0.1500 
  5 O       -1.0150    -0.3490     0.6370 O.3   1 <1>  -0.3630 
  6 C       -3.3390    -0.0540     0.2620 C.ar  1 <1>  -0.1440 
  7 C       -4.6560    -1.9080    -0.5410 C.ar  1 <1>  -0.1500 
  8 C       -0.1130    -0.0170    -0.3900 C.3   1 <1>   0.1200 
  9 C       -4.5560    -0.5850    -0.1400 C.ar  1 <1>  -0.1500 
 10 C       -3.2550     1.3980     0.7120 C.3   1 <1>  -0.0960 
 11 C        1.1740     0.4890     0.2590 C.3   1 <1>  -0.1600 
 12 C        2.2260     0.8200    -0.8040 C.3   1 <1>   0.0960 
 13 N        3.4610     1.3170    -0.1680 N.pl3 1 <1>   0.0480 
 14 C        4.5240     0.5970     0.2540 C.2   1 <1>   0.0360 
 15 C        3.7780     2.5930     0.1170 C.2   1 <1>  -0.3020 
 16 N        5.4710     1.3100     0.7720 N.2   1 <1>  -0.5650 
 17 C        5.0030     2.5690     0.6870 C.2   1 <1>   0.0770 
 18 H       -3.6000    -3.7500    -0.8410 H     1 <1>   0.1500 
 19 H       -5.6080    -2.3060    -0.8500 H     1 <1>   0.1500 
 20 H       -0.5670     0.7430    -1.0030 H     1 <1>   0.0800 
 21 H        0.0750    -0.8950    -0.9820 H     1 <1>   0.0800 
 22 H       -5.4390     0.0300    -0.1420 H     1 <1>   0.1500 
 23 H       -2.6940     1.9710    -0.0030 H     1 <1>   0.0800 
 24 H       -2.7630     1.4560     1.6660 H     1 <1>   0.0800 
 25 H       -4.2350     1.8300     0.8090 H     1 <1>   0.0800 
 26 H        1.5560    -0.2750     0.9140 H     1 <1>   0.0800 
 27 H        0.9530     1.3710     0.8340 H     1 <1>   0.0800 
 28 H        1.8570     1.5770    -1.4720 H     1 <1>   0.0800 
 29 H        2.4650    -0.0580    -1.3770 H     1 <1>   0.0800 
 30 H        4.5620    -0.4740     0.1600 H     1 <1>   0.1500 
 31 H        3.1360     3.4280    -0.0930 H     1 <1>   0.1500 
 32 H        5.5810     3.4040     1.0470 H     1 <1>   0.1500 
@<TRIPOS>BOND
  1   1   2  1   
  2   2   3  ar  
  3   2   4  ar  
  4   3   5  1   
  5   3   6  ar  
  6   4   7  ar  
  7   4  18  1   
  8   5   8  1   
  9   6   9  ar  
 10   6  10  1   
 11   7   9  ar  
 12   7  19  1   
 13   8  11  1   
 14   8  20  1   
 15   8  21  1   
 16   9  22  1   
 17  10  23  1   
 18  10  24  1   
 19  10  25  1   
 20  11  12  1   
 21  11  26  1   
 22  11  27  1   
 23  12  13  1   
 24  12  28  1   
 25  12  29  1   
 26  13  14  1   
 27  13  15  1   
 28  14  16  2   
 29  14  30  1   
 30  15  17  2   
 31  15  31  1   
 32  16  17  1   
 33  17  32  1   
@<TRIPOS>SUBSTRUCTURE
  1 ****   8 GROUP 4 **** **** 0

# MOE 2024.06 (io_trps.svl 2023.06)
