@<TRIPOS>MOLECULE
NONAME
44 44 1 0 0 
SMALL
USER_CHARGES


@<TRIPOS>ATOM
  1 CL       3.5470    -0.2730     2.0790 Cl    1 <1>  -0.1770 
  2 C        2.3140    -1.3590     1.4690 C.ar  1 <1>   0.1770 
  3 C        2.4070    -1.8930     0.1860 C.ar  1 <1>   0.0820 
  4 C        1.2470    -1.6660     2.2920 C.ar  1 <1>  -0.1500 
  5 O        3.4540    -1.5910    -0.6200 O.3   1 <1>  -0.3630 
  6 C        1.4020    -2.7350    -0.2820 C.ar  1 <1>  -0.1440 
  7 C        0.2550    -2.5130     1.8290 C.ar  1 <1>  -0.1500 
  8 C        4.6890    -2.2030    -0.3190 C.3   1 <1>   0.1200 
  9 C        0.3340    -3.0410     0.5490 C.ar  1 <1>  -0.1500 
 10 C        1.4660    -3.3170    -1.6870 C.3   1 <1>  -0.0960 
 11 C        5.7980    -1.2090    -0.6490 C.3   1 <1>   0.1200 
 12 O        7.0290    -1.7840    -0.3240 O.3   1 <1>  -0.5600 
 13 C        8.1120    -0.9310    -0.4750 C.3   1 <1>   0.1200 
 14 C        9.3590    -1.7060    -0.0430 C.3   1 <1>   0.3430 
 15 N       10.5950    -0.8650    -0.1390 N.4   1 <1>  -0.9060 
 16 C       11.8500    -1.5100     0.2560 C.3   1 <1>   0.5030 
 17 C       12.9440    -0.4640     0.0710 C.3   1 <1>  -0.2400 
 18 C       12.1230    -2.7110    -0.6480 C.3   1 <1>  -0.2400 
 19 C       11.7780    -1.9310     1.7230 C.3   1 <1>  -0.2400 
 20 H        1.1960    -1.2460     3.2800 H     1 <1>   0.1500 
 21 H       -0.5810    -2.7600     2.4610 H     1 <1>   0.1500 
 22 H        4.7740    -3.0910    -0.9200 H     1 <1>   0.0800 
 23 H        4.7170    -2.4590     0.7250 H     1 <1>   0.0800 
 24 H       -0.4490    -3.6940     0.2030 H     1 <1>   0.1500 
 25 H        1.5780    -2.5240    -2.4050 H     1 <1>   0.0800 
 26 H        0.5710    -3.8650    -1.9210 H     1 <1>   0.0800 
 27 H        2.3080    -3.9800    -1.7700 H     1 <1>   0.0800 
 28 H        5.6640    -0.3140    -0.0640 H     1 <1>   0.0800 
 29 H        5.7880    -0.9770    -1.7000 H     1 <1>   0.0800 
 30 H        7.9560    -0.0710     0.1540 H     1 <1>   0.0800 
 31 H        8.1730    -0.6420    -1.5110 H     1 <1>   0.0800 
 32 H        9.4570    -2.5740    -0.6720 H     1 <1>   0.0800 
 33 H        9.2190    -2.0340     0.9740 H     1 <1>   0.0800 
 34 H       10.4890    -0.0320     0.4480 H     1 <1>   0.4500 
 35 H       10.7150    -0.5410    -1.1040 H     1 <1>   0.4500 
 36 H       13.0130    -0.1480    -0.9550 H     1 <1>   0.0800 
 37 H       13.8980    -0.8790     0.3470 H     1 <1>   0.0800 
 38 H       12.7730     0.3950     0.6960 H     1 <1>   0.0800 
 39 H       12.1240    -2.4260    -1.6850 H     1 <1>   0.0800 
 40 H       11.4050    -3.4960    -0.4950 H     1 <1>   0.0800 
 41 H       13.0920    -3.1210    -0.4210 H     1 <1>   0.0800 
 42 H       11.0600    -2.7160     1.8780 H     1 <1>   0.0800 
 43 H       12.7350    -2.3110     2.0380 H     1 <1>   0.0800 
 44 H       11.5350    -1.0960     2.3560 H     1 <1>   0.0800 
@<TRIPOS>BOND
  1   1   2  1   
  2   2   3  ar  
  3   2   4  ar  
  4   3   5  1   
  5   3   6  ar  
  6   4   7  ar  
  7   4  20  1   
  8   5   8  1   
  9   6   9  ar  
 10   6  10  1   
 11   7   9  ar  
 12   7  21  1   
 13   8  11  1   
 14   8  22  1   
 15   8  23  1   
 16   9  24  1   
 17  10  25  1   
 18  10  26  1   
 19  10  27  1   
 20  11  12  1   
 21  11  28  1   
 22  11  29  1   
 23  12  13  1   
 24  13  14  1   
 25  13  30  1   
 26  13  31  1   
 27  14  15  1   
 28  14  32  1   
 29  14  33  1   
 30  15  16  1   
 31  15  34  1   
 32  15  35  1   
 33  16  17  1   
 34  16  18  1   
 35  16  19  1   
 36  17  36  1   
 37  17  37  1   
 38  17  38  1   
 39  18  39  1   
 40  18  40  1   
 41  18  41  1   
 42  19  42  1   
 43  19  43  1   
 44  19  44  1   
@<TRIPOS>SUBSTRUCTURE
  1 ****  11 GROUP 4 **** **** 0

# MOE 2024.06 (io_trps.svl 2023.06)
