@<TRIPOS>MOLECULE
NONAME
52 53 1 0 0 
SMALL
USER_CHARGES


@<TRIPOS>ATOM
  1 N        0.0760     0.0480     0.1090 N.4   1 <1>  -0.9590 
  2 C       -0.1360    -1.1530    -0.7530 C.3   1 <1>   0.3430 
  3 C       -1.1080     0.9450     0.1960 C.3   1 <1>   0.3430 
  4 C        1.2930     0.8050    -0.3270 C.3   1 <1>   0.4860 
  5 C       -1.3400    -1.9510    -0.2470 C.3   1 <1>  -0.1600 
  6 C       -2.3230     0.1610     0.7070 C.3   1 <1>  -0.1600 
  7 C        2.4970    -0.0890    -0.1170 C.ar  1 <1>  -0.1440 
  8 C       -2.5930    -1.0720    -0.1700 C.3   1 <1>   0.4230 
  9 C        2.9810    -0.3220     1.1630 C.ar  1 <1>  -0.1500 
 10 C        3.1200    -0.6900    -1.2030 C.ar  1 <1>  -0.1500 
 11 N       -3.7780    -1.8870     0.2940 N.4   1 <1>  -0.9590 
 12 C        4.0630    -1.1630     1.3550 C.ar  1 <1>  -0.1500 
 13 C        4.2020    -1.5300    -1.0070 C.ar  1 <1>  -0.1500 
 14 C       -5.0980    -1.1860     0.0060 C.3   1 <1>   0.3430 
 15 C       -3.6790    -2.3360     1.7340 C.3   1 <1>   0.2630 
 16 C        4.6720    -1.7690     0.2710 C.ar  1 <1>  -0.1500 
 17 C       -6.3720    -2.0690     0.2000 C.3   1 <1>   0.3430 
 18 N       -7.6810    -1.3660    -0.0790 N.4   1 <1>  -0.9590 
 19 C       -8.8350    -2.2430     0.3260 C.3   1 <1>   0.2630 
 20 C       -7.8690    -0.9750    -1.5190 C.3   1 <1>   0.2630 
 21 H        0.3290    -0.2900     1.0500 H     1 <1>   0.4500 
 22 H        0.7420    -1.7810    -0.7330 H     1 <1>   0.0800 
 23 H       -0.2990    -0.8450    -1.7750 H     1 <1>   0.0800 
 24 H       -1.3220     1.3590    -0.7770 H     1 <1>   0.0800 
 25 H       -0.8990     1.7650     0.8680 H     1 <1>   0.0800 
 26 H        1.4130     1.6990     0.2630 H     1 <1>   0.0800 
 27 H        1.2170     1.0860    -1.3650 H     1 <1>   0.0800 
 28 H       -1.0870    -2.3620     0.7130 H     1 <1>   0.0800 
 29 H       -1.5060    -2.7670    -0.9290 H     1 <1>   0.0800 
 30 H       -3.1710     0.8210     0.6920 H     1 <1>   0.0800 
 31 H       -2.1310    -0.1190     1.7270 H     1 <1>   0.0800 
 32 H       -2.7980    -0.7230    -1.1710 H     1 <1>   0.0800 
 33 H        2.5380     0.1460     2.0260 H     1 <1>   0.1500 
 34 H        2.7820    -0.5140    -2.2100 H     1 <1>   0.1500 
 35 H       -3.7480    -2.7480    -0.2780 H     1 <1>   0.4500 
 36 H        4.4410    -1.3450     2.3480 H     1 <1>   0.1500 
 37 H        4.6870    -1.9970    -1.8490 H     1 <1>   0.1500 
 38 H       -5.0870    -0.8390    -1.0140 H     1 <1>   0.0800 
 39 H       -5.1810    -0.3250     0.6480 H     1 <1>   0.0800 
 40 H       -3.7260    -1.4910     2.4030 H     1 <1>   0.0800 
 41 H       -2.7500    -2.8560     1.9080 H     1 <1>   0.0800 
 42 H       -4.4830    -3.0110     1.9810 H     1 <1>   0.0800 
 43 H        5.5160    -2.4220     0.4220 H     1 <1>   0.1500 
 44 H       -6.3880    -2.4200     1.2190 H     1 <1>   0.0800 
 45 H       -6.3010    -2.9300    -0.4440 H     1 <1>   0.0800 
 46 H       -7.7650    -0.5100     0.4970 H     1 <1>   0.4500 
 47 H       -8.8400    -3.1550    -0.2500 H     1 <1>   0.0800 
 48 H       -9.7710    -1.7320     0.1610 H     1 <1>   0.0800 
 49 H       -8.7700    -2.4980     1.3720 H     1 <1>   0.0800 
 50 H       -7.8240    -1.8430    -2.1570 H     1 <1>   0.0800 
 51 H       -7.1120    -0.2740    -1.8310 H     1 <1>   0.0800 
 52 H       -8.8330    -0.5080    -1.6550 H     1 <1>   0.0800 
@<TRIPOS>BOND
  1   1   2  1   
  2   1   3  1   
  3   1   4  1   
  4   1  21  1   
  5   2   5  1   
  6   2  22  1   
  7   2  23  1   
  8   3   6  1   
  9   3  24  1   
 10   3  25  1   
 11   4   7  1   
 12   4  26  1   
 13   4  27  1   
 14   5   8  1   
 15   5  28  1   
 16   5  29  1   
 17   6   8  1   
 18   6  30  1   
 19   6  31  1   
 20   7   9  ar  
 21   7  10  ar  
 22   8  11  1   
 23   8  32  1   
 24   9  12  ar  
 25   9  33  1   
 26  10  13  ar  
 27  10  34  1   
 28  11  14  1   
 29  11  15  1   
 30  11  35  1   
 31  12  16  ar  
 32  12  36  1   
 33  13  16  ar  
 34  13  37  1   
 35  14  17  1   
 36  14  38  1   
 37  14  39  1   
 38  15  40  1   
 39  15  41  1   
 40  15  42  1   
 41  16  43  1   
 42  17  18  1   
 43  17  44  1   
 44  17  45  1   
 45  18  19  1   
 46  18  20  1   
 47  18  46  1   
 48  19  47  1   
 49  19  48  1   
 50  19  49  1   
 51  20  50  1   
 52  20  51  1   
 53  20  52  1   
@<TRIPOS>SUBSTRUCTURE
  1 ****   5 GROUP 4 **** **** 0

# MOE 2024.06 (io_trps.svl 2023.06)
