@<TRIPOS>MOLECULE
NONAME
45 46 1 0 0 
SMALL
USER_CHARGES


@<TRIPOS>ATOM
  1 O       -0.9760     0.0220    -0.3740 O.2   1 <1>  -0.5700 
  2 C       -0.8600    -1.1800    -0.3810 C.2   1 <1>   0.6590 
  3 O        0.2260    -1.7730    -0.8590 O.3   1 <1>  -0.4300 
  4 C       -1.9310    -2.1400     0.1670 C.3   1 <1>   0.1710 
  5 C        1.2980    -1.0310    -1.3960 C.3   1 <1>   0.1200 
  6 N       -3.2450    -1.5380     0.5640 N.3   1 <1>  -0.8100 
  7 C        2.3730    -2.0130    -1.8520 C.3   1 <1>  -0.2400 
  8 C       -4.3040    -2.5570     0.7610 C.3   1 <1>   0.1100 
  9 C       -3.1410    -0.6620     1.7600 C.3   1 <1>   0.1100 
 10 C       -5.6580    -1.9230     1.1700 C.3   1 <1>   0.3430 
 11 C       -4.4740     0.0680     2.0560 C.3   1 <1>   0.3430 
 12 N       -5.5650    -0.4250     1.1560 N.4   1 <1>  -0.9590 
 13 C       -6.8610     0.2820     1.3000 C.3   1 <1>   0.4860 
 14 C       -7.8000    -0.2010     0.2100 C.ar  1 <1>  -0.1440 
 15 C       -7.6210     0.1450    -1.1280 C.ar  1 <1>  -0.1440 
 16 C       -8.8590    -1.0240     0.5720 C.ar  1 <1>  -0.1500 
 17 C       -8.4960    -0.3560    -2.0790 C.ar  1 <1>  -0.1500 
 18 C       -6.4970     1.0610    -1.6030 C.3   1 <1>  -0.0970 
 19 C       -9.7270    -1.5140    -0.3860 C.ar  1 <1>  -0.1500 
 20 C       -9.5420    -1.1820    -1.7140 C.ar  1 <1>  -0.1500 
 21 H       -1.5090    -2.6630     1.0060 H     1 <1>   0.0800 
 22 H       -2.1090    -2.8640    -0.6070 H     1 <1>   0.0800 
 23 H        1.6760    -0.3720    -0.6310 H     1 <1>   0.0800 
 24 H        0.9300    -0.4490    -2.2240 H     1 <1>   0.0800 
 25 H        2.7250    -2.5930    -1.0180 H     1 <1>   0.0800 
 26 H        3.2040    -1.4730    -2.2670 H     1 <1>   0.0800 
 27 H        1.9790    -2.6690    -2.6080 H     1 <1>   0.0800 
 28 H       -4.0020    -3.2640     1.5150 H     1 <1>   0.0800 
 29 H       -4.4450    -3.1030    -0.1570 H     1 <1>   0.0800 
 30 H       -2.3770     0.0820     1.6160 H     1 <1>   0.0800 
 31 H       -2.8570    -1.2480     2.6180 H     1 <1>   0.0800 
 32 H       -5.9350    -2.2670     2.1520 H     1 <1>   0.0800 
 33 H       -6.4170    -2.2540     0.4790 H     1 <1>   0.0800 
 34 H       -4.3270     1.1250     1.9050 H     1 <1>   0.0800 
 35 H       -4.7420    -0.0850     3.0880 H     1 <1>   0.0800 
 36 H       -5.2110    -0.2350     0.2060 H     1 <1>   0.4500 
 37 H       -6.7180     1.3450     1.2040 H     1 <1>   0.0800 
 38 H       -7.2880     0.0800     2.2680 H     1 <1>   0.0800 
 39 H       -9.0250    -1.2940     1.6010 H     1 <1>   0.1500 
 40 H       -8.3730    -0.1050    -3.1200 H     1 <1>   0.1500 
 41 H       -5.5800     0.5090    -1.7020 H     1 <1>   0.0800 
 42 H       -6.3510     1.8820    -0.9260 H     1 <1>   0.0800 
 43 H       -6.7370     1.4780    -2.5660 H     1 <1>   0.0800 
 44 H      -10.5470    -2.1520    -0.1030 H     1 <1>   0.1500 
 45 H      -10.2160    -1.5620    -2.4630 H     1 <1>   0.1500 
@<TRIPOS>BOND
  1   1   2  2   
  2   2   3  1   
  3   2   4  1   
  4   3   5  1   
  5   4   6  1   
  6   4  21  1   
  7   4  22  1   
  8   5   7  1   
  9   5  23  1   
 10   5  24  1   
 11   6   8  1   
 12   6   9  1   
 13   7  25  1   
 14   7  26  1   
 15   7  27  1   
 16   8  10  1   
 17   8  28  1   
 18   8  29  1   
 19   9  11  1   
 20   9  30  1   
 21   9  31  1   
 22  10  12  1   
 23  10  32  1   
 24  10  33  1   
 25  11  12  1   
 26  11  34  1   
 27  11  35  1   
 28  12  13  1   
 29  12  36  1   
 30  13  14  1   
 31  13  37  1   
 32  13  38  1   
 33  14  15  ar  
 34  14  16  ar  
 35  15  17  ar  
 36  15  18  1   
 37  16  19  ar  
 38  16  39  1   
 39  17  20  ar  
 40  17  40  1   
 41  18  41  1   
 42  18  42  1   
 43  18  43  1   
 44  19  20  ar  
 45  19  44  1   
 46  20  45  1   
@<TRIPOS>SUBSTRUCTURE
  1 ****   6 GROUP 4 **** **** 0

# MOE 2024.06 (io_trps.svl 2023.06)
