@<TRIPOS>MOLECULE
NONAME
50 51 1 0 0 
SMALL
USER_CHARGES


@<TRIPOS>ATOM
  1 S        0.5300    -1.1610     0.1870 S.o2  1 <1>   1.4470 
  2 O        1.5820    -0.1670     0.1350 O.2   1 <1>  -0.6500 
  3 O        0.7110    -2.3530    -0.6120 O.2   1 <1>  -0.6500 
  4 N        0.5860    -1.6680     1.7880 N.am  1 <1>  -0.9140 
  5 C       -1.1190    -0.4200    -0.0130 C.ar  1 <1>  -0.0090 
  6 C        1.5260    -2.7290     2.1390 C.3   1 <1>   0.1960 
  7 C       -2.3030    -1.1610     0.0210 C.ar  1 <1>  -0.1430 
  8 C       -1.2200     0.9560    -0.1960 C.ar  1 <1>  -0.1500 
  9 C        2.9910    -2.2830     2.0120 C.3   1 <1>  -0.1600 
 10 C       -3.5290    -0.5290    -0.1260 C.ar  1 <1>  -0.1500 
 11 C       -2.2940    -2.6740     0.2140 C.3   1 <1>  -0.0970 
 12 C       -2.4400     1.5940    -0.3420 C.ar  1 <1>  -0.1430 
 13 C        3.5670    -2.5670     0.6180 C.3   1 <1>   0.3430 
 14 C       -3.6090     0.8470    -0.3070 C.ar  1 <1>   0.0830 
 15 C       -2.4910     3.1030    -0.5400 C.3   1 <1>  -0.0970 
 16 N        4.8190    -1.8000     0.3960 N.4   1 <1>  -0.9590 
 17 O       -4.7870     1.5080    -0.4530 O.3   1 <1>  -0.3630 
 18 C        4.5560    -0.3410     0.1280 C.3   1 <1>   0.3430 
 19 C        5.6410    -2.3700    -0.7220 C.3   1 <1>   0.3430 
 20 C       -6.0260     0.8360    -0.4460 C.3   1 <1>   0.0400 
 21 C        5.8630     0.4280    -0.1710 C.3   1 <1>   0.1200 
 22 C        6.9050    -1.5180    -0.9920 C.3   1 <1>   0.1200 
 23 O        6.9780    -0.4220    -0.1200 O.3   1 <1>  -0.5600 
 24 H        0.7790    -0.8320     2.3370 H     1 <1>   0.4200 
 25 H        1.3340    -3.6070     1.5420 H     1 <1>   0.0800 
 26 H        1.3390    -2.9990     3.1660 H     1 <1>   0.0800 
 27 H       -0.3210     1.5470    -0.2260 H     1 <1>   0.1500 
 28 H        3.5700    -2.8480     2.7210 H     1 <1>   0.0800 
 29 H        3.0670    -1.2450     2.2770 H     1 <1>   0.0800 
 30 H       -4.4230    -1.1220    -0.0980 H     1 <1>   0.1500 
 31 H       -1.7760    -2.9380     1.1180 H     1 <1>   0.0800 
 32 H       -1.8140    -3.1530    -0.6210 H     1 <1>   0.0800 
 33 H       -3.2950    -3.0620     0.2860 H     1 <1>   0.0800 
 34 H        2.8610    -2.3000    -0.1470 H     1 <1>   0.0800 
 35 H        3.7590    -3.6250     0.5290 H     1 <1>   0.0800 
 36 H       -1.5070     3.5330    -0.5480 H     1 <1>   0.0800 
 37 H       -3.0570     3.5550     0.2550 H     1 <1>   0.0800 
 38 H       -2.9730     3.3300    -1.4750 H     1 <1>   0.0800 
 39 H        5.4220    -1.8300     1.2310 H     1 <1>   0.4500 
 40 H        4.0670     0.1130     0.9740 H     1 <1>   0.0800 
 41 H        3.8890    -0.2370    -0.7120 H     1 <1>   0.0800 
 42 H        5.0530    -2.4120    -1.6240 H     1 <1>   0.0800 
 43 H        5.9420    -3.3770    -0.4840 H     1 <1>   0.0800 
 44 H       -6.8020     1.5670    -0.5840 H     1 <1>   0.0800 
 45 H       -6.1510     0.3450     0.5020 H     1 <1>   0.0800 
 46 H       -6.0440     0.1280    -1.2550 H     1 <1>   0.0800 
 47 H        6.0090     1.2070     0.5570 H     1 <1>   0.0800 
 48 H        5.8200     0.8840    -1.1460 H     1 <1>   0.0800 
 49 H        6.9090    -1.1530    -2.0050 H     1 <1>   0.0800 
 50 H        7.7900    -2.1120    -0.8460 H     1 <1>   0.0800 
@<TRIPOS>BOND
  1   1   2  2   
  2   1   3  2   
  3   1   4  am  
  4   1   5  1   
  5   4   6  1   
  6   4  24  1   
  7   5   7  ar  
  8   5   8  ar  
  9   6   9  1   
 10   6  25  1   
 11   6  26  1   
 12   7  10  ar  
 13   7  11  1   
 14   8  12  ar  
 15   8  27  1   
 16   9  13  1   
 17   9  28  1   
 18   9  29  1   
 19  10  14  ar  
 20  10  30  1   
 21  11  31  1   
 22  11  32  1   
 23  11  33  1   
 24  12  14  ar  
 25  12  15  1   
 26  13  16  1   
 27  13  34  1   
 28  13  35  1   
 29  14  17  1   
 30  15  36  1   
 31  15  37  1   
 32  15  38  1   
 33  16  18  1   
 34  16  19  1   
 35  16  39  1   
 36  17  20  1   
 37  18  21  1   
 38  18  40  1   
 39  18  41  1   
 40  19  22  1   
 41  19  42  1   
 42  19  43  1   
 43  20  44  1   
 44  20  45  1   
 45  20  46  1   
 46  21  23  1   
 47  21  47  1   
 48  21  48  1   
 49  22  23  1   
 50  22  49  1   
 51  22  50  1   
@<TRIPOS>SUBSTRUCTURE
  1 ****   1 GROUP 4 **** **** 0

# MOE 2024.06 (io_trps.svl 2023.06)
