@<TRIPOS>MOLECULE
NONAME
41 42 1 0 0 
SMALL
USER_CHARGES


@<TRIPOS>ATOM
  1 O        0.1850     0.2970    -0.6780 O.2   1 <1>  -0.5700 
  2 C        0.7160     1.3230    -0.2990 C.2   1 <1>   0.5440 
  3 N       -0.0910     2.3720     0.0310 N.am  1 <1>  -0.7300 
  4 C        2.1610     1.4240    -0.1860 C.ar  1 <1>   0.0860 
  5 C       -1.5580     2.3600    -0.0830 C.3   1 <1>   0.2840 
  6 C        2.9460     0.2820    -0.0160 C.ar  1 <1>  -0.1500 
  7 C        2.8270     2.6520    -0.2430 C.ar  1 <1>  -0.1500 
  8 C       -2.0420     3.7950    -0.0140 C.ar  1 <1>  -0.1440 
  9 C        4.3210     0.3610     0.1030 C.ar  1 <1>  -0.1500 
 10 C        4.2020     2.7390    -0.1230 C.ar  1 <1>  -0.1500 
 11 C       -2.5020     4.3580     1.1600 C.ar  1 <1>  -0.1500 
 12 C       -2.0360     4.6160    -1.1240 C.ar  1 <1>  -0.1500 
 13 C        4.9620     1.5870     0.0540 C.ar  1 <1>   0.0830 
 14 C       -2.9240     5.6780     1.1660 C.ar  1 <1>   0.1600 
 15 C       -2.4800     5.9230    -1.0110 C.ar  1 <1>   0.1600 
 16 O        6.3070     1.5800     0.1800 O.3   1 <1>  -0.3630 
 17 N       -2.9210     6.4730     0.1090 N.ar  1 <1>  -0.6200 
 18 C        7.0690     2.7670     0.1120 C.3   1 <1>   0.1200 
 19 C        8.5610     2.4250     0.2540 C.3   1 <1>  -0.0800 
 20 C        9.3990     3.7090     0.2700 C.3   1 <1>  -0.2400 
 21 C        9.0440     1.5060    -0.8790 C.3   1 <1>  -0.2400 
 22 H        0.2970     3.2210     0.4400 H     1 <1>   0.3700 
 23 H       -1.9750     1.7770     0.7200 H     1 <1>   0.0800 
 24 H       -1.8470     1.9080    -1.0180 H     1 <1>   0.0800 
 25 H        2.4650    -0.6800     0.0220 H     1 <1>   0.1500 
 26 H        2.2630     3.5550    -0.3910 H     1 <1>   0.1500 
 27 H        4.9080    -0.5300     0.2360 H     1 <1>   0.1500 
 28 H        4.6670     3.7060    -0.1720 H     1 <1>   0.1500 
 29 H       -2.5370     3.7850     2.0690 H     1 <1>   0.1500 
 30 H       -1.6900     4.2490    -2.0730 H     1 <1>   0.1500 
 31 H       -3.2810     6.1010     2.0890 H     1 <1>   0.1500 
 32 H       -2.4700     6.5490    -1.8870 H     1 <1>   0.1500 
 33 H        6.7550     3.4110     0.9140 H     1 <1>   0.0800 
 34 H        6.8800     3.2380    -0.8360 H     1 <1>   0.0800 
 35 H        8.7000     1.9210     1.1950 H     1 <1>   0.0800 
 36 H        9.2890     4.2480    -0.6550 H     1 <1>   0.0800 
 37 H       10.4400     3.4720     0.4060 H     1 <1>   0.0800 
 38 H        9.0920     4.3470     1.0800 H     1 <1>   0.0800 
 39 H        8.9050     1.9770    -1.8360 H     1 <1>   0.0800 
 40 H        8.4940     0.5810    -0.8700 H     1 <1>   0.0800 
 41 H       10.0870     1.2760    -0.7550 H     1 <1>   0.0800 
@<TRIPOS>BOND
  1   1   2  2   
  2   2   3  am  
  3   2   4  1   
  4   3   5  1   
  5   3  22  1   
  6   4   6  ar  
  7   4   7  ar  
  8   5   8  1   
  9   5  23  1   
 10   5  24  1   
 11   6   9  ar  
 12   6  25  1   
 13   7  10  ar  
 14   7  26  1   
 15   8  11  ar  
 16   8  12  ar  
 17   9  13  ar  
 18   9  27  1   
 19  10  13  ar  
 20  10  28  1   
 21  11  14  ar  
 22  11  29  1   
 23  12  15  ar  
 24  12  30  1   
 25  13  16  1   
 26  14  17  ar  
 27  14  31  1   
 28  15  17  ar  
 29  15  32  1   
 30  16  18  1   
 31  18  19  1   
 32  18  33  1   
 33  18  34  1   
 34  19  20  1   
 35  19  21  1   
 36  19  35  1   
 37  20  36  1   
 38  20  37  1   
 39  20  38  1   
 40  21  39  1   
 41  21  40  1   
 42  21  41  1   
@<TRIPOS>SUBSTRUCTURE
  1 ****   7 GROUP 4 **** **** 0

# MOE 2024.06 (io_trps.svl 2023.06)
