@<TRIPOS>MOLECULE
NONAME
43 45 1 0 0 
SMALL
USER_CHARGES


@<TRIPOS>ATOM
  1 CL       3.5710    -3.3530     0.9290 Cl    1 <1>  -0.1770 
  2 C        4.2620    -1.8900     0.2780 C.ar  1 <1>   0.1770 
  3 C        5.5880    -1.5960     0.5280 C.ar  1 <1>  -0.1500 
  4 C        3.4750    -1.0440    -0.4780 C.ar  1 <1>  -0.1500 
  5 C        6.1310    -0.4320     0.0090 C.ar  1 <1>  -0.1500 
  6 C        4.0300     0.1180    -0.9900 C.ar  1 <1>  -0.1500 
  7 C        5.3640     0.4430    -0.7570 C.ar  1 <1>  -0.0090 
  8 S        6.0920     1.9710    -1.4120 S.o2  1 <1>   1.4470 
  9 O        5.1180     2.7380    -2.1570 O.2   1 <1>  -0.6500 
 10 O        7.3670     1.6640    -2.0220 O.2   1 <1>  -0.6500 
 11 N        6.4510     2.8410    -0.0060 N.am  1 <1>  -0.8490 
 12 C        7.5750     3.8010    -0.1440 C.3   1 <1>   0.3370 
 13 C        5.3170     3.5030     0.6290 C.3   1 <1>   0.1960 
 14 C        8.9000     3.2210     0.4300 C.2   1 <1>   0.5690 
 15 C        7.0830     5.0820     0.5520 C.3   1 <1>  -0.1600 
 16 C        5.9360     4.6250     1.4400 C.3   1 <1>  -0.1600 
 17 O        9.5250     3.8340     1.2650 O.2   1 <1>  -0.5700 
 18 N        9.3150     2.0060    -0.0350 N.am  1 <1>  -0.5470 
 19 C       10.2490     1.1010     0.4180 C.ar  1 <1>   0.4270 
 20 N       10.0160    -0.1310    -0.0070 N.ar  1 <1>  -0.6200 
 21 C       11.3280     1.4380     1.2310 C.ar  1 <1>  -0.1500 
 22 C       10.8700    -1.0600     0.3830 C.ar  1 <1>   0.1670 
 23 C       12.2130     0.4650     1.6350 C.ar  1 <1>  -0.1500 
 24 C       11.9680    -0.8180     1.1930 C.ar  1 <1>  -0.1500 
 25 C       10.5880    -2.4620    -0.1150 C.3   1 <1>  -0.0970 
 26 H        6.1860    -2.2680     1.1180 H     1 <1>   0.1500 
 27 H        2.4450    -1.2940    -0.6610 H     1 <1>   0.1500 
 28 H        7.1670    -0.2020     0.2030 H     1 <1>   0.1500 
 29 H        3.4190     0.7800    -1.5820 H     1 <1>   0.1500 
 30 H        7.7450     4.0330    -1.1820 H     1 <1>   0.0800 
 31 H        4.7640     2.8160     1.2480 H     1 <1>   0.0800 
 32 H        4.6590     3.9310    -0.1100 H     1 <1>   0.0800 
 33 H        6.7100     5.7560    -0.1990 H     1 <1>   0.0800 
 34 H        7.8460     5.5970     1.1080 H     1 <1>   0.0800 
 35 H        6.3160     4.2310     2.3670 H     1 <1>   0.0800 
 36 H        5.2320     5.4120     1.6460 H     1 <1>   0.0800 
 37 H        8.7480     1.6050    -0.7890 H     1 <1>   0.3700 
 38 H       11.4760     2.4540     1.5410 H     1 <1>   0.1500 
 39 H       13.0550     0.6950     2.2650 H     1 <1>   0.1500 
 40 H       12.6270    -1.6170     1.4770 H     1 <1>   0.1500 
 41 H        9.6180    -2.7750     0.2270 H     1 <1>   0.0800 
 42 H       11.3250    -3.1570     0.2410 H     1 <1>   0.0800 
 43 H       10.5930    -2.4670    -1.1900 H     1 <1>   0.0800 
@<TRIPOS>BOND
  1   1   2  1   
  2   2   3  ar  
  3   2   4  ar  
  4   3   5  ar  
  5   3  26  1   
  6   4   6  ar  
  7   4  27  1   
  8   5   7  ar  
  9   5  28  1   
 10   6   7  ar  
 11   6  29  1   
 12   7   8  1   
 13   8   9  2   
 14   8  10  2   
 15   8  11  am  
 16  11  12  1   
 17  11  13  1   
 18  12  14  1   
 19  12  15  1   
 20  12  30  1   
 21  13  16  1   
 22  13  31  1   
 23  13  32  1   
 24  14  17  2   
 25  14  18  am  
 26  15  16  1   
 27  15  33  1   
 28  15  34  1   
 29  16  35  1   
 30  16  36  1   
 31  18  19  1   
 32  18  37  1   
 33  19  20  ar  
 34  19  21  ar  
 35  20  22  ar  
 36  21  23  ar  
 37  21  38  1   
 38  22  24  ar  
 39  22  25  1   
 40  23  24  ar  
 41  23  39  1   
 42  24  40  1   
 43  25  41  1   
 44  25  42  1   
 45  25  43  1   
@<TRIPOS>SUBSTRUCTURE
  1 ****  18 GROUP 4 **** **** 0

# MOE 2024.06 (io_trps.svl 2023.06)
