@<TRIPOS>MOLECULE
NONAME
37 37 1 0 0 
SMALL
USER_CHARGES


@<TRIPOS>ATOM
  1 CL       0.4040    -0.5690    -1.4610 Cl    1 <1>  -0.1770 
  2 C        1.7800    -1.4680    -0.9000 C.ar  1 <1>   0.7970 
  3 N        1.5420    -2.6920    -0.5420 N.ar  1 <1>  -0.6200 
  4 N        2.9070    -0.8240    -0.8940 N.ar  1 <1>  -0.6200 
  5 C        2.6150    -3.3250    -0.1300 C.ar  1 <1>   0.7200 
  6 C        3.8920    -1.5580    -0.4610 C.ar  1 <1>   0.7200 
  7 N        3.8120    -2.7980    -0.0670 N.ar  1 <1>  -0.6200 
  8 N        2.4690    -4.6400     0.2580 N.pl3 1 <1>  -0.8380 
  9 N        5.0810    -0.9160    -0.4430 N.pl3 1 <1>  -0.8690 
 10 C        1.1370    -5.2190     0.5920 C.3   1 <1>   0.2090 
 11 C        3.6440    -5.5080     0.5500 C.3   1 <1>   0.2090 
 12 C        6.3940    -1.3150     0.0610 C.3   1 <1>   0.3690 
 13 C        0.6250    -6.0430    -0.5840 C.3   1 <1>  -0.2400 
 14 C        4.2480    -6.0140    -0.7570 C.3   1 <1>  -0.2400 
 15 C        6.3110    -1.6220     1.5550 C.3   1 <1>  -0.2400 
 16 C        7.3110    -0.1140    -0.1610 C.3   1 <1>  -0.2400 
 17 C        6.9200    -2.5080    -0.7360 C.3   1 <1>  -0.2400 
 18 H        5.0250     0.0500    -0.7530 H     1 <1>   0.4000 
 19 H        0.4320    -4.4360     0.8170 H     1 <1>   0.0800 
 20 H        1.2160    -5.8380     1.4700 H     1 <1>   0.0800 
 21 H        3.3450    -6.3460     1.1560 H     1 <1>   0.0800 
 22 H        4.3830    -4.9530     1.1040 H     1 <1>   0.0800 
 23 H        0.5890    -5.4340    -1.4690 H     1 <1>   0.0800 
 24 H       -0.3660    -6.3990    -0.3720 H     1 <1>   0.0800 
 25 H        1.2620    -6.8900    -0.7560 H     1 <1>   0.0800 
 26 H        3.5270    -6.5850    -1.3100 H     1 <1>   0.0800 
 27 H        5.0940    -6.6410    -0.5450 H     1 <1>   0.0800 
 28 H        4.5790    -5.1860    -1.3570 H     1 <1>   0.0800 
 29 H        5.8850    -0.7890     2.0850 H     1 <1>   0.0800 
 30 H        7.2920    -1.8130     1.9480 H     1 <1>   0.0800 
 31 H        5.7090    -2.4930     1.7330 H     1 <1>   0.0800 
 32 H        6.9500     0.7410     0.3820 H     1 <1>   0.0800 
 33 H        7.3680     0.1280    -1.2070 H     1 <1>   0.0800 
 34 H        8.3030    -0.3370     0.1870 H     1 <1>   0.0800 
 35 H        6.3230    -3.3820    -0.5530 H     1 <1>   0.0800 
 36 H        7.9290    -2.7320    -0.4440 H     1 <1>   0.0800 
 37 H        6.9070    -2.2900    -1.7880 H     1 <1>   0.0800 
@<TRIPOS>BOND
  1   1   2  1   
  2   2   3  ar  
  3   2   4  ar  
  4   3   5  ar  
  5   4   6  ar  
  6   5   7  ar  
  7   5   8  1   
  8   6   7  ar  
  9   6   9  1   
 10   8  10  1   
 11   8  11  1   
 12   9  12  1   
 13   9  18  1   
 14  10  13  1   
 15  10  19  1   
 16  10  20  1   
 17  11  14  1   
 18  11  21  1   
 19  11  22  1   
 20  12  15  1   
 21  12  16  1   
 22  12  17  1   
 23  13  23  1   
 24  13  24  1   
 25  13  25  1   
 26  14  26  1   
 27  14  27  1   
 28  14  28  1   
 29  15  29  1   
 30  15  30  1   
 31  15  31  1   
 32  16  32  1   
 33  16  33  1   
 34  16  34  1   
 35  17  35  1   
 36  17  36  1   
 37  17  37  1   
@<TRIPOS>SUBSTRUCTURE
  1 ****   7 GROUP 4 **** **** 0

# MOE 2024.06 (io_trps.svl 2023.06)
