@<TRIPOS>MOLECULE
NONAME
34 35 1 0 0 
SMALL
USER_CHARGES


@<TRIPOS>ATOM
  1 BR      -0.1480     0.6450    -0.2410 Br    1 <1>  -0.1110 
  2 C        1.7790     0.6430    -0.2530 C.ar  1 <1>   0.1110 
  3 C        2.4530    -0.0410     0.7400 C.ar  1 <1>  -0.1500 
  4 C        2.4400     1.3260    -1.2560 C.ar  1 <1>  -0.1500 
  5 C        3.8370    -0.0370     0.7230 C.ar  1 <1>  -0.1500 
  6 C        3.8240     1.3200    -1.2580 C.ar  1 <1>  -0.1500 
  7 C        4.5400     0.6390    -0.2740 C.ar  1 <1>   0.1170 
  8 N        5.9400     0.6780    -0.3130 N.am  1 <1>  -0.5470 
  9 C        6.8810    -0.1890     0.1690 C.2   1 <1>   0.6900 
 10 O        6.5580    -1.2720     0.6210 O.2   1 <1>  -0.5700 
 11 N        8.2040     0.1740     0.1020 N.am  1 <1>  -0.6600 
 12 C        9.2390    -0.8990     0.1840 C.3   1 <1>   0.1400 
 13 C        8.6160     1.6100     0.1400 C.3   1 <1>   0.1400 
 14 C       10.4580    -0.6330    -0.7060 C.3   1 <1>  -0.1600 
 15 C        9.8700     1.8860     0.9790 C.3   1 <1>  -0.1600 
 16 C       11.5440     0.1940    -0.0030 C.3   1 <1>  -0.1600 
 17 C       11.1770     1.6670     0.2030 C.3   1 <1>  -0.1600 
 18 H        1.9090    -0.5640     1.5060 H     1 <1>   0.1500 
 19 H        1.8820     1.8470    -2.0130 H     1 <1>   0.1500 
 20 H        4.3740    -0.5620     1.4920 H     1 <1>   0.1500 
 21 H        4.3520     1.8440    -2.0330 H     1 <1>   0.1500 
 22 H        6.3470     1.3950    -0.9010 H     1 <1>   0.3700 
 23 H        8.7970    -1.8280    -0.1370 H     1 <1>   0.0800 
 24 H        9.5390    -1.0290     1.2090 H     1 <1>   0.0800 
 25 H        7.8130     2.1860     0.5690 H     1 <1>   0.0800 
 26 H        8.7680     1.9590    -0.8670 H     1 <1>   0.0800 
 27 H       10.1570    -0.1780    -1.6330 H     1 <1>   0.0800 
 28 H       10.8920    -1.5870    -0.9460 H     1 <1>   0.0800 
 29 H        9.8510     1.3120     1.8890 H     1 <1>   0.0800 
 30 H        9.8400     2.9230     1.2610 H     1 <1>   0.0800 
 31 H       12.4420     0.1520    -0.5950 H     1 <1>   0.0800 
 32 H       11.7710    -0.2520     0.9500 H     1 <1>   0.0800 
 33 H       11.9790     2.1350     0.7470 H     1 <1>   0.0800 
 34 H       11.1150     2.1570    -0.7540 H     1 <1>   0.0800 
@<TRIPOS>BOND
  1   1   2  1   
  2   2   3  ar  
  3   2   4  ar  
  4   3   5  ar  
  5   3  18  1   
  6   4   6  ar  
  7   4  19  1   
  8   5   7  ar  
  9   5  20  1   
 10   6   7  ar  
 11   6  21  1   
 12   7   8  1   
 13   8   9  am  
 14   8  22  1   
 15   9  10  2   
 16   9  11  am  
 17  11  12  1   
 18  11  13  1   
 19  12  14  1   
 20  12  23  1   
 21  12  24  1   
 22  13  15  1   
 23  13  25  1   
 24  13  26  1   
 25  14  16  1   
 26  14  27  1   
 27  14  28  1   
 28  15  17  1   
 29  15  29  1   
 30  15  30  1   
 31  16  17  1   
 32  16  31  1   
 33  16  32  1   
 34  17  33  1   
 35  17  34  1   
@<TRIPOS>SUBSTRUCTURE
  1 ****   8 GROUP 4 **** **** 0

# MOE 2024.06 (io_trps.svl 2023.06)
