@<TRIPOS>MOLECULE
NONAME
46 48 1 0 0 
SMALL
USER_CHARGES


@<TRIPOS>ATOM
  1 CL       1.4190     0.1690    -1.3640 Cl    1 <1>  -0.1770 
  2 C        1.9190    -1.4770    -1.0720 C.ar  1 <1>   0.1770 
  3 C        2.0520    -2.3450    -2.1390 C.ar  1 <1>  -0.1500 
  4 C        2.1750    -1.8890     0.2220 C.ar  1 <1>  -0.1500 
  5 C        2.4480    -3.6520    -1.9050 C.ar  1 <1>  -0.1500 
  6 C        2.5710    -3.1970     0.4500 C.ar  1 <1>  -0.1500 
  7 C        2.7060    -4.0840    -0.6100 C.ar  1 <1>  -0.1430 
  8 C        3.1310    -5.5200    -0.3480 C.3   1 <1>   0.2640 
  9 O        4.4880    -5.5220    -0.0240 O.3   1 <1>  -0.5600 
 10 C        5.0350    -6.7830     0.2080 C.3   1 <1>   0.1200 
 11 C        6.5260    -6.6020     0.5290 C.3   1 <1>   0.2000 
 12 O        7.0770    -5.7390    -0.4170 O.3   1 <1>  -0.6800 
 13 C        7.3210    -7.9260     0.5250 C.3   1 <1>   0.3430 
 14 N        8.7710    -7.6630     0.2700 N.4   1 <1>  -0.9590 
 15 C        9.4850    -8.8150    -0.3430 C.3   1 <1>   0.4860 
 16 C        9.5050    -7.1290     1.4510 C.3   1 <1>   0.3430 
 17 C       10.9420    -8.4700    -0.6120 C.ar  1 <1>  -0.1430 
 18 C       10.8290    -6.5120     0.9990 C.3   1 <1>  -0.0170 
 19 C       11.5770    -7.4060     0.0210 C.ar  1 <1>  -0.1430 
 20 C       11.6550    -9.2530    -1.5090 C.ar  1 <1>  -0.1500 
 21 C       12.9100    -7.1400    -0.2480 C.ar  1 <1>  -0.1500 
 22 C       12.9850    -8.9820    -1.7730 C.ar  1 <1>  -0.1500 
 23 C       13.6130    -7.9260    -1.1420 C.ar  1 <1>  -0.1500 
 24 H        1.8490    -1.9990    -3.1360 H     1 <1>   0.1500 
 25 H        2.0670    -1.1940     1.0350 H     1 <1>   0.1500 
 26 H        2.5530    -4.3270    -2.7360 H     1 <1>   0.1500 
 27 H        2.7760    -3.5220     1.4550 H     1 <1>   0.1500 
 28 H        2.9790    -6.1260    -1.2240 H     1 <1>   0.0800 
 29 H        2.5740    -5.9280     0.4780 H     1 <1>   0.0800 
 30 H        4.9080    -7.3810    -0.6790 H     1 <1>   0.0800 
 31 H        4.5190    -7.2420     1.0340 H     1 <1>   0.0800 
 32 H        6.6160    -6.1270     1.4910 H     1 <1>   0.0800 
 33 H        6.4000    -5.0390    -0.5960 H     1 <1>   0.4000 
 34 H        6.9290    -8.5430    -0.2660 H     1 <1>   0.0800 
 35 H        7.1820    -8.4500     1.4560 H     1 <1>   0.0800 
 36 H        8.7640    -6.8960    -0.4310 H     1 <1>   0.4500 
 37 H        9.0110    -9.0850    -1.2720 H     1 <1>   0.0800 
 38 H        9.4460    -9.6640     0.3190 H     1 <1>   0.0800 
 39 H        9.7010    -7.9280     2.1470 H     1 <1>   0.0800 
 40 H        8.9170    -6.3740     1.9480 H     1 <1>   0.0800 
 41 H       11.4400    -6.3270     1.8650 H     1 <1>   0.0800 
 42 H       10.6340    -5.5640     0.5290 H     1 <1>   0.0800 
 43 H       11.1880   -10.0820    -2.0130 H     1 <1>   0.1500 
 44 H       13.4120    -6.3170     0.2330 H     1 <1>   0.1500 
 45 H       13.5350    -9.5930    -2.4700 H     1 <1>   0.1500 
 46 H       14.6490    -7.7140    -1.3480 H     1 <1>   0.1500 
@<TRIPOS>BOND
  1   1   2  1   
  2   2   3  ar  
  3   2   4  ar  
  4   3   5  ar  
  5   3  24  1   
  6   4   6  ar  
  7   4  25  1   
  8   5   7  ar  
  9   5  26  1   
 10   6   7  ar  
 11   6  27  1   
 12   7   8  1   
 13   8   9  1   
 14   8  28  1   
 15   8  29  1   
 16   9  10  1   
 17  10  11  1   
 18  10  30  1   
 19  10  31  1   
 20  11  12  1   
 21  11  13  1   
 22  11  32  1   
 23  12  33  1   
 24  13  14  1   
 25  13  34  1   
 26  13  35  1   
 27  14  15  1   
 28  14  16  1   
 29  14  36  1   
 30  15  17  1   
 31  15  37  1   
 32  15  38  1   
 33  16  18  1   
 34  16  39  1   
 35  16  40  1   
 36  17  19  ar  
 37  17  20  ar  
 38  18  19  1   
 39  18  41  1   
 40  18  42  1   
 41  19  21  ar  
 42  20  22  ar  
 43  20  43  1   
 44  21  23  ar  
 45  21  44  1   
 46  22  23  ar  
 47  22  45  1   
 48  23  46  1   
@<TRIPOS>SUBSTRUCTURE
  1 ****  12 GROUP 4 **** **** 0

# MOE 2024.06 (io_trps.svl 2023.06)
