@<TRIPOS>MOLECULE
NONAME
33 35 1 0 0 
SMALL
USER_CHARGES


@<TRIPOS>ATOM
  1 S        0.1500    -0.1350     0.3110 S.3   1 <1>  -0.2860 
  2 C        1.2460     1.1120    -0.2920 C.2   1 <1>   0.2420 
  3 C        1.5250    -1.2470     0.8380 C.3   1 <1>   0.1500 
  4 N        1.0500     2.2350    -0.8770 N.2   1 <1>  -0.3380 
  5 N        2.5040     0.8170    -0.0770 N.pl3 1 <1>   0.0480 
  6 C        2.8210    -0.4050     0.6960 C.3   1 <1>   0.0960 
  7 C        1.4920    -2.4680    -0.0840 C.3   1 <1>  -0.2400 
  8 N        2.2770     2.7390    -1.0630 N.2   1 <1>  -0.3380 
  9 C        3.1450     1.8860    -0.5810 C.2   1 <1>   0.1330 
 10 C        4.5770     2.0560    -0.5620 C.ar  1 <1>   0.0530 
 11 C        5.4390     1.0490    -0.9870 C.ar  1 <1>  -0.1500 
 12 C        5.1410     3.2480    -0.1130 C.ar  1 <1>  -0.1500 
 13 C        6.8160     1.2000    -0.9420 C.ar  1 <1>   0.1170 
 14 C        6.5120     3.4190    -0.0720 C.ar  1 <1>  -0.1500 
 15 N        7.6360     0.1530    -1.3740 N.am  1 <1>  -0.5470 
 16 C        7.3480     2.3980    -0.4850 C.ar  1 <1>  -0.1500 
 17 C        8.6680    -0.4780    -0.7580 C.2   1 <1>   0.5690 
 18 O        9.2380    -1.3750    -1.3200 O.2   1 <1>  -0.5700 
 19 C        9.1030    -0.0930     0.6360 C.3   1 <1>  -0.1790 
 20 H        1.3450    -1.5290     1.8620 H     1 <1>   0.0800 
 21 H        3.5920    -0.9640     0.1980 H     1 <1>   0.0800 
 22 H        3.1730    -0.1110     1.6670 H     1 <1>   0.0800 
 23 H        1.6150    -2.1710    -1.1110 H     1 <1>   0.0800 
 24 H        0.5490    -2.9760     0.0160 H     1 <1>   0.0800 
 25 H        2.2770    -3.1560     0.1770 H     1 <1>   0.0800 
 26 H        5.0300     0.1320    -1.3670 H     1 <1>   0.1500 
 27 H        4.4890     4.0450     0.2030 H     1 <1>   0.1500 
 28 H        6.9270     4.3500     0.2770 H     1 <1>   0.1500 
 29 H        7.4250    -0.2490    -2.2880 H     1 <1>   0.3700 
 30 H        8.4130     2.5390    -0.4630 H     1 <1>   0.1500 
 31 H        8.2500     0.1330     1.2470 H     1 <1>   0.0800 
 32 H        9.7510     0.7610     0.5890 H     1 <1>   0.0800 
 33 H        9.6410    -0.9090     1.0820 H     1 <1>   0.0800 
@<TRIPOS>BOND
  1   1   2  1   
  2   1   3  1   
  3   2   4  2   
  4   2   5  1   
  5   3   6  1   
  6   3   7  1   
  7   3  20  1   
  8   4   8  1   
  9   5   6  1   
 10   5   9  1   
 11   6  21  1   
 12   6  22  1   
 13   7  23  1   
 14   7  24  1   
 15   7  25  1   
 16   8   9  2   
 17   9  10  1   
 18  10  11  ar  
 19  10  12  ar  
 20  11  13  ar  
 21  11  26  1   
 22  12  14  ar  
 23  12  27  1   
 24  13  15  1   
 25  13  16  ar  
 26  14  16  ar  
 27  14  28  1   
 28  15  17  am  
 29  15  29  1   
 30  16  30  1   
 31  17  18  2   
 32  17  19  1   
 33  19  31  1   
 34  19  32  1   
 35  19  33  1   
@<TRIPOS>SUBSTRUCTURE
  1 ****  11 GROUP 4 **** **** 0

# MOE 2024.06 (io_trps.svl 2023.06)
