@<TRIPOS>MOLECULE
NONAME
45 48 1 0 0 
SMALL
USER_CHARGES


@<TRIPOS>ATOM
  1 O       -0.5240     1.3590    -1.6960 O.2   1 <1>  -0.5700 
  2 C       -0.9800     2.0830    -0.8510 C.2   1 <1>   0.6590 
  3 O       -2.1860     1.9100    -0.3360 O.3   1 <1>  -0.4300 
  4 C       -0.2020     3.2530    -0.3100 C.3   1 <1>  -0.1790 
  5 C       -3.0300     0.8470    -0.7500 C.3   1 <1>   0.2000 
  6 C       -4.5050     1.0500    -0.3100 C.3   1 <1>   0.1380 
  7 C       -2.5830    -0.4940    -0.1380 C.3   1 <1>  -0.0220 
  8 C       -4.9480    -0.3850    -0.0740 C.2   1 <1>  -0.1380 
  9 C       -5.3900     1.6990    -1.4020 C.3   1 <1>  -0.1600 
 10 C       -4.6150     1.8220     1.0230 C.3   1 <1>  -0.2400 
 11 C       -3.9020    -1.2060     0.0600 C.2   1 <1>  -0.2880 
 12 C       -6.3620    -0.6090    -0.0570 C.2   1 <1>  -0.1380 
 13 C       -6.9020     1.6330    -1.0760 C.3   1 <1>  -0.0220 
 14 C       -7.2720     0.2760    -0.4930 C.2   1 <1>  -0.1670 
 15 C       -7.0450    -1.8740     0.4390 C.3   1 <1>   0.1220 
 16 C       -8.5940    -0.2330    -0.3360 C.ar  1 <1>   0.0280 
 17 C       -8.5070    -1.5020     0.2100 C.ar  1 <1>  -0.1430 
 18 C       -9.8410     0.3070    -0.6250 C.ar  1 <1>  -0.1500 
 19 C       -9.6410    -2.2460     0.4740 C.ar  1 <1>  -0.1500 
 20 C      -10.9840    -0.4310    -0.3640 C.ar  1 <1>  -0.1500 
 21 C      -10.8900    -1.7110     0.1870 C.ar  1 <1>   0.0820 
 22 O      -11.9630    -2.4890     0.4680 O.3   1 <1>  -0.3620 
 23 C      -13.2790    -2.0510     0.2160 C.3   1 <1>   0.0400 
 24 H       -0.7410     4.1610    -0.5000 H     1 <1>   0.0800 
 25 H        0.7580     3.3030    -0.7880 H     1 <1>   0.0800 
 26 H       -0.0660     3.1330     0.7480 H     1 <1>   0.0800 
 27 H       -2.9880     0.7740    -1.8230 H     1 <1>   0.0800 
 28 H       -2.0920    -0.3570     0.8090 H     1 <1>   0.0800 
 29 H       -1.9490    -1.0290    -0.8230 H     1 <1>   0.0800 
 30 H       -5.2330     1.1640    -2.3220 H     1 <1>   0.0800 
 31 H       -5.0930     2.7200    -1.5610 H     1 <1>   0.0800 
 32 H       -3.9690     1.3810     1.7610 H     1 <1>   0.0800 
 33 H       -5.6200     1.7880     1.4040 H     1 <1>   0.0800 
 34 H       -4.3330     2.8500     0.8890 H     1 <1>   0.0800 
 35 H       -3.9010    -2.2630     0.2600 H     1 <1>   0.1500 
 36 H       -7.4680     1.8070    -1.9740 H     1 <1>   0.0800 
 37 H       -7.1610     2.3970    -0.3650 H     1 <1>   0.0800 
 38 H       -6.8410    -2.0410     1.4800 H     1 <1>   0.0800 
 39 H       -6.7600    -2.7250    -0.1520 H     1 <1>   0.0800 
 40 H       -9.9090     1.2920    -1.0480 H     1 <1>   0.1500 
 41 H       -9.5710    -3.2300     0.8980 H     1 <1>   0.1500 
 42 H      -11.9370     0.0030    -0.5940 H     1 <1>   0.1500 
 43 H      -13.9540    -2.8320     0.5170 H     1 <1>   0.0800 
 44 H      -13.3870    -1.8590    -0.8360 H     1 <1>   0.0800 
 45 H      -13.4670    -1.1620     0.7930 H     1 <1>   0.0800 
@<TRIPOS>BOND
  1   1   2  2   
  2   2   3  1   
  3   2   4  1   
  4   3   5  1   
  5   4  24  1   
  6   4  25  1   
  7   4  26  1   
  8   5   6  1   
  9   5   7  1   
 10   5  27  1   
 11   6   8  1   
 12   6   9  1   
 13   6  10  1   
 14   7  11  1   
 15   7  28  1   
 16   7  29  1   
 17   8  11  2   
 18   8  12  1   
 19   9  13  1   
 20   9  30  1   
 21   9  31  1   
 22  10  32  1   
 23  10  33  1   
 24  10  34  1   
 25  11  35  1   
 26  12  14  2   
 27  12  15  1   
 28  13  14  1   
 29  13  36  1   
 30  13  37  1   
 31  14  16  1   
 32  15  17  1   
 33  15  38  1   
 34  15  39  1   
 35  16  17  ar  
 36  16  18  ar  
 37  17  19  ar  
 38  18  20  ar  
 39  18  40  1   
 40  19  21  ar  
 41  19  41  1   
 42  20  21  ar  
 43  20  42  1   
 44  21  22  1   
 45  22  23  1   
 46  23  43  1   
 47  23  44  1   
 48  23  45  1   
@<TRIPOS>SUBSTRUCTURE
  1 ****  12 GROUP 4 **** **** 0

# MOE 2024.06 (io_trps.svl 2023.06)
