@<TRIPOS>MOLECULE
NONAME
49 51 1 0 0 
SMALL
USER_CHARGES


@<TRIPOS>ATOM
  1 O       -0.1030    -1.5070     0.7800 O.2   1 <1>  -0.5700 
  2 C       -0.5580    -2.5230     0.3050 C.2   1 <1>   0.5690 
  3 N        0.2350    -3.5750    -0.0400 N.am  1 <1>  -0.7300 
  4 C       -2.0770    -2.6500     0.0550 C.3   1 <1>   0.0610 
  5 C        1.6970    -3.7110    -0.0540 C.3   1 <1>   0.3000 
  6 C       -2.8480    -1.3900     0.5290 C.3   1 <1>  -0.1600 
  7 C       -2.6480    -3.8730     0.8150 C.3   1 <1>  -0.1600 
  8 C       -2.3550    -2.8380    -1.4580 C.3   1 <1>  -0.1600 
  9 C        2.0230    -5.1910    -0.3810 C.3   1 <1>   0.1200 
 10 C        2.2830    -3.3550     1.3160 C.3   1 <1>  -0.2400 
 11 C        2.2520    -2.7850    -1.1390 C.3   1 <1>  -0.2400 
 12 C       -4.3620    -1.5230     0.2740 C.3   1 <1>   0.0000 
 13 C       -4.1600    -4.0360     0.5610 C.3   1 <1>   0.0000 
 14 C       -3.8630    -2.9890    -1.7240 C.3   1 <1>  -0.0800 
 15 O        1.2370    -5.6810    -1.4330 O.3   1 <1>  -0.6800 
 16 C       -4.8850    -2.7590     1.0320 C.3   1 <1>  -0.1600 
 17 C       -4.5940    -1.7260    -1.2360 C.3   1 <1>  -0.1600 
 18 C       -5.0910    -0.2610     0.7550 C.3   1 <1>  -0.2400 
 19 C       -4.3940    -4.2120    -0.9540 C.3   1 <1>  -0.1600 
 20 C       -4.6940    -5.2570     1.3220 C.3   1 <1>  -0.2400 
 21 H       -0.1860    -4.3460    -0.5650 H     1 <1>   0.3700 
 22 H       -2.4680    -0.5250     0.0130 H     1 <1>   0.0800 
 23 H       -2.6680    -1.2390     1.5800 H     1 <1>   0.0800 
 24 H       -2.4670    -3.7480     1.8690 H     1 <1>   0.0800 
 25 H       -2.1390    -4.7680     0.5040 H     1 <1>   0.0800 
 26 H       -1.9740    -1.9900    -2.0000 H     1 <1>   0.0800 
 27 H       -1.8440    -3.7110    -1.8240 H     1 <1>   0.0800 
 28 H        1.8330    -5.8050     0.4820 H     1 <1>   0.0800 
 29 H        3.0590    -5.2900    -0.6540 H     1 <1>   0.0800 
 30 H        3.3370    -3.5620     1.3340 H     1 <1>   0.0800 
 31 H        1.8050    -3.9300     2.0890 H     1 <1>   0.0800 
 32 H        2.1520    -2.3100     1.5300 H     1 <1>   0.0800 
 33 H        3.3200    -2.8810    -1.2020 H     1 <1>   0.0800 
 34 H        2.0180    -1.7600    -0.9130 H     1 <1>   0.0800 
 35 H        1.8300    -3.0370    -2.0960 H     1 <1>   0.0800 
 36 H       -4.0340    -3.1220    -2.7790 H     1 <1>   0.0800 
 37 H        1.5100    -6.5890    -1.6710 H     1 <1>   0.4000 
 38 H       -4.7330    -2.6260     2.0890 H     1 <1>   0.0800 
 39 H       -5.9430    -2.8630     0.8660 H     1 <1>   0.0800 
 40 H       -4.2350    -0.8700    -1.7810 H     1 <1>   0.0800 
 41 H       -5.6470    -1.8210    -1.4350 H     1 <1>   0.0800 
 42 H       -4.9290    -0.1130     1.8080 H     1 <1>   0.0800 
 43 H       -6.1480    -0.3470     0.5800 H     1 <1>   0.0800 
 44 H       -4.7270     0.6040     0.2310 H     1 <1>   0.0800 
 45 H       -5.4450    -4.3300    -1.1500 H     1 <1>   0.0800 
 46 H       -3.8960    -5.1000    -1.3020 H     1 <1>   0.0800 
 47 H       -4.5330    -5.1400     2.3790 H     1 <1>   0.0800 
 48 H       -4.1940    -6.1510     0.9970 H     1 <1>   0.0800 
 49 H       -5.7490    -5.3750     1.1490 H     1 <1>   0.0800 
@<TRIPOS>BOND
  1   1   2  2   
  2   2   3  am  
  3   2   4  1   
  4   3   5  1   
  5   3  21  1   
  6   4   6  1   
  7   4   7  1   
  8   4   8  1   
  9   5   9  1   
 10   5  10  1   
 11   5  11  1   
 12   6  12  1   
 13   6  22  1   
 14   6  23  1   
 15   7  13  1   
 16   7  24  1   
 17   7  25  1   
 18   8  14  1   
 19   8  26  1   
 20   8  27  1   
 21   9  15  1   
 22   9  28  1   
 23   9  29  1   
 24  10  30  1   
 25  10  31  1   
 26  10  32  1   
 27  11  33  1   
 28  11  34  1   
 29  11  35  1   
 30  12  16  1   
 31  12  17  1   
 32  12  18  1   
 33  13  16  1   
 34  13  19  1   
 35  13  20  1   
 36  14  17  1   
 37  14  19  1   
 38  14  36  1   
 39  15  37  1   
 40  16  38  1   
 41  16  39  1   
 42  17  40  1   
 43  17  41  1   
 44  18  42  1   
 45  18  43  1   
 46  18  44  1   
 47  19  45  1   
 48  19  46  1   
 49  20  47  1   
 50  20  48  1   
 51  20  49  1   
@<TRIPOS>SUBSTRUCTURE
  1 ****   4 GROUP 4 **** **** 0

# MOE 2024.06 (io_trps.svl 2023.06)
