@<TRIPOS>MOLECULE
NONAME
26 27 1 0 0 
SMALL
USER_CHARGES


@<TRIPOS>ATOM
  1 S        0.0680     0.3890    -0.0480 S.3   1 <1>  -0.2860 
  2 C        1.6710    -0.4010    -0.0190 C.2   1 <1>   0.5340 
  3 C       -1.1220    -1.0260    -0.0020 C.3   1 <1>   0.0700 
  4 O        2.7200     0.3450    -0.0420 O.3   1 <1>  -0.2800 
  5 N        1.9190    -1.6510     0.0240 N.2   1 <1>  -0.3380 
  6 C       -2.5370    -0.4610    -0.0240 C.3   1 <1>  -0.2660 
  7 C        3.6980    -0.5150    -0.0120 C.2   1 <1>   0.4790 
  8 N        3.2510    -1.7300     0.0290 N.2   1 <1>  -0.3380 
  9 C       -3.5200    -1.5950     0.0120 C.2   1 <1>   0.9060 
 10 C        5.0660    -0.0550    -0.0250 C.2   1 <1>  -0.0010 
 11 O       -3.8940    -2.0110     1.1110 O.co2 1 <1>  -0.9000 
 12 O       -3.8910    -2.0840    -1.0570 O.co2 1 <1>  -0.9000 
 13 C        6.2450    -0.7420     0.0010 C.2   1 <1>  -0.0400 
 14 C        5.4610     1.2990    -0.0700 C.2   1 <1>  -0.1500 
 15 O        7.2710     0.0780    -0.0250 O.3   1 <1>  -0.2800 
 16 C        6.5490    -2.2270     0.0510 C.3   1 <1>  -0.0600 
 17 C        6.8080     1.3080    -0.0680 C.2   1 <1>  -0.0100 
 18 H       -0.9380    -1.5840     0.8990 H     1 <1>   0.0800 
 19 H       -0.9350    -1.6440    -0.8640 H     1 <1>   0.0800 
 20 H       -2.7040     0.1040    -0.9200 H     1 <1>   0.0800 
 21 H       -2.7070     0.1630     0.8310 H     1 <1>   0.0800 
 22 H        4.7880     2.1370    -0.1000 H     1 <1>   0.1500 
 23 H        5.6490    -2.8120     0.0700 H     1 <1>   0.0800 
 24 H        7.1210    -2.4470     0.9340 H     1 <1>   0.0800 
 25 H        7.1240    -2.5060    -0.8120 H     1 <1>   0.0800 
 26 H        7.5070     2.1250    -0.0940 H     1 <1>   0.1500 
@<TRIPOS>BOND
  1   1   2  1   
  2   1   3  1   
  3   2   4  1   
  4   2   5  2   
  5   3   6  1   
  6   3  18  1   
  7   3  19  1   
  8   4   7  1   
  9   5   8  1   
 10   6   9  1   
 11   6  20  1   
 12   6  21  1   
 13   7   8  2   
 14   7  10  1   
 15   9  11  ar  
 16   9  12  ar  
 17  10  13  2   
 18  10  14  1   
 19  13  15  1   
 20  13  16  1   
 21  14  17  2   
 22  14  22  1   
 23  15  17  1   
 24  16  23  1   
 25  16  24  1   
 26  16  25  1   
 27  17  26  1   
@<TRIPOS>SUBSTRUCTURE
  1 ****   2 GROUP 4 **** **** 0

# MOE 2024.06 (io_trps.svl 2023.06)
