@<TRIPOS>MOLECULE
ka-07825
41 42 1 0 0 
SMALL
USER_CHARGES


@<TRIPOS>ATOM
  1 O        0.3620     1.0150     0.1550 O.3   1 <1>  -0.3630 
  2 C       -0.7050     1.7930    -0.1710 C.ar  1 <1>   0.0830 
  3 C        1.0800     1.1980     1.3630 C.3   1 <1>   0.3440 
  4 C       -1.5910     1.3080    -1.1310 C.ar  1 <1>  -0.1440 
  5 C       -0.9310     3.0400     0.4090 C.ar  1 <1>  -0.1500 
  6 C        2.1330     2.3040     1.2200 C.ar  1 <1>  -0.1440 
  7 C        1.7620    -0.1420     1.6800 C.3   1 <1>  -0.1600 
  8 C       -2.6880     2.0730    -1.4950 C.ar  1 <1>  -0.1500 
  9 C       -1.3860    -0.0500    -1.7850 C.3   1 <1>  -0.0960 
 10 C       -2.0300     3.7920     0.0380 C.ar  1 <1>  -0.1500 
 11 C        2.4540     2.8830    -0.0040 C.ar  1 <1>  -0.1500 
 12 C        2.8030     2.7350     2.3570 C.ar  1 <1>  -0.1500 
 13 C        2.9290    -0.4590     0.7390 C.3   1 <1>   0.3430 
 14 C       -2.9080     3.3090    -0.9140 C.ar  1 <1>  -0.1500 
 15 C        3.4330     3.8570    -0.0880 C.ar  1 <1>  -0.1500 
 16 C        3.7830     3.7080     2.2730 C.ar  1 <1>  -0.1500 
 17 N        2.4320    -0.6510    -0.6440 N.4   1 <1>  -0.9060 
 18 C        4.1010     4.2680     1.0500 C.ar  1 <1>  -0.1500 
 19 C        3.5040    -0.5020    -1.6680 C.3   1 <1>   0.2630 
 20 H        0.3720     1.4380     2.1390 H     1 <1>   0.0800 
 21 H       -0.2650     3.4520     1.1430 H     1 <1>   0.1500 
 22 H        2.1580    -0.0830     2.6780 H     1 <1>   0.0800 
 23 H        1.0380    -0.9370     1.6780 H     1 <1>   0.0800 
 24 H       -3.3820     1.7150    -2.2340 H     1 <1>   0.1500 
 25 H       -2.2250    -0.3060    -2.4090 H     1 <1>   0.0800 
 26 H       -1.2860    -0.8100    -1.0320 H     1 <1>   0.0800 
 27 H       -0.5030    -0.0330    -2.3960 H     1 <1>   0.0800 
 28 H       -2.2020     4.7550     0.4870 H     1 <1>   0.1500 
 29 H        1.9410     2.6000    -0.9070 H     1 <1>   0.1500 
 30 H        2.5690     2.3230     3.3240 H     1 <1>   0.1500 
 31 H        3.4410    -1.3480     1.0730 H     1 <1>   0.0800 
 32 H        3.6310     0.3600     0.7640 H     1 <1>   0.0800 
 33 H       -3.7640     3.8960    -1.2030 H     1 <1>   0.1500 
 34 H        3.6710     4.3050    -1.0380 H     1 <1>   0.1500 
 35 H        4.2970     4.0370     3.1610 H     1 <1>   0.1500 
 36 H        1.9610    -1.5600    -0.7270 H     1 <1>   0.4500 
 37 H        1.6950     0.0640    -0.7960 H     1 <1>   0.4500 
 38 H        4.8620     5.0280     0.9860 H     1 <1>   0.1500 
 39 H        4.2680    -1.2490    -1.5240 H     1 <1>   0.0800 
 40 H        3.9560     0.4750    -1.5940 H     1 <1>   0.0800 
 41 H        3.0930    -0.6160    -2.6590 H     1 <1>   0.0800 
@<TRIPOS>BOND
  1   1   2  1   
  2   1   3  1   
  3   2   4  ar  
  4   2   5  ar  
  5   3   6  1   
  6   3   7  1   
  7   3  20  1   
  8   4   8  ar  
  9   4   9  1   
 10   5  10  ar  
 11   5  21  1   
 12   6  11  ar  
 13   6  12  ar  
 14   7  13  1   
 15   7  22  1   
 16   7  23  1   
 17   8  14  ar  
 18   8  24  1   
 19   9  25  1   
 20   9  26  1   
 21   9  27  1   
 22  10  14  ar  
 23  10  28  1   
 24  11  15  ar  
 25  11  29  1   
 26  12  16  ar  
 27  12  30  1   
 28  13  17  1   
 29  13  31  1   
 30  13  32  1   
 31  14  33  1   
 32  15  18  ar  
 33  15  34  1   
 34  16  18  ar  
 35  16  35  1   
 36  17  19  1   
 37  17  36  1   
 38  17  37  1   
 39  18  38  1   
 40  19  39  1   
 41  19  40  1   
 42  19  41  1   
@<TRIPOS>SUBSTRUCTURE
  1 ****   1 GROUP 4 **** **** 0

# MOE 2024.06 (io_trps.svl 2023.06)
