@<TRIPOS>MOLECULE
NONAME
40 41 1 0 0 
SMALL
USER_CHARGES


@<TRIPOS>ATOM
  1 S        0.4270     0.0360     0.5790 S.3   1 <1>  -0.3710 
  2 C       -1.2320    -0.0510    -0.0180 C.2   1 <1>   0.6510 
  3 C        0.4250     1.8550     0.6620 C.3   1 <1>   0.0700 
  4 N       -1.7810     1.0700    -0.2030 N.2   1 <1>  -0.6960 
  5 N       -1.8050    -1.2640    -0.2830 N.am  1 <1>  -0.4900 
  6 C       -0.9630     2.2510     0.1310 C.3   1 <1>   0.0860 
  7 C       -1.5240    -2.5310     0.1350 C.2   1 <1>   0.5690 
  8 O       -0.7020    -2.7700     0.9870 O.2   1 <1>  -0.5700 
  9 C       -2.3570    -3.6650    -0.5110 C.3   1 <1>   0.2810 
 10 N       -3.7910    -3.5910    -0.0970 N.am  1 <1>  -0.7300 
 11 C       -1.8610    -5.1250    -0.3280 C.3   1 <1>  -0.0800 
 12 C       -4.7040    -2.7170    -0.6090 C.2   1 <1>   0.5440 
 13 C       -1.9400    -5.6560     1.1170 C.3   1 <1>  -0.2400 
 14 C       -0.4400    -5.3260    -0.8790 C.3   1 <1>  -0.2400 
 15 O       -4.3080    -1.9100    -1.4290 O.2   1 <1>  -0.5700 
 16 C       -6.0860    -2.7260    -0.1610 C.ar  1 <1>   0.0860 
 17 C       -6.6980    -3.8870     0.3180 C.ar  1 <1>  -0.1500 
 18 C       -6.8560    -1.5640    -0.1940 C.ar  1 <1>  -0.1500 
 19 C       -8.0110    -3.8830     0.7540 C.ar  1 <1>  -0.1500 
 20 C       -8.1690    -1.5530     0.2410 C.ar  1 <1>  -0.1500 
 21 C       -8.7490    -2.7140     0.7180 C.ar  1 <1>  -0.1500 
 22 H        1.2230     2.2210     0.0410 H     1 <1>   0.0800 
 23 H        0.5680     2.1420     1.6880 H     1 <1>   0.0800 
 24 H       -2.6770    -1.1720    -0.8160 H     1 <1>   0.3700 
 25 H       -0.8530     2.8570    -0.7520 H     1 <1>   0.0800 
 26 H       -1.4810     2.8340     0.8740 H     1 <1>   0.0800 
 27 H       -2.3250    -3.4740    -1.5700 H     1 <1>   0.0800 
 28 H       -4.0130    -4.1110     0.7530 H     1 <1>   0.3700 
 29 H       -2.5080    -5.7420    -0.9300 H     1 <1>   0.0800 
 30 H       -1.2960    -5.0970     1.7710 H     1 <1>   0.0800 
 31 H       -1.6280    -6.6850     1.1470 H     1 <1>   0.0800 
 32 H       -2.9430    -5.6060     1.4980 H     1 <1>   0.0800 
 33 H        0.2840    -4.7900    -0.2900 H     1 <1>   0.0800 
 34 H       -0.3750    -4.9830    -1.8970 H     1 <1>   0.0800 
 35 H       -0.1780    -6.3700    -0.8600 H     1 <1>   0.0800 
 36 H       -6.1460    -4.8090     0.3430 H     1 <1>   0.1500 
 37 H       -6.4140    -0.6550    -0.5660 H     1 <1>   0.1500 
 38 H       -8.4630    -4.7890     1.1210 H     1 <1>   0.1500 
 39 H       -8.7410    -0.6410     0.2060 H     1 <1>   0.1500 
 40 H       -9.7710    -2.7080     1.0570 H     1 <1>   0.1500 
@<TRIPOS>BOND
  1   1   2  1   
  2   1   3  1   
  3   2   4  2   
  4   2   5  1   
  5   3   6  1   
  6   3  22  1   
  7   3  23  1   
  8   4   6  1   
  9   5   7  am  
 10   5  24  1   
 11   6  25  1   
 12   6  26  1   
 13   7   8  2   
 14   7   9  1   
 15   9  10  1   
 16   9  11  1   
 17   9  27  1   
 18  10  12  am  
 19  10  28  1   
 20  11  13  1   
 21  11  14  1   
 22  11  29  1   
 23  12  15  2   
 24  12  16  1   
 25  13  30  1   
 26  13  31  1   
 27  13  32  1   
 28  14  33  1   
 29  14  34  1   
 30  14  35  1   
 31  16  17  ar  
 32  16  18  ar  
 33  17  19  ar  
 34  17  36  1   
 35  18  20  ar  
 36  18  37  1   
 37  19  21  ar  
 38  19  38  1   
 39  20  21  ar  
 40  20  39  1   
 41  21  40  1   
@<TRIPOS>SUBSTRUCTURE
  1 ****  10 GROUP 4 **** **** 0

# MOE 2024.06 (io_trps.svl 2023.06)
