@<TRIPOS>MOLECULE
NONAME
42 43 1 0 0 
SMALL
USER_CHARGES


@<TRIPOS>ATOM
  1 O       -1.2140     0.9020     0.5130 O.3   1 <1>  -0.3620 
  2 C       -2.1900     1.0960    -0.4190 C.ar  1 <1>   0.0830 
  3 C        0.1290     1.2850     0.3130 C.3   1 <1>   0.0400 
  4 C       -2.0990     1.8410    -1.6070 C.ar  1 <1>   0.0830 
  5 C       -3.3890     0.4740    -0.1140 C.ar  1 <1>  -0.1500 
  6 O       -0.9820     2.4940    -1.9900 O.3   1 <1>  -0.5330 
  7 C       -3.1980     1.9340    -2.4470 C.ar  1 <1>  -0.1500 
  8 C       -4.4930     0.5810    -0.9460 C.ar  1 <1>  -0.1440 
  9 C       -4.3890     1.3090    -2.1220 C.ar  1 <1>  -0.1500 
 10 C       -5.7990    -0.0830    -0.5590 C.3   1 <1>   0.4860 
 11 N       -6.7330     0.9710    -0.0710 N.4   1 <1>  -0.9590 
 12 C       -6.2400     1.5980     1.1830 C.3   1 <1>   0.4380 
 13 C       -8.1360     0.4950     0.0630 C.3   1 <1>   0.3430 
 14 C       -6.8390     2.9990     1.2660 C.3   1 <1>  -0.1950 
 15 C       -8.7640     0.2900    -1.3170 C.3   1 <1>  -0.1600 
 16 C       -6.3800     4.0880     0.3430 C.3   1 <1>  -0.2000 
 17 C       -6.0210     4.1330     1.8000 C.3   1 <1>  -0.2000 
 18 C      -10.2450    -0.0850    -1.1920 C.3   1 <1>  -0.2400 
 19 H        0.7080     0.9260     1.1430 H     1 <1>   0.0800 
 20 H        0.1820     2.3580     0.2680 H     1 <1>   0.0800 
 21 H        0.4860     0.8440    -0.6010 H     1 <1>   0.0800 
 22 H       -3.4340    -0.0980     0.7970 H     1 <1>   0.1500 
 23 H       -1.0730     2.9510    -2.8450 H     1 <1>   0.4500 
 24 H       -3.1300     2.4960    -3.3620 H     1 <1>   0.1500 
 25 H       -5.2230     1.3980    -2.7970 H     1 <1>   0.1500 
 26 H       -5.6290    -0.8200     0.2090 H     1 <1>   0.0800 
 27 H       -6.2080    -0.5780    -1.4230 H     1 <1>   0.0800 
 28 H       -6.7100     1.7290    -0.7640 H     1 <1>   0.4500 
 29 H       -5.1670     1.6940     1.1520 H     1 <1>   0.0800 
 30 H       -6.5080     1.0110     2.0470 H     1 <1>   0.0800 
 31 H       -8.7180     1.2310     0.5940 H     1 <1>   0.0800 
 32 H       -8.1680    -0.4250     0.6250 H     1 <1>   0.0800 
 33 H       -7.8710     2.9940     1.5730 H     1 <1>   0.1000 
 34 H       -8.2620    -0.4980    -1.8500 H     1 <1>   0.0800 
 35 H       -8.6910     1.1990    -1.8890 H     1 <1>   0.0800 
 36 H       -7.0940     4.8090    -0.0220 H     1 <1>   0.1000 
 37 H       -5.5750     3.9210    -0.3540 H     1 <1>   0.1000 
 38 H       -4.9890     3.9790     2.0710 H     1 <1>   0.1000 
 39 H       -6.4950     4.8780     2.4180 H     1 <1>   0.1000 
 40 H      -10.3650    -1.0030    -0.6430 H     1 <1>   0.0800 
 41 H      -10.6750    -0.2210    -2.1700 H     1 <1>   0.0800 
 42 H      -10.7970     0.6920    -0.6910 H     1 <1>   0.0800 
@<TRIPOS>BOND
  1   1   2  1   
  2   1   3  1   
  3   2   4  ar  
  4   2   5  ar  
  5   3  19  1   
  6   3  20  1   
  7   3  21  1   
  8   4   6  1   
  9   4   7  ar  
 10   5   8  ar  
 11   5  22  1   
 12   6  23  1   
 13   7   9  ar  
 14   7  24  1   
 15   8   9  ar  
 16   8  10  1   
 17   9  25  1   
 18  10  11  1   
 19  10  26  1   
 20  10  27  1   
 21  11  12  1   
 22  11  13  1   
 23  11  28  1   
 24  12  14  1   
 25  12  29  1   
 26  12  30  1   
 27  13  15  1   
 28  13  31  1   
 29  13  32  1   
 30  14  16  1   
 31  14  17  1   
 32  14  33  1   
 33  15  18  1   
 34  15  34  1   
 35  15  35  1   
 36  16  17  1   
 37  16  36  1   
 38  16  37  1   
 39  17  38  1   
 40  17  39  1   
 41  18  40  1   
 42  18  41  1   
 43  18  42  1   
@<TRIPOS>SUBSTRUCTURE
  1 ****   8 GROUP 4 **** **** 0

# MOE 2024.06 (io_trps.svl 2023.06)
