@<TRIPOS>MOLECULE
Structure925
22 23 1 0 0 
SMALL
USER_CHARGES


@<TRIPOS>ATOM
  1 O       -0.3270    -0.5060    -0.9690 O.co2 1 <1>  -0.9000 
  2 C       -0.9560    -1.4220    -0.4140 C.2   1 <1>   0.9790 
  3 O       -0.3510    -2.4700    -0.1360 O.co2 1 <1>  -0.9000 
  4 C       -2.3640    -1.3080    -0.1110 C.ar  1 <1>  -0.1790 
  5 C       -3.0590    -0.1240     0.0870 C.ar  1 <1>   0.1660 
  6 C       -3.1110    -2.4640     0.0000 C.ar  1 <1>   0.1600 
  7 N       -4.3490    -0.1040     0.3450 N.ar  1 <1>  -0.6200 
  8 C       -2.3860     1.2350     0.0290 C.3   1 <1>  -0.0970 
  9 N       -4.4010    -2.4750     0.2570 N.ar  1 <1>  -0.6200 
 10 C       -4.9460    -1.2820     0.4090 C.ar  1 <1>   0.5880 
 11 C       -6.4390    -1.2610     0.7090 C.3   1 <1>  -0.0680 
 12 C       -7.4250    -1.9410    -0.1990 C.3   1 <1>  -0.2000 
 13 C       -7.3900    -0.4470    -0.1230 C.3   1 <1>  -0.2000 
 14 H       -2.6150    -3.4120    -0.1320 H     1 <1>   0.1500 
 15 H       -1.4880     1.2260     0.6200 H     1 <1>   0.0800 
 16 H       -3.0380     2.0020     0.4050 H     1 <1>   0.0800 
 17 H       -2.1270     1.4630    -0.9880 H     1 <1>   0.0800 
 18 H       -6.6230    -1.3110     1.7660 H     1 <1>   0.1000 
 19 H       -8.2440    -2.4740     0.2480 H     1 <1>   0.1000 
 20 H       -7.0430    -2.4290    -1.0800 H     1 <1>   0.1000 
 21 H       -6.9850     0.1100    -0.9500 H     1 <1>   0.1000 
 22 H       -8.1850     0.0750     0.3780 H     1 <1>   0.1000 
@<TRIPOS>BOND
  1   1   2  ar  
  2   2   3  ar  
  3   2   4  1   
  4   4   5  ar  
  5   4   6  ar  
  6   5   7  ar  
  7   5   8  1   
  8   6   9  ar  
  9   6  14  1   
 10   7  10  ar  
 11   8  15  1   
 12   8  16  1   
 13   8  17  1   
 14   9  10  ar  
 15  10  11  1   
 16  11  12  1   
 17  11  13  1   
 18  11  18  1   
 19  12  13  1   
 20  12  19  1   
 21  12  20  1   
 22  13  21  1   
 23  13  22  1   
@<TRIPOS>SUBSTRUCTURE
  1 ****   5 GROUP 4 **** **** 0

# MOE 2024.06 (io_trps.svl 2023.06)
