@<TRIPOS>MOLECULE
NONAME
26 26 1 0 0 
SMALL
USER_CHARGES


@<TRIPOS>ATOM
  1 S       -0.9000    -0.1660    -0.3990 S.o2  1 <1>   1.0900 
  2 O       -1.4210     1.1280    -0.7640 O.2   1 <1>  -0.6500 
  3 O       -1.1910    -1.3240    -1.2090 O.2   1 <1>  -0.6500 
  4 C       -1.3350    -0.5450     1.2860 C.3   1 <1>   0.0060 
  5 C        0.8750    -0.0160    -0.3290 C.3   1 <1>  -0.1350 
  6 C       -2.7590    -0.1470     1.5780 C.2   1 <1>   0.4230 
  7 O       -2.8940     0.6970     2.4270 O.2   1 <1>  -0.5700 
  8 C       -3.8840    -0.7680     0.9060 C.ar  1 <1>   0.0860 
  9 C       -5.1210    -0.1210     0.8850 C.ar  1 <1>  -0.1500 
 10 C       -3.8170    -2.0130     0.2740 C.ar  1 <1>  -0.1500 
 11 C       -6.2260    -0.6740     0.2650 C.ar  1 <1>  -0.1500 
 12 C       -4.9180    -2.5700    -0.3500 C.ar  1 <1>  -0.1500 
 13 C       -6.1310    -1.9050    -0.3600 C.ar  1 <1>  -0.1430 
 14 C       -7.3390    -2.5160    -1.0460 C.3   1 <1>  -0.0970 
 15 H       -0.7030     0.0100     1.9520 H     1 <1>   0.0800 
 16 H       -1.1980    -1.5870     1.4910 H     1 <1>   0.0800 
 17 H        1.2600     0.1990    -1.3080 H     1 <1>   0.0800 
 18 H        1.3210    -0.9290     0.0150 H     1 <1>   0.0800 
 19 H        1.1620     0.7840     0.3260 H     1 <1>   0.0800 
 20 H       -5.2150     0.8380     1.3650 H     1 <1>   0.1500 
 21 H       -2.8990    -2.5700     0.2570 H     1 <1>   0.1500 
 22 H       -7.1610    -0.1410     0.2710 H     1 <1>   0.1500 
 23 H       -4.8270    -3.5280    -0.8320 H     1 <1>   0.1500 
 24 H       -8.0000    -1.7460    -1.4010 H     1 <1>   0.0800 
 25 H       -7.8730    -3.1420    -0.3540 H     1 <1>   0.0800 
 26 H       -7.0310    -3.1120    -1.8870 H     1 <1>   0.0800 
@<TRIPOS>BOND
  1   1   2  2   
  2   1   3  2   
  3   1   4  1   
  4   1   5  1   
  5   4   6  1   
  6   4  15  1   
  7   4  16  1   
  8   5  17  1   
  9   5  18  1   
 10   5  19  1   
 11   6   7  2   
 12   6   8  1   
 13   8   9  ar  
 14   8  10  ar  
 15   9  11  ar  
 16   9  20  1   
 17  10  12  ar  
 18  10  21  1   
 19  11  13  ar  
 20  11  22  1   
 21  12  13  ar  
 22  12  23  1   
 23  13  14  1   
 24  14  24  1   
 25  14  25  1   
 26  14  26  1   
@<TRIPOS>SUBSTRUCTURE
  1 ****   8 GROUP 4 **** **** 0

# MOE 2024.06 (io_trps.svl 2023.06)
