@<TRIPOS>MOLECULE
Structure418
23 24 1 0 0 
SMALL
USER_CHARGES


@<TRIPOS>ATOM
  1 CL      -2.1780    -1.9970     3.6240 Cl    1 <1>  -0.1770 
  2 C       -2.1370    -2.4720     1.9530 C.ar  1 <1>   0.7970 
  3 N       -3.3020    -2.4490     1.3350 N.ar  1 <1>  -0.6200 
  4 N       -0.9430    -2.8030     1.4890 N.ar  1 <1>  -0.6200 
  5 C       -3.2540    -2.8110     0.0700 C.ar  1 <1>   0.4100 
  6 C       -0.9310    -3.1590     0.2200 C.ar  1 <1>   0.1600 
  7 N       -4.4280    -2.8100    -0.6360 N.pl3 1 <1>  -0.8380 
  8 C       -2.0700    -3.1790    -0.5360 C.ar  1 <1>  -0.1500 
  9 C       -5.4870    -3.7640    -0.1930 C.3   1 <1>   0.2090 
 10 C       -5.0700    -1.4880    -0.8880 C.3   1 <1>   0.2090 
 11 C       -6.6060    -2.8800     0.3520 C.3   1 <1>   0.2000 
 12 C       -6.5510    -1.6600    -0.5510 C.3   1 <1>  -0.1600 
 13 O       -6.2580    -2.4760     1.6280 O.3   1 <1>  -0.6800 
 14 H        0.0150    -3.4400    -0.2140 H     1 <1>   0.1500 
 15 H       -2.0690    -3.4680    -1.5680 H     1 <1>   0.1500 
 16 H       -5.1300    -4.4530     0.5540 H     1 <1>   0.0800 
 17 H       -5.8380    -4.3160    -1.0470 H     1 <1>   0.0800 
 18 H       -4.9380    -1.1980    -1.9170 H     1 <1>   0.0800 
 19 H       -4.6320    -0.7360    -0.2520 H     1 <1>   0.0800 
 20 H       -7.5690    -3.3600     0.3860 H     1 <1>   0.0800 
 21 H       -7.0900    -1.8630    -1.4580 H     1 <1>   0.0800 
 22 H       -6.9710    -0.7850    -0.0870 H     1 <1>   0.0800 
 23 H       -5.2830    -2.3060     1.6290 H     1 <1>   0.4000 
@<TRIPOS>BOND
  1   1   2  1   
  2   2   3  ar  
  3   2   4  ar  
  4   3   5  ar  
  5   4   6  ar  
  6   5   7  1   
  7   5   8  ar  
  8   6   8  ar  
  9   6  14  1   
 10   7   9  1   
 11   7  10  1   
 12   8  15  1   
 13   9  11  1   
 14   9  16  1   
 15   9  17  1   
 16  10  12  1   
 17  10  18  1   
 18  10  19  1   
 19  11  12  1   
 20  11  13  1   
 21  11  20  1   
 22  12  21  1   
 23  12  22  1   
 24  13  23  1   
@<TRIPOS>SUBSTRUCTURE
  1 ****   5 GROUP 4 **** **** 0

# MOE 2024.06 (io_trps.svl 2023.06)
