@<TRIPOS>MOLECULE
NONAME
43 44 1 0 0 
SMALL
USER_CHARGES


@<TRIPOS>ATOM
  1 O        0.5020    -0.5370    -0.2560 O.3   1 <1>  -0.5600 
  2 C       -0.5380    -1.2550    -0.8510 C.3   1 <1>   0.1200 
  3 C        1.7080    -1.2210    -0.1940 C.3   1 <1>   0.1200 
  4 C       -1.8190    -0.4250    -0.7590 C.3   1 <1>   0.1200 
  5 C        2.7250    -0.2920     0.4800 C.3   1 <1>   0.3430 
  6 O       -2.8540    -1.1210    -1.3670 O.3   1 <1>  -0.6800 
  7 N        4.0700    -0.9280     0.6450 N.4   1 <1>  -0.9590 
  8 C        4.1030    -2.0930     1.5960 C.3   1 <1>   0.3430 
  9 C        5.1300     0.0670     1.0140 C.3   1 <1>   0.3430 
 10 C        5.5220    -2.7110     1.6860 C.3   1 <1>   0.1100 
 11 C        6.5310    -0.5920     1.0250 C.3   1 <1>   0.1100 
 12 N        6.4750    -2.0550     0.7620 N.3   1 <1>  -0.8100 
 13 C        7.8110    -2.6820     0.8170 C.3   1 <1>   0.2530 
 14 C        8.7180    -2.0870    -0.2470 C.ar  1 <1>  -0.1430 
 15 C        8.3350    -2.1140    -1.5800 C.ar  1 <1>   0.1600 
 16 C        9.9260    -1.5050     0.0850 C.ar  1 <1>  -0.1500 
 17 N        9.0350    -1.6090    -2.5830 N.ar  1 <1>  -0.6200 
 18 C       10.6730    -0.9810    -0.9490 C.ar  1 <1>  -0.1500 
 19 C       10.1890    -1.0580    -2.2440 C.ar  1 <1>   0.1600 
 20 H       -0.6700    -2.1830    -0.3210 H     1 <1>   0.0800 
 21 H       -0.2840    -1.4400    -1.8800 H     1 <1>   0.0800 
 22 H        2.0170    -1.4620    -1.1970 H     1 <1>   0.0800 
 23 H        1.5570    -2.1160     0.3840 H     1 <1>   0.0800 
 24 H       -1.7070     0.5230    -1.2560 H     1 <1>   0.0800 
 25 H       -2.0890    -0.2710     0.2710 H     1 <1>   0.0800 
 26 H        2.3430     0.0000     1.4440 H     1 <1>   0.0800 
 27 H        2.8210     0.5920    -0.1280 H     1 <1>   0.0800 
 28 H       -2.7900    -1.0690    -2.3410 H     1 <1>   0.4000 
 29 H        4.4070    -1.3140    -0.2510 H     1 <1>   0.4500 
 30 H        3.4160    -2.8550     1.2670 H     1 <1>   0.0800 
 31 H        3.7930    -1.7760     2.5790 H     1 <1>   0.0800 
 32 H        4.9250     0.4810     1.9870 H     1 <1>   0.0800 
 33 H        5.1350     0.8810     0.3070 H     1 <1>   0.0800 
 34 H        5.4570    -3.7600     1.4500 H     1 <1>   0.0800 
 35 H        5.8790    -2.6290     2.7000 H     1 <1>   0.0800 
 36 H        7.0010    -0.4050     1.9760 H     1 <1>   0.0800 
 37 H        7.1320    -0.1120     0.2710 H     1 <1>   0.0800 
 38 H        7.7210    -3.7410     0.6350 H     1 <1>   0.0800 
 39 H        8.2450    -2.5460     1.7930 H     1 <1>   0.0800 
 40 H        7.3950    -2.5730    -1.8330 H     1 <1>   0.1500 
 41 H       10.2800    -1.4580     1.1000 H     1 <1>   0.1500 
 42 H       11.6230    -0.5170    -0.7580 H     1 <1>   0.1500 
 43 H       10.7820    -0.6450    -3.0430 H     1 <1>   0.1500 
@<TRIPOS>BOND
  1   1   2  1   
  2   1   3  1   
  3   2   4  1   
  4   2  20  1   
  5   2  21  1   
  6   3   5  1   
  7   3  22  1   
  8   3  23  1   
  9   4   6  1   
 10   4  24  1   
 11   4  25  1   
 12   5   7  1   
 13   5  26  1   
 14   5  27  1   
 15   6  28  1   
 16   7   8  1   
 17   7   9  1   
 18   7  29  1   
 19   8  10  1   
 20   8  30  1   
 21   8  31  1   
 22   9  11  1   
 23   9  32  1   
 24   9  33  1   
 25  10  12  1   
 26  10  34  1   
 27  10  35  1   
 28  11  12  1   
 29  11  36  1   
 30  11  37  1   
 31  12  13  1   
 32  13  14  1   
 33  13  38  1   
 34  13  39  1   
 35  14  15  ar  
 36  14  16  ar  
 37  15  17  ar  
 38  15  40  1   
 39  16  18  ar  
 40  16  41  1   
 41  17  19  ar  
 42  18  19  ar  
 43  18  42  1   
 44  19  43  1   
@<TRIPOS>SUBSTRUCTURE
  1 ****   7 GROUP 4 **** **** 0

# MOE 2024.06 (io_trps.svl 2023.06)
