@<TRIPOS>MOLECULE
NONAME
33 33 1 0 0 
SMALL
USER_CHARGES


@<TRIPOS>ATOM
  1 O       -1.3000     1.9810     0.0920 O.2   1 <1>  -0.5700 
  2 C       -1.4220     0.7630     0.1020 C.2   1 <1>   0.4240 
  3 C       -2.6510     0.0530     0.0920 C.ar  1 <1>   0.0860 
  4 C       -2.6550    -1.3610     0.1060 C.ar  1 <1>  -0.1710 
  5 C       -3.8910     0.7100     0.0670 C.ar  1 <1>  -0.1500 
  6 O       -1.5870    -2.0120     0.1280 O.3   1 <1>  -0.8290 
  7 C       -3.8790    -2.0450     0.0950 C.ar  1 <1>  -0.1500 
  8 C       -5.1010     0.0410     0.0570 C.ar  1 <1>  -0.1440 
  9 C       -5.0690    -1.3660     0.0710 C.ar  1 <1>   0.0830 
 10 C       -6.4530     0.7640     0.0300 C.3   1 <1>  -0.0160 
 11 O       -6.2190    -2.0630     0.0620 O.3   1 <1>  -0.5320 
 12 C       -6.3850     2.2980     0.0150 C.3   1 <1>  -0.1600 
 13 C       -7.7870     2.9230    -0.0110 C.3   1 <1>  -0.1600 
 14 C       -7.7070     4.4540    -0.0250 C.3   1 <1>  -0.1600 
 15 C       -9.1050     5.0820    -0.0510 C.3   1 <1>  -0.1600 
 16 C       -9.0220     6.6100    -0.0660 C.3   1 <1>  -0.2400 
 17 H       -0.5150     0.1850     0.1210 H     1 <1>   0.0600 
 18 H       -3.8480     1.7820     0.0570 H     1 <1>   0.1500 
 19 H       -3.8470    -3.1170     0.1070 H     1 <1>   0.1500 
 20 H       -7.0120     0.4590     0.8970 H     1 <1>   0.0800 
 21 H       -6.9870     0.4410    -0.8470 H     1 <1>   0.0800 
 22 H       -6.9920    -1.4800     0.0450 H     1 <1>   0.4500 
 23 H       -5.8370     2.6200    -0.8540 H     1 <1>   0.0800 
 24 H       -5.8620     2.6380     0.8930 H     1 <1>   0.0800 
 25 H       -8.3380     2.6030     0.8570 H     1 <1>   0.0800 
 26 H       -8.3130     2.5850    -0.8880 H     1 <1>   0.0800 
 27 H       -7.1540     4.7750    -0.8920 H     1 <1>   0.0800 
 28 H       -7.1790     4.7930     0.8500 H     1 <1>   0.0800 
 29 H       -9.6600     4.7660     0.8160 H     1 <1>   0.0800 
 30 H       -9.6350     4.7480    -0.9270 H     1 <1>   0.0800 
 31 H       -8.5140     6.9680     0.8130 H     1 <1>   0.0800 
 32 H      -10.0110     7.0320    -0.0840 H     1 <1>   0.0800 
 33 H       -8.4890     6.9500    -0.9370 H     1 <1>   0.0800 
@<TRIPOS>BOND
  1   1   2  2   
  2   2   3  1   
  3   2  17  1   
  4   3   4  ar  
  5   3   5  ar  
  6   4   6  1   
  7   4   7  ar  
  8   5   8  ar  
  9   5  18  1   
 10   7   9  ar  
 11   7  19  1   
 12   8   9  ar  
 13   8  10  1   
 14   9  11  1   
 15  10  12  1   
 16  10  20  1   
 17  10  21  1   
 18  11  22  1   
 19  12  13  1   
 20  12  23  1   
 21  12  24  1   
 22  13  14  1   
 23  13  25  1   
 24  13  26  1   
 25  14  15  1   
 26  14  27  1   
 27  14  28  1   
 28  15  16  1   
 29  15  29  1   
 30  15  30  1   
 31  16  31  1   
 32  16  32  1   
 33  16  33  1   
@<TRIPOS>SUBSTRUCTURE
  1 ****   8 GROUP 4 **** **** 0

# MOE 2024.06 (io_trps.svl 2023.06)
