@<TRIPOS>MOLECULE
NONAME
47 49 1 0 0 
SMALL
USER_CHARGES


@<TRIPOS>ATOM
  1 O       -0.3970    -1.4600    -1.6040 O.3   1 <1>  -0.3630 
  2 C       -1.3180    -1.4410    -0.5880 C.ar  1 <1>   0.0820 
  3 C       -0.5600    -0.6540    -2.7510 C.3   1 <1>   0.0400 
  4 C       -1.0700    -2.2230     0.5560 C.ar  1 <1>   0.1000 
  5 C       -2.4800    -0.6760    -0.6570 C.ar  1 <1>  -0.1500 
  6 N        0.0670    -3.0270     0.7230 N.pl3 1 <1>  -0.8380 
  7 C       -1.9950    -2.2090     1.5890 C.ar  1 <1>  -0.1500 
  8 C       -3.3880    -0.6800     0.3880 C.ar  1 <1>  -0.1500 
  9 C        1.3460    -2.2640     0.8460 C.3   1 <1>   0.2090 
 10 C        0.1390    -4.1890    -0.2110 C.3   1 <1>   0.2090 
 11 C       -3.1460    -1.4460     1.5120 C.ar  1 <1>  -0.1500 
 12 C        2.5220    -3.2010     1.1830 C.3   1 <1>   0.3430 
 13 C        1.3250    -5.1110     0.1380 C.3   1 <1>   0.3430 
 14 N        2.6270    -4.3590     0.2190 N.4   1 <1>  -0.9590 
 15 C        3.7760    -5.2440     0.5370 C.3   1 <1>   0.4860 
 16 C        5.0520    -4.4410     0.3790 C.ar  1 <1>  -0.1430 
 17 C        5.5770    -4.1310    -0.8750 C.ar  1 <1>  -0.1430 
 18 C        5.7000    -3.9970     1.5250 C.ar  1 <1>  -0.1500 
 19 C        6.7280    -3.3630    -0.9540 C.ar  1 <1>  -0.1500 
 20 C        4.9440    -4.6080    -2.1770 C.3   1 <1>  -0.0970 
 21 C        6.8490    -3.2350     1.4320 C.ar  1 <1>  -0.1500 
 22 C        7.3610    -2.9140     0.1900 C.ar  1 <1>  -0.1500 
 23 H        0.2850    -0.8100    -3.3960 H     1 <1>   0.0800 
 24 H       -0.6030     0.3790    -2.4510 H     1 <1>   0.0800 
 25 H       -1.4630    -0.9450    -3.2590 H     1 <1>   0.0800 
 26 H       -2.7060    -0.0690    -1.5120 H     1 <1>   0.1500 
 27 H       -1.8070    -2.8040     2.4630 H     1 <1>   0.1500 
 28 H       -4.2840    -0.0860     0.3260 H     1 <1>   0.1500 
 29 H        1.2410    -1.5280     1.6240 H     1 <1>   0.0800 
 30 H        1.5540    -1.7430    -0.0720 H     1 <1>   0.0800 
 31 H        0.2380    -3.8420    -1.2240 H     1 <1>   0.0800 
 32 H       -0.7800    -4.7480    -0.1450 H     1 <1>   0.0800 
 33 H       -3.8510    -1.4500     2.3250 H     1 <1>   0.1500 
 34 H        2.3770    -3.5740     2.1830 H     1 <1>   0.0800 
 35 H        3.4350    -2.6280     1.1700 H     1 <1>   0.0800 
 36 H        1.3930    -5.8870    -0.6050 H     1 <1>   0.0800 
 37 H        1.1160    -5.5750     1.0870 H     1 <1>   0.0800 
 38 H        2.8240    -3.9440    -0.6990 H     1 <1>   0.4500 
 39 H        3.7980    -6.0860    -0.1340 H     1 <1>   0.0800 
 40 H        3.6940    -5.6140     1.5460 H     1 <1>   0.0800 
 41 H        5.3230    -4.2390     2.5040 H     1 <1>   0.1500 
 42 H        7.1500    -3.1070    -1.9120 H     1 <1>   0.1500 
 43 H        4.6490    -5.6400    -2.1080 H     1 <1>   0.0800 
 44 H        5.6490    -4.5320    -2.9860 H     1 <1>   0.0800 
 45 H        4.0910    -4.0040    -2.4250 H     1 <1>   0.0800 
 46 H        7.3490    -2.8920     2.3220 H     1 <1>   0.1500 
 47 H        8.2560    -2.3200     0.1130 H     1 <1>   0.1500 
@<TRIPOS>BOND
  1   1   2  1   
  2   1   3  1   
  3   2   4  ar  
  4   2   5  ar  
  5   3  23  1   
  6   3  24  1   
  7   3  25  1   
  8   4   6  1   
  9   4   7  ar  
 10   5   8  ar  
 11   5  26  1   
 12   6   9  1   
 13   6  10  1   
 14   7  11  ar  
 15   7  27  1   
 16   8  11  ar  
 17   8  28  1   
 18   9  12  1   
 19   9  29  1   
 20   9  30  1   
 21  10  13  1   
 22  10  31  1   
 23  10  32  1   
 24  11  33  1   
 25  12  14  1   
 26  12  34  1   
 27  12  35  1   
 28  13  14  1   
 29  13  36  1   
 30  13  37  1   
 31  14  15  1   
 32  14  38  1   
 33  15  16  1   
 34  15  39  1   
 35  15  40  1   
 36  16  17  ar  
 37  16  18  ar  
 38  17  19  ar  
 39  17  20  1   
 40  18  21  ar  
 41  18  41  1   
 42  19  22  ar  
 43  19  42  1   
 44  20  43  1   
 45  20  44  1   
 46  20  45  1   
 47  21  22  ar  
 48  21  46  1   
 49  22  47  1   
@<TRIPOS>SUBSTRUCTURE
  1 ****   9 GROUP 4 **** **** 0

# MOE 2024.06 (io_trps.svl 2023.06)
