@<TRIPOS>MOLECULE
NONAME
38 38 1 0 0 
SMALL
USER_CHARGES


@<TRIPOS>ATOM
  1 O       -9.2540     0.8160     0.0010 O.3   1 <1>  -0.3630 
  2 C      -10.5620     0.5050    -0.1080 C.ar  1 <1>   0.0830 
  3 C       -8.8060     1.1080     1.3090 C.3   1 <1>   0.1200 
  4 C      -10.9860    -0.8230    -0.1220 C.ar  1 <1>  -0.1440 
  5 C      -11.4710     1.5460    -0.2080 C.ar  1 <1>  -0.1500 
  6 C       -7.3830     1.6710     1.2130 C.3   1 <1>   0.3430 
  7 C      -12.3500    -1.0870    -0.2070 C.ar  1 <1>  -0.1440 
  8 C       -9.9850    -1.9740    -0.0450 C.3   1 <1>  -0.0970 
  9 C      -12.8230     1.2800    -0.3010 C.ar  1 <1>  -0.1440 
 10 N       -6.6270     0.9610     0.1410 N.4   1 <1>  -0.9060 
 11 C      -13.2520    -0.0360    -0.2960 C.ar  1 <1>  -0.1500 
 12 C      -12.8980    -2.5080    -0.2090 C.3   1 <1>  -0.0970 
 13 C      -13.8380     2.4040    -0.4090 C.3   1 <1>  -0.0970 
 14 C       -5.4100     1.6980    -0.3060 C.3   1 <1>   0.3430 
 15 C       -4.7180     0.9910    -1.4780 C.3   1 <1>   0.1200 
 16 O       -3.5930     1.7260    -1.8000 O.3   1 <1>  -0.6800 
 17 H       -8.8270     0.1980     1.8830 H     1 <1>   0.0800 
 18 H       -9.4710     1.8250     1.7600 H     1 <1>   0.0800 
 19 H      -11.1190     2.5610    -0.2150 H     1 <1>   0.1500 
 20 H       -6.8810     1.5830     2.1640 H     1 <1>   0.0800 
 21 H       -7.4540     2.7190     0.9700 H     1 <1>   0.0800 
 22 H       -8.9810    -1.6440    -0.2280 H     1 <1>   0.0800 
 23 H      -10.2180    -2.7180    -0.7860 H     1 <1>   0.0800 
 24 H      -10.0280    -2.4290     0.9280 H     1 <1>   0.0800 
 25 H       -7.2980     0.8580    -0.6410 H     1 <1>   0.4500 
 26 H       -6.3930     0.0090     0.4450 H     1 <1>   0.4500 
 27 H      -14.3050    -0.2400    -0.3660 H     1 <1>   0.1500 
 28 H      -12.5060    -3.0620     0.6250 H     1 <1>   0.0800 
 29 H      -12.6260    -3.0060    -1.1230 H     1 <1>   0.0800 
 30 H      -13.9700    -2.5090    -0.1320 H     1 <1>   0.0800 
 31 H      -13.3500     3.3580    -0.4930 H     1 <1>   0.0800 
 32 H      -14.4660     2.4130     0.4630 H     1 <1>   0.0800 
 33 H      -14.4530     2.2580    -1.2790 H     1 <1>   0.0800 
 34 H       -4.7110     1.7760     0.5110 H     1 <1>   0.0800 
 35 H       -5.6830     2.6920    -0.6200 H     1 <1>   0.0800 
 36 H       -5.3560     0.9590    -2.3450 H     1 <1>   0.0800 
 37 H       -4.4000    -0.0010    -1.2050 H     1 <1>   0.0800 
 38 H       -3.1030     1.3350    -2.5550 H     1 <1>   0.4000 
@<TRIPOS>BOND
  1   1   2  1   
  2   1   3  1   
  3   2   4  ar  
  4   2   5  ar  
  5   3   6  1   
  6   3  17  1   
  7   3  18  1   
  8   4   7  ar  
  9   4   8  1   
 10   5   9  ar  
 11   5  19  1   
 12   6  10  1   
 13   6  20  1   
 14   6  21  1   
 15   7  11  ar  
 16   7  12  1   
 17   8  22  1   
 18   8  23  1   
 19   8  24  1   
 20   9  11  ar  
 21   9  13  1   
 22  10  14  1   
 23  10  25  1   
 24  10  26  1   
 25  11  27  1   
 26  12  28  1   
 27  12  29  1   
 28  12  30  1   
 29  13  31  1   
 30  13  32  1   
 31  13  33  1   
 32  14  15  1   
 33  14  34  1   
 34  14  35  1   
 35  15  16  1   
 36  15  36  1   
 37  15  37  1   
 38  16  38  1   
@<TRIPOS>SUBSTRUCTURE
  1 ****   1 GROUP 4 **** **** 0

# MOE 2024.06 (io_trps.svl 2023.06)
