@<TRIPOS>MOLECULE
NONAME
39 40 1 0 0 
SMALL
USER_CHARGES


@<TRIPOS>ATOM
  1 BR       5.4780     3.7620    -2.3640 Br    1 <1>  -0.1110 
  2 C        5.3780     2.5630    -0.8640 C.ar  1 <1>   0.1110 
  3 C        5.3260     1.2020    -1.1010 C.ar  1 <1>  -0.1500 
  4 C        5.3680     3.0930     0.4120 C.ar  1 <1>  -0.1500 
  5 C        5.2600     0.3350    -0.0210 C.ar  1 <1>  -0.1440 
  6 C        5.3110     2.2220     1.4860 C.ar  1 <1>  -0.1500 
  7 C        5.2570     0.8530     1.2690 C.ar  1 <1>  -0.1500 
  8 C        5.1790    -1.1640    -0.2560 C.3   1 <1>   0.2140 
  9 S        6.8380    -1.7900    -0.6450 S.3   1 <1>  -0.4600 
 10 C        7.7380    -1.6480     0.9470 C.3   1 <1>   0.1310 
 11 C        8.5590    -0.3690     1.0500 C.2   1 <1>   0.5690 
 12 O        8.9130    -0.0030     2.1460 O.2   1 <1>  -0.5700 
 13 N        8.8900     0.3020    -0.0810 N.am  1 <1>  -0.7300 
 14 C        9.7310     1.5040    -0.1600 C.3   1 <1>   0.2200 
 15 C        8.8490     2.7060    -0.5050 C.3   1 <1>  -0.1600 
 16 C       10.8110     1.2810    -1.2240 C.3   1 <1>  -0.1600 
 17 C        9.6860     3.9750    -0.7220 C.3   1 <1>  -0.1600 
 18 C       11.6530     2.5470    -1.4370 C.3   1 <1>  -0.1600 
 19 C       10.7660     3.7500    -1.7890 C.3   1 <1>  -0.1600 
 20 H        5.3390     0.8340    -2.1120 H     1 <1>   0.1500 
 21 H        5.4090     4.1570     0.5590 H     1 <1>   0.1500 
 22 H        5.3120     2.6070     2.4920 H     1 <1>   0.1500 
 23 H        5.2140     0.1940     2.1180 H     1 <1>   0.1500 
 24 H        4.5510    -1.3910    -1.0980 H     1 <1>   0.0800 
 25 H        4.8260    -1.6910     0.6120 H     1 <1>   0.0800 
 26 H        8.3920    -2.4970     1.0120 H     1 <1>   0.0800 
 27 H        7.0150    -1.6910     1.7390 H     1 <1>   0.0800 
 28 H        8.4670    -0.0070    -0.9590 H     1 <1>   0.3700 
 29 H       10.2040     1.6770     0.7940 H     1 <1>   0.0800 
 30 H        8.1580     2.8720     0.3020 H     1 <1>   0.0800 
 31 H        8.2910     2.4960    -1.4000 H     1 <1>   0.0800 
 32 H       10.3460     1.0110    -2.1550 H     1 <1>   0.0800 
 33 H       11.4520     0.4750    -0.9140 H     1 <1>   0.0800 
 34 H       10.1540     4.2550     0.2060 H     1 <1>   0.0800 
 35 H        9.0410     4.7820    -1.0250 H     1 <1>   0.0800 
 36 H       12.3640     2.3790    -2.2280 H     1 <1>   0.0800 
 37 H       12.2050     2.7630    -0.5380 H     1 <1>   0.0800 
 38 H       11.3750     4.6330    -1.8770 H     1 <1>   0.0800 
 39 H       10.2950     3.5790    -2.7420 H     1 <1>   0.0800 
@<TRIPOS>BOND
  1   1   2  1   
  2   2   3  ar  
  3   2   4  ar  
  4   3   5  ar  
  5   3  20  1   
  6   4   6  ar  
  7   4  21  1   
  8   5   7  ar  
  9   5   8  1   
 10   6   7  ar  
 11   6  22  1   
 12   7  23  1   
 13   8   9  1   
 14   8  24  1   
 15   8  25  1   
 16   9  10  1   
 17  10  11  1   
 18  10  26  1   
 19  10  27  1   
 20  11  12  2   
 21  11  13  am  
 22  13  14  1   
 23  13  28  1   
 24  14  15  1   
 25  14  16  1   
 26  14  29  1   
 27  15  17  1   
 28  15  30  1   
 29  15  31  1   
 30  16  18  1   
 31  16  32  1   
 32  16  33  1   
 33  17  19  1   
 34  17  34  1   
 35  17  35  1   
 36  18  19  1   
 37  18  36  1   
 38  18  37  1   
 39  19  38  1   
 40  19  39  1   
@<TRIPOS>SUBSTRUCTURE
  1 ****  13 GROUP 4 **** **** 0

# MOE 2024.06 (io_trps.svl 2023.06)
