@<TRIPOS>MOLECULE
NONAME
37 39 1 0 0 
SMALL
USER_CHARGES


@<TRIPOS>ATOM
  1 O        1.3440    -0.8400     1.5060 O.2   1 <1>  -0.5700 
  2 C        1.3580    -1.6230     0.5720 C.2   1 <1>   0.7150 
  3 N        2.4240    -1.5870    -0.3010 N.am  1 <1>  -0.6600 
  4 C        0.3150    -2.6110     0.3920 C.2   1 <1>   0.0550 
  5 C        3.1000    -0.3180    -0.7070 C.3   1 <1>   0.2200 
  6 C        3.3830    -2.7290    -0.2510 C.3   1 <1>   0.1400 
  7 O       -0.5750    -2.8690     1.3480 O.3   1 <1>  -0.2800 
  8 C        0.0350    -3.4160    -0.6740 C.2   1 <1>  -0.1500 
  9 C        4.2260     0.0310     0.2860 C.3   1 <1>   0.1400 
 10 C        2.1090     0.8330    -0.9120 C.3   1 <1>  -0.2400 
 11 C        4.5200    -2.4220     0.7390 C.3   1 <1>   0.1400 
 12 C       -1.3990    -3.8000     0.9280 C.2   1 <1>  -0.0100 
 13 C       -1.0750    -4.1850    -0.3240 C.2   1 <1>  -0.1500 
 14 N        5.1820    -1.1180     0.4180 N.am  1 <1>  -0.6600 
 15 C        6.5220    -1.0460     0.0870 C.2   1 <1>   0.7150 
 16 O        7.0700    -2.0700    -0.2840 O.2   1 <1>  -0.5700 
 17 C        7.2990     0.1780     0.1430 C.2   1 <1>   0.0550 
 18 O        6.9190     1.2430     0.8480 O.3   1 <1>  -0.2800 
 19 C        8.4970     0.4650    -0.4420 C.2   1 <1>  -0.1500 
 20 C        7.8260     2.1850     0.7240 C.2   1 <1>  -0.0100 
 21 C        8.8350     1.7660    -0.0680 C.2   1 <1>  -0.1500 
 22 H        3.5640    -0.4950    -1.6630 H     1 <1>   0.0800 
 23 H        3.7960    -2.8980    -1.2310 H     1 <1>   0.0800 
 24 H        2.8780    -3.6280     0.0570 H     1 <1>   0.0800 
 25 H        0.5550    -3.4600    -1.6140 H     1 <1>   0.1500 
 26 H        3.8040     0.2590     1.2500 H     1 <1>   0.0800 
 27 H        4.7300     0.9080    -0.0750 H     1 <1>   0.0800 
 28 H        1.6940     1.1640     0.0220 H     1 <1>   0.0800 
 29 H        1.3150     0.5270    -1.5680 H     1 <1>   0.0800 
 30 H        2.6150     1.6680    -1.3610 H     1 <1>   0.0800 
 31 H        5.2340    -3.2270     0.7220 H     1 <1>   0.0800 
 32 H        4.1150    -2.3690     1.7350 H     1 <1>   0.0800 
 33 H       -2.1890    -4.1310     1.5800 H     1 <1>   0.1500 
 34 H       -1.5530    -4.9230    -0.9440 H     1 <1>   0.1500 
 35 H        9.0820    -0.1820    -1.0710 H     1 <1>   0.1500 
 36 H        7.6810     3.1230     1.2320 H     1 <1>   0.1500 
 37 H        9.7230     2.2960    -0.3640 H     1 <1>   0.1500 
@<TRIPOS>BOND
  1   1   2  2   
  2   2   3  am  
  3   2   4  1   
  4   3   5  1   
  5   3   6  1   
  6   4   7  1   
  7   4   8  2   
  8   5   9  1   
  9   5  10  1   
 10   5  22  1   
 11   6  11  1   
 12   6  23  1   
 13   6  24  1   
 14   7  12  1   
 15   8  13  1   
 16   8  25  1   
 17   9  14  1   
 18   9  26  1   
 19   9  27  1   
 20  10  28  1   
 21  10  29  1   
 22  10  30  1   
 23  11  14  1   
 24  11  31  1   
 25  11  32  1   
 26  12  13  2   
 27  12  33  1   
 28  13  34  1   
 29  14  15  am  
 30  15  16  2   
 31  15  17  1   
 32  17  18  1   
 33  17  19  2   
 34  18  20  1   
 35  19  21  1   
 36  19  35  1   
 37  20  21  2   
 38  20  36  1   
 39  21  37  1   
@<TRIPOS>SUBSTRUCTURE
  1 ****   9 GROUP 4 **** **** 0

# MOE 2024.06 (io_trps.svl 2023.06)
