@<TRIPOS>MOLECULE
NONAME
41 42 1 0 0 
SMALL
USER_CHARGES


@<TRIPOS>ATOM
  1 O       -5.1290     2.1140    -0.0850 O.3   1 <1>  -0.3630 
  2 C       -6.4340     2.2900     0.2400 C.ar  1 <1>   0.0830 
  3 C       -4.3170     1.1160     0.5030 C.3   1 <1>   0.2000 
  4 C       -7.0880     3.3360    -0.3870 C.ar  1 <1>  -0.1500 
  5 C       -7.1290     1.4970     1.1470 C.ar  1 <1>  -0.1500 
  6 C       -2.8670     1.4410     0.1670 C.3   1 <1>  -0.1600 
  7 C       -4.5550    -0.2170    -0.2060 C.3   1 <1>  -0.1600 
  8 C       -8.4200     3.5950    -0.1220 C.ar  1 <1>  -0.1500 
  9 C       -8.4630     1.7530     1.4120 C.ar  1 <1>  -0.1500 
 10 C       -2.6470     0.9150    -1.2550 C.3   1 <1>  -0.1600 
 11 C       -3.7230    -0.1520    -1.4910 C.3   1 <1>  -0.1600 
 12 C       -9.1170     2.8000     0.7760 C.ar  1 <1>  -0.1430 
 13 C      -10.5790     3.0660     1.0490 C.3   1 <1>   0.4860 
 14 N      -11.3340     2.3040     0.0340 N.4   1 <1>  -0.9060 
 15 C      -12.8000     2.4600     0.1400 C.3   1 <1>   0.3430 
 16 C      -13.4640     1.6310    -0.9570 C.3   1 <1>  -0.1600 
 17 C      -14.9900     1.7560    -0.8940 C.3   1 <1>  -0.2400 
 18 H       -4.4870     1.0920     1.5660 H     1 <1>   0.0800 
 19 H       -6.5380     3.9470    -1.0830 H     1 <1>   0.1500 
 20 H       -6.6470     0.6800     1.6500 H     1 <1>   0.1500 
 21 H       -2.2270     0.9010     0.8430 H     1 <1>   0.0800 
 22 H       -2.6590     2.4930     0.2560 H     1 <1>   0.0800 
 23 H       -5.5960    -0.4010    -0.4040 H     1 <1>   0.0800 
 24 H       -4.1750    -1.0080     0.4160 H     1 <1>   0.0800 
 25 H       -8.8940     4.4220    -0.6250 H     1 <1>   0.1500 
 26 H       -8.9760     1.1260     2.1220 H     1 <1>   0.1500 
 27 H       -1.6550     0.5120    -1.3700 H     1 <1>   0.0800 
 28 H       -2.7810     1.7180    -1.9600 H     1 <1>   0.0800 
 29 H       -4.3490     0.1500    -2.3130 H     1 <1>   0.0800 
 30 H       -3.2870    -1.1100    -1.7180 H     1 <1>   0.0800 
 31 H      -10.7830     4.1210     0.9640 H     1 <1>   0.0800 
 32 H      -10.8360     2.7370     2.0430 H     1 <1>   0.0800 
 33 H      -11.0660     1.3170     0.1170 H     1 <1>   0.4500 
 34 H      -11.0030     2.6010    -0.8910 H     1 <1>   0.4500 
 35 H      -13.0750     3.4970     0.0240 H     1 <1>   0.0800 
 36 H      -13.1430     2.1200     1.1050 H     1 <1>   0.0800 
 37 H      -13.2010     0.5930    -0.8450 H     1 <1>   0.0800 
 38 H      -13.1330     1.9690    -1.9250 H     1 <1>   0.0800 
 39 H      -15.3670     1.4030     0.0510 H     1 <1>   0.0800 
 40 H      -15.4390     1.1660    -1.6750 H     1 <1>   0.0800 
 41 H      -15.2990     2.7790    -1.0300 H     1 <1>   0.0800 
@<TRIPOS>BOND
  1   1   2  1   
  2   1   3  1   
  3   2   4  ar  
  4   2   5  ar  
  5   3   6  1   
  6   3   7  1   
  7   3  18  1   
  8   4   8  ar  
  9   4  19  1   
 10   5   9  ar  
 11   5  20  1   
 12   6  10  1   
 13   6  21  1   
 14   6  22  1   
 15   7  11  1   
 16   7  23  1   
 17   7  24  1   
 18   8  12  ar  
 19   8  25  1   
 20   9  12  ar  
 21   9  26  1   
 22  10  11  1   
 23  10  27  1   
 24  10  28  1   
 25  11  29  1   
 26  11  30  1   
 27  12  13  1   
 28  13  14  1   
 29  13  31  1   
 30  13  32  1   
 31  14  15  1   
 32  14  33  1   
 33  14  34  1   
 34  15  16  1   
 35  15  35  1   
 36  15  36  1   
 37  16  17  1   
 38  16  37  1   
 39  16  38  1   
 40  17  39  1   
 41  17  40  1   
 42  17  41  1   
@<TRIPOS>SUBSTRUCTURE
  1 ****   5 GROUP 4 **** **** 0

# MOE 2024.06 (io_trps.svl 2023.06)
