@<TRIPOS>MOLECULE
NONAME
41 42 1 0 0 
SMALL
USER_CHARGES


@<TRIPOS>ATOM
  1 F       -0.7580     0.2220     0.0460 F     1 <1>  -0.3400 
  2 C       -1.9010    -0.4480     0.0920 C.3   1 <1>   1.1640 
  3 F       -2.4790    -0.1170     1.2450 F     1 <1>  -0.3400 
  4 F       -2.6750     0.0650    -0.8560 F     1 <1>  -0.3400 
  5 C       -1.7450    -1.9660    -0.0500 C.ar  1 <1>  -0.1430 
  6 C       -2.8500    -2.8080     0.1270 C.ar  1 <1>   0.1170 
  7 C       -0.5090    -2.5200    -0.3710 C.ar  1 <1>  -0.1500 
  8 N       -4.1140    -2.2950     0.4730 N.am  1 <1>  -0.5470 
  9 C       -2.6790    -4.1810    -0.0260 C.ar  1 <1>  -0.1500 
 10 C       -0.3590    -3.8870    -0.5170 C.ar  1 <1>  -0.1500 
 11 C       -5.3410    -2.6470    -0.0300 C.2   1 <1>   0.5690 
 12 C       -1.4480    -4.7180    -0.3450 C.ar  1 <1>  -0.1500 
 13 O       -5.4930    -3.5290    -0.8420 O.2   1 <1>  -0.5700 
 14 C       -6.6040    -1.8990     0.4370 C.3   1 <1>   0.4040 
 15 N       -7.8890    -2.6210     0.1020 N.4   1 <1>  -0.9590 
 16 C       -9.0920    -1.7310     0.1410 C.3   1 <1>   0.3430 
 17 C       -8.0680    -3.8690     0.8930 C.3   1 <1>   0.3430 
 18 C      -10.4140    -2.5280     0.0990 C.3   1 <1>  -0.0800 
 19 C       -9.1580    -4.7290     0.2400 C.3   1 <1>  -0.1600 
 20 C      -10.2300    -3.9240    -0.5200 C.3   1 <1>  -0.1600 
 21 C      -11.4900    -1.7450    -0.6630 C.3   1 <1>  -0.2400 
 22 H        0.3580    -1.8960    -0.5170 H     1 <1>   0.1500 
 23 H       -4.0790    -1.5140     1.1350 H     1 <1>   0.3700 
 24 H       -3.5150    -4.8440     0.1030 H     1 <1>   0.1500 
 25 H        0.6020    -4.3030    -0.7660 H     1 <1>   0.1500 
 26 H       -1.3360    -5.7830    -0.4610 H     1 <1>   0.1500 
 27 H       -6.6030    -0.9370    -0.0470 H     1 <1>   0.0800 
 28 H       -6.5450    -1.7400     1.4990 H     1 <1>   0.0800 
 29 H       -7.7690    -2.9550    -0.8700 H     1 <1>   0.4500 
 30 H       -9.0600    -1.0640    -0.7050 H     1 <1>   0.0800 
 31 H       -9.0820    -1.1300     1.0360 H     1 <1>   0.0800 
 32 H       -8.3610    -3.6180     1.8990 H     1 <1>   0.0800 
 33 H       -7.1490    -4.4320     0.9320 H     1 <1>   0.0800 
 34 H      -10.7580    -2.6520     1.1120 H     1 <1>   0.0800 
 35 H       -9.6290    -5.3090     1.0160 H     1 <1>   0.0800 
 36 H       -8.6990    -5.4320    -0.4350 H     1 <1>   0.0800 
 37 H       -9.9310    -3.8190    -1.5500 H     1 <1>   0.0800 
 38 H      -11.1610    -4.4660    -0.5100 H     1 <1>   0.0800 
 39 H      -11.2060    -1.5960    -1.6910 H     1 <1>   0.0800 
 40 H      -11.6540    -0.7830    -0.2090 H     1 <1>   0.0800 
 41 H      -12.4240    -2.2820    -0.6470 H     1 <1>   0.0800 
@<TRIPOS>BOND
  1   1   2  1   
  2   2   3  1   
  3   2   4  1   
  4   2   5  1   
  5   5   6  ar  
  6   5   7  ar  
  7   6   8  1   
  8   6   9  ar  
  9   7  10  ar  
 10   7  22  1   
 11   8  11  am  
 12   8  23  1   
 13   9  12  ar  
 14   9  24  1   
 15  10  12  ar  
 16  10  25  1   
 17  11  13  2   
 18  11  14  1   
 19  12  26  1   
 20  14  15  1   
 21  14  27  1   
 22  14  28  1   
 23  15  16  1   
 24  15  17  1   
 25  15  29  1   
 26  16  18  1   
 27  16  30  1   
 28  16  31  1   
 29  17  19  1   
 30  17  32  1   
 31  17  33  1   
 32  18  20  1   
 33  18  21  1   
 34  18  34  1   
 35  19  20  1   
 36  19  35  1   
 37  19  36  1   
 38  20  37  1   
 39  20  38  1   
 40  21  39  1   
 41  21  40  1   
 42  21  41  1   
@<TRIPOS>SUBSTRUCTURE
  1 ****  11 GROUP 4 **** **** 0

# MOE 2024.06 (io_trps.svl 2023.06)
