@<TRIPOS>MOLECULE
NONAME
55 56 1 0 0 
SMALL
USER_CHARGES


@<TRIPOS>ATOM
  1 O        2.0900    -3.9660    -0.2420 O.3   1 <1>  -0.5600 
  2 C        1.2130    -4.1480    -1.3170 C.3   1 <1>   0.1200 
  3 C        1.4700    -3.6240     0.9640 C.3   1 <1>   0.1200 
  4 C        0.2210    -5.2870    -1.0110 C.3   1 <1>   0.3430 
  5 C        0.4900    -4.7320     1.3960 C.3   1 <1>   0.3430 
  6 N       -0.4790    -5.0630     0.2990 N.4   1 <1>  -0.9590 
  7 C       -1.4270    -6.1640     0.6530 C.3   1 <1>   0.3430 
  8 C       -2.7300    -6.0260    -0.1620 C.3   1 <1>   0.2000 
  9 O       -3.0140    -4.6720    -0.3420 O.3   1 <1>  -0.6800 
 10 C       -3.9410    -6.6860     0.5110 C.3   1 <1>   0.1200 
 11 O       -5.0930    -6.2410    -0.1420 O.3   1 <1>  -0.5600 
 12 C       -6.2960    -6.7530     0.3410 C.3   1 <1>   0.2000 
 13 C       -6.5770    -8.1040    -0.3240 C.3   1 <1>  -0.1600 
 14 C       -7.3890    -5.7430    -0.0070 C.3   1 <1>  -0.1600 
 15 C       -7.9660    -8.6350     0.0650 C.3   1 <1>  -0.1600 
 16 C       -8.7780    -6.2670     0.3870 C.3   1 <1>  -0.1600 
 17 C       -9.0950    -7.6310    -0.2740 C.3   1 <1>  -0.0800 
 18 C      -10.5350    -8.1660     0.0370 C.3   1 <1>   0.0000 
 19 C      -11.6010    -7.1520    -0.4210 C.3   1 <1>  -0.2400 
 20 C      -10.7600    -8.4460     1.5330 C.3   1 <1>  -0.2400 
 21 C      -10.8060    -9.4720    -0.7350 C.3   1 <1>  -0.2400 
 22 H        1.8040    -4.3940    -2.1830 H     1 <1>   0.0800 
 23 H        0.6960    -3.2230    -1.5060 H     1 <1>   0.0800 
 24 H        0.9630    -2.6830     0.8400 H     1 <1>   0.0800 
 25 H        2.2420    -3.5010     1.7050 H     1 <1>   0.0800 
 26 H        0.7690    -6.2140    -0.9790 H     1 <1>   0.0800 
 27 H       -0.5020    -5.3510    -1.8070 H     1 <1>   0.0800 
 28 H       -0.0430    -4.4120     2.2760 H     1 <1>   0.0800 
 29 H        1.0630    -5.6080     1.6530 H     1 <1>   0.0800 
 30 H       -1.1130    -4.2520     0.1530 H     1 <1>   0.4500 
 31 H       -1.6800    -6.0910     1.6980 H     1 <1>   0.0800 
 32 H       -0.9780    -7.1290     0.4870 H     1 <1>   0.0800 
 33 H       -2.5980    -6.4620    -1.1370 H     1 <1>   0.0800 
 34 H       -3.9780    -4.6200    -0.5640 H     1 <1>   0.4000 
 35 H       -4.0040    -6.4010     1.5470 H     1 <1>   0.0800 
 36 H       -3.8800    -7.7580     0.4340 H     1 <1>   0.0800 
 37 H       -6.2390    -6.8590     1.4130 H     1 <1>   0.0800 
 38 H       -5.8390    -8.8260    -0.0270 H     1 <1>   0.0800 
 39 H       -6.5350    -7.9880    -1.3930 H     1 <1>   0.0800 
 40 H       -7.3730    -5.5530    -1.0660 H     1 <1>   0.0800 
 41 H       -7.1980    -4.8190     0.5090 H     1 <1>   0.0800 
 42 H       -7.9700    -8.8480     1.1190 H     1 <1>   0.0800 
 43 H       -8.1170    -9.5610    -0.4590 H     1 <1>   0.0800 
 44 H       -9.4980    -5.5270     0.0900 H     1 <1>   0.0800 
 45 H       -8.8200    -6.3580     1.4580 H     1 <1>   0.0800 
 46 H       -9.0530    -7.4710    -1.3390 H     1 <1>   0.0800 
 47 H      -11.5790    -6.2620     0.1800 H     1 <1>   0.0800 
 48 H      -12.5870    -7.5720    -0.3320 H     1 <1>   0.0800 
 49 H      -11.4440    -6.8780    -1.4490 H     1 <1>   0.0800 
 50 H      -10.6370    -7.5530     2.1180 H     1 <1>   0.0800 
 51 H      -10.0780    -9.1910     1.8970 H     1 <1>   0.0800 
 52 H      -11.7590    -8.8090     1.6970 H     1 <1>   0.0800 
 53 H      -10.2040   -10.2800    -0.3630 H     1 <1>   0.0800 
 54 H      -11.8350    -9.7680    -0.6300 H     1 <1>   0.0800 
 55 H      -10.6000    -9.3410    -1.7820 H     1 <1>   0.0800 
@<TRIPOS>BOND
  1   1   2  1   
  2   1   3  1   
  3   2   4  1   
  4   2  22  1   
  5   2  23  1   
  6   3   5  1   
  7   3  24  1   
  8   3  25  1   
  9   4   6  1   
 10   4  26  1   
 11   4  27  1   
 12   5   6  1   
 13   5  28  1   
 14   5  29  1   
 15   6   7  1   
 16   6  30  1   
 17   7   8  1   
 18   7  31  1   
 19   7  32  1   
 20   8   9  1   
 21   8  10  1   
 22   8  33  1   
 23   9  34  1   
 24  10  11  1   
 25  10  35  1   
 26  10  36  1   
 27  11  12  1   
 28  12  13  1   
 29  12  14  1   
 30  12  37  1   
 31  13  15  1   
 32  13  38  1   
 33  13  39  1   
 34  14  16  1   
 35  14  40  1   
 36  14  41  1   
 37  15  17  1   
 38  15  42  1   
 39  15  43  1   
 40  16  17  1   
 41  16  44  1   
 42  16  45  1   
 43  17  18  1   
 44  17  46  1   
 45  18  19  1   
 46  18  20  1   
 47  18  21  1   
 48  19  47  1   
 49  19  48  1   
 50  19  49  1   
 51  20  50  1   
 52  20  51  1   
 53  20  52  1   
 54  21  53  1   
 55  21  54  1   
 56  21  55  1   
@<TRIPOS>SUBSTRUCTURE
  1 ****  11 GROUP 4 **** **** 0

# MOE 2024.06 (io_trps.svl 2023.06)
