@<TRIPOS>MOLECULE
NONAME
28 28 1 0 0 
SMALL
USER_CHARGES


@<TRIPOS>ATOM
  1 S        0.3160    -0.0710    -0.1440 S.o2  1 <1>   1.3330 
  2 O       -0.0540     1.2660    -0.5440 O.2   1 <1>  -0.6500 
  3 O        1.5830    -0.6290    -0.5620 O.2   1 <1>  -0.6500 
  4 N       -0.9060    -1.1630    -0.7130 N.am  1 <1>  -0.6930 
  5 C        0.1790    -0.2470     1.6400 C.3   1 <1>  -0.0550 
  6 C       -2.2140    -1.1420    -0.2420 C.ar  1 <1>   0.1990 
  7 C       -0.5600    -2.0150    -1.8730 C.3   1 <1>   0.1160 
  8 C        1.1950     0.5830     2.4440 C.3   1 <1>  -0.2400 
  9 C       -2.8060    -2.3130     0.2170 C.ar  1 <1>  -0.1500 
 10 C       -2.9620     0.0290    -0.1960 C.ar  1 <1>  -0.1500 
 11 C       -4.0930    -2.3110     0.7150 C.ar  1 <1>  -0.1500 
 12 C       -4.2500     0.0270     0.3060 C.ar  1 <1>  -0.1500 
 13 C       -4.8530    -1.1410     0.7790 C.ar  1 <1>  -0.1790 
 14 C       -6.2080    -1.1400     1.3130 C.2   1 <1>   0.9790 
 15 O       -6.8680    -0.0870     1.3730 O.co2 1 <1>  -0.9000 
 16 O       -6.7280    -2.1950     1.7230 O.co2 1 <1>  -0.9000 
 17 H        0.3020    -1.2820     1.8950 H     1 <1>   0.0800 
 18 H       -0.8110     0.0410     1.9410 H     1 <1>   0.0800 
 19 H       -0.1700    -1.4010    -2.6660 H     1 <1>   0.0800 
 20 H       -1.4330    -2.5340    -2.2310 H     1 <1>   0.0800 
 21 H        0.1890    -2.7330    -1.5860 H     1 <1>   0.0800 
 22 H        2.1990     0.2940     2.1830 H     1 <1>   0.0800 
 23 H        1.0510     0.4280     3.4980 H     1 <1>   0.0800 
 24 H        1.0700     1.6300     2.2260 H     1 <1>   0.0800 
 25 H       -2.2500    -3.2300     0.1880 H     1 <1>   0.1500 
 26 H       -2.5410     0.9480    -0.5600 H     1 <1>   0.1500 
 27 H       -4.5390    -3.2260     1.0700 H     1 <1>   0.1500 
 28 H       -4.8180     0.9430     0.3370 H     1 <1>   0.1500 
@<TRIPOS>BOND
  1   1   2  2   
  2   1   3  2   
  3   1   4  am  
  4   1   5  1   
  5   4   6  1   
  6   4   7  1   
  7   5   8  1   
  8   5  17  1   
  9   5  18  1   
 10   6   9  ar  
 11   6  10  ar  
 12   7  19  1   
 13   7  20  1   
 14   7  21  1   
 15   8  22  1   
 16   8  23  1   
 17   8  24  1   
 18   9  11  ar  
 19   9  25  1   
 20  10  12  ar  
 21  10  26  1   
 22  11  13  ar  
 23  11  27  1   
 24  12  13  ar  
 25  12  28  1   
 26  13  14  1   
 27  14  15  ar  
 28  14  16  ar  
@<TRIPOS>SUBSTRUCTURE
  1 ****   6 GROUP 4 **** **** 0

# MOE 2024.06 (io_trps.svl 2023.06)
