@<TRIPOS>MOLECULE
NONAME
40 42 1 0 0 
SMALL
USER_CHARGES


@<TRIPOS>ATOM
  1 CL      -2.2480    -0.1840     3.1660 Cl    1 <1>  -0.1770 
  2 C       -2.5990     0.6430     1.6720 C.ar  1 <1>   0.1770 
  3 C       -3.6890     0.2400     0.9240 C.ar  1 <1>  -0.1500 
  4 C       -1.7910     1.6840     1.2630 C.ar  1 <1>  -0.1500 
  5 C       -3.9870     0.8980    -0.2620 C.ar  1 <1>  -0.1440 
  6 C       -2.0800     2.3350     0.0760 C.ar  1 <1>  -0.1500 
  7 C       -3.1720     1.9430    -0.6830 C.ar  1 <1>  -0.1500 
  8 C       -5.1920     0.4850    -1.0870 C.3   1 <1>   0.4870 
  9 N       -6.4230     0.9450    -0.3900 N.4   1 <1>  -0.9590 
 10 C       -7.6720     0.4120    -1.0500 C.3   1 <1>   0.3430 
 11 C       -6.4710     2.4540    -0.2770 C.3   1 <1>   0.3430 
 12 C       -8.9640     0.9010    -0.3590 C.3   1 <1>   0.2090 
 13 C       -7.7540     2.9580     0.4170 C.3   1 <1>   0.2090 
 14 N       -8.9670     2.3870    -0.2370 N.pl3 1 <1>  -0.8380 
 15 C      -10.1820     2.9720     0.0990 C.ar  1 <1>   0.1000 
 16 C      -10.8760     3.6990    -0.8630 C.ar  1 <1>  -0.1500 
 17 C      -10.7190     2.8450     1.3790 C.ar  1 <1>  -0.1500 
 18 C      -12.0890     4.2930    -0.5610 C.ar  1 <1>  -0.1500 
 19 C      -11.9310     3.4330     1.6960 C.ar  1 <1>  -0.1500 
 20 C      -12.5940     4.1480     0.7170 C.ar  1 <1>   0.1900 
 21 F      -13.7410     4.7070     1.0100 F     1 <1>  -0.1900 
 22 H       -4.2800    -0.5840     1.2840 H     1 <1>   0.1500 
 23 H       -0.9470     1.9770     1.8640 H     1 <1>   0.1500 
 24 H       -1.4500     3.1450    -0.2560 H     1 <1>   0.1500 
 25 H       -3.3700     2.4630    -1.6050 H     1 <1>   0.1500 
 26 H       -5.2000    -0.5880    -1.1910 H     1 <1>   0.0800 
 27 H       -5.1330     0.9230    -2.0710 H     1 <1>   0.0800 
 28 H       -6.3820     0.5790     0.5690 H     1 <1>   0.4500 
 29 H       -7.6610    -0.6660    -1.0450 H     1 <1>   0.0800 
 30 H       -7.7040     0.7380    -2.0760 H     1 <1>   0.0800 
 31 H       -6.4340     2.8900    -1.2620 H     1 <1>   0.0800 
 32 H       -5.6150     2.8100     0.2730 H     1 <1>   0.0800 
 33 H       -9.0520     0.4560     0.6170 H     1 <1>   0.0800 
 34 H       -9.8180     0.5930    -0.9400 H     1 <1>   0.0800 
 35 H       -7.7930     4.0330     0.3580 H     1 <1>   0.0800 
 36 H       -7.7380     2.6860     1.4580 H     1 <1>   0.0800 
 37 H      -10.4590     3.7950    -1.8480 H     1 <1>   0.1500 
 38 H      -10.1890     2.2850     2.1270 H     1 <1>   0.1500 
 39 H      -12.6350     4.8580    -1.2960 H     1 <1>   0.1500 
 40 H      -12.3590     3.3450     2.6780 H     1 <1>   0.1500 
@<TRIPOS>BOND
  1   1   2  1   
  2   2   3  ar  
  3   2   4  ar  
  4   3   5  ar  
  5   3  22  1   
  6   4   6  ar  
  7   4  23  1   
  8   5   7  ar  
  9   5   8  1   
 10   6   7  ar  
 11   6  24  1   
 12   7  25  1   
 13   8   9  1   
 14   8  26  1   
 15   8  27  1   
 16   9  10  1   
 17   9  11  1   
 18   9  28  1   
 19  10  12  1   
 20  10  29  1   
 21  10  30  1   
 22  11  13  1   
 23  11  31  1   
 24  11  32  1   
 25  12  14  1   
 26  12  33  1   
 27  12  34  1   
 28  13  14  1   
 29  13  35  1   
 30  13  36  1   
 31  14  15  1   
 32  15  16  ar  
 33  15  17  ar  
 34  16  18  ar  
 35  16  37  1   
 36  17  19  ar  
 37  17  38  1   
 38  18  20  ar  
 39  18  39  1   
 40  19  20  ar  
 41  19  40  1   
 42  20  21  1   
@<TRIPOS>SUBSTRUCTURE
  1 ****  13 GROUP 4 **** **** 0

# MOE 2024.06 (io_trps.svl 2023.06)
