@<TRIPOS>MOLECULE
NONAME
42 42 1 0 0 
SMALL
USER_CHARGES


@<TRIPOS>ATOM
  1 BR       0.5630     0.1310    -0.7860 Br    1 <1>  -0.1110 
  2 C       -0.0500    -1.6290    -0.2950 C.ar  1 <1>   0.1110 
  3 C        0.7880    -2.5060     0.3690 C.ar  1 <1>   0.1900 
  4 C       -1.3450    -1.9920    -0.6170 C.ar  1 <1>  -0.1500 
  5 F        2.0070    -2.1500     0.6720 F     1 <1>  -0.1900 
  6 C        0.3490    -3.7680     0.7210 C.ar  1 <1>  -0.1500 
  7 C       -1.8030    -3.2570    -0.2590 C.ar  1 <1>  -0.1440 
  8 C       -0.9490    -4.1400     0.4020 C.ar  1 <1>  -0.1500 
  9 C       -3.2240    -3.6730    -0.5910 C.3   1 <1>   0.4870 
 10 N       -4.0460    -3.6070     0.6620 N.4   1 <1>  -0.9590 
 11 C       -5.3650    -4.3430     0.5840 C.3   1 <1>   0.3430 
 12 C       -4.1620    -2.1990     1.1820 C.3   1 <1>   0.2630 
 13 C       -6.4220    -3.7330    -0.3850 C.3   1 <1>   0.3430 
 14 N       -7.7780    -4.4010    -0.3560 N.4   1 <1>  -0.9590 
 15 C       -7.7730    -5.8180    -0.8350 C.3   1 <1>   0.3430 
 16 C       -8.7530    -3.6000    -1.1570 C.3   1 <1>   0.3430 
 17 C       -7.7780    -6.7490     0.3710 C.3   1 <1>  -0.2400 
 18 C      -10.1710    -3.9180    -0.6950 C.3   1 <1>  -0.2400 
 19 H       -1.9630    -1.2830    -1.1420 H     1 <1>   0.1500 
 20 H        1.0180    -4.4400     1.2310 H     1 <1>   0.1500 
 21 H       -1.2730    -5.1310     0.6740 H     1 <1>   0.1500 
 22 H       -3.2080    -4.6800    -0.9770 H     1 <1>   0.0800 
 23 H       -3.6280    -3.0210    -1.3480 H     1 <1>   0.0800 
 24 H       -3.4610    -4.1000     1.3600 H     1 <1>   0.4500 
 25 H       -5.7950    -4.3680     1.5720 H     1 <1>   0.0800 
 26 H       -5.1750    -5.3610     0.2850 H     1 <1>   0.0800 
 27 H       -4.6790    -1.5690     0.4770 H     1 <1>   0.0800 
 28 H       -3.1810    -1.7820     1.3520 H     1 <1>   0.0800 
 29 H       -4.6940    -2.1850     2.1200 H     1 <1>   0.0800 
 30 H       -6.0380    -3.7750    -1.3910 H     1 <1>   0.0800 
 31 H       -6.5530    -2.6960    -0.1250 H     1 <1>   0.0800 
 32 H       -8.1630    -4.4070     0.6020 H     1 <1>   0.4500 
 33 H       -6.9160    -6.0110    -1.4600 H     1 <1>   0.0800 
 34 H       -8.6580    -6.0160    -1.4210 H     1 <1>   0.0800 
 35 H       -8.6480    -3.8150    -2.2100 H     1 <1>   0.0800 
 36 H       -8.5770    -2.5460    -1.0100 H     1 <1>   0.0800 
 37 H       -6.9000    -6.6380     0.9780 H     1 <1>   0.0800 
 38 H       -7.8080    -7.7680     0.0240 H     1 <1>   0.0800 
 39 H       -8.6570    -6.5890     0.9710 H     1 <1>   0.0800 
 40 H      -10.4300    -4.9460    -0.8750 H     1 <1>   0.0800 
 41 H      -10.8650    -3.3090    -1.2480 H     1 <1>   0.0800 
 42 H      -10.2980    -3.6910     0.3490 H     1 <1>   0.0800 
@<TRIPOS>BOND
  1   1   2  1   
  2   2   3  ar  
  3   2   4  ar  
  4   3   5  1   
  5   3   6  ar  
  6   4   7  ar  
  7   4  19  1   
  8   6   8  ar  
  9   6  20  1   
 10   7   8  ar  
 11   7   9  1   
 12   8  21  1   
 13   9  10  1   
 14   9  22  1   
 15   9  23  1   
 16  10  11  1   
 17  10  12  1   
 18  10  24  1   
 19  11  13  1   
 20  11  25  1   
 21  11  26  1   
 22  12  27  1   
 23  12  28  1   
 24  12  29  1   
 25  13  14  1   
 26  13  30  1   
 27  13  31  1   
 28  14  15  1   
 29  14  16  1   
 30  14  32  1   
 31  15  17  1   
 32  15  33  1   
 33  15  34  1   
 34  16  18  1   
 35  16  35  1   
 36  16  36  1   
 37  17  37  1   
 38  17  38  1   
 39  17  39  1   
 40  18  40  1   
 41  18  41  1   
 42  18  42  1   
@<TRIPOS>SUBSTRUCTURE
  1 ****   9 GROUP 4 **** **** 0

# MOE 2024.06 (io_trps.svl 2023.06)
