@<TRIPOS>MOLECULE
NONAME
35 36 1 0 0 
SMALL
USER_CHARGES


@<TRIPOS>ATOM
  1 CL      -1.0850     0.9700     0.2240 Cl    1 <1>  -0.1770 
  2 C        0.2990     1.9560    -0.1610 C.ar  1 <1>   0.1770 
  3 C        1.0390     1.6800    -1.2940 C.ar  1 <1>  -0.1500 
  4 C        0.6420     3.0030     0.6730 C.ar  1 <1>  -0.1500 
  5 C        2.1380     2.4660    -1.5930 C.ar  1 <1>  -0.1500 
  6 C        1.7430     3.7820     0.3630 C.ar  1 <1>  -0.1500 
  7 C        2.5210     3.5320    -0.7720 C.ar  1 <1>   0.0860 
  8 C        3.6810     4.3460    -1.0990 C.2   1 <1>   0.5440 
  9 O        4.0710     4.4220    -2.2500 O.2   1 <1>  -0.5700 
 10 N        4.3510     5.0600    -0.1330 N.am  1 <1>  -0.6600 
 11 C        4.5830     6.5140    -0.3820 C.3   1 <1>   0.2200 
 12 C        5.3700     4.4100     0.7400 C.3   1 <1>   0.2200 
 13 C        6.0480     6.9260    -0.1350 C.3   1 <1>  -0.1600 
 14 C        3.6260     7.3160     0.4970 C.3   1 <1>  -0.2400 
 15 C        6.7500     4.4950     0.0630 C.3   1 <1>  -0.1600 
 16 C        5.0250     2.9640     1.1050 C.3   1 <1>  -0.2400 
 17 C        7.0140     5.8440    -0.6340 C.3   1 <1>  -0.1600 
 18 H        0.7540     0.8630    -1.9330 H     1 <1>   0.1500 
 19 H        0.0510     3.2020     1.5490 H     1 <1>   0.1500 
 20 H        2.7170     2.2590    -2.4770 H     1 <1>   0.1500 
 21 H        2.0110     4.5990     1.0100 H     1 <1>   0.1500 
 22 H        4.3530     6.7260    -1.4140 H     1 <1>   0.0800 
 23 H        5.4090     4.9710     1.6590 H     1 <1>   0.0800 
 24 H        6.2130     7.0980     0.9140 H     1 <1>   0.0800 
 25 H        6.2420     7.8510    -0.6470 H     1 <1>   0.0800 
 26 H        3.8050     7.1090     1.5370 H     1 <1>   0.0800 
 27 H        2.6100     7.0650     0.2540 H     1 <1>   0.0800 
 28 H        3.7650     8.3670     0.3240 H     1 <1>   0.0800 
 29 H        6.8410     3.7090    -0.6670 H     1 <1>   0.0800 
 30 H        7.5030     4.3250     0.8110 H     1 <1>   0.0800 
 31 H        4.9870     2.3410     0.2300 H     1 <1>   0.0800 
 32 H        4.0860     2.9220     1.6240 H     1 <1>   0.0800 
 33 H        5.7810     2.5700     1.7600 H     1 <1>   0.0800 
 34 H        8.0340     6.1490    -0.4780 H     1 <1>   0.0800 
 35 H        6.8640     5.7200    -1.6940 H     1 <1>   0.0800 
@<TRIPOS>BOND
  1   1   2  1   
  2   2   3  ar  
  3   2   4  ar  
  4   3   5  ar  
  5   3  18  1   
  6   4   6  ar  
  7   4  19  1   
  8   5   7  ar  
  9   5  20  1   
 10   6   7  ar  
 11   6  21  1   
 12   7   8  1   
 13   8   9  2   
 14   8  10  am  
 15  10  11  1   
 16  10  12  1   
 17  11  13  1   
 18  11  14  1   
 19  11  22  1   
 20  12  15  1   
 21  12  16  1   
 22  12  23  1   
 23  13  17  1   
 24  13  24  1   
 25  13  25  1   
 26  14  26  1   
 27  14  27  1   
 28  14  28  1   
 29  15  17  1   
 30  15  29  1   
 31  15  30  1   
 32  16  31  1   
 33  16  32  1   
 34  16  33  1   
 35  17  34  1   
 36  17  35  1   
@<TRIPOS>SUBSTRUCTURE
  1 ****   8 GROUP 4 **** **** 0

# MOE 2024.06 (io_trps.svl 2023.06)
