@<TRIPOS>MOLECULE
NONAME
38 40 1 0 0 
SMALL
USER_CHARGES


@<TRIPOS>ATOM
  1 O        0.7080    -1.1460     1.3070 O.2   1 <1>  -0.5700 
  2 C        0.1380    -1.8430     0.5000 C.2   1 <1>   0.5690 
  3 N        0.6900    -2.1410    -0.7020 N.am  1 <1>  -0.4300 
  4 C       -1.2130    -2.4710     0.8320 C.3   1 <1>  -0.0190 
  5 N        0.0480    -3.0930    -1.6210 N.am  1 <1>  -0.4300 
  6 C       -1.2800    -3.9210     0.2890 C.3   1 <1>  -0.0190 
  7 C       -2.3380    -1.5830     0.2730 C.3   1 <1>  -0.0220 
  8 C       -0.9060    -3.9610    -1.2000 C.2   1 <1>   0.5690 
  9 C       -2.6450    -4.5480     0.6170 C.3   1 <1>  -0.0220 
 10 C       -3.6990    -2.2830     0.1860 C.2   1 <1>  -0.2760 
 11 O       -1.4280    -4.7300    -1.9750 O.2   1 <1>  -0.5700 
 12 C       -3.8150    -3.6130     0.3320 C.2   1 <1>  -0.2760 
 13 C       -4.9030    -1.3640    -0.1180 C.3   1 <1>   0.1380 
 14 C       -5.1350    -4.3710     0.2320 C.3   1 <1>  -0.0220 
 15 C       -6.2310    -2.1140     0.1310 C.3   1 <1>  -0.1600 
 16 C       -4.9300    -0.1110     0.7740 C.3   1 <1>  -0.2400 
 17 C       -4.8240    -0.9180    -1.5860 C.3   1 <1>  -0.2400 
 18 C       -6.2290    -3.5360    -0.4340 C.3   1 <1>  -0.1600 
 19 H        1.6980    -1.9720    -0.7890 H     1 <1>   0.3700 
 20 H       -1.3160    -2.5090     1.9020 H     1 <1>   0.0800 
 21 H        0.0740    -2.9090    -2.6300 H     1 <1>   0.3700 
 22 H       -0.5320    -4.5050     0.7940 H     1 <1>   0.0800 
 23 H       -2.0740    -1.2430    -0.7130 H     1 <1>   0.0800 
 24 H       -2.3890    -0.7200     0.9110 H     1 <1>   0.0800 
 25 H       -2.6740    -4.8070     1.6600 H     1 <1>   0.0800 
 26 H       -2.7500    -5.4620     0.0590 H     1 <1>   0.0800 
 27 H       -5.4470    -4.6530     1.2230 H     1 <1>   0.0800 
 28 H       -5.0070    -5.2690    -0.3450 H     1 <1>   0.0800 
 29 H       -7.0520    -1.5610    -0.2900 H     1 <1>   0.0800 
 30 H       -6.4000    -2.1820     1.1920 H     1 <1>   0.0800 
 31 H       -5.8570     0.4180     0.6480 H     1 <1>   0.0800 
 32 H       -4.8340    -0.3920     1.8080 H     1 <1>   0.0800 
 33 H       -4.1350     0.5670     0.5250 H     1 <1>   0.0800 
 34 H       -4.7350    -1.7730    -2.2320 H     1 <1>   0.0800 
 35 H       -3.9680    -0.2900    -1.7480 H     1 <1>   0.0800 
 36 H       -5.7030    -0.3660    -1.8640 H     1 <1>   0.0800 
 37 H       -7.1860    -3.9990    -0.2670 H     1 <1>   0.0800 
 38 H       -6.0570    -3.5080    -1.4950 H     1 <1>   0.0800 
@<TRIPOS>BOND
  1   1   2  2   
  2   2   3  am  
  3   2   4  1   
  4   3   5  1   
  5   3  19  1   
  6   4   6  1   
  7   4   7  1   
  8   4  20  1   
  9   5   8  am  
 10   5  21  1   
 11   6   8  1   
 12   6   9  1   
 13   6  22  1   
 14   7  10  1   
 15   7  23  1   
 16   7  24  1   
 17   8  11  2   
 18   9  12  1   
 19   9  25  1   
 20   9  26  1   
 21  10  12  2   
 22  10  13  1   
 23  12  14  1   
 24  13  15  1   
 25  13  16  1   
 26  13  17  1   
 27  14  18  1   
 28  14  27  1   
 29  14  28  1   
 30  15  18  1   
 31  15  29  1   
 32  15  30  1   
 33  16  31  1   
 34  16  32  1   
 35  16  33  1   
 36  17  34  1   
 37  17  35  1   
 38  17  36  1   
 39  18  37  1   
 40  18  38  1   
@<TRIPOS>SUBSTRUCTURE
  1 ****  10 GROUP 4 **** **** 0

# MOE 2024.06 (io_trps.svl 2023.06)
