@<TRIPOS>MOLECULE
NONAME
23 25 1 0 0 
SMALL
USER_CHARGES


@<TRIPOS>ATOM
  1 CL       0.0040    -0.3690    -1.1810 Cl    1 <1>  -0.1770 
  2 C       -1.4980    -1.0490    -0.6080 C.ar  1 <1>   0.1770 
  3 C       -2.5980    -0.2210    -0.4540 C.ar  1 <1>  -0.1500 
  4 C       -1.5590    -2.4050    -0.3190 C.ar  1 <1>  -0.1500 
  5 C       -3.7770    -0.7850     0.0020 C.ar  1 <1>  -0.1440 
  6 C       -2.7450    -2.9600     0.1370 C.ar  1 <1>  -0.1500 
  7 C       -3.8510    -2.1380     0.2940 C.ar  1 <1>   0.1170 
  8 C       -5.1380    -0.1620     0.2740 C.3   1 <1>   0.6650 
  9 N       -5.1260    -2.4770     0.7320 N.am  1 <1>  -0.5470 
 10 S       -5.0280     1.1810     1.5040 S.3   1 <1>  -0.4600 
 11 S       -5.8150     0.6430    -1.2070 S.3   1 <1>  -0.4600 
 12 C       -5.9420    -1.3900     0.7490 C.2   1 <1>   0.5690 
 13 C       -5.9060     2.5330     0.6660 C.3   1 <1>   0.0700 
 14 C       -6.8080     1.9150    -0.4000 C.3   1 <1>   0.0700 
 15 O       -7.1050    -1.4200     1.0830 O.2   1 <1>  -0.5700 
 16 H       -2.5300     0.8280    -0.6840 H     1 <1>   0.1500 
 17 H       -0.6820    -3.0140    -0.4520 H     1 <1>   0.1500 
 18 H       -2.8110    -4.0090     0.3660 H     1 <1>   0.1500 
 19 H       -5.4510    -3.4040     1.0070 H     1 <1>   0.3700 
 20 H       -5.1580     3.1650     0.2200 H     1 <1>   0.0800 
 21 H       -6.4640     3.0800     1.4050 H     1 <1>   0.0800 
 22 H       -7.6610     1.4270     0.0390 H     1 <1>   0.0800 
 23 H       -7.1190     2.6280    -1.1430 H     1 <1>   0.0800 
@<TRIPOS>BOND
  1   1   2  1   
  2   2   3  ar  
  3   2   4  ar  
  4   3   5  ar  
  5   3  16  1   
  6   4   6  ar  
  7   4  17  1   
  8   5   7  ar  
  9   5   8  1   
 10   6   7  ar  
 11   6  18  1   
 12   7   9  1   
 13   8  10  1   
 14   8  11  1   
 15   8  12  1   
 16   9  12  am  
 17   9  19  1   
 18  10  13  1   
 19  11  14  1   
 20  12  15  2   
 21  13  14  1   
 22  13  20  1   
 23  13  21  1   
 24  14  22  1   
 25  14  23  1   
@<TRIPOS>SUBSTRUCTURE
  1 ****   5 GROUP 4 **** **** 0

# MOE 2024.06 (io_trps.svl 2023.06)
