@<TRIPOS>MOLECULE
NONAME
57 59 1 0 0 
SMALL
USER_CHARGES


@<TRIPOS>ATOM
  1 O       -2.0970    -1.4320    -2.1220 O.3   1 <1>  -0.3630 
  2 C       -3.0150    -1.5390    -1.1230 C.ar  1 <1>   0.0820 
  3 C       -2.2040    -2.1810    -3.3120 C.3   1 <1>   0.0400 
  4 C       -2.7960    -0.8010     0.0340 C.ar  1 <1>  -0.1440 
  5 C       -4.1440    -2.3470    -1.2150 C.ar  1 <1>  -0.1500 
  6 C       -3.7060    -0.8790     1.0730 C.ar  1 <1>  -0.1500 
  7 C       -1.5650     0.0850     0.1650 C.3   1 <1>  -0.0960 
  8 C       -5.0550    -2.4230    -0.1730 C.ar  1 <1>  -0.1430 
  9 C       -4.8380    -1.6770     0.9820 C.ar  1 <1>  -0.1430 
 10 C       -6.2710    -3.3270    -0.3230 C.3   1 <1>  -0.0970 
 11 C       -5.8070    -1.6990     2.1600 C.3   1 <1>   0.2530 
 12 N       -7.0370    -0.9350     1.8560 N.3   1 <1>  -0.8100 
 13 C       -8.0060    -0.9800     2.9720 C.3   1 <1>   0.1100 
 14 C       -6.7500     0.4680     1.4580 C.3   1 <1>   0.1100 
 15 C       -9.3330    -0.2620     2.6200 C.3   1 <1>   0.3430 
 16 C       -8.0360     1.2880     1.1980 C.3   1 <1>   0.3430 
 17 N       -9.2530     0.4180     1.2840 N.4   1 <1>  -0.9590 
 18 C      -10.4940     1.0830     0.8410 C.3   1 <1>   0.4810 
 19 C      -11.5240     0.0080     0.5960 C.2   1 <1>  -0.2880 
 20 C      -11.8930    -0.4350    -0.6180 C.2   1 <1>  -0.1780 
 21 C      -12.8670    -1.4590    -0.9290 C.ar  1 <1>   0.0280 
 22 C      -12.9000    -2.0220    -2.2030 C.ar  1 <1>  -0.1500 
 23 C      -13.7970    -1.9170     0.0030 C.ar  1 <1>  -0.1500 
 24 C      -13.8150    -3.0060    -2.5330 C.ar  1 <1>  -0.1500 
 25 C      -14.7140    -2.9020    -0.3210 C.ar  1 <1>  -0.1500 
 26 C      -14.7240    -3.4490    -1.5900 C.ar  1 <1>  -0.1500 
 27 H       -1.3590    -1.9430    -3.9320 H     1 <1>   0.0800 
 28 H       -3.1150    -1.9090    -3.8140 H     1 <1>   0.0800 
 29 H       -2.1950    -3.2280    -3.0660 H     1 <1>   0.0800 
 30 H       -4.3240    -2.9260    -2.0990 H     1 <1>   0.1500 
 31 H       -3.5280    -0.3080     1.9670 H     1 <1>   0.1500 
 32 H       -1.5410     0.5860     1.1150 H     1 <1>   0.0800 
 33 H       -1.5630     0.8230    -0.6160 H     1 <1>   0.0800 
 34 H       -0.6770    -0.5150     0.0720 H     1 <1>   0.0800 
 35 H       -6.2870    -3.7990    -1.2890 H     1 <1>   0.0800 
 36 H       -7.1730    -2.7550    -0.2140 H     1 <1>   0.0800 
 37 H       -6.2510    -4.0970     0.4260 H     1 <1>   0.0800 
 38 H       -5.3280    -1.2870     3.0320 H     1 <1>   0.0800 
 39 H       -6.0640    -2.7200     2.3830 H     1 <1>   0.0800 
 40 H       -8.2240    -2.0070     3.2170 H     1 <1>   0.0800 
 41 H       -7.5760    -0.5230     3.8480 H     1 <1>   0.0800 
 42 H       -6.1640     0.9560     2.2170 H     1 <1>   0.0800 
 43 H       -6.1670     0.4700     0.5520 H     1 <1>   0.0800 
 44 H       -9.5620     0.4560     3.3900 H     1 <1>   0.0800 
 45 H      -10.1240    -0.9930     2.6070 H     1 <1>   0.0800 
 46 H       -7.9680     1.7370     0.2210 H     1 <1>   0.0800 
 47 H       -8.1000     2.0830     1.9220 H     1 <1>   0.0800 
 48 H       -9.0540    -0.3560     0.6300 H     1 <1>   0.4500 
 49 H      -10.8430     1.7860     1.5810 H     1 <1>   0.0800 
 50 H      -10.3120     1.6130    -0.0800 H     1 <1>   0.0800 
 51 H      -11.9460    -0.3800     1.5050 H     1 <1>   0.1500 
 52 H      -11.4380    -0.0150    -1.4990 H     1 <1>   0.1500 
 53 H      -12.2020    -1.6920    -2.9510 H     1 <1>   0.1500 
 54 H      -13.8190    -1.5030     0.9920 H     1 <1>   0.1500 
 55 H      -13.8210    -3.4280    -3.5230 H     1 <1>   0.1500 
 56 H      -15.4230    -3.2420     0.4140 H     1 <1>   0.1500 
 57 H      -15.4370    -4.2150    -1.8440 H     1 <1>   0.1500 
@<TRIPOS>BOND
  1   1   2  1   
  2   1   3  1   
  3   2   4  ar  
  4   2   5  ar  
  5   3  27  1   
  6   3  28  1   
  7   3  29  1   
  8   4   6  ar  
  9   4   7  1   
 10   5   8  ar  
 11   5  30  1   
 12   6   9  ar  
 13   6  31  1   
 14   7  32  1   
 15   7  33  1   
 16   7  34  1   
 17   8   9  ar  
 18   8  10  1   
 19   9  11  1   
 20  10  35  1   
 21  10  36  1   
 22  10  37  1   
 23  11  12  1   
 24  11  38  1   
 25  11  39  1   
 26  12  13  1   
 27  12  14  1   
 28  13  15  1   
 29  13  40  1   
 30  13  41  1   
 31  14  16  1   
 32  14  42  1   
 33  14  43  1   
 34  15  17  1   
 35  15  44  1   
 36  15  45  1   
 37  16  17  1   
 38  16  46  1   
 39  16  47  1   
 40  17  18  1   
 41  17  48  1   
 42  18  19  1   
 43  18  49  1   
 44  18  50  1   
 45  19  20  2   
 46  19  51  1   
 47  20  21  1   
 48  20  52  1   
 49  21  22  ar  
 50  21  23  ar  
 51  22  24  ar  
 52  22  53  1   
 53  23  25  ar  
 54  23  54  1   
 55  24  26  ar  
 56  24  55  1   
 57  25  26  ar  
 58  25  56  1   
 59  26  57  1   
@<TRIPOS>SUBSTRUCTURE
  1 ****  12 GROUP 4 **** **** 0

# MOE 2024.06 (io_trps.svl 2023.06)
