@<TRIPOS>MOLECULE
NONAME
38 38 1 0 0 
SMALL
USER_CHARGES


@<TRIPOS>ATOM
  1 F       -0.3150    -0.4430    -0.7350 F     1 <1>  -0.3400 
  2 C        1.0030    -0.3150    -0.5810 C.3   1 <1>   1.0200 
  3 F        1.5150    -0.2570    -1.8090 F     1 <1>  -0.3400 
  4 F        1.1780     0.9080    -0.0790 F     1 <1>  -0.3400 
  5 C        1.6350    -1.4230     0.3170 C.3   1 <1>   0.4850 
  6 O        1.1610    -1.3480     1.6610 O.3   1 <1>  -0.6800 
  7 C        3.1740    -1.2770     0.3900 C.ar  1 <1>  -0.1440 
  8 C        1.2270    -2.7910    -0.2610 C.2   1 <1>   0.6590 
  9 C        3.7650    -0.4320     1.3280 C.ar  1 <1>  -0.1500 
 10 C        4.0120    -1.9700    -0.4810 C.ar  1 <1>  -0.1500 
 11 O        0.9720    -2.9870    -1.4240 O.2   1 <1>  -0.5700 
 12 O        1.2140    -3.8050     0.6090 O.3   1 <1>  -0.4300 
 13 C        5.1400    -0.3010     1.4040 C.ar  1 <1>  -0.1500 
 14 C        5.3850    -1.8360    -0.4010 C.ar  1 <1>  -0.1500 
 15 C        0.9100    -5.1290     0.2180 C.3   1 <1>   0.0400 
 16 C        5.9710    -1.0000     0.5400 C.ar  1 <1>   0.1170 
 17 N        7.3690    -0.8610     0.6050 N.am  1 <1>  -0.4770 
 18 C        8.1920    -1.9270     0.9170 C.2   1 <1>   0.5690 
 19 C        7.8980     0.4870     0.2620 C.3   1 <1>   0.1400 
 20 O        7.7640    -3.0300     1.1560 O.2   1 <1>  -0.5700 
 21 C        9.6950    -1.7570     0.9770 C.3   1 <1>  -0.1790 
 22 C        8.0690     0.6060    -1.2530 C.3   1 <1>  -0.2400 
 23 H        1.5110    -2.1190     2.1540 H     1 <1>   0.4000 
 24 H        3.1590     0.1370     2.0140 H     1 <1>   0.1500 
 25 H        3.6220    -2.6260    -1.2410 H     1 <1>   0.1500 
 26 H        5.5740     0.3440     2.1450 H     1 <1>   0.1500 
 27 H        6.0210    -2.3870    -1.0710 H     1 <1>   0.1500 
 28 H        1.6320    -5.4510    -0.5140 H     1 <1>   0.0800 
 29 H       -0.0800    -5.1500    -0.2030 H     1 <1>   0.0800 
 30 H        0.9570    -5.7620     1.0860 H     1 <1>   0.0800 
 31 H        8.8350     0.6660     0.7580 H     1 <1>   0.0800 
 32 H        7.2070     1.2400     0.5990 H     1 <1>   0.0800 
 33 H        9.9560    -1.0870     1.7740 H     1 <1>   0.0800 
 34 H       10.0670    -1.3810     0.0430 H     1 <1>   0.0800 
 35 H       10.1570    -2.7080     1.1680 H     1 <1>   0.0800 
 36 H        8.7520    -0.1390    -1.6190 H     1 <1>   0.0800 
 37 H        8.4580     1.5770    -1.4990 H     1 <1>   0.0800 
 38 H        7.1190     0.4870    -1.7430 H     1 <1>   0.0800 
@<TRIPOS>BOND
  1   1   2  1   
  2   2   3  1   
  3   2   4  1   
  4   2   5  1   
  5   5   6  1   
  6   5   7  1   
  7   5   8  1   
  8   6  23  1   
  9   7   9  ar  
 10   7  10  ar  
 11   8  11  2   
 12   8  12  1   
 13   9  13  ar  
 14   9  24  1   
 15  10  14  ar  
 16  10  25  1   
 17  12  15  1   
 18  13  16  ar  
 19  13  26  1   
 20  14  16  ar  
 21  14  27  1   
 22  15  28  1   
 23  15  29  1   
 24  15  30  1   
 25  16  17  1   
 26  17  18  am  
 27  17  19  1   
 28  18  20  2   
 29  18  21  1   
 30  19  22  1   
 31  19  31  1   
 32  19  32  1   
 33  21  33  1   
 34  21  34  1   
 35  21  35  1   
 36  22  36  1   
 37  22  37  1   
 38  22  38  1   
@<TRIPOS>SUBSTRUCTURE
  1 ****   7 GROUP 4 **** **** 0

# MOE 2024.06 (io_trps.svl 2023.06)
