@<TRIPOS>MOLECULE
NONAME
37 39 1 0 0 
SMALL
USER_CHARGES


@<TRIPOS>ATOM
  1 CL       0.2490     0.4430     0.6110 Cl    1 <1>  -0.1770 
  2 C        1.9700     0.2140     0.4160 C.ar  1 <1>   0.1770 
  3 C        2.4340    -0.7920    -0.4100 C.ar  1 <1>  -0.1500 
  4 C        2.8450     1.0440     1.0910 C.ar  1 <1>  -0.1500 
  5 C        3.7990    -0.9670    -0.5610 C.ar  1 <1>  -0.1500 
  6 C        4.2090     0.8600     0.9340 C.ar  1 <1>  -0.1500 
  7 C        4.7040    -0.1470     0.1100 C.ar  1 <1>   0.1170 
  8 N        6.0910    -0.2850    -0.0280 N.am  1 <1>  -0.5470 
  9 C        6.8610    -1.3670    -0.3480 C.2   1 <1>   0.6900 
 10 O        6.3740    -2.4780    -0.4300 O.2   1 <1>  -0.5700 
 11 N        8.2090    -1.1840    -0.5400 N.am  1 <1>  -0.6600 
 12 C        8.8450     0.1110    -0.9100 C.3   1 <1>   0.1400 
 13 C        9.1470    -2.3400    -0.5700 C.3   1 <1>   0.1400 
 14 C        9.9710     0.4130     0.0780 C.3   1 <1>  -0.1600 
 15 C       10.2930    -2.0840     0.4100 C.3   1 <1>  -0.1600 
 16 C       10.9670    -0.7400     0.1170 C.3   1 <1>   0.5600 
 17 O       11.6440    -0.7930    -1.0960 O.3   1 <1>  -0.5600 
 18 O       11.9380    -0.4640     1.0670 O.3   1 <1>  -0.5600 
 19 C       12.9630    -1.1410    -0.8660 C.3   1 <1>   0.1200 
 20 C       13.1520    -0.9550     0.6270 C.3   1 <1>   0.1200 
 21 H        1.7370    -1.4270    -0.9250 H     1 <1>   0.1500 
 22 H        2.4590     1.8190     1.7280 H     1 <1>   0.1500 
 23 H        4.1620    -1.7470    -1.2070 H     1 <1>   0.1500 
 24 H        4.8920     1.5020     1.4600 H     1 <1>   0.1500 
 25 H        6.6480     0.5050     0.2760 H     1 <1>   0.3700 
 26 H        8.1310     0.9150    -0.9160 H     1 <1>   0.0800 
 27 H        9.2510     0.0270    -1.9050 H     1 <1>   0.0800 
 28 H        9.5330    -2.4550    -1.5690 H     1 <1>   0.0800 
 29 H        8.6410    -3.2510    -0.2990 H     1 <1>   0.0800 
 30 H        9.5520     0.5530     1.0570 H     1 <1>   0.0800 
 31 H       10.4820     1.3140    -0.2090 H     1 <1>   0.0800 
 32 H       11.0060    -2.8830     0.3480 H     1 <1>   0.0800 
 33 H        9.8920    -2.0660     1.4070 H     1 <1>   0.0800 
 34 H       13.6000    -0.4880    -1.4370 H     1 <1>   0.0800 
 35 H       13.1150    -2.1640    -1.1630 H     1 <1>   0.0800 
 36 H       13.3510    -1.8900     1.1200 H     1 <1>   0.0800 
 37 H       13.9240    -0.2410     0.8540 H     1 <1>   0.0800 
@<TRIPOS>BOND
  1   1   2  1   
  2   2   3  ar  
  3   2   4  ar  
  4   3   5  ar  
  5   3  21  1   
  6   4   6  ar  
  7   4  22  1   
  8   5   7  ar  
  9   5  23  1   
 10   6   7  ar  
 11   6  24  1   
 12   7   8  1   
 13   8   9  am  
 14   8  25  1   
 15   9  10  2   
 16   9  11  am  
 17  11  12  1   
 18  11  13  1   
 19  12  14  1   
 20  12  26  1   
 21  12  27  1   
 22  13  15  1   
 23  13  28  1   
 24  13  29  1   
 25  14  16  1   
 26  14  30  1   
 27  14  31  1   
 28  15  16  1   
 29  15  32  1   
 30  15  33  1   
 31  16  17  1   
 32  16  18  1   
 33  17  19  1   
 34  18  20  1   
 35  19  20  1   
 36  19  34  1   
 37  19  35  1   
 38  20  36  1   
 39  20  37  1   
@<TRIPOS>SUBSTRUCTURE
  1 ****   9 GROUP 4 **** **** 0

# MOE 2024.06 (io_trps.svl 2023.06)
