@<TRIPOS>MOLECULE
NONAME
40 41 1 0 0 
SMALL
USER_CHARGES


@<TRIPOS>ATOM
  1 CL      -1.2110    -1.8240     3.4610 Cl    1 <1>  -0.1770 
  2 C       -1.9460    -1.7570     1.8730 C.ar  1 <1>   0.1770 
  3 C       -1.2970    -2.3010     0.7700 C.ar  1 <1>   0.0820 
  4 C       -3.1810    -1.1510     1.7470 C.ar  1 <1>  -0.1500 
  5 O       -0.0890    -2.8960     0.9020 O.3   1 <1>  -0.3630 
  6 C       -1.9070    -2.2460    -0.4790 C.ar  1 <1>  -0.1440 
  7 C       -3.7880    -1.0850     0.5030 C.ar  1 <1>  -0.1430 
  8 C        1.0270    -2.0360     0.8650 C.3   1 <1>   0.1200 
  9 C       -3.1470    -1.6340    -0.5990 C.ar  1 <1>  -0.1500 
 10 C       -1.2320    -2.8450    -1.7050 C.3   1 <1>  -0.0960 
 11 C       -5.1450    -0.4240     0.3410 C.3   1 <1>  -0.0970 
 12 C        2.2860    -2.8910     0.7420 C.3   1 <1>   0.1400 
 13 N        3.4700    -2.0330     0.5160 N.am  1 <1>  -0.4200 
 14 C        4.3970    -1.7030     1.4610 C.2   1 <1>   0.6900 
 15 C        3.7960    -1.4380    -0.6670 C.2   1 <1>   0.5690 
 16 O        4.3460    -2.0210     2.6270 O.2   1 <1>  -0.5700 
 17 N        5.3750    -0.9360     0.9420 N.am  1 <1>  -0.7300 
 18 O        3.1610    -1.5140    -1.6930 O.2   1 <1>  -0.5700 
 19 C        5.1000    -0.6380    -0.4690 C.3   1 <1>   0.3610 
 20 C        6.2620    -1.1590    -1.3170 C.3   1 <1>  -0.2400 
 21 C        4.9100     0.8720    -0.6270 C.3   1 <1>  -0.2400 
 22 H       -3.6570    -0.7390     2.6180 H     1 <1>   0.1500 
 23 H        1.0440    -1.4580     1.7720 H     1 <1>   0.0800 
 24 H        0.9250    -1.3900     0.0100 H     1 <1>   0.0800 
 25 H       -3.6250    -1.5860    -1.5620 H     1 <1>   0.1500 
 26 H       -0.3570    -2.2730    -1.9600 H     1 <1>   0.0800 
 27 H       -1.8960    -2.8500    -2.5500 H     1 <1>   0.0800 
 28 H       -0.9350    -3.8580    -1.5010 H     1 <1>   0.0800 
 29 H       -5.3450     0.2410     1.1630 H     1 <1>   0.0800 
 30 H       -5.9140    -1.1750     0.3080 H     1 <1>   0.0800 
 31 H       -5.1750     0.1460    -0.5700 H     1 <1>   0.0800 
 32 H        2.1820    -3.5620    -0.0940 H     1 <1>   0.0800 
 33 H        2.4230    -3.4670     1.6410 H     1 <1>   0.0800 
 34 H        6.0620    -0.4450     1.5110 H     1 <1>   0.3700 
 35 H        6.4010    -2.2130    -1.1540 H     1 <1>   0.0800 
 36 H        7.1720    -0.6390    -1.0750 H     1 <1>   0.0800 
 37 H        6.0460    -1.0050    -2.3600 H     1 <1>   0.0800 
 38 H        4.1180     1.2190     0.0130 H     1 <1>   0.0800 
 39 H        4.6420     1.0970    -1.6440 H     1 <1>   0.0800 
 40 H        5.8180     1.3960    -0.3880 H     1 <1>   0.0800 
@<TRIPOS>BOND
  1   1   2  1   
  2   2   3  ar  
  3   2   4  ar  
  4   3   5  1   
  5   3   6  ar  
  6   4   7  ar  
  7   4  22  1   
  8   5   8  1   
  9   6   9  ar  
 10   6  10  1   
 11   7   9  ar  
 12   7  11  1   
 13   8  12  1   
 14   8  23  1   
 15   8  24  1   
 16   9  25  1   
 17  10  26  1   
 18  10  27  1   
 19  10  28  1   
 20  11  29  1   
 21  11  30  1   
 22  11  31  1   
 23  12  13  1   
 24  12  32  1   
 25  12  33  1   
 26  13  14  am  
 27  13  15  am  
 28  14  16  2   
 29  14  17  am  
 30  15  18  2   
 31  15  19  1   
 32  17  19  1   
 33  17  34  1   
 34  19  20  1   
 35  19  21  1   
 36  20  35  1   
 37  20  36  1   
 38  20  37  1   
 39  21  38  1   
 40  21  39  1   
 41  21  40  1   
@<TRIPOS>SUBSTRUCTURE
  1 ****   8 GROUP 4 **** **** 0

# MOE 2024.06 (io_trps.svl 2023.06)
