@<TRIPOS>MOLECULE
NONAME
58 60 1 0 0 
SMALL
USER_CHARGES


@<TRIPOS>ATOM
  1 O       -0.3980    -0.7650     0.5750 O.2   1 <1>  -0.5700 
  2 C       -1.3190    -0.1760     0.0360 C.2   1 <1>   0.6900 
  3 N       -2.3760    -0.8840    -0.4700 N.am  1 <1>  -0.6600 
  4 N       -1.3070     1.1740    -0.0440 N.am  1 <1>  -0.7300 
  5 C       -3.4210    -0.2820    -1.3460 C.3   1 <1>   0.2840 
  6 C       -2.6050    -2.2900    -0.0560 C.3   1 <1>   0.1400 
  7 C       -0.2760     2.0560     0.5230 C.3   1 <1>   0.2200 
  8 C       -4.7360    -0.1220    -0.5930 C.ar  1 <1>  -0.1440 
  9 C       -2.0500    -3.2450    -1.1190 C.3   1 <1>  -0.1600 
 10 C       -0.8430     2.7360     1.7740 C.3   1 <1>  -0.1600 
 11 C        0.1280     3.0870    -0.5350 C.3   1 <1>  -0.1600 
 12 C       -5.9240    -0.5140    -1.2060 C.ar  1 <1>  -0.1500 
 13 C       -4.7670     0.4130     0.6970 C.ar  1 <1>  -0.1500 
 14 C       -1.7130    -4.6130    -0.5180 C.3   1 <1>   0.3430 
 15 C        0.1520     3.7550     2.3500 C.3   1 <1>  -0.1600 
 16 C        1.1250     4.1060     0.0360 C.3   1 <1>  -0.1600 
 17 C       -7.1040    -0.3610    -0.5050 C.ar  1 <1>   0.0820 
 18 C       -5.9640     0.5580     1.3860 C.ar  1 <1>  -0.1500 
 19 N       -0.2510    -4.7690    -0.2320 N.4   1 <1>  -0.9590 
 20 C        0.5650     4.7870     1.2920 C.3   1 <1>  -0.1600 
 21 O       -8.3440    -0.6690    -0.8970 O.3   1 <1>  -0.3630 
 22 C       -7.1240     0.1600     0.7550 C.ar  1 <1>   0.0820 
 23 C        0.0270    -6.1120     0.3600 C.3   1 <1>   0.2630 
 24 C        0.3150    -3.6900     0.6430 C.3   1 <1>   0.2630 
 25 C       -9.2120    -0.3140     0.1790 C.3   1 <1>   0.4000 
 26 O       -8.3790     0.2040     1.2140 O.3   1 <1>  -0.3620 
 27 H       -2.1580     1.6460    -0.3340 H     1 <1>   0.3700 
 28 H       -3.5660    -0.9210    -2.1990 H     1 <1>   0.0800 
 29 H       -3.1040     0.6750    -1.7210 H     1 <1>   0.0800 
 30 H       -3.6590    -2.4640     0.0930 H     1 <1>   0.0800 
 31 H       -2.1240    -2.4550     0.8930 H     1 <1>   0.0800 
 32 H        0.5910     1.4780     0.7980 H     1 <1>   0.0800 
 33 H       -1.1860    -2.8240    -1.6020 H     1 <1>   0.0800 
 34 H       -2.8130    -3.3800    -1.8650 H     1 <1>   0.0800 
 35 H       -1.0560     1.9890     2.5180 H     1 <1>   0.0800 
 36 H       -1.7580     3.2450     1.5270 H     1 <1>   0.0800 
 37 H       -0.7460     3.6110    -0.8820 H     1 <1>   0.0800 
 38 H        0.5780     2.5810    -1.3710 H     1 <1>   0.0800 
 39 H       -5.9510    -0.9250    -2.1980 H     1 <1>   0.1500 
 40 H       -3.8550     0.7170     1.1810 H     1 <1>   0.1500 
 41 H       -2.0100    -5.3770    -1.2200 H     1 <1>   0.0800 
 42 H       -2.2850    -4.7610     0.3850 H     1 <1>   0.0800 
 43 H        1.0280     3.2360     2.7020 H     1 <1>   0.0800 
 44 H       -0.2920     4.2580     3.1920 H     1 <1>   0.0800 
 45 H        1.3480     4.8500    -0.7090 H     1 <1>   0.0800 
 46 H        2.0450     3.6030     0.2840 H     1 <1>   0.0800 
 47 H       -6.0000     0.9660     2.3800 H     1 <1>   0.1500 
 48 H        0.2460    -4.7080    -1.1350 H     1 <1>   0.4500 
 49 H        1.3080     5.4480     1.7050 H     1 <1>   0.0800 
 50 H       -0.2910     5.3830     1.0230 H     1 <1>   0.0800 
 51 H       -0.4690    -6.2100     1.3130 H     1 <1>   0.0800 
 52 H        1.0870    -6.2430     0.5090 H     1 <1>   0.0800 
 53 H       -0.3260    -6.8920    -0.2950 H     1 <1>   0.0800 
 54 H       -0.2730    -3.5730     1.5380 H     1 <1>   0.0800 
 55 H        0.3240    -2.7550     0.1110 H     1 <1>   0.0800 
 56 H        1.3300    -3.9220     0.9220 H     1 <1>   0.0800 
 57 H       -9.7270    -1.1890     0.5320 H     1 <1>   0.0800 
 58 H       -9.8970     0.4480    -0.1470 H     1 <1>   0.0800 
@<TRIPOS>BOND
  1   1   2  2   
  2   2   3  am  
  3   2   4  am  
  4   3   5  1   
  5   3   6  1   
  6   4   7  1   
  7   4  27  1   
  8   5   8  1   
  9   5  28  1   
 10   5  29  1   
 11   6   9  1   
 12   6  30  1   
 13   6  31  1   
 14   7  10  1   
 15   7  11  1   
 16   7  32  1   
 17   8  12  ar  
 18   8  13  ar  
 19   9  14  1   
 20   9  33  1   
 21   9  34  1   
 22  10  15  1   
 23  10  35  1   
 24  10  36  1   
 25  11  16  1   
 26  11  37  1   
 27  11  38  1   
 28  12  17  ar  
 29  12  39  1   
 30  13  18  ar  
 31  13  40  1   
 32  14  19  1   
 33  14  41  1   
 34  14  42  1   
 35  15  20  1   
 36  15  43  1   
 37  15  44  1   
 38  16  20  1   
 39  16  45  1   
 40  16  46  1   
 41  17  21  1   
 42  17  22  ar  
 43  18  22  ar  
 44  18  47  1   
 45  19  23  1   
 46  19  24  1   
 47  19  48  1   
 48  20  49  1   
 49  20  50  1   
 50  21  25  1   
 51  22  26  1   
 52  23  51  1   
 53  23  52  1   
 54  23  53  1   
 55  24  54  1   
 56  24  55  1   
 57  24  56  1   
 58  25  26  1   
 59  25  57  1   
 60  25  58  1   
@<TRIPOS>SUBSTRUCTURE
  1 ****   3 GROUP 4 **** **** 0

# MOE 2024.06 (io_trps.svl 2023.06)
