@<TRIPOS>MOLECULE
NONAME
44 45 1 0 0 
SMALL
USER_CHARGES


@<TRIPOS>ATOM
  1 S       -0.1370    -0.3170    -0.3120 S.3   1 <1>  -0.0800 
  2 C        0.9860     1.0190    -0.0130 C.2   1 <1>   0.1040 
  3 C       -1.4940     0.7710    -0.2080 C.2   1 <1>  -0.1400 
  4 N        2.3540     0.7820     0.0300 N.am  1 <1>  -0.4940 
  5 C        0.3100     2.2060     0.1540 C.2   1 <1>  -0.0860 
  6 C       -1.1110     2.0120     0.0310 C.2   1 <1>  -0.1810 
  7 C       -2.9610     0.5230    -0.3430 C.3   1 <1>   0.0200 
  8 C        3.0930    -0.3630    -0.1670 C.2   1 <1>   0.5690 
  9 C        0.8940     3.4930     0.4160 C.2   1 <1>   0.8060 
 10 C       -2.3130     2.9200     0.1130 C.3   1 <1>   0.0210 
 11 C       -3.5110     1.9570    -0.1260 C.3   1 <1>  -0.1600 
 12 O        2.6340    -1.4370    -0.4700 O.2   1 <1>  -0.5700 
 13 C        4.6180    -0.3230     0.0040 C.3   1 <1>   0.4040 
 14 O        0.2510     4.5200     0.5150 O.2   1 <1>  -0.5700 
 15 O        2.2310     3.5540     0.5590 O.3   1 <1>  -0.4300 
 16 N        5.1830    -1.7050     0.2170 N.4   1 <1>  -0.9060 
 17 C        2.9120     4.7760     0.7820 C.3   1 <1>   0.1200 
 18 C        6.6020    -1.8790    -0.1060 C.3   1 <1>   0.4230 
 19 C        3.2040     5.4310    -0.5670 C.3   1 <1>  -0.2400 
 20 C        6.8980    -3.3710    -0.0630 C.3   1 <1>  -0.2400 
 21 C        7.4470    -1.1260     0.9170 C.3   1 <1>  -0.2400 
 22 H        2.8770     1.6380     0.2370 H     1 <1>   0.3700 
 23 H       -3.3050    -0.1570     0.4150 H     1 <1>   0.0800 
 24 H       -3.1960     0.1490    -1.3240 H     1 <1>   0.0800 
 25 H       -2.2630     3.6790    -0.6490 H     1 <1>   0.0800 
 26 H       -2.3700     3.3840     1.0820 H     1 <1>   0.0800 
 27 H       -4.1670     1.9720     0.7270 H     1 <1>   0.0800 
 28 H       -4.0670     2.2710    -0.9920 H     1 <1>   0.0800 
 29 H        4.8710     0.3100     0.8370 H     1 <1>   0.0800 
 30 H        5.0370     0.1020    -0.8910 H     1 <1>   0.0800 
 31 H        4.6060    -2.3280    -0.3740 H     1 <1>   0.4500 
 32 H        4.9950    -2.0230     1.1740 H     1 <1>   0.4500 
 33 H        3.8300     4.5540     1.2960 H     1 <1>   0.0800 
 34 H        2.3130     5.4170     1.4090 H     1 <1>   0.0800 
 35 H        6.8050    -1.5040    -1.0980 H     1 <1>   0.0800 
 36 H        3.7950     4.7790    -1.1860 H     1 <1>   0.0800 
 37 H        3.7520     6.3430    -0.4130 H     1 <1>   0.0800 
 38 H        2.2860     5.6750    -1.0720 H     1 <1>   0.0800 
 39 H        6.7110    -3.7810     0.9140 H     1 <1>   0.0800 
 40 H        7.9330    -3.5410    -0.3020 H     1 <1>   0.0800 
 41 H        6.3060    -3.8980    -0.7920 H     1 <1>   0.0800 
 42 H        7.2490    -1.4710     1.9170 H     1 <1>   0.0800 
 43 H        7.2770    -0.0660     0.8600 H     1 <1>   0.0800 
 44 H        8.4900    -1.2940     0.7110 H     1 <1>   0.0800 
@<TRIPOS>BOND
  1   1   2  1   
  2   1   3  1   
  3   2   4  1   
  4   2   5  2   
  5   3   6  2   
  6   3   7  1   
  7   4   8  am  
  8   4  22  1   
  9   5   6  1   
 10   5   9  1   
 11   6  10  1   
 12   7  11  1   
 13   7  23  1   
 14   7  24  1   
 15   8  12  2   
 16   8  13  1   
 17   9  14  2   
 18   9  15  1   
 19  10  11  1   
 20  10  25  1   
 21  10  26  1   
 22  11  27  1   
 23  11  28  1   
 24  13  16  1   
 25  13  29  1   
 26  13  30  1   
 27  15  17  1   
 28  16  18  1   
 29  16  31  1   
 30  16  32  1   
 31  17  19  1   
 32  17  33  1   
 33  17  34  1   
 34  18  20  1   
 35  18  21  1   
 36  18  35  1   
 37  19  36  1   
 38  19  37  1   
 39  19  38  1   
 40  20  39  1   
 41  20  40  1   
 42  20  41  1   
 43  21  42  1   
 44  21  43  1   
 45  21  44  1   
@<TRIPOS>SUBSTRUCTURE
  1 ****   4 GROUP 4 **** **** 0

# MOE 2024.06 (io_trps.svl 2023.06)
