@<TRIPOS>MOLECULE
NONAME
45 47 1 0 0 
SMALL
USER_CHARGES


@<TRIPOS>ATOM
  1 O       -0.3310    -0.1570    -0.8600 O.2   1 <1>  -0.5700 
  2 C       -0.7810    -1.1370    -0.2990 C.2   1 <1>   0.5440 
  3 N        0.0770    -2.0940     0.1860 N.am  1 <1>  -0.5470 
  4 C       -2.2170    -1.3080    -0.1440 C.ar  1 <1>   0.0860 
  5 C        1.4760    -2.2040     0.1830 C.ar  1 <1>   0.1170 
  6 C       -2.8030    -2.5510     0.1140 C.ar  1 <1>  -0.1500 
  7 C       -3.0800    -0.2150    -0.2500 C.ar  1 <1>  -0.1500 
  8 C        2.0610    -3.4760     0.1160 C.ar  1 <1>  -0.1440 
  9 C        2.2850    -1.0780     0.2920 C.ar  1 <1>  -0.1500 
 10 C       -4.1710    -2.6890     0.2680 C.ar  1 <1>  -0.1500 
 11 C       -4.4480    -0.3480    -0.0980 C.ar  1 <1>  -0.1500 
 12 C        3.4480    -3.5870     0.1710 C.ar  1 <1>  -0.1500 
 13 C        1.1540    -4.7070    -0.0430 C.3   1 <1>   0.3430 
 14 C        3.6590    -1.1990     0.3470 C.ar  1 <1>   0.0830 
 15 C       -5.0030    -1.5880     0.1660 C.ar  1 <1>  -0.1430 
 16 C        4.2430    -2.4620     0.2800 C.ar  1 <1>   0.0830 
 17 O        0.3490    -4.7910     1.0820 O.3   1 <1>  -0.6800 
 18 C        1.8660    -6.0590    -0.2220 C.3   1 <1>  -0.1600 
 19 O        4.4180    -0.0790     0.4750 O.3   1 <1>  -0.3630 
 20 C       -6.5050    -1.7350     0.3330 C.3   1 <1>  -0.0970 
 21 O        5.5940    -2.6170     0.3140 O.3   1 <1>  -0.3620 
 22 C        0.8990    -7.2350    -0.4370 C.3   1 <1>  -0.2400 
 23 C        5.7730    -0.2600     0.8370 C.3   1 <1>   0.1200 
 24 C        6.3690    -1.4560     0.0820 C.3   1 <1>   0.1200 
 25 H       -0.3720    -2.9160     0.6010 H     1 <1>   0.3700 
 26 H       -2.1930    -3.4330     0.1920 H     1 <1>   0.1500 
 27 H       -2.6640     0.7570    -0.4560 H     1 <1>   0.1500 
 28 H        1.8470    -0.0990     0.3440 H     1 <1>   0.1500 
 29 H       -4.5890    -3.6610     0.4670 H     1 <1>   0.1500 
 30 H       -5.0790     0.5190    -0.1870 H     1 <1>   0.1500 
 31 H        3.9500    -4.5340     0.1240 H     1 <1>   0.1500 
 32 H        0.5050    -4.5490    -0.8890 H     1 <1>   0.0800 
 33 H        0.9260    -4.8950     1.8630 H     1 <1>   0.4000 
 34 H        2.4870    -6.2600     0.6330 H     1 <1>   0.0800 
 35 H        2.5050    -5.9920    -1.0850 H     1 <1>   0.0800 
 36 H       -6.7360    -2.5870     0.9460 H     1 <1>   0.0800 
 37 H       -6.9670    -1.8640    -0.6290 H     1 <1>   0.0800 
 38 H       -6.9170    -0.8590     0.8020 H     1 <1>   0.0800 
 39 H        0.2680    -7.3720     0.4250 H     1 <1>   0.0800 
 40 H        1.4530    -8.1430    -0.5990 H     1 <1>   0.0800 
 41 H        0.2750    -7.0580    -1.2950 H     1 <1>   0.0800 
 42 H        5.8160    -0.4280     1.8980 H     1 <1>   0.0800 
 43 H        6.3020     0.6450     0.6000 H     1 <1>   0.0800 
 44 H        6.3750    -1.2630    -0.9770 H     1 <1>   0.0800 
 45 H        7.3720    -1.6550     0.4110 H     1 <1>   0.0800 
@<TRIPOS>BOND
  1   1   2  2   
  2   2   3  am  
  3   2   4  1   
  4   3   5  1   
  5   3  25  1   
  6   4   6  ar  
  7   4   7  ar  
  8   5   8  ar  
  9   5   9  ar  
 10   6  10  ar  
 11   6  26  1   
 12   7  11  ar  
 13   7  27  1   
 14   8  12  ar  
 15   8  13  1   
 16   9  14  ar  
 17   9  28  1   
 18  10  15  ar  
 19  10  29  1   
 20  11  15  ar  
 21  11  30  1   
 22  12  16  ar  
 23  12  31  1   
 24  13  17  1   
 25  13  18  1   
 26  13  32  1   
 27  14  16  ar  
 28  14  19  1   
 29  15  20  1   
 30  16  21  1   
 31  17  33  1   
 32  18  22  1   
 33  18  34  1   
 34  18  35  1   
 35  19  23  1   
 36  20  36  1   
 37  20  37  1   
 38  20  38  1   
 39  21  24  1   
 40  22  39  1   
 41  22  40  1   
 42  22  41  1   
 43  23  24  1   
 44  23  42  1   
 45  23  43  1   
 46  24  44  1   
 47  24  45  1   
@<TRIPOS>SUBSTRUCTURE
  1 ****   3 GROUP 4 **** **** 0

# MOE 2024.06 (io_trps.svl 2023.06)
