@<TRIPOS>MOLECULE
NONAME
36 37 1 0 0 
SMALL
USER_CHARGES


@<TRIPOS>ATOM
  1 S        0.1060     0.3710     0.3760 S.o2  1 <1>   1.4470 
  2 O        0.0550     1.3860     1.4030 O.2   1 <1>  -0.6500 
  3 O       -0.0840     0.7280    -1.0110 O.2   1 <1>  -0.6500 
  4 N        1.6510    -0.2780     0.4030 N.am  1 <1>  -0.9140 
  5 C       -0.9460    -1.0370     0.8250 C.ar  1 <1>  -0.0090 
  6 C        2.6830     0.7410     0.5050 C.3   1 <1>   0.1960 
  7 C       -1.9810    -1.4590    -0.0030 C.ar  1 <1>  -0.1500 
  8 C       -0.7420    -1.7280     2.0140 C.ar  1 <1>  -0.1500 
  9 C        4.0740     0.1160     0.3200 C.3   1 <1>  -0.0800 
 10 C       -2.7820    -2.5350     0.3420 C.ar  1 <1>  -0.1500 
 11 C       -1.5380    -2.8040     2.3670 C.ar  1 <1>  -0.1500 
 12 C        5.1570     1.1850     0.5540 C.3   1 <1>  -0.1600 
 13 C        4.2450    -0.5240    -1.0750 C.3   1 <1>  -0.1600 
 14 C       -2.5610    -3.2090     1.5280 C.ar  1 <1>  -0.1500 
 15 C        6.5690     0.6140     0.3630 C.3   1 <1>  -0.1600 
 16 C        5.6600    -1.0870    -1.2680 C.3   1 <1>  -0.1600 
 17 C        6.7270    -0.0140    -1.0260 C.3   1 <1>  -0.1600 
 18 H        1.7480    -0.6910    -0.5210 H     1 <1>   0.4200 
 19 H        2.6240     1.2060     1.4760 H     1 <1>   0.0800 
 20 H        2.5240     1.5020    -0.2430 H     1 <1>   0.0800 
 21 H       -2.1630    -0.9410    -0.9290 H     1 <1>   0.1500 
 22 H        0.0530    -1.4160     2.6720 H     1 <1>   0.1500 
 23 H        4.1960    -0.6480     1.0700 H     1 <1>   0.0800 
 24 H       -3.5790    -2.8460    -0.3130 H     1 <1>   0.1500 
 25 H       -1.3620    -3.3250     3.2920 H     1 <1>   0.1500 
 26 H        5.0700     1.5780     1.5530 H     1 <1>   0.0800 
 27 H        5.0140     2.0010    -0.1340 H     1 <1>   0.0800 
 28 H        4.0540     0.2140    -1.8350 H     1 <1>   0.0800 
 29 H        3.5410    -1.3260    -1.2040 H     1 <1>   0.0800 
 30 H       -3.1820    -4.0450     1.7990 H     1 <1>   0.1500 
 31 H        6.7570    -0.1320     1.1160 H     1 <1>   0.0800 
 32 H        7.2950     1.3990     0.4890 H     1 <1>   0.0800 
 33 H        5.7600    -1.4750    -2.2680 H     1 <1>   0.0800 
 34 H        5.8150    -1.9030    -0.5820 H     1 <1>   0.0800 
 35 H        7.7060    -0.4520    -1.1140 H     1 <1>   0.0800 
 36 H        6.6400     0.7530    -1.7770 H     1 <1>   0.0800 
@<TRIPOS>BOND
  1   1   2  2   
  2   1   3  2   
  3   1   4  am  
  4   1   5  1   
  5   4   6  1   
  6   4  18  1   
  7   5   7  ar  
  8   5   8  ar  
  9   6   9  1   
 10   6  19  1   
 11   6  20  1   
 12   7  10  ar  
 13   7  21  1   
 14   8  11  ar  
 15   8  22  1   
 16   9  12  1   
 17   9  13  1   
 18   9  23  1   
 19  10  14  ar  
 20  10  24  1   
 21  11  14  ar  
 22  11  25  1   
 23  12  15  1   
 24  12  26  1   
 25  12  27  1   
 26  13  16  1   
 27  13  28  1   
 28  13  29  1   
 29  14  30  1   
 30  15  17  1   
 31  15  31  1   
 32  15  32  1   
 33  16  17  1   
 34  16  33  1   
 35  16  34  1   
 36  17  35  1   
 37  17  36  1   
@<TRIPOS>SUBSTRUCTURE
  1 ****   4 GROUP 4 **** **** 0

# MOE 2024.06 (io_trps.svl 2023.06)
