@<TRIPOS>MOLECULE
NONAME
31 31 1 0 0 
SMALL
USER_CHARGES


@<TRIPOS>ATOM
  1 CL      -0.9320     0.7940    -2.6060 Cl    1 <1>  -0.1770 
  2 C       -1.9300     1.2390    -1.2390 C.ar  1 <1>   0.1770 
  3 C       -1.5710     2.3050    -0.4230 C.ar  1 <1>   0.0830 
  4 C       -3.0760     0.5030    -1.0050 C.ar  1 <1>  -0.1500 
  5 O       -0.4320     2.9880    -0.7110 O.3   1 <1>  -0.3630 
  6 C       -2.3990     2.6200     0.6500 C.ar  1 <1>  -0.1500 
  7 C       -3.9080     0.8120     0.0640 C.ar  1 <1>  -0.0090 
  8 C        0.0070     4.0710     0.0780 C.3   1 <1>   0.0400 
  9 C       -3.5480     1.8800     0.8800 C.ar  1 <1>  -0.1500 
 10 S       -5.4310    -0.1210     0.3750 S.o2  1 <1>   1.4470 
 11 O       -5.5390    -1.2350    -0.5380 O.2   1 <1>  -0.6500 
 12 O       -5.6140    -0.3070     1.7960 O.2   1 <1>  -0.6500 
 13 N       -6.6230     0.9310    -0.1550 N.am  1 <1>  -0.9140 
 14 C       -7.9280     0.6530     0.4410 C.3   1 <1>   0.1960 
 15 C       -8.9740     1.6220    -0.1110 C.3   1 <1>   0.1200 
 16 O      -10.2170     1.2710     0.4070 O.3   1 <1>  -0.5600 
 17 C      -11.2540     2.1080     0.0080 C.3   1 <1>   0.0400 
 18 H       -3.3150    -0.3150    -1.6620 H     1 <1>   0.1500 
 19 H       -2.1700     3.4340     1.3130 H     1 <1>   0.1500 
 20 H        0.9260     4.4380    -0.3430 H     1 <1>   0.0800 
 21 H        0.1790     3.7260     1.0820 H     1 <1>   0.0800 
 22 H       -0.7380     4.8460     0.0560 H     1 <1>   0.0800 
 23 H       -4.1830     2.1350     1.7140 H     1 <1>   0.1500 
 24 H       -6.6990     0.7050    -1.1450 H     1 <1>   0.4200 
 25 H       -7.8750     0.7750     1.5100 H     1 <1>   0.0800 
 26 H       -8.2220    -0.3600     0.2190 H     1 <1>   0.0800 
 27 H       -9.0230     1.5540    -1.1840 H     1 <1>   0.0800 
 28 H       -8.7430     2.6280     0.1940 H     1 <1>   0.0800 
 29 H      -12.1640     1.7520     0.4580 H     1 <1>   0.0800 
 30 H      -11.3440     2.0790    -1.0640 H     1 <1>   0.0800 
 31 H      -11.0520     3.1110     0.3450 H     1 <1>   0.0800 
@<TRIPOS>BOND
  1   1   2  1   
  2   2   3  ar  
  3   2   4  ar  
  4   3   5  1   
  5   3   6  ar  
  6   4   7  ar  
  7   4  18  1   
  8   5   8  1   
  9   6   9  ar  
 10   6  19  1   
 11   7   9  ar  
 12   7  10  1   
 13   8  20  1   
 14   8  21  1   
 15   8  22  1   
 16   9  23  1   
 17  10  11  2   
 18  10  12  2   
 19  10  13  am  
 20  13  14  1   
 21  13  24  1   
 22  14  15  1   
 23  14  25  1   
 24  14  26  1   
 25  15  16  1   
 26  15  27  1   
 27  15  28  1   
 28  16  17  1   
 29  17  29  1   
 30  17  30  1   
 31  17  31  1   
@<TRIPOS>SUBSTRUCTURE
  1 ****   7 GROUP 4 **** **** 0

# MOE 2024.06 (io_trps.svl 2023.06)
