@<TRIPOS>MOLECULE
NONAME
48 50 1 0 0 
SMALL
USER_CHARGES


@<TRIPOS>ATOM
  1 O        0.7270    -1.3760     1.6100 O.2   1 <1>  -0.5700 
  2 C        0.6200    -2.0560     0.6130 C.2   1 <1>   0.7060 
  3 O        1.6670    -2.8050     0.2420 O.3   1 <1>  -0.4300 
  4 C       -0.5730    -2.0600    -0.2070 C.2   1 <1>  -0.1240 
  5 C        2.8480    -2.8660     1.0320 C.3   1 <1>   0.2000 
  6 C       -1.3750    -0.9800    -0.3420 C.2   1 <1>  -0.2880 
  7 C       -0.8650    -3.4060    -0.8740 C.3   1 <1>   0.1160 
  8 C        3.8150    -3.9530     0.5200 C.3   1 <1>   0.5610 
  9 C        3.6590    -1.5940     0.7910 C.3   1 <1>  -0.1600 
 10 C       -2.6800    -0.8210    -1.1120 C.3   1 <1>  -0.1020 
 11 C       -1.3540    -4.4580     0.1320 C.2   1 <1>  -0.2760 
 12 N        4.6320    -3.3050    -0.5670 N.4   1 <1>  -0.9590 
 13 C        3.2630    -5.1760    -0.1640 C.2   1 <1>  -0.2760 
 14 C        4.3300    -1.8480    -0.5490 C.3   1 <1>   0.3430 
 15 C       -1.9050    -4.1250     1.3110 C.2   1 <1>  -0.3000 
 16 C       -1.1440    -5.9030    -0.3650 C.3   1 <1>   0.4790 
 17 C        4.3210    -3.9630    -1.8780 C.3   1 <1>   0.4810 
 18 C        3.5520    -5.1780    -1.4590 C.2   1 <1>  -0.2880 
 19 C        2.5050    -6.2240     0.6330 C.3   1 <1>   0.2580 
 20 O       -1.7170    -5.9700    -1.6320 O.3   1 <1>  -0.6800 
 21 C        0.3640    -6.2820    -0.4320 C.2   1 <1>   0.6590 
 22 C       -1.9080    -6.9390     0.4690 C.3   1 <1>  -0.2400 
 23 O        1.1340    -5.9130     0.5940 O.3   1 <1>  -0.4300 
 24 O        0.8170    -6.9000    -1.3680 O.2   1 <1>  -0.5700 
 25 H        2.5730    -3.0210     2.0610 H     1 <1>   0.0800 
 26 H       -1.1190    -0.0580     0.1570 H     1 <1>   0.1500 
 27 H        0.0250    -3.7460    -1.3710 H     1 <1>   0.0800 
 28 H       -1.6030    -3.3060    -1.6470 H     1 <1>   0.0800 
 29 H        4.4700    -4.2430     1.3250 H     1 <1>   0.0800 
 30 H        3.0610    -0.6990     0.7790 H     1 <1>   0.0800 
 31 H        4.4100    -1.4850     1.5540 H     1 <1>   0.0800 
 32 H       -2.5440    -0.1280    -1.9230 H     1 <1>   0.0800 
 33 H       -3.4350    -0.4270    -0.4550 H     1 <1>   0.0800 
 34 H       -3.0480    -1.7470    -1.5100 H     1 <1>   0.0800 
 35 H        5.6170    -3.4790    -0.3500 H     1 <1>   0.4500 
 36 H        5.2200    -1.2510    -0.6700 H     1 <1>   0.0800 
 37 H        3.6320    -1.6100    -1.3370 H     1 <1>   0.0800 
 38 H       -2.2630    -4.8190     2.0500 H     1 <1>   0.1500 
 39 H       -2.0590    -3.1130     1.6490 H     1 <1>   0.1500 
 40 H        3.7060    -3.3320    -2.5000 H     1 <1>   0.0800 
 41 H        5.2240    -4.2310    -2.4020 H     1 <1>   0.0800 
 42 H        3.2950    -5.9120    -2.2080 H     1 <1>   0.1500 
 43 H        2.8170    -6.2430     1.6620 H     1 <1>   0.0800 
 44 H        2.6480    -7.2070     0.2140 H     1 <1>   0.0800 
 45 H       -1.3160    -6.7270    -2.1070 H     1 <1>   0.4000 
 46 H       -1.5200    -6.9650     1.4710 H     1 <1>   0.0800 
 47 H       -2.9520    -6.6840     0.5090 H     1 <1>   0.0800 
 48 H       -1.7980    -7.9190     0.0420 H     1 <1>   0.0800 
@<TRIPOS>BOND
  1   1   2  2   
  2   2   3  1   
  3   2   4  1   
  4   3   5  1   
  5   4   6  2   
  6   4   7  1   
  7   5   8  1   
  8   5   9  1   
  9   5  25  1   
 10   6  10  1   
 11   6  26  1   
 12   7  11  1   
 13   7  27  1   
 14   7  28  1   
 15   8  12  1   
 16   8  13  1   
 17   8  29  1   
 18   9  14  1   
 19   9  30  1   
 20   9  31  1   
 21  10  32  1   
 22  10  33  1   
 23  10  34  1   
 24  11  15  2   
 25  11  16  1   
 26  12  14  1   
 27  12  17  1   
 28  12  35  1   
 29  13  18  2   
 30  13  19  1   
 31  14  36  1   
 32  14  37  1   
 33  15  38  1   
 34  15  39  1   
 35  16  20  1   
 36  16  21  1   
 37  16  22  1   
 38  17  18  1   
 39  17  40  1   
 40  17  41  1   
 41  18  42  1   
 42  19  23  1   
 43  19  43  1   
 44  19  44  1   
 45  20  45  1   
 46  21  23  1   
 47  21  24  2   
 48  22  46  1   
 49  22  47  1   
 50  22  48  1   
@<TRIPOS>SUBSTRUCTURE
  1 ****   3 GROUP 4 **** **** 0

# MOE 2024.06 (io_trps.svl 2023.06)
