@<TRIPOS>MOLECULE
Structure1697
38 38 1 0 0 
SMALL
USER_CHARGES


@<TRIPOS>ATOM
  1 O        2.8020     0.3820     1.6150 O.2   1 <1>  -0.5700 
  2 C        2.1170    -0.2420     0.8310 C.2   1 <1>   0.7800 
  3 O        1.2840     0.3740    -0.0100 O.3   1 <1>  -0.4300 
  4 N        2.1640    -1.5870     0.7760 N.am  1 <1>  -0.7300 
  5 C        0.9860     1.7460    -0.0820 C.3   1 <1>   0.2800 
  6 C        1.4750    -2.4360    -0.2060 C.3   1 <1>   0.3640 
  7 C        0.3800     2.2230     1.2420 C.3   1 <1>  -0.2400 
  8 C       -0.0630     1.8620    -1.1890 C.3   1 <1>  -0.2400 
  9 C        2.2370     2.5400    -0.4770 C.3   1 <1>  -0.2400 
 10 C       -0.0410    -2.2750    -0.0820 C.ar  1 <1>  -0.1440 
 11 C        1.8690    -3.8830     0.0260 C.3   1 <1>  -0.2660 
 12 C       -0.8030    -2.0070    -1.2100 C.ar  1 <1>  -0.1500 
 13 C       -0.6770    -2.3810     1.1490 C.ar  1 <1>  -0.1500 
 14 C        3.3400    -4.0250    -0.1880 C.2   1 <1>   0.9060 
 15 C       -2.1730    -1.8490    -1.1040 C.ar  1 <1>   0.0820 
 16 C       -2.0500    -2.2240     1.2540 C.ar  1 <1>  -0.1500 
 17 O        4.0930    -3.6690     0.7240 O.co2 1 <1>  -0.9000 
 18 O        3.7400    -4.4530    -1.2710 O.co2 1 <1>  -0.9000 
 19 O       -2.8910    -1.5870    -2.2070 O.3   1 <1>  -0.5330 
 20 C       -2.8040    -1.9580     0.1250 C.ar  1 <1>  -0.1500 
 21 H        3.0140    -2.0420     1.1490 H     1 <1>   0.3700 
 22 H        1.7940    -2.1420    -1.1930 H     1 <1>   0.0800 
 23 H        1.1120     2.2100     2.0280 H     1 <1>   0.0800 
 24 H       -0.4450     1.5920     1.5190 H     1 <1>   0.0800 
 25 H        0.0240     3.2320     1.1430 H     1 <1>   0.0800 
 26 H       -0.9290     1.2750    -0.9390 H     1 <1>   0.0800 
 27 H        0.3400     1.5060    -2.1200 H     1 <1>   0.0800 
 28 H       -0.3660     2.8850    -1.3150 H     1 <1>   0.0800 
 29 H        2.9660     2.5260     0.3110 H     1 <1>   0.0800 
 30 H        1.9770     3.5650    -0.6660 H     1 <1>   0.0800 
 31 H        2.6730     2.1260    -1.3680 H     1 <1>   0.0800 
 32 H        1.3610    -4.5170    -0.6730 H     1 <1>   0.0800 
 33 H        1.6240    -4.1950     1.0220 H     1 <1>   0.0800 
 34 H       -0.3380    -1.9160    -2.1740 H     1 <1>   0.1500 
 35 H       -0.0910    -2.5810     2.0300 H     1 <1>   0.1500 
 36 H       -2.5240    -2.3090     2.2160 H     1 <1>   0.1500 
 37 H       -3.8430    -1.5050    -2.0260 H     1 <1>   0.4500 
 38 H       -3.8670    -1.8360     0.2090 H     1 <1>   0.1500 
@<TRIPOS>BOND
  1   1   2  2   
  2   2   3  1   
  3   2   4  am  
  4   3   5  1   
  5   4   6  1   
  6   4  21  1   
  7   5   7  1   
  8   5   8  1   
  9   5   9  1   
 10   6  10  1   
 11   6  11  1   
 12   6  22  1   
 13   7  23  1   
 14   7  24  1   
 15   7  25  1   
 16   8  26  1   
 17   8  27  1   
 18   8  28  1   
 19   9  29  1   
 20   9  30  1   
 21   9  31  1   
 22  10  12  ar  
 23  10  13  ar  
 24  11  14  1   
 25  11  32  1   
 26  11  33  1   
 27  12  15  ar  
 28  12  34  1   
 29  13  16  ar  
 30  13  35  1   
 31  14  17  ar  
 32  14  18  ar  
 33  15  19  1   
 34  15  20  ar  
 35  16  20  ar  
 36  16  36  1   
 37  19  37  1   
 38  20  38  1   
@<TRIPOS>SUBSTRUCTURE
  1 ****  10 GROUP 4 **** **** 0

# MOE 2024.06 (io_trps.svl 2023.06)
