@<TRIPOS>MOLECULE
NONAME
38 40 1 0 0 
SMALL
USER_CHARGES


@<TRIPOS>ATOM
  1 N        1.1210    -0.1260    -0.6490 N.ar  1 <1>  -0.6200 
  2 C        1.6880     0.6960     0.2330 C.ar  1 <1>   0.7200 
  3 C        0.1750     0.3990    -1.3930 C.ar  1 <1>   0.1600 
  4 N        1.4290     1.9880     0.3930 N.ar  1 <1>  -0.6200 
  5 N        2.6720     0.1630     1.0330 N.pl3 1 <1>  -0.8380 
  6 C       -0.1920     1.7190    -1.2860 C.ar  1 <1>  -0.1500 
  7 C        0.4800     2.4840    -0.3640 C.ar  1 <1>   0.1600 
  8 C        2.7940    -1.3140     1.1990 C.3   1 <1>   0.2090 
  9 C        3.9700     0.8870     1.1540 C.3   1 <1>   0.2090 
 10 C        3.7750    -1.8720     0.1480 C.3   1 <1>   0.3430 
 11 C        4.9740     0.3300     0.1210 C.3   1 <1>   0.3430 
 12 N        5.1170    -1.1780     0.1860 N.4   1 <1>  -0.9590 
 13 C        6.0190    -1.6800    -0.8830 C.3   1 <1>   0.4860 
 14 C        7.4040    -1.1110    -0.6500 C.ar  1 <1>  -0.1430 
 15 C        7.8700    -0.0640    -1.4340 C.ar  1 <1>  -0.1500 
 16 C        8.2160    -1.6280     0.3510 C.ar  1 <1>  -0.1500 
 17 C        9.1270     0.4680    -1.2090 C.ar  1 <1>  -0.1500 
 18 C        9.4730    -1.0950     0.5730 C.ar  1 <1>  -0.1500 
 19 C        9.9280    -0.0450    -0.2050 C.ar  1 <1>  -0.1500 
 20 H       -0.3230    -0.2360    -2.1070 H     1 <1>   0.1500 
 21 H       -0.9700     2.1360    -1.8980 H     1 <1>   0.1500 
 22 H        0.2310     3.5260    -0.2460 H     1 <1>   0.1500 
 23 H        1.8310    -1.7850     1.0900 H     1 <1>   0.0800 
 24 H        3.1480    -1.5350     2.1910 H     1 <1>   0.0800 
 25 H        4.3570     0.7660     2.1500 H     1 <1>   0.0800 
 26 H        3.8380     1.9420     0.9870 H     1 <1>   0.0800 
 27 H        3.3240    -1.7350    -0.8220 H     1 <1>   0.0800 
 28 H        3.8990    -2.9300     0.3100 H     1 <1>   0.0800 
 29 H        5.9320     0.7970     0.2800 H     1 <1>   0.0800 
 30 H        4.6280     0.6150    -0.8580 H     1 <1>   0.0800 
 31 H        5.5720    -1.3900     1.0820 H     1 <1>   0.4500 
 32 H        5.6530    -1.3800    -1.8520 H     1 <1>   0.0800 
 33 H        6.0680    -2.7570    -0.8550 H     1 <1>   0.0800 
 34 H        7.2690     0.3470    -2.2270 H     1 <1>   0.1500 
 35 H        7.8890    -2.4500     0.9650 H     1 <1>   0.1500 
 36 H        9.4880     1.2810    -1.8180 H     1 <1>   0.1500 
 37 H       10.1050    -1.4960     1.3480 H     1 <1>   0.1500 
 38 H       10.9070     0.3680    -0.0330 H     1 <1>   0.1500 
@<TRIPOS>BOND
  1   1   2  ar  
  2   1   3  ar  
  3   2   4  ar  
  4   2   5  1   
  5   3   6  ar  
  6   3  20  1   
  7   4   7  ar  
  8   5   8  1   
  9   5   9  1   
 10   6   7  ar  
 11   6  21  1   
 12   7  22  1   
 13   8  10  1   
 14   8  23  1   
 15   8  24  1   
 16   9  11  1   
 17   9  25  1   
 18   9  26  1   
 19  10  12  1   
 20  10  27  1   
 21  10  28  1   
 22  11  12  1   
 23  11  29  1   
 24  11  30  1   
 25  12  13  1   
 26  12  31  1   
 27  13  14  1   
 28  13  32  1   
 29  13  33  1   
 30  14  15  ar  
 31  14  16  ar  
 32  15  17  ar  
 33  15  34  1   
 34  16  18  ar  
 35  16  35  1   
 36  17  19  ar  
 37  17  36  1   
 38  18  19  ar  
 39  18  37  1   
 40  19  38  1   
@<TRIPOS>SUBSTRUCTURE
  1 ****  11 GROUP 4 **** **** 0

# MOE 2024.06 (io_trps.svl 2023.06)
