@<TRIPOS>MOLECULE
NONAME
42 43 1 0 0 
SMALL
USER_CHARGES


@<TRIPOS>ATOM
  1 O       -2.3640     1.2770    -1.8080 O.2   1 <1>  -0.5700 
  2 C       -2.0760     1.7530    -0.7370 C.2   1 <1>   0.6590 
  3 O       -1.9990     1.0080     0.3650 O.3   1 <1>  -0.4300 
  4 C       -1.7550     3.2570    -0.5950 C.3   1 <1>   0.2510 
  5 C       -2.1700    -0.3910     0.3610 C.3   1 <1>   0.1200 
  6 N       -0.3410     3.5690    -0.2080 N.3   1 <1>  -0.8100 
  7 C       -2.7200     3.9120     0.4110 C.3   1 <1>  -0.1600 
  8 C       -0.8340    -1.0450     0.0140 C.3   1 <1>  -0.2400 
  9 C       -0.0950     5.0220    -0.1760 C.3   1 <1>   0.1100 
 10 C        0.6270     2.8900    -1.0970 C.3   1 <1>   0.2530 
 11 C       -2.4930     5.4240     0.5230 C.3   1 <1>  -0.1600 
 12 C       -1.0200     5.6990     0.8380 C.3   1 <1>  -0.1600 
 13 C        2.0610     3.0680    -0.6150 C.ar  1 <1>  -0.1430 
 14 C        3.0390     3.5570    -1.4660 C.ar  1 <1>  -0.1500 
 15 C        2.4040     2.7350     0.6860 C.ar  1 <1>  -0.1500 
 16 C        4.3420     3.7100    -1.0220 C.ar  1 <1>  -0.1500 
 17 C        3.7060     2.8870     1.1300 C.ar  1 <1>  -0.1500 
 18 C        4.6830     3.3740     0.2780 C.ar  1 <1>  -0.1430 
 19 C        6.1110     3.5430     0.7650 C.3   1 <1>  -0.0970 
 20 H       -1.9380     3.6970    -1.5600 H     1 <1>   0.0800 
 21 H       -2.9370    -0.6540    -0.3480 H     1 <1>   0.0800 
 22 H       -2.4860    -0.6820     1.3470 H     1 <1>   0.0800 
 23 H       -2.5770     3.4560     1.3760 H     1 <1>   0.0800 
 24 H       -3.7340     3.7250     0.1070 H     1 <1>   0.0800 
 25 H       -0.5330    -0.7730    -0.9820 H     1 <1>   0.0800 
 26 H       -0.9330    -2.1150     0.0570 H     1 <1>   0.0800 
 27 H       -0.0780    -0.7410     0.7150 H     1 <1>   0.0800 
 28 H       -0.2520     5.4430    -1.1550 H     1 <1>   0.0800 
 29 H        0.9240     5.2170     0.1160 H     1 <1>   0.0800 
 30 H        0.5230     3.2670    -2.1000 H     1 <1>   0.0800 
 31 H        0.4290     1.8330    -1.1180 H     1 <1>   0.0800 
 32 H       -3.1160     5.8330     1.2990 H     1 <1>   0.0800 
 33 H       -2.7560     5.8980    -0.4070 H     1 <1>   0.0800 
 34 H       -0.8400     6.7590     0.8320 H     1 <1>   0.0800 
 35 H       -0.7800     5.3300     1.8210 H     1 <1>   0.0800 
 36 H        2.7930     3.8220    -2.4790 H     1 <1>   0.1500 
 37 H        1.6470     2.3620     1.3540 H     1 <1>   0.1500 
 38 H        5.0890     4.0920    -1.6940 H     1 <1>   0.1500 
 39 H        3.9520     2.6260     2.1440 H     1 <1>   0.1500 
 40 H        6.2380     4.5260     1.1810 H     1 <1>   0.0800 
 41 H        6.8030     3.4170    -0.0480 H     1 <1>   0.0800 
 42 H        6.3380     2.8130     1.5210 H     1 <1>   0.0800 
@<TRIPOS>BOND
  1   1   2  2   
  2   2   3  1   
  3   2   4  1   
  4   3   5  1   
  5   4   6  1   
  6   4   7  1   
  7   4  20  1   
  8   5   8  1   
  9   5  21  1   
 10   5  22  1   
 11   6   9  1   
 12   6  10  1   
 13   7  11  1   
 14   7  23  1   
 15   7  24  1   
 16   8  25  1   
 17   8  26  1   
 18   8  27  1   
 19   9  12  1   
 20   9  28  1   
 21   9  29  1   
 22  10  13  1   
 23  10  30  1   
 24  10  31  1   
 25  11  12  1   
 26  11  32  1   
 27  11  33  1   
 28  12  34  1   
 29  12  35  1   
 30  13  14  ar  
 31  13  15  ar  
 32  14  16  ar  
 33  14  36  1   
 34  15  17  ar  
 35  15  37  1   
 36  16  18  ar  
 37  16  38  1   
 38  17  18  ar  
 39  17  39  1   
 40  18  19  1   
 41  19  40  1   
 42  19  41  1   
 43  19  42  1   
@<TRIPOS>SUBSTRUCTURE
  1 ****  10 GROUP 4 **** **** 0

# MOE 2024.06 (io_trps.svl 2023.06)
