@<TRIPOS>MOLECULE
NONAME
35 36 1 0 0 
SMALL
USER_CHARGES


@<TRIPOS>ATOM
  1 O       -0.9170     2.6480    -2.1940 O.2   1 <1>  -0.5700 
  2 C       -1.8040     2.1640    -1.5420 C.2   1 <1>   0.6590 
  3 O       -2.9500     1.7640    -2.0540 O.3   1 <1>  -0.4300 
  4 C       -1.7840     1.9780    -0.0390 C.3   1 <1>  -0.0190 
  5 C       -3.8550     1.2960    -1.0880 C.3   1 <1>   0.2000 
  6 C       -3.2730     1.7680     0.2500 C.3   1 <1>  -0.1600 
  7 C       -1.1810     3.1590     0.7470 C.3   1 <1>  -0.0990 
  8 C       -3.9220    -0.2260    -1.2090 C.3   1 <1>  -0.2400 
  9 C        0.3350     3.1070     0.8170 C.2   1 <1>   0.5690 
 10 O        0.8330     2.8730     1.8890 O.2   1 <1>  -0.5700 
 11 N        1.0480     3.3130    -0.3290 N.am  1 <1>  -0.5470 
 12 C        2.4280     3.3570    -0.5750 C.ar  1 <1>   0.1170 
 13 C        3.3760     3.5870     0.4180 C.ar  1 <1>  -0.1500 
 14 C        2.8680     3.1770    -1.8800 C.ar  1 <1>  -0.1500 
 15 C        4.7290     3.6290     0.1210 C.ar  1 <1>  -0.1440 
 16 C        4.2160     3.2200    -2.1870 C.ar  1 <1>  -0.1500 
 17 C        5.1460     3.4460    -1.1870 C.ar  1 <1>  -0.1500 
 18 C        5.7500     3.8770     1.2170 C.3   1 <1>  -0.0970 
 19 H       -1.2490     1.0710     0.1810 H     1 <1>   0.0800 
 20 H       -4.8190     1.7370    -1.2790 H     1 <1>   0.0800 
 21 H       -3.7440     2.7000     0.5130 H     1 <1>   0.0800 
 22 H       -3.4420     1.0640     1.0460 H     1 <1>   0.0800 
 23 H       -1.5510     3.1350     1.7560 H     1 <1>   0.0800 
 24 H       -1.4830     4.0950     0.3130 H     1 <1>   0.0800 
 25 H       -2.9550    -0.6690    -1.0480 H     1 <1>   0.0800 
 26 H       -4.2780    -0.4980    -2.1870 H     1 <1>   0.0800 
 27 H       -4.6060    -0.6220    -0.4810 H     1 <1>   0.0800 
 28 H        0.4790     3.3310    -1.1850 H     1 <1>   0.3700 
 29 H        3.0540     3.7370     1.4310 H     1 <1>   0.1500 
 30 H        2.1510     3.0000    -2.6610 H     1 <1>   0.1500 
 31 H        4.5420     3.0780    -3.2020 H     1 <1>   0.1500 
 32 H        6.1930     3.4790    -1.4300 H     1 <1>   0.1500 
 33 H        5.3240     3.6770     2.1840 H     1 <1>   0.0800 
 34 H        6.0740     4.9010     1.1860 H     1 <1>   0.0800 
 35 H        6.6020     3.2360     1.0820 H     1 <1>   0.0800 
@<TRIPOS>BOND
  1   1   2  2   
  2   2   3  1   
  3   2   4  1   
  4   3   5  1   
  5   4   6  1   
  6   4   7  1   
  7   4  19  1   
  8   5   6  1   
  9   5   8  1   
 10   5  20  1   
 11   6  21  1   
 12   6  22  1   
 13   7   9  1   
 14   7  23  1   
 15   7  24  1   
 16   8  25  1   
 17   8  26  1   
 18   8  27  1   
 19   9  10  2   
 20   9  11  am  
 21  11  12  1   
 22  11  28  1   
 23  12  13  ar  
 24  12  14  ar  
 25  13  15  ar  
 26  13  29  1   
 27  14  16  ar  
 28  14  30  1   
 29  15  17  ar  
 30  15  18  1   
 31  16  17  ar  
 32  16  31  1   
 33  17  32  1   
 34  18  33  1   
 35  18  34  1   
 36  18  35  1   
@<TRIPOS>SUBSTRUCTURE
  1 ****  11 GROUP 4 **** **** 0

# MOE 2024.06 (io_trps.svl 2023.06)
