@<TRIPOS>MOLECULE
NONAME
53 55 1 0 0 
SMALL
USER_CHARGES


@<TRIPOS>ATOM
  1 S       -0.2320     0.0070    -1.7160 S.o2  1 <1>   1.4470 
  2 O        0.2890    -1.0700    -2.5320 O.2   1 <1>  -0.6500 
  3 O       -0.8040     1.1660    -2.3640 O.2   1 <1>  -0.6500 
  4 N        1.0710     0.5550    -0.7760 N.am  1 <1>  -0.8490 
  5 C       -1.4020    -0.6380    -0.4870 C.ar  1 <1>  -0.0090 
  6 C        1.9620     1.4080    -1.5620 C.3   1 <1>   0.1960 
  7 C        1.7960    -0.5530    -0.1490 C.3   1 <1>   0.1960 
  8 C       -1.7630     0.1180     0.6210 C.ar  1 <1>  -0.1500 
  9 C       -1.9690    -1.9000    -0.6220 C.ar  1 <1>  -0.1500 
 10 C        3.0540     2.0050    -0.6680 C.3   1 <1>  -0.1600 
 11 C        2.8670    -0.0100     0.7980 C.3   1 <1>  -0.1600 
 12 C       -2.6510    -0.3680     1.5660 C.ar  1 <1>  -0.1500 
 13 C       -2.8570    -2.3920     0.3180 C.ar  1 <1>  -0.1500 
 14 C        3.8590     0.9130     0.0610 C.3   1 <1>  -0.0190 
 15 C       -3.2010    -1.6290     1.4190 C.ar  1 <1>  -0.1430 
 16 C        4.9180     1.5260     0.9920 C.2   1 <1>   0.5690 
 17 C       -4.1770    -2.1640     2.4520 C.3   1 <1>  -0.0970 
 18 O        4.7540     1.4400     2.1850 O.2   1 <1>  -0.5700 
 19 N        6.0400     2.1600     0.5010 N.am  1 <1>  -0.6600 
 20 C        6.9350     2.9280     1.4270 C.3   1 <1>   0.1400 
 21 C        6.5570     2.0880    -0.9010 C.3   1 <1>   0.1400 
 22 C        8.3610     2.3540     1.4040 C.3   1 <1>   0.3430 
 23 C        8.0040     1.5450    -0.9220 C.3   1 <1>   0.3430 
 24 N        8.9210     2.3040     0.0040 N.4   1 <1>  -0.9590 
 25 C       10.2970     1.7170     0.0030 C.3   1 <1>   0.2630 
 26 H        1.3980     2.2160    -1.9990 H     1 <1>   0.0800 
 27 H        2.4020     0.8350    -2.3630 H     1 <1>   0.0800 
 28 H        2.2520    -1.1730    -0.9050 H     1 <1>   0.0800 
 29 H        1.1110    -1.1630     0.4170 H     1 <1>   0.0800 
 30 H       -1.3400     1.1020     0.7450 H     1 <1>   0.1500 
 31 H       -1.7110    -2.5060    -1.4750 H     1 <1>   0.1500 
 32 H        2.5870     2.6510     0.0550 H     1 <1>   0.0800 
 33 H        3.7040     2.6110    -1.2710 H     1 <1>   0.0800 
 34 H        3.3980    -0.8330     1.2430 H     1 <1>   0.0800 
 35 H        2.3790     0.5290     1.5920 H     1 <1>   0.0800 
 36 H       -2.9110     0.2420     2.4130 H     1 <1>   0.1500 
 37 H       -3.2810    -3.3730     0.1860 H     1 <1>   0.1500 
 38 H        4.3600     0.3040    -0.6670 H     1 <1>   0.0800 
 39 H       -3.9430    -1.7750     3.4270 H     1 <1>   0.0800 
 40 H       -4.1300    -3.2370     2.4950 H     1 <1>   0.0800 
 41 H       -5.1780    -1.8700     2.1920 H     1 <1>   0.0800 
 42 H        6.5660     2.8970     2.4380 H     1 <1>   0.0800 
 43 H        6.9520     3.9620     1.1290 H     1 <1>   0.0800 
 44 H        6.5340     3.0720    -1.3370 H     1 <1>   0.0800 
 45 H        5.9410     1.4530    -1.5110 H     1 <1>   0.0800 
 46 H        8.3320     1.3610     1.8230 H     1 <1>   0.0800 
 47 H        8.9940     2.9590     2.0320 H     1 <1>   0.0800 
 48 H        8.3830     1.5930    -1.9300 H     1 <1>   0.0800 
 49 H        7.9790     0.5080    -0.6310 H     1 <1>   0.0800 
 50 H        8.9780     3.2740    -0.3380 H     1 <1>   0.4500 
 51 H       10.2710     0.7000     0.3620 H     1 <1>   0.0800 
 52 H       10.9490     2.2900     0.6410 H     1 <1>   0.0800 
 53 H       10.7060     1.7200    -0.9950 H     1 <1>   0.0800 
@<TRIPOS>BOND
  1   1   2  2   
  2   1   3  2   
  3   1   4  am  
  4   1   5  1   
  5   4   6  1   
  6   4   7  1   
  7   5   8  ar  
  8   5   9  ar  
  9   6  10  1   
 10   6  26  1   
 11   6  27  1   
 12   7  11  1   
 13   7  28  1   
 14   7  29  1   
 15   8  12  ar  
 16   8  30  1   
 17   9  13  ar  
 18   9  31  1   
 19  10  14  1   
 20  10  32  1   
 21  10  33  1   
 22  11  14  1   
 23  11  34  1   
 24  11  35  1   
 25  12  15  ar  
 26  12  36  1   
 27  13  15  ar  
 28  13  37  1   
 29  14  16  1   
 30  14  38  1   
 31  15  17  1   
 32  16  18  2   
 33  16  19  am  
 34  17  39  1   
 35  17  40  1   
 36  17  41  1   
 37  19  20  1   
 38  19  21  1   
 39  20  22  1   
 40  20  42  1   
 41  20  43  1   
 42  21  23  1   
 43  21  44  1   
 44  21  45  1   
 45  22  24  1   
 46  22  46  1   
 47  22  47  1   
 48  23  24  1   
 49  23  48  1   
 50  23  49  1   
 51  24  25  1   
 52  24  50  1   
 53  25  51  1   
 54  25  52  1   
 55  25  53  1   
@<TRIPOS>SUBSTRUCTURE
  1 ****  11 GROUP 4 **** **** 0

# MOE 2024.06 (io_trps.svl 2023.06)
