@<TRIPOS>MOLECULE
NONAME
41 43 1 0 0 
SMALL
USER_CHARGES


@<TRIPOS>ATOM
  1 CL      -3.5700     2.9600     3.5630 Cl    1 <1>  -0.1770 
  2 C       -3.6090     2.3520     1.9280 C.ar  1 <1>   0.1770 
  3 C       -2.4300     2.2610     1.2150 C.ar  1 <1>  -0.1500 
  4 C       -4.8180     1.9730     1.3770 C.ar  1 <1>  -0.1500 
  5 C       -2.4920     1.7760    -0.0760 C.ar  1 <1>   0.1770 
  6 C       -4.8770     1.4870     0.0750 C.ar  1 <1>   0.1170 
  7 CL      -1.0190     1.6470    -1.0030 Cl    1 <1>  -0.1770 
  8 C       -3.6900     1.3910    -0.6490 C.ar  1 <1>  -0.1500 
  9 N       -6.1250     1.1130    -0.4420 N.am  1 <1>  -0.5470 
 10 C       -6.5520     0.7570    -1.6900 C.2   1 <1>   0.5690 
 11 O       -5.8450     0.7090    -2.6660 O.2   1 <1>  -0.5700 
 12 C       -8.0350     0.4010    -1.8180 C.3   1 <1>   0.1710 
 13 N       -8.8810     0.9720    -0.7260 N.3   1 <1>  -0.8100 
 14 C      -10.1810     0.2660    -0.6510 C.3   1 <1>   0.1100 
 15 C       -9.1330     2.4180    -0.9550 C.3   1 <1>   0.1100 
 16 C      -11.0850     0.8170     0.4690 C.3   1 <1>   0.2090 
 17 C      -10.0040     3.0490     0.1480 C.3   1 <1>   0.2090 
 18 N      -11.2830     2.2940     0.3280 N.pl3 1 <1>  -0.8380 
 19 C      -12.4940     2.9150     0.5630 C.ar  1 <1>   0.7200 
 20 N      -12.4960     4.2470     0.6140 N.ar  1 <1>  -0.6200 
 21 N      -13.5600     2.1310     0.7210 N.ar  1 <1>  -0.6200 
 22 C      -13.6510     4.8230     0.8390 C.ar  1 <1>   0.1600 
 23 C      -14.7020     2.7330     0.9450 C.ar  1 <1>   0.1600 
 24 C      -14.8050     4.1000     1.0140 C.ar  1 <1>  -0.1500 
 25 H       -1.4940     2.5580     1.6500 H     1 <1>   0.1500 
 26 H       -5.7120     2.0600     1.9660 H     1 <1>   0.1500 
 27 H       -3.6830     1.0170    -1.6550 H     1 <1>   0.1500 
 28 H       -6.9200     1.1420     0.2070 H     1 <1>   0.3700 
 29 H       -8.1000    -0.6720    -1.7950 H     1 <1>   0.0800 
 30 H       -8.3940     0.7320    -2.7770 H     1 <1>   0.0800 
 31 H      -10.0110    -0.7800    -0.4650 H     1 <1>   0.0800 
 32 H      -10.7040     0.3580    -1.5880 H     1 <1>   0.0800 
 33 H       -9.6330     2.5560    -1.8990 H     1 <1>   0.0800 
 34 H       -8.1980     2.9490    -0.9980 H     1 <1>   0.0800 
 35 H      -10.6310     0.6150     1.4220 H     1 <1>   0.0800 
 36 H      -12.0230     0.2930     0.4340 H     1 <1>   0.0800 
 37 H      -10.1940     4.0740    -0.1200 H     1 <1>   0.0800 
 38 H       -9.4620     3.0460     1.0770 H     1 <1>   0.0800 
 39 H      -13.6790     5.8980     0.8840 H     1 <1>   0.1500 
 40 H      -15.5780     2.1210     1.0760 H     1 <1>   0.1500 
 41 H      -15.7460     4.5830     1.1980 H     1 <1>   0.1500 
@<TRIPOS>BOND
  1   1   2  1   
  2   2   3  ar  
  3   2   4  ar  
  4   3   5  ar  
  5   3  25  1   
  6   4   6  ar  
  7   4  26  1   
  8   5   7  1   
  9   5   8  ar  
 10   6   8  ar  
 11   6   9  1   
 12   8  27  1   
 13   9  10  am  
 14   9  28  1   
 15  10  11  2   
 16  10  12  1   
 17  12  13  1   
 18  12  29  1   
 19  12  30  1   
 20  13  14  1   
 21  13  15  1   
 22  14  16  1   
 23  14  31  1   
 24  14  32  1   
 25  15  17  1   
 26  15  33  1   
 27  15  34  1   
 28  16  18  1   
 29  16  35  1   
 30  16  36  1   
 31  17  18  1   
 32  17  37  1   
 33  17  38  1   
 34  18  19  1   
 35  19  20  ar  
 36  19  21  ar  
 37  20  22  ar  
 38  21  23  ar  
 39  22  24  ar  
 40  22  39  1   
 41  23  24  ar  
 42  23  40  1   
 43  24  41  1   
@<TRIPOS>SUBSTRUCTURE
  1 ****  15 GROUP 4 **** **** 0

# MOE 2024.06 (io_trps.svl 2023.06)
