@<TRIPOS>MOLECULE
NONAME
46 49 1 0 0 
SMALL
USER_CHARGES


@<TRIPOS>ATOM
  1 O       -0.0090     0.7050     2.1420 O.2   1 <1>  -0.5700 
  2 C        0.0890     1.5130     1.2520 C.2   1 <1>   0.5690 
  3 N        1.2300     1.6870     0.5450 N.am  1 <1>  -0.7300 
  4 C       -1.1120     2.3580     0.8950 C.3   1 <1>  -0.0990 
  5 C        2.4850     0.9340     0.7440 C.3   1 <1>   0.2200 
  6 C       -2.0290     1.6170    -0.0830 C.3   1 <1>  -0.0160 
  7 C        3.6480     1.9040     1.0440 C.3   1 <1>  -0.0800 
  8 C        2.8180     0.1080    -0.5170 C.3   1 <1>  -0.0800 
  9 C       -3.2020     2.4990    -0.4790 C.ar  1 <1>  -0.1440 
 10 C        4.9170     1.0720     1.3230 C.3   1 <1>  -0.1600 
 11 C        3.9220     2.8280    -0.1650 C.3   1 <1>  -0.1600 
 12 C        4.0880    -0.7210    -0.2360 C.3   1 <1>  -0.1600 
 13 C        3.0920     1.0330    -1.7250 C.3   1 <1>  -0.1600 
 14 C       -3.1530     3.2540    -1.6410 C.ar  1 <1>  -0.1500 
 15 C       -4.3310     2.5570     0.3230 C.ar  1 <1>  -0.1500 
 16 C        5.2690     0.2150     0.0910 C.3   1 <1>  -0.0800 
 17 C        4.2630     1.9820    -1.4080 C.3   1 <1>  -0.0800 
 18 C       -4.2210     4.0600    -1.9960 C.ar  1 <1>  -0.1500 
 19 C       -5.3990     3.3630    -0.0300 C.ar  1 <1>  -0.1500 
 20 C        5.5220     1.1440    -1.1120 C.3   1 <1>  -0.1600 
 21 C       -5.3450     4.1150    -1.1900 C.ar  1 <1>  -0.1500 
 22 H        1.2740     2.3770    -0.2030 H     1 <1>   0.3700 
 23 H       -0.7870     3.2850     0.4620 H     1 <1>   0.0800 
 24 H       -1.6530     2.5840     1.7960 H     1 <1>   0.0800 
 25 H        2.3610     0.2650     1.5800 H     1 <1>   0.0800 
 26 H       -2.3930     0.7150     0.3790 H     1 <1>   0.0800 
 27 H       -1.4740     1.3330    -0.9590 H     1 <1>   0.0800 
 28 H        3.4090     2.4890     1.9160 H     1 <1>   0.0800 
 29 H        2.0000    -0.5580    -0.7320 H     1 <1>   0.0800 
 30 H        4.7550     0.4350     2.1760 H     1 <1>   0.0800 
 31 H        5.7390     1.7260     1.5590 H     1 <1>   0.0800 
 32 H        4.7450     3.4840     0.0620 H     1 <1>   0.0800 
 33 H        3.0670     3.4480    -0.3660 H     1 <1>   0.0800 
 34 H        4.3280    -1.3250    -1.0940 H     1 <1>   0.0800 
 35 H        3.9120    -1.3880     0.5910 H     1 <1>   0.0800 
 36 H        2.2130     1.6020    -1.9690 H     1 <1>   0.0800 
 37 H        3.3340     0.4360    -2.5870 H     1 <1>   0.0800 
 38 H       -2.2850     3.2190    -2.2740 H     1 <1>   0.1500 
 39 H       -4.3810     1.9760     1.2280 H     1 <1>   0.1500 
 40 H        6.1510    -0.3680     0.2920 H     1 <1>   0.0800 
 41 H        4.4490     2.6280    -2.2490 H     1 <1>   0.0800 
 42 H       -4.1780     4.6440    -2.8980 H     1 <1>   0.1500 
 43 H       -6.2720     3.4040     0.5970 H     1 <1>   0.1500 
 44 H        5.7800     0.5570    -1.9770 H     1 <1>   0.0800 
 45 H        6.3520     1.7940    -0.9010 H     1 <1>   0.0800 
 46 H       -6.1750     4.7420    -1.4650 H     1 <1>   0.1500 
@<TRIPOS>BOND
  1   1   2  2   
  2   2   3  am  
  3   2   4  1   
  4   3   5  1   
  5   3  22  1   
  6   4   6  1   
  7   4  23  1   
  8   4  24  1   
  9   5   7  1   
 10   5   8  1   
 11   5  25  1   
 12   6   9  1   
 13   6  26  1   
 14   6  27  1   
 15   7  10  1   
 16   7  11  1   
 17   7  28  1   
 18   8  12  1   
 19   8  13  1   
 20   8  29  1   
 21   9  14  ar  
 22   9  15  ar  
 23  10  16  1   
 24  10  30  1   
 25  10  31  1   
 26  11  17  1   
 27  11  32  1   
 28  11  33  1   
 29  12  16  1   
 30  12  34  1   
 31  12  35  1   
 32  13  17  1   
 33  13  36  1   
 34  13  37  1   
 35  14  18  ar  
 36  14  38  1   
 37  15  19  ar  
 38  15  39  1   
 39  16  20  1   
 40  16  40  1   
 41  17  20  1   
 42  17  41  1   
 43  18  21  ar  
 44  18  42  1   
 45  19  21  ar  
 46  19  43  1   
 47  20  44  1   
 48  20  45  1   
 49  21  46  1   
@<TRIPOS>SUBSTRUCTURE
  1 ****   3 GROUP 4 **** **** 0

# MOE 2024.06 (io_trps.svl 2023.06)
