@<TRIPOS>MOLECULE
NONAME
27 26 1 0 0 
SMALL
USER_CHARGES


@<TRIPOS>ATOM
  1 O        1.3200    -0.5990     2.0620 O.2   1 <1>  -0.5700 
  2 C        1.7170    -0.1290     1.0240 C.2   1 <1>   0.6590 
  3 O        0.8720     0.4260     0.1570 O.3   1 <1>  -0.4300 
  4 C        3.1910    -0.1060     0.6310 C.3   1 <1>   0.1220 
  5 C       -0.5160     0.4920     0.4100 C.3   1 <1>   0.0400 
  6 C        3.6300     1.3460     0.7620 C.2   1 <1>   0.6590 
  7 C        3.3720    -0.5590    -0.8450 C.3   1 <1>   0.0400 
  8 C        4.0830    -0.9120     1.6130 C.3   1 <1>   0.0400 
  9 O        3.0820     2.1400     1.4820 O.2   1 <1>  -0.5700 
 10 O        4.7060     1.6970     0.0610 O.3   1 <1>  -0.4300 
 11 C        2.6560    -1.8160    -1.2170 C.1   1 <1>  -0.2000 
 12 C        3.8620    -2.3890     1.6310 C.1   1 <1>  -0.2000 
 13 C        5.2410     3.0050     0.1150 C.3   1 <1>   0.0400 
 14 C        2.0760    -2.8110    -1.5120 C.1   1 <1>  -0.1770 
 15 C        3.6860    -3.5640     1.6590 C.1   1 <1>  -0.1770 
 16 H       -0.9920     0.9750    -0.4240 H     1 <1>   0.0800 
 17 H       -0.6770     1.0580     1.3110 H     1 <1>   0.0800 
 18 H       -0.8940    -0.5090     0.5260 H     1 <1>   0.0800 
 19 H        4.4180    -0.6880    -1.0620 H     1 <1>   0.0800 
 20 H        3.0050     0.2150    -1.4990 H     1 <1>   0.0800 
 21 H        3.9280    -0.5440     2.6130 H     1 <1>   0.0800 
 22 H        5.1170    -0.7430     1.3720 H     1 <1>   0.0800 
 23 H        6.0990     3.0510    -0.5310 H     1 <1>   0.0800 
 24 H        5.5270     3.2240     1.1290 H     1 <1>   0.0800 
 25 H        4.4900     3.7020    -0.2160 H     1 <1>   0.0800 
 26 H        1.5510    -3.7140    -1.7690 H     1 <1>   0.1770 
 27 H        3.5140    -4.6250     1.6820 H     1 <1>   0.1770 
@<TRIPOS>BOND
  1   1   2  2   
  2   2   3  1   
  3   2   4  1   
  4   3   5  1   
  5   4   6  1   
  6   4   7  1   
  7   4   8  1   
  8   5  16  1   
  9   5  17  1   
 10   5  18  1   
 11   6   9  2   
 12   6  10  1   
 13   7  11  1   
 14   7  19  1   
 15   7  20  1   
 16   8  12  1   
 17   8  21  1   
 18   8  22  1   
 19  10  13  1   
 20  11  14  3   
 21  12  15  3   
 22  13  23  1   
 23  13  24  1   
 24  13  25  1   
 25  14  26  1   
 26  15  27  1   
@<TRIPOS>SUBSTRUCTURE
  1 ****   4 GROUP 4 **** **** 0

# MOE 2024.06 (io_trps.svl 2023.06)
