@<TRIPOS>MOLECULE
NONAME
33 34 1 0 0 
SMALL
USER_CHARGES


@<TRIPOS>ATOM
  1 BR       1.4990    -0.0520     1.0370 Br    1 <1>  -0.1110 
  2 C        0.6240    -1.6930     0.5430 C.ar  1 <1>   0.1110 
  3 C       -0.5590    -2.0290     1.1730 C.ar  1 <1>  -0.1500 
  4 C        1.1990    -2.4900    -0.4260 C.ar  1 <1>  -0.1500 
  5 C       -1.1950    -3.2090     0.8160 C.ar  1 <1>  -0.1430 
  6 C        0.5650    -3.6680    -0.7790 C.ar  1 <1>  -0.1500 
  7 C       -0.6330    -4.0330    -0.1620 C.ar  1 <1>   0.0830 
  8 C       -2.4970    -3.6000     1.4890 C.3   1 <1>   0.4870 
  9 O       -1.3070    -5.1730    -0.4760 O.3   1 <1>  -0.3620 
 10 N       -3.5500    -3.7240     0.4500 N.4   1 <1>  -0.9590 
 11 C       -0.7840    -6.1050    -1.4030 C.3   1 <1>   0.0400 
 12 C       -3.8040    -2.4380    -0.2890 C.3   1 <1>   0.3430 
 13 C       -4.7880    -4.4140     0.9240 C.3   1 <1>   0.3430 
 14 C       -5.0170    -2.5070    -1.2360 C.3   1 <1>   0.0700 
 15 C       -5.5030    -5.1260    -0.2410 C.3   1 <1>   0.0700 
 16 S       -5.2710    -4.2150    -1.8040 S.3   1 <1>  -0.4600 
 17 H       -0.9540    -1.3680     1.9250 H     1 <1>   0.1500 
 18 H        2.1240    -2.1940    -0.8920 H     1 <1>   0.1500 
 19 H        1.0210    -4.2830    -1.5340 H     1 <1>   0.1500 
 20 H       -2.7770    -2.8620     2.2230 H     1 <1>   0.0800 
 21 H       -2.3580    -4.5470     1.9860 H     1 <1>   0.0800 
 22 H       -3.1200    -4.3540    -0.2540 H     1 <1>   0.4500 
 23 H       -1.4630    -6.9360    -1.4700 H     1 <1>   0.0800 
 24 H        0.1750    -6.4490    -1.0550 H     1 <1>   0.0800 
 25 H       -0.6940    -5.6330    -2.3660 H     1 <1>   0.0800 
 26 H       -2.9300    -2.1980    -0.8730 H     1 <1>   0.0800 
 27 H       -3.9560    -1.6330     0.4110 H     1 <1>   0.0800 
 28 H       -5.4550    -3.6930     1.3660 H     1 <1>   0.0800 
 29 H       -4.5450    -5.1470     1.6760 H     1 <1>   0.0800 
 30 H       -4.8680    -1.8910    -2.1060 H     1 <1>   0.0800 
 31 H       -5.9190    -2.2020    -0.7370 H     1 <1>   0.0800 
 32 H       -6.5600    -5.2010    -0.0600 H     1 <1>   0.0800 
 33 H       -5.1020    -6.1120    -0.3960 H     1 <1>   0.0800 
@<TRIPOS>BOND
  1   1   2  1   
  2   2   3  ar  
  3   2   4  ar  
  4   3   5  ar  
  5   3  17  1   
  6   4   6  ar  
  7   4  18  1   
  8   5   7  ar  
  9   5   8  1   
 10   6   7  ar  
 11   6  19  1   
 12   7   9  1   
 13   8  10  1   
 14   8  20  1   
 15   8  21  1   
 16   9  11  1   
 17  10  12  1   
 18  10  13  1   
 19  10  22  1   
 20  11  23  1   
 21  11  24  1   
 22  11  25  1   
 23  12  14  1   
 24  12  26  1   
 25  12  27  1   
 26  13  15  1   
 27  13  28  1   
 28  13  29  1   
 29  14  16  1   
 30  14  30  1   
 31  14  31  1   
 32  15  16  1   
 33  15  32  1   
 34  15  33  1   
@<TRIPOS>SUBSTRUCTURE
  1 ****   5 GROUP 4 **** **** 0

# MOE 2024.06 (io_trps.svl 2023.06)
