@<TRIPOS>MOLECULE
NONAME
38 39 1 0 0 
SMALL
USER_CHARGES


@<TRIPOS>ATOM
  1 O        0.5070    -1.1230    -0.2880 O.2   1 <1>  -0.5700 
  2 C        0.4790    -2.2220     0.2300 C.2   1 <1>   0.8060 
  3 O        1.3800    -2.5160     1.1750 O.3   1 <1>  -0.4300 
  4 C       -0.4730    -3.2450    -0.1370 C.2   1 <1>  -0.0860 
  5 C        2.3220    -1.5610     1.6210 C.3   1 <1>   0.0400 
  6 C       -1.8670    -3.0150    -0.2770 C.2   1 <1>  -0.0860 
  7 C       -0.2710    -4.5710    -0.4380 C.2   1 <1>  -0.3320 
  8 C       -2.4150    -4.2120    -0.6720 C.2   1 <1>  -0.3320 
  9 C       -2.5060    -1.7480    -0.0050 C.2   1 <1>   0.8060 
 10 N       -1.4470    -5.1590    -0.7740 N.pl3 1 <1>   0.0480 
 11 C        1.0500    -5.3300    -0.4250 C.3   1 <1>  -0.0600 
 12 C       -3.8850    -4.5090    -0.9390 C.3   1 <1>  -0.0600 
 13 O       -2.2640    -1.0770     0.9790 O.2   1 <1>  -0.5700 
 14 O       -3.4260    -1.3110    -0.8750 O.3   1 <1>  -0.4300 
 15 C       -1.6430    -6.5810    -1.1610 C.3   1 <1>   0.2760 
 16 C       -4.0740    -0.0670    -0.7040 C.3   1 <1>   0.0400 
 17 C       -1.8830    -7.4580     0.0570 C.2   1 <1>  -0.0400 
 18 O       -2.0690    -8.7510    -0.1310 O.3   1 <1>  -0.2800 
 19 C       -1.9460    -7.1600     1.3740 C.2   1 <1>  -0.1500 
 20 C       -2.2540    -9.3030     1.0520 C.2   1 <1>  -0.0100 
 21 C       -2.1910    -8.3730     2.0280 C.2   1 <1>  -0.1500 
 22 H        1.7920    -0.7140     2.0220 H     1 <1>   0.0800 
 23 H        2.9330    -1.2580     0.7890 H     1 <1>   0.0800 
 24 H        2.9290    -2.0130     2.3850 H     1 <1>   0.0800 
 25 H        1.8630    -4.6920    -0.1310 H     1 <1>   0.0800 
 26 H        1.2690    -5.7140    -1.4050 H     1 <1>   0.0800 
 27 H        0.9990    -6.1500     0.2700 H     1 <1>   0.0800 
 28 H       -4.5030    -3.6690    -0.6810 H     1 <1>   0.0800 
 29 H       -4.2080    -5.3500    -0.3490 H     1 <1>   0.0800 
 30 H       -4.0360    -4.7320    -1.9800 H     1 <1>   0.0800 
 31 H       -0.7730    -6.9270    -1.6850 H     1 <1>   0.0800 
 32 H       -2.4820    -6.6550    -1.8260 H     1 <1>   0.0800 
 33 H       -3.3310     0.7130    -0.6970 H     1 <1>   0.0800 
 34 H       -4.6100    -0.0790     0.2290 H     1 <1>   0.0800 
 35 H       -4.7550     0.0780    -1.5230 H     1 <1>   0.0800 
 36 H       -1.8350    -6.2000     1.8510 H     1 <1>   0.1500 
 37 H       -2.4250   -10.3650     1.1090 H     1 <1>   0.1500 
 38 H       -2.2990    -8.4990     3.0900 H     1 <1>   0.1500 
@<TRIPOS>BOND
  1   1   2  2   
  2   2   3  1   
  3   2   4  1   
  4   3   5  1   
  5   4   6  1   
  6   4   7  2   
  7   5  22  1   
  8   5  23  1   
  9   5  24  1   
 10   6   8  2   
 11   6   9  1   
 12   7  10  1   
 13   7  11  1   
 14   8  10  1   
 15   8  12  1   
 16   9  13  2   
 17   9  14  1   
 18  10  15  1   
 19  11  25  1   
 20  11  26  1   
 21  11  27  1   
 22  12  28  1   
 23  12  29  1   
 24  12  30  1   
 25  14  16  1   
 26  15  17  1   
 27  15  31  1   
 28  15  32  1   
 29  16  33  1   
 30  16  34  1   
 31  16  35  1   
 32  17  18  1   
 33  17  19  2   
 34  18  20  1   
 35  19  21  1   
 36  19  36  1   
 37  20  21  2   
 38  20  37  1   
 39  21  38  1   
@<TRIPOS>SUBSTRUCTURE
  1 ****  10 GROUP 4 **** **** 0

# MOE 2024.06 (io_trps.svl 2023.06)
