@<TRIPOS>MOLECULE
NONAME
35 36 1 0 0 
SMALL
USER_CHARGES


@<TRIPOS>ATOM
  1 F       -0.0200     1.0330    -1.6480 F     1 <1>  -0.1900 
  2 C        0.5600     1.8010    -0.7540 C.ar  1 <1>   0.1900 
  3 C       -0.2180     2.6560     0.0360 C.ar  1 <1>   0.1000 
  4 C        1.9350     1.7210    -0.6490 C.ar  1 <1>  -0.1500 
  5 N       -1.6160     2.7330    -0.0790 N.pl3 1 <1>  -0.8380 
  6 C        0.4670     3.4380     0.9640 C.ar  1 <1>  -0.1500 
  7 C        2.5840     2.5160     0.2810 C.ar  1 <1>  -0.1500 
  8 C       -2.4210     1.5560     0.3590 C.3   1 <1>   0.2090 
  9 C       -2.3380     4.0210     0.1340 C.3   1 <1>   0.2090 
 10 C        1.8460     3.3710     1.0840 C.ar  1 <1>  -0.1500 
 11 C       -3.8090     1.5690    -0.3090 C.3   1 <1>   0.1100 
 12 C       -3.7300     3.9830    -0.5230 C.3   1 <1>   0.1100 
 13 N       -4.5430     2.8310    -0.0560 N.3   1 <1>  -0.8100 
 14 C       -5.8750     2.8100    -0.7230 C.3   1 <1>   0.1710 
 15 C       -6.7830     4.0070    -0.4180 C.2   1 <1>   0.6590 
 16 O       -6.8500     4.9560    -1.1600 O.2   1 <1>  -0.5700 
 17 O       -7.5060     3.9340     0.6960 O.3   1 <1>  -0.4300 
 18 C       -8.3730     4.9780     1.0880 C.3   1 <1>   0.0400 
 19 H        2.4840     1.0490    -1.2830 H     1 <1>   0.1500 
 20 H       -0.0820     4.1010     1.6040 H     1 <1>   0.1500 
 21 H        3.6550     2.4690     0.3790 H     1 <1>   0.1500 
 22 H       -2.5410     1.5830     1.4270 H     1 <1>   0.0800 
 23 H       -1.9080     0.6470     0.1000 H     1 <1>   0.0800 
 24 H       -1.7640     4.8270    -0.2900 H     1 <1>   0.0800 
 25 H       -2.4530     4.2000     1.1880 H     1 <1>   0.0800 
 26 H        2.3490     3.9880     1.8090 H     1 <1>   0.1500 
 27 H       -4.3810     0.7420     0.0730 H     1 <1>   0.0800 
 28 H       -3.6780     1.4280    -1.3680 H     1 <1>   0.0800 
 29 H       -3.6030     3.9310    -1.5910 H     1 <1>   0.0800 
 30 H       -4.2390     4.9020    -0.2930 H     1 <1>   0.0800 
 31 H       -6.4020     1.9240    -0.4170 H     1 <1>   0.0800 
 32 H       -5.7380     2.7600    -1.7880 H     1 <1>   0.0800 
 33 H       -8.8450     4.6990     2.0130 H     1 <1>   0.0800 
 34 H       -9.1130     5.1230     0.3210 H     1 <1>   0.0800 
 35 H       -7.7950     5.8760     1.2220 H     1 <1>   0.0800 
@<TRIPOS>BOND
  1   1   2  1   
  2   2   3  ar  
  3   2   4  ar  
  4   3   5  1   
  5   3   6  ar  
  6   4   7  ar  
  7   4  19  1   
  8   5   8  1   
  9   5   9  1   
 10   6  10  ar  
 11   6  20  1   
 12   7  10  ar  
 13   7  21  1   
 14   8  11  1   
 15   8  22  1   
 16   8  23  1   
 17   9  12  1   
 18   9  24  1   
 19   9  25  1   
 20  10  26  1   
 21  11  13  1   
 22  11  27  1   
 23  11  28  1   
 24  12  13  1   
 25  12  29  1   
 26  12  30  1   
 27  13  14  1   
 28  14  15  1   
 29  14  31  1   
 30  14  32  1   
 31  15  16  2   
 32  15  17  1   
 33  17  18  1   
 34  18  33  1   
 35  18  34  1   
 36  18  35  1   
@<TRIPOS>SUBSTRUCTURE
  1 ****   5 GROUP 4 **** **** 0

# MOE 2024.06 (io_trps.svl 2023.06)
