@<TRIPOS>MOLECULE
NONAME
37 39 1 0 0 
SMALL
USER_CHARGES


@<TRIPOS>ATOM
  1 O       -3.0770     0.4680     2.5550 O.2   1 <1>  -0.5700 
  2 C       -3.2970     0.1270     1.4190 C.2   1 <1>   0.5940 
  3 C       -4.3740    -0.7460     1.0420 C.2   1 <1>   0.0550 
  4 C       -2.3740     0.6550     0.3350 C.3   1 <1>  -0.0990 
  5 O       -4.5420    -1.0830    -0.2450 O.3   1 <1>  -0.2800 
  6 C       -5.3320    -1.3470     1.7940 C.2   1 <1>  -0.1500 
  7 C       -1.3410     1.6110     0.9340 C.3   1 <1>   0.3430 
  8 C       -5.5970    -1.8920    -0.3270 C.ar  1 <1>   0.1400 
  9 C       -6.1410    -2.0980     0.9280 C.ar  1 <1>   0.0000 
 10 N       -0.4610     2.2010    -0.1170 N.4   1 <1>  -0.9590 
 11 C       -6.1320    -2.4800    -1.4650 C.ar  1 <1>  -0.1500 
 12 C       -7.2610    -2.9210     1.0640 C.ar  1 <1>  -0.1500 
 13 C        0.4590     1.2170    -0.7890 C.3   1 <1>   0.3430 
 14 C        0.3310     3.3670     0.4040 C.3   1 <1>   0.3430 
 15 C       -7.2390    -3.2930    -1.3240 C.ar  1 <1>  -0.1500 
 16 C       -7.8000    -3.5110    -0.0610 C.ar  1 <1>  -0.1500 
 17 C        1.3960     1.9150    -1.8030 C.3   1 <1>   0.1200 
 18 C        1.2130     3.9890    -0.7050 C.3   1 <1>   0.1200 
 19 O        1.0940     3.2800    -1.9100 O.3   1 <1>  -0.5600 
 20 H       -2.9700     1.1690    -0.3960 H     1 <1>   0.0800 
 21 H       -1.8900    -0.1870    -0.1240 H     1 <1>   0.0800 
 22 H       -5.4740    -1.2810     2.8580 H     1 <1>   0.1500 
 23 H       -0.7460     1.0870     1.6660 H     1 <1>   0.0800 
 24 H       -1.8680     2.4000     1.4490 H     1 <1>   0.0800 
 25 H       -1.0340     2.5990    -0.8780 H     1 <1>   0.4500 
 26 H       -5.6840    -2.2980    -2.4250 H     1 <1>   0.1500 
 27 H       -7.6860    -3.0830     2.0380 H     1 <1>   0.1500 
 28 H       -0.1160     0.4680    -1.3080 H     1 <1>   0.0800 
 29 H        1.0600     0.7100    -0.0520 H     1 <1>   0.0800 
 30 H        0.9650     3.0480     1.2150 H     1 <1>   0.0800 
 31 H       -0.3320     4.1240     0.7900 H     1 <1>   0.0800 
 32 H       -7.6790    -3.7650    -2.1860 H     1 <1>   0.1500 
 33 H       -8.6640    -4.1480     0.0260 H     1 <1>   0.1500 
 34 H        1.2810     1.4750    -2.7790 H     1 <1>   0.0800 
 35 H        2.4260     1.8110    -1.5080 H     1 <1>   0.0800 
 36 H        2.2480     3.9990    -0.4100 H     1 <1>   0.0800 
 37 H        0.9090     5.0050    -0.8940 H     1 <1>   0.0800 
@<TRIPOS>BOND
  1   1   2  2   
  2   2   3  1   
  3   2   4  1   
  4   3   5  1   
  5   3   6  2   
  6   4   7  1   
  7   4  20  1   
  8   4  21  1   
  9   5   8  1   
 10   6   9  1   
 11   6  22  1   
 12   7  10  1   
 13   7  23  1   
 14   7  24  1   
 15   8   9  ar  
 16   8  11  ar  
 17   9  12  ar  
 18  10  13  1   
 19  10  14  1   
 20  10  25  1   
 21  11  15  ar  
 22  11  26  1   
 23  12  16  ar  
 24  12  27  1   
 25  13  17  1   
 26  13  28  1   
 27  13  29  1   
 28  14  18  1   
 29  14  30  1   
 30  14  31  1   
 31  15  16  ar  
 32  15  32  1   
 33  16  33  1   
 34  17  19  1   
 35  17  34  1   
 36  17  35  1   
 37  18  19  1   
 38  18  36  1   
 39  18  37  1   
@<TRIPOS>SUBSTRUCTURE
  1 ****   4 GROUP 4 **** **** 0

# MOE 2024.06 (io_trps.svl 2023.06)
