@<TRIPOS>MOLECULE
NONAME
46 47 1 0 0 
SMALL
USER_CHARGES


@<TRIPOS>ATOM
  1 O       -0.2920     0.0980    -0.2920 O.2   1 <1>  -0.5700 
  2 C       -0.7870     1.1840    -0.0650 C.2   1 <1>   0.6900 
  3 N       -2.1520     1.3340    -0.1620 N.am  1 <1>  -0.6600 
  4 N       -0.0160     2.2480     0.3070 N.am  1 <1>  -0.5470 
  5 C       -2.9970     0.1230    -0.4180 C.3   1 <1>   0.1400 
  6 C       -2.8140     2.6420    -0.4580 C.3   1 <1>   0.1400 
  7 C        1.3760     2.4220     0.2740 C.ar  1 <1>   0.1170 
  8 C       -4.3940     0.2550     0.2130 C.3   1 <1>   0.3430 
  9 C       -4.2240     2.7220     0.1650 C.3   1 <1>   0.3430 
 10 C        2.2040     1.7260    -0.5980 C.ar  1 <1>  -0.1500 
 11 C        1.9580     3.3470     1.1330 C.ar  1 <1>  -0.1500 
 12 N       -5.0790     1.5330    -0.1910 N.4   1 <1>  -0.9590 
 13 C        3.5700     1.9450    -0.6100 C.ar  1 <1>  -0.1500 
 14 C        3.3240     3.5680     1.1220 C.ar  1 <1>  -0.1500 
 15 C       -6.4370     1.6080     0.4090 C.3   1 <1>   0.3430 
 16 C        4.1460     2.8700     0.2500 C.ar  1 <1>  -0.1430 
 17 C       -7.2500     2.6900    -0.2910 C.3   1 <1>  -0.2400 
 18 C        5.6520     3.1230     0.2510 C.3   1 <1>   0.0630 
 19 C        6.1180     3.6570    -1.1070 C.3   1 <1>  -0.2400 
 20 C        6.4200     1.8530     0.6290 C.3   1 <1>  -0.2400 
 21 H       -0.5160     2.9610     0.8200 H     1 <1>   0.3700 
 22 H       -2.5210    -0.7510    -0.0050 H     1 <1>   0.0800 
 23 H       -3.0840    -0.0290    -1.4800 H     1 <1>   0.0800 
 24 H       -2.8880     2.7610    -1.5260 H     1 <1>   0.0800 
 25 H       -2.2230     3.4590    -0.0840 H     1 <1>   0.0800 
 26 H       -4.2860     0.2240     1.2850 H     1 <1>   0.0800 
 27 H       -4.9910    -0.5920    -0.0830 H     1 <1>   0.0800 
 28 H       -4.6980     3.6300    -0.1710 H     1 <1>   0.0800 
 29 H       -4.1200     2.7830     1.2360 H     1 <1>   0.0800 
 30 H        1.7850     1.0060    -1.2770 H     1 <1>   0.1500 
 31 H        1.3460     3.8990     1.8200 H     1 <1>   0.1500 
 32 H       -5.1860     1.5150    -1.2140 H     1 <1>   0.4500 
 33 H        4.1830     1.3880    -1.2950 H     1 <1>   0.1500 
 34 H        3.7460     4.2890     1.8000 H     1 <1>   0.1500 
 35 H       -6.3700     1.8180     1.4650 H     1 <1>   0.0800 
 36 H       -6.9410     0.6620     0.2860 H     1 <1>   0.0800 
 37 H       -6.8440     3.6690    -0.1150 H     1 <1>   0.0800 
 38 H       -8.2530     2.6820     0.1000 H     1 <1>   0.0800 
 39 H       -7.3090     2.5030    -1.3490 H     1 <1>   0.0800 
 40 H        5.8760     3.8730     0.9910 H     1 <1>   0.0800 
 41 H        5.9620     2.9250    -1.8790 H     1 <1>   0.0800 
 42 H        7.1640     3.9040    -1.0720 H     1 <1>   0.0800 
 43 H        5.5640     4.5430    -1.3600 H     1 <1>   0.0800 
 44 H        6.2710     1.0820    -0.1050 H     1 <1>   0.0800 
 45 H        6.0750     1.4880     1.5810 H     1 <1>   0.0800 
 46 H        7.4730     2.0600     0.7030 H     1 <1>   0.0800 
@<TRIPOS>BOND
  1   1   2  2   
  2   2   3  am  
  3   2   4  am  
  4   3   5  1   
  5   3   6  1   
  6   4   7  1   
  7   4  21  1   
  8   5   8  1   
  9   5  22  1   
 10   5  23  1   
 11   6   9  1   
 12   6  24  1   
 13   6  25  1   
 14   7  10  ar  
 15   7  11  ar  
 16   8  12  1   
 17   8  26  1   
 18   8  27  1   
 19   9  12  1   
 20   9  28  1   
 21   9  29  1   
 22  10  13  ar  
 23  10  30  1   
 24  11  14  ar  
 25  11  31  1   
 26  12  15  1   
 27  12  32  1   
 28  13  16  ar  
 29  13  33  1   
 30  14  16  ar  
 31  14  34  1   
 32  15  17  1   
 33  15  35  1   
 34  15  36  1   
 35  16  18  1   
 36  17  37  1   
 37  17  38  1   
 38  17  39  1   
 39  18  19  1   
 40  18  20  1   
 41  18  40  1   
 42  19  41  1   
 43  19  42  1   
 44  19  43  1   
 45  20  44  1   
 46  20  45  1   
 47  20  46  1   
@<TRIPOS>SUBSTRUCTURE
  1 ****   4 GROUP 4 **** **** 0

# MOE 2024.06 (io_trps.svl 2023.06)
