@<TRIPOS>MOLECULE
NONAME
41 42 1 0 0 
SMALL
USER_CHARGES


@<TRIPOS>ATOM
  1 CL       1.8220     2.0910     2.7070 Cl    1 <1>  -0.1770 
  2 C        2.5630     2.1180     1.1220 C.ar  1 <1>   0.1770 
  3 C        2.1850     3.0650     0.1790 C.ar  1 <1>   0.0820 
  4 C        3.5300     1.1660     0.8510 C.ar  1 <1>  -0.1500 
  5 O        1.2200     3.9640     0.4930 O.3   1 <1>  -0.3630 
  6 C        2.8220     3.0570    -1.0700 C.ar  1 <1>   0.0820 
  7 C        4.1480     1.1490    -0.3910 C.ar  1 <1>  -0.1440 
  8 C       -0.1050     3.5500     0.2550 C.3   1 <1>   0.1200 
  9 O        2.5830     3.9320    -2.0840 O.3   1 <1>  -0.3630 
 10 C        3.7810     2.0930    -1.3410 C.ar  1 <1>  -0.1500 
 11 C        5.2190     0.1300    -0.7080 C.3   1 <1>   0.4860 
 12 C       -1.0360     4.6890     0.6600 C.3   1 <1>  -0.2400 
 13 C        2.2340     5.2750    -1.8190 C.3   1 <1>   0.0400 
 14 N        6.5090     0.7550    -0.3560 N.4   1 <1>  -0.9060 
 15 C        7.6950    -0.0840    -0.6280 C.3   1 <1>   0.4860 
 16 C        8.9010     0.6950    -0.1620 C.ar  1 <1>  -0.1440 
 17 C        9.6140     1.4740    -1.0620 C.ar  1 <1>   0.1600 
 18 C        9.3110     0.6540     1.1580 C.ar  1 <1>  -0.1500 
 19 N       10.6630     2.2100    -0.7500 N.ar  1 <1>  -0.6200 
 20 C       10.4130     1.4120     1.4930 C.ar  1 <1>  -0.1500 
 21 C       11.0430     2.1630     0.5160 C.ar  1 <1>   0.1600 
 22 H        3.7740     0.4540     1.6200 H     1 <1>   0.1500 
 23 H       -0.3030     2.6690     0.8420 H     1 <1>   0.0800 
 24 H       -0.2090     3.3220    -0.7930 H     1 <1>   0.0800 
 25 H        4.2330     2.1060    -2.3180 H     1 <1>   0.1500 
 26 H        5.1890    -0.1180    -1.7570 H     1 <1>   0.0800 
 27 H        5.0590    -0.7670    -0.1310 H     1 <1>   0.0800 
 28 H       -0.9110     4.9120     1.7050 H     1 <1>   0.0800 
 29 H       -2.0580     4.4010     0.4910 H     1 <1>   0.0800 
 30 H       -0.8260     5.5670     0.0770 H     1 <1>   0.0800 
 31 H        2.4570     5.8590    -2.6930 H     1 <1>   0.0800 
 32 H        2.8070     5.6330    -0.9810 H     1 <1>   0.0800 
 33 H        1.1810     5.3290    -1.6090 H     1 <1>   0.0800 
 34 H        6.4990     1.0150     0.6370 H     1 <1>   0.4500 
 35 H        6.5950     1.6470    -0.8590 H     1 <1>   0.4500 
 36 H        7.7770    -0.2970    -1.6820 H     1 <1>   0.0800 
 37 H        7.6340    -1.0150    -0.0870 H     1 <1>   0.0800 
 38 H        9.3150     1.5060    -2.0970 H     1 <1>   0.1500 
 39 H        8.8130     0.0620     1.9080 H     1 <1>   0.1500 
 40 H       10.7890     1.4240     2.5010 H     1 <1>   0.1500 
 41 H       11.9040     2.7530     0.7890 H     1 <1>   0.1500 
@<TRIPOS>BOND
  1   1   2  1   
  2   2   3  ar  
  3   2   4  ar  
  4   3   5  1   
  5   3   6  ar  
  6   4   7  ar  
  7   4  22  1   
  8   5   8  1   
  9   6   9  1   
 10   6  10  ar  
 11   7  10  ar  
 12   7  11  1   
 13   8  12  1   
 14   8  23  1   
 15   8  24  1   
 16   9  13  1   
 17  10  25  1   
 18  11  14  1   
 19  11  26  1   
 20  11  27  1   
 21  12  28  1   
 22  12  29  1   
 23  12  30  1   
 24  13  31  1   
 25  13  32  1   
 26  13  33  1   
 27  14  15  1   
 28  14  34  1   
 29  14  35  1   
 30  15  16  1   
 31  15  36  1   
 32  15  37  1   
 33  16  17  ar  
 34  16  18  ar  
 35  17  19  ar  
 36  17  38  1   
 37  18  20  ar  
 38  18  39  1   
 39  19  21  ar  
 40  20  21  ar  
 41  20  40  1   
 42  21  41  1   
@<TRIPOS>SUBSTRUCTURE
  1 ****   7 GROUP 4 **** **** 0

# MOE 2024.06 (io_trps.svl 2023.06)
