@<TRIPOS>MOLECULE
NONAME
26 27 1 0 0 
SMALL
USER_CHARGES


@<TRIPOS>ATOM
  1 CL       1.9180    -1.2290     1.7670 Cl    1 <1>  -0.1770 
  2 C        2.6800     0.2150     1.1580 C.ar  1 <1>   0.4870 
  3 N        3.9040     0.0730     0.7010 N.ar  1 <1>  -0.6200 
  4 C        1.9530     1.3880     1.1980 C.ar  1 <1>  -0.1500 
  5 C        4.4720     1.1860     0.2400 C.ar  1 <1>   0.4100 
  6 C        2.5430     2.5330     0.7190 C.ar  1 <1>  -0.1500 
  7 N        5.7570     1.0160    -0.2330 N.pl3 1 <1>  -0.8380 
  8 C        3.8370     2.4400     0.2270 C.ar  1 <1>  -0.1790 
  9 C        6.1530    -0.1840    -1.0180 C.3   1 <1>   0.2090 
 10 C        6.8960     1.6920     0.4520 C.3   1 <1>   0.2090 
 11 C        4.4750     3.6200    -0.2940 C.2   1 <1>   0.9790 
 12 C        7.0650    -1.0980    -0.1830 C.3   1 <1>   0.1200 
 13 C        7.8070     0.6700     1.1590 C.3   1 <1>   0.1200 
 14 O        4.1320     4.0830    -1.3960 O.co2 1 <1>  -0.9000 
 15 O        5.2860     4.2660     0.3990 O.co2 1 <1>  -0.9000 
 16 O        8.1710    -0.3910     0.3130 O.3   1 <1>  -0.5600 
 17 H        0.9560     1.3950     1.5910 H     1 <1>   0.1500 
 18 H        2.0340     3.4820     0.7120 H     1 <1>   0.1500 
 19 H        6.6770     0.1350    -1.9010 H     1 <1>   0.0800 
 20 H        5.2780    -0.7260    -1.3290 H     1 <1>   0.0800 
 21 H        7.4590     2.2570    -0.2700 H     1 <1>   0.0800 
 22 H        6.5270     2.3810     1.1910 H     1 <1>   0.0800 
 23 H        6.5140    -1.5070     0.6460 H     1 <1>   0.0800 
 24 H        7.4340    -1.9050    -0.7890 H     1 <1>   0.0800 
 25 H        7.2960     0.2640     2.0140 H     1 <1>   0.0800 
 26 H        8.7070     1.1530     1.4910 H     1 <1>   0.0800 
@<TRIPOS>BOND
  1   1   2  1   
  2   2   3  ar  
  3   2   4  ar  
  4   3   5  ar  
  5   4   6  ar  
  6   4  17  1   
  7   5   7  1   
  8   5   8  ar  
  9   6   8  ar  
 10   6  18  1   
 11   7   9  1   
 12   7  10  1   
 13   8  11  1   
 14   9  12  1   
 15   9  19  1   
 16   9  20  1   
 17  10  13  1   
 18  10  21  1   
 19  10  22  1   
 20  11  14  ar  
 21  11  15  ar  
 22  12  16  1   
 23  12  23  1   
 24  12  24  1   
 25  13  16  1   
 26  13  25  1   
 27  13  26  1   
@<TRIPOS>SUBSTRUCTURE
  1 ****   5 GROUP 4 **** **** 0

# MOE 2024.06 (io_trps.svl 2023.06)
