@<TRIPOS>MOLECULE
NONAME
45 46 1 0 0 
SMALL
USER_CHARGES


@<TRIPOS>ATOM
  1 F        1.3180     0.2300    -1.7570 F     1 <1>  -0.1900 
  2 C        2.0100     0.9390    -0.9080 C.ar  1 <1>   0.1900 
  3 C        3.1830     0.4090    -0.4040 C.ar  1 <1>  -0.1500 
  4 C        1.5480     2.1890    -0.5480 C.ar  1 <1>  -0.1500 
  5 C        3.9270     1.1600     0.4950 C.ar  1 <1>  -0.1440 
  6 C        2.2910     2.9320     0.3530 C.ar  1 <1>  -0.1500 
  7 C        3.4720     2.4190     0.8700 C.ar  1 <1>  -0.1500 
  8 C        5.2280     0.6150     1.0550 C.3   1 <1>  -0.0160 
  9 C        6.3710     1.0140     0.1230 C.3   1 <1>   0.3430 
 10 N        7.6740     0.4930     0.6280 N.4   1 <1>  -0.9060 
 11 C        8.8310     0.8250    -0.2320 C.3   1 <1>   0.4230 
 12 C       10.0210    -0.0200     0.2380 C.3   1 <1>  -0.1600 
 13 C        9.1140     2.3320    -0.1560 C.3   1 <1>  -0.1600 
 14 C       11.3160     0.3850    -0.4720 C.3   1 <1>   0.1400 
 15 C       10.4260     2.6830    -0.8590 C.3   1 <1>   0.1400 
 16 N       11.4980     1.8410    -0.2840 N.am  1 <1>  -0.6600 
 17 C       12.3190     2.3450     0.6970 C.2   1 <1>   0.7800 
 18 O       12.0500     3.3590     1.3030 O.2   1 <1>  -0.5700 
 19 O       13.4100     1.6730     1.0430 O.3   1 <1>  -0.4300 
 20 C       14.4450     1.5120     0.1040 C.3   1 <1>   0.1200 
 21 C       15.4880     0.5780     0.7090 C.3   1 <1>  -0.2400 
 22 H        3.4870    -0.5730    -0.7200 H     1 <1>   0.1500 
 23 H        0.6290     2.5650    -0.9620 H     1 <1>   0.1500 
 24 H        1.9470     3.9080     0.6530 H     1 <1>   0.1500 
 25 H        4.0250     3.0170     1.5740 H     1 <1>   0.1500 
 26 H        5.1600    -0.4560     1.1280 H     1 <1>   0.0800 
 27 H        5.3880     1.0190     2.0390 H     1 <1>   0.0800 
 28 H        6.4040     2.0900     0.0540 H     1 <1>   0.0800 
 29 H        6.1740     0.6230    -0.8620 H     1 <1>   0.0800 
 30 H        7.6190    -0.5280     0.7270 H     1 <1>   0.4500 
 31 H        7.8610     0.8700     1.5660 H     1 <1>   0.4500 
 32 H        8.6130     0.5630    -1.2570 H     1 <1>   0.0800 
 33 H        9.8370    -1.0610     0.0410 H     1 <1>   0.0800 
 34 H       10.1760     0.1060     1.2960 H     1 <1>   0.0800 
 35 H        9.1960     2.6500     0.8690 H     1 <1>   0.0800 
 36 H        8.3260     2.8910    -0.6260 H     1 <1>   0.0800 
 37 H       11.2650     0.1640    -1.5260 H     1 <1>   0.0800 
 38 H       12.1450    -0.1610    -0.0540 H     1 <1>   0.0800 
 39 H       10.6550     3.7280    -0.7170 H     1 <1>   0.0800 
 40 H       10.3570     2.5000    -1.9180 H     1 <1>   0.0800 
 41 H       14.8700     2.4820    -0.0960 H     1 <1>   0.0800 
 42 H       14.0440     1.1000    -0.8050 H     1 <1>   0.0800 
 43 H       15.8780     1.0010     1.6180 H     1 <1>   0.0800 
 44 H       16.3020     0.4450     0.0190 H     1 <1>   0.0800 
 45 H       15.0530    -0.3820     0.9180 H     1 <1>   0.0800 
@<TRIPOS>BOND
  1   1   2  1   
  2   2   3  ar  
  3   2   4  ar  
  4   3   5  ar  
  5   3  22  1   
  6   4   6  ar  
  7   4  23  1   
  8   5   7  ar  
  9   5   8  1   
 10   6   7  ar  
 11   6  24  1   
 12   7  25  1   
 13   8   9  1   
 14   8  26  1   
 15   8  27  1   
 16   9  10  1   
 17   9  28  1   
 18   9  29  1   
 19  10  11  1   
 20  10  30  1   
 21  10  31  1   
 22  11  12  1   
 23  11  13  1   
 24  11  32  1   
 25  12  14  1   
 26  12  33  1   
 27  12  34  1   
 28  13  15  1   
 29  13  35  1   
 30  13  36  1   
 31  14  16  1   
 32  14  37  1   
 33  14  38  1   
 34  15  16  1   
 35  15  39  1   
 36  15  40  1   
 37  16  17  am  
 38  17  18  2   
 39  17  19  1   
 40  19  20  1   
 41  20  21  1   
 42  20  41  1   
 43  20  42  1   
 44  21  43  1   
 45  21  44  1   
 46  21  45  1   
@<TRIPOS>SUBSTRUCTURE
  1 ****  10 GROUP 4 **** **** 0

# MOE 2024.06 (io_trps.svl 2023.06)
