@<TRIPOS>MOLECULE
NONAME
50 51 1 0 0 
SMALL
USER_CHARGES


@<TRIPOS>ATOM
  1 O       -0.4140    -0.7920    -0.5810 O.3   1 <1>  -0.3630 
  2 C       -1.6140    -1.4040    -0.7160 C.ar  1 <1>   0.0830 
  3 C        0.2620    -0.7560     0.6560 C.3   1 <1>   0.1200 
  4 C       -2.1640    -1.4200    -1.9870 C.ar  1 <1>  -0.1500 
  5 C       -2.3040    -2.0050     0.3330 C.ar  1 <1>  -0.1500 
  6 C        1.5880    -0.0220     0.4550 C.3   1 <1>  -0.1600 
  7 C       -3.3890    -2.0190    -2.2170 C.ar  1 <1>  -0.1500 
  8 C       -3.5300    -2.6040     0.1040 C.ar  1 <1>  -0.1500 
  9 C        2.3840     0.0570     1.7640 C.3   1 <1>  -0.1600 
 10 C       -4.0830    -2.6090    -1.1700 C.ar  1 <1>  -0.1430 
 11 C        3.7100     0.7920     1.5580 C.3   1 <1>  -0.2400 
 12 C       -5.4390    -3.2430    -1.4190 C.3   1 <1>   0.4860 
 13 N       -6.4900    -2.3700    -0.8360 N.4   1 <1>  -0.9590 
 14 C       -7.8720    -2.9420    -0.8990 C.3   1 <1>   0.3430 
 15 C       -6.4690    -0.9580    -1.3450 C.3   1 <1>   0.3430 
 16 C       -8.8910    -2.0290    -0.1710 C.3   1 <1>   0.1100 
 17 C       -7.4950    -0.0790    -0.5880 C.3   1 <1>   0.1100 
 18 N       -8.2510    -0.8360     0.4420 N.3   1 <1>  -0.8100 
 19 C       -9.2340     0.0430     1.1120 C.3   1 <1>   0.1100 
 20 C       -9.7460    -0.5660     2.4240 C.3   1 <1>   0.1200 
 21 O      -10.6340     0.3170     3.0170 O.3   1 <1>  -0.6800 
 22 H        0.4340    -1.7680     0.9780 H     1 <1>   0.0800 
 23 H       -0.3560    -0.2360     1.3660 H     1 <1>   0.0800 
 24 H       -1.6180    -0.9600    -2.7920 H     1 <1>   0.1500 
 25 H       -1.8990    -2.0140     1.3280 H     1 <1>   0.1500 
 26 H        1.3870     0.9740     0.0980 H     1 <1>   0.0800 
 27 H        2.1680    -0.5430    -0.2860 H     1 <1>   0.0800 
 28 H       -3.7840    -2.0180    -3.2190 H     1 <1>   0.1500 
 29 H       -4.0420    -3.0650     0.9310 H     1 <1>   0.1500 
 30 H        2.5840    -0.9370     2.1270 H     1 <1>   0.0800 
 31 H        1.8050     0.5760     2.5100 H     1 <1>   0.0800 
 32 H        4.3160     0.2800     0.8310 H     1 <1>   0.0800 
 33 H        4.2550     0.8380     2.4840 H     1 <1>   0.0800 
 34 H        3.5340     1.7970     1.2150 H     1 <1>   0.0800 
 35 H       -5.4670    -4.2170    -0.9590 H     1 <1>   0.0800 
 36 H       -5.5980    -3.3590    -2.4790 H     1 <1>   0.0800 
 37 H       -6.3020    -2.2530     0.1710 H     1 <1>   0.4500 
 38 H       -7.8880    -3.9160    -0.4370 H     1 <1>   0.0800 
 39 H       -8.1770    -3.0610    -1.9260 H     1 <1>   0.0800 
 40 H       -6.6920    -0.9400    -2.3980 H     1 <1>   0.0800 
 41 H       -5.4870    -0.5330    -1.2110 H     1 <1>   0.0800 
 42 H       -9.3810    -2.6110     0.5890 H     1 <1>   0.0800 
 43 H       -9.6470    -1.7180    -0.8730 H     1 <1>   0.0800 
 44 H       -8.1780     0.3530    -1.3000 H     1 <1>   0.0800 
 45 H       -6.9670     0.7330    -0.1160 H     1 <1>   0.0800 
 46 H      -10.0660     0.2350     0.4550 H     1 <1>   0.0800 
 47 H       -8.7620     0.9810     1.3480 H     1 <1>   0.0800 
 48 H       -8.9370    -0.7460     3.1100 H     1 <1>   0.0800 
 49 H      -10.2820    -1.4800     2.2430 H     1 <1>   0.0800 
 50 H      -10.1670     1.0920     3.3870 H     1 <1>   0.4000 
@<TRIPOS>BOND
  1   1   2  1   
  2   1   3  1   
  3   2   4  ar  
  4   2   5  ar  
  5   3   6  1   
  6   3  22  1   
  7   3  23  1   
  8   4   7  ar  
  9   4  24  1   
 10   5   8  ar  
 11   5  25  1   
 12   6   9  1   
 13   6  26  1   
 14   6  27  1   
 15   7  10  ar  
 16   7  28  1   
 17   8  10  ar  
 18   8  29  1   
 19   9  11  1   
 20   9  30  1   
 21   9  31  1   
 22  10  12  1   
 23  11  32  1   
 24  11  33  1   
 25  11  34  1   
 26  12  13  1   
 27  12  35  1   
 28  12  36  1   
 29  13  14  1   
 30  13  15  1   
 31  13  37  1   
 32  14  16  1   
 33  14  38  1   
 34  14  39  1   
 35  15  17  1   
 36  15  40  1   
 37  15  41  1   
 38  16  18  1   
 39  16  42  1   
 40  16  43  1   
 41  17  18  1   
 42  17  44  1   
 43  17  45  1   
 44  18  19  1   
 45  19  20  1   
 46  19  46  1   
 47  19  47  1   
 48  20  21  1   
 49  20  48  1   
 50  20  49  1   
 51  21  50  1   
@<TRIPOS>SUBSTRUCTURE
  1 ****   8 GROUP 4 **** **** 0

# MOE 2024.06 (io_trps.svl 2023.06)
