@<TRIPOS>MOLECULE
NONAME
53 56 1 0 0 
SMALL
USER_CHARGES


@<TRIPOS>ATOM
  1 O       -1.3880    -1.5360    -2.4100 O.2   1 <1>  -0.5700 
  2 C       -1.1620    -1.7150    -1.2300 C.2   1 <1>   0.5440 
  3 N       -1.7500    -0.8810    -0.3250 N.am  1 <1>  -0.7300 
  4 C       -0.2780    -2.7780    -0.7900 C.ar  1 <1>   0.0860 
  5 C       -2.6350     0.2860    -0.6620 C.3   1 <1>   0.2810 
  6 C        0.7400    -3.2530    -1.6190 C.ar  1 <1>  -0.1500 
  7 C       -0.4010    -3.3680     0.4710 C.ar  1 <1>  -0.1500 
  8 C       -2.0880     1.5900    -0.0530 C.2   1 <1>   0.6590 
  9 C       -4.1150    -0.0070    -0.2630 C.3   1 <1>   0.0000 
 10 C        1.6030    -4.2540    -1.2140 C.ar  1 <1>  -0.1500 
 11 C        0.4590    -4.3690     0.8840 C.ar  1 <1>  -0.1500 
 12 O       -2.1120     2.6370    -0.6510 O.2   1 <1>  -0.5700 
 13 O       -1.5730     1.5040     1.1750 O.3   1 <1>  -0.4300 
 14 C       -4.6310    -1.2590    -1.0240 C.3   1 <1>  -0.1600 
 15 C       -4.2830    -0.2640     1.2590 C.3   1 <1>  -0.1600 
 16 C       -5.0280     1.1860    -0.6520 C.3   1 <1>  -0.1600 
 17 C        1.4680    -4.8190     0.0500 C.ar  1 <1>   0.0830 
 18 C       -1.0320     2.6320     1.8310 C.3   1 <1>   0.0400 
 19 C       -6.1010    -1.5570    -0.6800 C.3   1 <1>  -0.0800 
 20 C       -5.7540    -0.5590     1.6100 C.3   1 <1>  -0.0800 
 21 C       -6.5010     0.9010    -0.3060 C.3   1 <1>  -0.0800 
 22 O        2.2690    -5.7970     0.5290 O.3   1 <1>  -0.3630 
 23 C       -6.2230    -1.8040     0.8350 C.3   1 <1>  -0.1600 
 24 C       -6.9680    -0.3490    -1.0730 C.3   1 <1>  -0.1600 
 25 C       -6.6230     0.6460     1.2070 C.3   1 <1>  -0.1600 
 26 C        3.3220    -6.3370    -0.2380 C.3   1 <1>   0.0400 
 27 H       -1.4560    -0.9090     0.6530 H     1 <1>   0.3700 
 28 H       -2.6170     0.4300    -1.7280 H     1 <1>   0.0800 
 29 H        0.8480    -2.8230    -2.6010 H     1 <1>   0.1500 
 30 H       -1.1830    -3.0490     1.1350 H     1 <1>   0.1500 
 31 H        2.3700    -4.5810    -1.8910 H     1 <1>   0.1500 
 32 H        0.3540    -4.8130     1.8580 H     1 <1>   0.1500 
 33 H       -4.5340    -1.1060    -2.0850 H     1 <1>   0.0800 
 34 H       -4.0390    -2.1210    -0.7720 H     1 <1>   0.0800 
 35 H       -3.9600     0.5930     1.8210 H     1 <1>   0.0800 
 36 H       -3.6790    -1.1010     1.5620 H     1 <1>   0.0800 
 37 H       -4.9420     1.3840    -1.7070 H     1 <1>   0.0800 
 38 H       -4.7260     2.0790    -0.1320 H     1 <1>   0.0800 
 39 H       -0.6770     2.3280     2.7990 H     1 <1>   0.0800 
 40 H       -1.8020     3.3770     1.9350 H     1 <1>   0.0800 
 41 H       -0.2180     3.0200     1.2420 H     1 <1>   0.0800 
 42 H       -6.4300    -2.4300    -1.2190 H     1 <1>   0.0800 
 43 H       -5.8470    -0.7350     2.6680 H     1 <1>   0.0800 
 44 H       -7.1090     1.7450    -0.5830 H     1 <1>   0.0800 
 45 H       -5.6280    -2.6550     1.1140 H     1 <1>   0.0800 
 46 H       -7.2460    -2.0240     1.0850 H     1 <1>   0.0800 
 47 H       -8.0000    -0.5510    -0.8450 H     1 <1>   0.0800 
 48 H       -6.8940    -0.1760    -2.1320 H     1 <1>   0.0800 
 49 H       -7.6510     0.4540     1.4610 H     1 <1>   0.0800 
 50 H       -6.3100     1.5200     1.7510 H     1 <1>   0.0800 
 51 H        3.8090    -7.0940     0.3500 H     1 <1>   0.0800 
 52 H        4.0190    -5.5530    -0.4740 H     1 <1>   0.0800 
 53 H        2.9140    -6.7740    -1.1320 H     1 <1>   0.0800 
@<TRIPOS>BOND
  1   1   2  2   
  2   2   3  am  
  3   2   4  1   
  4   3   5  1   
  5   3  27  1   
  6   4   6  ar  
  7   4   7  ar  
  8   5   8  1   
  9   5   9  1   
 10   5  28  1   
 11   6  10  ar  
 12   6  29  1   
 13   7  11  ar  
 14   7  30  1   
 15   8  12  2   
 16   8  13  1   
 17   9  14  1   
 18   9  15  1   
 19   9  16  1   
 20  10  17  ar  
 21  10  31  1   
 22  11  17  ar  
 23  11  32  1   
 24  13  18  1   
 25  14  19  1   
 26  14  33  1   
 27  14  34  1   
 28  15  20  1   
 29  15  35  1   
 30  15  36  1   
 31  16  21  1   
 32  16  37  1   
 33  16  38  1   
 34  17  22  1   
 35  18  39  1   
 36  18  40  1   
 37  18  41  1   
 38  19  23  1   
 39  19  24  1   
 40  19  42  1   
 41  20  23  1   
 42  20  25  1   
 43  20  43  1   
 44  21  24  1   
 45  21  25  1   
 46  21  44  1   
 47  22  26  1   
 48  23  45  1   
 49  23  46  1   
 50  24  47  1   
 51  24  48  1   
 52  25  49  1   
 53  25  50  1   
 54  26  51  1   
 55  26  52  1   
 56  26  53  1   
@<TRIPOS>SUBSTRUCTURE
  1 ****   3 GROUP 4 **** **** 0

# MOE 2024.06 (io_trps.svl 2023.06)
