@<TRIPOS>MOLECULE
NONAME
36 36 1 0 0 
SMALL
USER_CHARGES


@<TRIPOS>ATOM
  1 S        0.5990     0.4760     1.1040 S.o2  1 <1>   1.3330 
  2 O        1.6160     0.5060     2.1290 O.2   1 <1>  -0.6500 
  3 O        0.7690    -0.3490    -0.0660 O.2   1 <1>  -0.6500 
  4 N        0.3720     2.1100     0.5930 N.am  1 <1>  -0.6930 
  5 C       -0.9570     0.1020     1.8820 C.3   1 <1>  -0.1350 
  6 C       -0.7250     2.4650    -0.1810 C.ar  1 <1>   0.1990 
  7 C        1.6140     2.9300     0.4300 C.3   1 <1>   0.2570 
  8 C       -1.6740     3.3400     0.3320 C.ar  1 <1>  -0.1500 
  9 C       -0.9070     1.9560    -1.4610 C.ar  1 <1>  -0.1500 
 10 C        2.3730     2.7000    -0.8880 C.2   1 <1>   0.5690 
 11 C       -2.7910     3.6960    -0.4050 C.ar  1 <1>  -0.1440 
 12 C       -2.0180     2.3060    -2.2050 C.ar  1 <1>  -0.1500 
 13 O        2.0710     3.4170    -1.8170 O.2   1 <1>  -0.5700 
 14 N        3.3670     1.7510    -1.0240 N.am  1 <1>  -0.6600 
 15 C       -2.9600     3.1720    -1.6770 C.ar  1 <1>  -0.1500 
 16 C       -3.8250     4.6520     0.1600 C.3   1 <1>  -0.0970 
 17 C        3.9390     1.4260    -2.3610 C.3   1 <1>   0.0600 
 18 C        3.9150     0.9030     0.0710 C.3   1 <1>   0.0600 
 19 H       -0.9380    -0.8910     2.2850 H     1 <1>   0.0800 
 20 H       -1.7540     0.1670     1.1660 H     1 <1>   0.0800 
 21 H       -1.1490     0.7950     2.6770 H     1 <1>   0.0800 
 22 H        2.2670     2.7740     1.2660 H     1 <1>   0.0800 
 23 H        1.3300     3.9670     0.4520 H     1 <1>   0.0800 
 24 H       -1.5240     3.7390     1.3180 H     1 <1>   0.1500 
 25 H       -0.1700     1.2910    -1.8760 H     1 <1>   0.1500 
 26 H       -2.1480     1.9070    -3.1960 H     1 <1>   0.1500 
 27 H       -3.8220     3.4410    -2.2620 H     1 <1>   0.1500 
 28 H       -3.6070     4.8970     1.1830 H     1 <1>   0.0800 
 29 H       -4.8020     4.2040     0.1160 H     1 <1>   0.0800 
 30 H       -3.8330     5.5600    -0.4170 H     1 <1>   0.0800 
 31 H        3.4390     1.9740    -3.1410 H     1 <1>   0.0800 
 32 H        3.8220     0.3750    -2.5580 H     1 <1>   0.0800 
 33 H        4.9840     1.6790    -2.3800 H     1 <1>   0.0800 
 34 H        3.7740     1.3590     1.0330 H     1 <1>   0.0800 
 35 H        4.9720     0.7590    -0.0740 H     1 <1>   0.0800 
 36 H        3.4310    -0.0580     0.0620 H     1 <1>   0.0800 
@<TRIPOS>BOND
  1   1   2  2   
  2   1   3  2   
  3   1   4  am  
  4   1   5  1   
  5   4   6  1   
  6   4   7  1   
  7   5  19  1   
  8   5  20  1   
  9   5  21  1   
 10   6   8  ar  
 11   6   9  ar  
 12   7  10  1   
 13   7  22  1   
 14   7  23  1   
 15   8  11  ar  
 16   8  24  1   
 17   9  12  ar  
 18   9  25  1   
 19  10  13  2   
 20  10  14  am  
 21  11  15  ar  
 22  11  16  1   
 23  12  15  ar  
 24  12  26  1   
 25  14  17  1   
 26  14  18  1   
 27  15  27  1   
 28  16  28  1   
 29  16  29  1   
 30  16  30  1   
 31  17  31  1   
 32  17  32  1   
 33  17  33  1   
 34  18  34  1   
 35  18  35  1   
 36  18  36  1   
@<TRIPOS>SUBSTRUCTURE
  1 ****   4 GROUP 4 **** **** 0

# MOE 2024.06 (io_trps.svl 2023.06)
