@<TRIPOS>MOLECULE
NONAME
41 43 1 0 0 
SMALL
USER_CHARGES


@<TRIPOS>ATOM
  1 O       -0.6340     0.9060    -1.9590 O.2   1 <1>  -0.5700 
  2 C       -0.6110     1.8080    -1.1680 C.2   1 <1>   0.6590 
  3 O       -0.1460     3.0230    -1.4760 O.3   1 <1>  -0.4300 
  4 C       -1.1140     1.7220     0.2970 C.3   1 <1>   0.0610 
  5 C       -0.0500     3.7150    -0.2730 C.3   1 <1>   0.2000 
  6 C       -1.2410     3.2470     0.5350 C.3   1 <1>   0.4240 
  7 C       -0.0860     1.0280     1.2300 C.3   1 <1>  -0.2400 
  8 C       -2.4420     0.9310     0.4190 C.3   1 <1>  -0.2400 
  9 C        0.1110     5.1960     0.0380 C.3   1 <1>   0.0610 
 10 O       -0.8990     3.8560     1.7560 O.3   1 <1>  -0.4300 
 11 C       -2.6460     3.7770     0.1300 C.ar  1 <1>  -0.1440 
 12 C       -0.3390     5.0470     1.5100 C.2   1 <1>   0.6590 
 13 C        1.5910     5.6190    -0.0930 C.3   1 <1>  -0.2400 
 14 C       -0.7540     6.1750    -0.7860 C.3   1 <1>  -0.2400 
 15 C       -3.5570     4.1240     1.1240 C.ar  1 <1>  -0.1500 
 16 C       -3.0620     3.9020    -1.1950 C.ar  1 <1>  -0.1500 
 17 O       -0.1620     5.8670     2.3690 O.2   1 <1>  -0.5700 
 18 C       -4.8220     4.5900     0.8120 C.ar  1 <1>  -0.1500 
 19 C       -4.3270     4.3660    -1.5080 C.ar  1 <1>  -0.1500 
 20 C       -5.2150     4.7140    -0.5070 C.ar  1 <1>  -0.1440 
 21 C       -6.6020     5.2270    -0.8520 C.3   1 <1>  -0.0970 
 22 H        0.8300     3.2820     0.1710 H     1 <1>   0.0800 
 23 H        0.8960     1.4580     1.1680 H     1 <1>   0.0800 
 24 H        0.0040    -0.0120     0.9670 H     1 <1>   0.0800 
 25 H       -0.4150     1.0900     2.2530 H     1 <1>   0.0800 
 26 H       -2.2700    -0.1160     0.2430 H     1 <1>   0.0800 
 27 H       -2.8630     1.0500     1.4020 H     1 <1>   0.0800 
 28 H       -3.1660     1.2570    -0.3070 H     1 <1>   0.0800 
 29 H        2.2300     4.9940     0.5060 H     1 <1>   0.0800 
 30 H        1.7170     6.6330     0.2450 H     1 <1>   0.0800 
 31 H        1.9090     5.5560    -1.1190 H     1 <1>   0.0800 
 32 H       -1.7930     6.1170    -0.5280 H     1 <1>   0.0800 
 33 H       -0.6410     5.9820    -1.8390 H     1 <1>   0.0800 
 34 H       -0.4490     7.1880    -0.5920 H     1 <1>   0.0800 
 35 H       -3.2980     4.0360     2.1660 H     1 <1>   0.1500 
 36 H       -2.4210     3.6470    -2.0190 H     1 <1>   0.1500 
 37 H       -5.4990     4.8560     1.6050 H     1 <1>   0.1500 
 38 H       -4.6170     4.4560    -2.5400 H     1 <1>   0.1500 
 39 H       -6.5810     6.2990    -0.9400 H     1 <1>   0.0800 
 40 H       -7.3040     4.9550    -0.0850 H     1 <1>   0.0800 
 41 H       -6.9380     4.8080    -1.7830 H     1 <1>   0.0800 
@<TRIPOS>BOND
  1   1   2  2   
  2   2   3  1   
  3   2   4  1   
  4   3   5  1   
  5   4   6  1   
  6   4   7  1   
  7   4   8  1   
  8   5   6  1   
  9   5   9  1   
 10   5  22  1   
 11   6  10  1   
 12   6  11  1   
 13   7  23  1   
 14   7  24  1   
 15   7  25  1   
 16   8  26  1   
 17   8  27  1   
 18   8  28  1   
 19   9  12  1   
 20   9  13  1   
 21   9  14  1   
 22  10  12  1   
 23  11  15  ar  
 24  11  16  ar  
 25  12  17  2   
 26  13  29  1   
 27  13  30  1   
 28  13  31  1   
 29  14  32  1   
 30  14  33  1   
 31  14  34  1   
 32  15  18  ar  
 33  15  35  1   
 34  16  19  ar  
 35  16  36  1   
 36  18  20  ar  
 37  18  37  1   
 38  19  20  ar  
 39  19  38  1   
 40  20  21  1   
 41  21  39  1   
 42  21  40  1   
 43  21  41  1   
@<TRIPOS>SUBSTRUCTURE
  1 ****  11 GROUP 4 **** **** 0

# MOE 2024.06 (io_trps.svl 2023.06)
