@<TRIPOS>MOLECULE
NONAME
24 23 1 0 0 
SMALL
USER_CHARGES


@<TRIPOS>ATOM
  1 S        0.1120     0.2100    -0.2550 S.o2  1 <1>   1.5680 
  2 S       -1.5770    -1.0090    -0.3220 S.3   1 <1>  -0.3480 
  3 O        0.0300     0.7910     1.1070 O.co2 1 <1>  -0.8170 
  4 O       -0.1420     1.1650    -1.3600 O.co2 1 <1>  -0.8170 
  5 O        1.2360    -0.7370    -0.4770 O.co2 1 <1>  -0.8170 
  6 C       -2.9080     0.1770    -0.0500 C.3   1 <1>   0.0700 
  7 C       -4.2130    -0.6100    -0.0780 C.3   1 <1>  -0.0550 
  8 S       -5.6390     0.4340     0.1800 S.o2  1 <1>   1.0900 
  9 O       -5.7650     1.3320    -0.9450 O.2   1 <1>  -0.6500 
 10 O       -5.5920     0.9570     1.5250 O.2   1 <1>  -0.6500 
 11 C       -6.9920    -0.7440     0.0960 C.3   1 <1>  -0.0550 
 12 C       -8.3740    -0.1010     0.2890 C.3   1 <1>  -0.1600 
 13 C       -9.4920    -1.1450     0.2090 C.3   1 <1>  -0.2400 
 14 H       -2.8520     0.9100    -0.8370 H     1 <1>   0.0800 
 15 H       -2.7310     0.6460     0.9040 H     1 <1>   0.0800 
 16 H       -4.1710    -1.3600     0.6880 H     1 <1>   0.0800 
 17 H       -4.2900    -1.0990    -1.0300 H     1 <1>   0.0800 
 18 H       -6.8560    -1.4930     0.8520 H     1 <1>   0.0800 
 19 H       -6.9750    -1.2340    -0.8600 H     1 <1>   0.0800 
 20 H       -8.5270     0.6490    -0.4690 H     1 <1>   0.0800 
 21 H       -8.4070     0.3890     1.2490 H     1 <1>   0.0800 
 22 H       -9.4910    -1.6290    -0.7520 H     1 <1>   0.0800 
 23 H      -10.4470    -0.6680     0.3480 H     1 <1>   0.0800 
 24 H       -9.3700    -1.8900     0.9760 H     1 <1>   0.0800 
@<TRIPOS>BOND
  1   1   2  1   
  2   1   3  ar  
  3   1   4  ar  
  4   1   5  ar  
  5   2   6  1   
  6   6   7  1   
  7   6  14  1   
  8   6  15  1   
  9   7   8  1   
 10   7  16  1   
 11   7  17  1   
 12   8   9  2   
 13   8  10  2   
 14   8  11  1   
 15  11  12  1   
 16  11  18  1   
 17  11  19  1   
 18  12  13  1   
 19  12  20  1   
 20  12  21  1   
 21  13  22  1   
 22  13  23  1   
 23  13  24  1   
@<TRIPOS>SUBSTRUCTURE
  1 ****   7 GROUP 4 **** **** 0

# MOE 2024.06 (io_trps.svl 2023.06)
