@<TRIPOS>MOLECULE
NONAME
43 44 1 0 0 
SMALL
USER_CHARGES


@<TRIPOS>ATOM
  1 S        0.9260     0.0770    -0.5210 S.o2  1 <1>   1.3330 
  2 O        1.1400    -0.3840     0.8270 O.2   1 <1>  -0.6500 
  3 O        2.0250     0.0950    -1.4600 O.2   1 <1>  -0.6500 
  4 N        0.2940     1.6850    -0.4540 N.am  1 <1>  -0.6930 
  5 C       -0.4220    -0.8230    -1.2550 C.3   1 <1>  -0.1350 
  6 C       -0.7150     1.9760     0.4600 C.ar  1 <1>   0.1990 
  7 C        1.2530     2.7690    -0.8510 C.3   1 <1>   0.3370 
  8 C       -0.4420     2.1340     1.8140 C.ar  1 <1>  -0.1500 
  9 C       -2.0270     2.1150     0.0220 C.ar  1 <1>  -0.1500 
 10 C        2.4330     2.9360     0.1380 C.2   1 <1>   0.5690 
 11 C        0.4960     4.0810    -1.1220 C.3   1 <1>  -0.2400 
 12 C       -1.4560     2.4200     2.7100 C.ar  1 <1>  -0.1500 
 13 C       -3.0440     2.4010     0.9150 C.ar  1 <1>  -0.1500 
 14 O        2.4290     3.8330     0.9520 O.2   1 <1>  -0.5700 
 15 N        3.4650     2.0550     0.0700 N.am  1 <1>  -0.7300 
 16 C       -2.7590     2.5540     2.2610 C.ar  1 <1>  -0.1500 
 17 C        4.5890     1.9690     1.0120 C.3   1 <1>   0.2200 
 18 C        5.8510     1.6290     0.2300 C.3   1 <1>  -0.1600 
 19 C        4.3850     0.7440     1.8950 C.3   1 <1>  -0.1600 
 20 C        5.7870     0.1170    -0.0180 C.3   1 <1>  -0.1600 
 21 C        4.8590    -0.4530     1.0630 C.3   1 <1>  -0.1600 
 22 H       -0.1490    -1.8520    -1.3830 H     1 <1>   0.0800 
 23 H       -0.6670    -0.4090    -2.2120 H     1 <1>   0.0800 
 24 H       -1.2860    -0.7740    -0.6220 H     1 <1>   0.0800 
 25 H        1.6890     2.4860    -1.7920 H     1 <1>   0.0800 
 26 H        0.5700     2.0290     2.1640 H     1 <1>   0.1500 
 27 H       -2.2440     2.0030    -1.0230 H     1 <1>   0.1500 
 28 H        0.0730     4.4710    -0.2130 H     1 <1>   0.0800 
 29 H       -0.2830     3.9230    -1.8450 H     1 <1>   0.0800 
 30 H        1.1800     4.8140    -1.5080 H     1 <1>   0.0800 
 31 H       -1.2290     2.5400     3.7550 H     1 <1>   0.1500 
 32 H       -4.0570     2.5080     0.5660 H     1 <1>   0.1500 
 33 H        3.3830     1.2370    -0.5480 H     1 <1>   0.3700 
 34 H       -3.5480     2.7770     2.9590 H     1 <1>   0.1500 
 35 H        4.6820     2.8800     1.5810 H     1 <1>   0.0800 
 36 H        6.7030     1.8470     0.8490 H     1 <1>   0.0800 
 37 H        5.9310     2.1980    -0.6800 H     1 <1>   0.0800 
 38 H        3.3640     0.6430     2.2210 H     1 <1>   0.0800 
 39 H        5.0140     0.8400     2.7620 H     1 <1>   0.0800 
 40 H        6.7680    -0.3240     0.0300 H     1 <1>   0.0800 
 41 H        5.3650    -0.0760    -0.9900 H     1 <1>   0.0800 
 42 H        4.0120    -0.9300     0.5980 H     1 <1>   0.0800 
 43 H        5.3660    -1.1730     1.6810 H     1 <1>   0.0800 
@<TRIPOS>BOND
  1   1   2  2   
  2   1   3  2   
  3   1   4  am  
  4   1   5  1   
  5   4   6  1   
  6   4   7  1   
  7   5  22  1   
  8   5  23  1   
  9   5  24  1   
 10   6   8  ar  
 11   6   9  ar  
 12   7  10  1   
 13   7  11  1   
 14   7  25  1   
 15   8  12  ar  
 16   8  26  1   
 17   9  13  ar  
 18   9  27  1   
 19  10  14  2   
 20  10  15  am  
 21  11  28  1   
 22  11  29  1   
 23  11  30  1   
 24  12  16  ar  
 25  12  31  1   
 26  13  16  ar  
 27  13  32  1   
 28  15  17  1   
 29  15  33  1   
 30  16  34  1   
 31  17  18  1   
 32  17  19  1   
 33  17  35  1   
 34  18  20  1   
 35  18  36  1   
 36  18  37  1   
 37  19  21  1   
 38  19  38  1   
 39  19  39  1   
 40  20  21  1   
 41  20  40  1   
 42  20  41  1   
 43  21  42  1   
 44  21  43  1   
@<TRIPOS>SUBSTRUCTURE
  1 ****   4 GROUP 4 **** **** 0

# MOE 2024.06 (io_trps.svl 2023.06)
