@<TRIPOS>MOLECULE
NONAME
35 36 1 0 0 
SMALL
USER_CHARGES


@<TRIPOS>ATOM
  1 S        0.1630    -1.6980    -0.2530 S.3   1 <1>  -0.2860 
  2 C       -1.4960    -1.0610    -0.5080 C.2   1 <1>   0.2420 
  3 C        0.9900    -0.3050     0.6660 C.3   1 <1>   0.1310 
  4 N       -1.8700     0.1160    -0.1520 N.2   1 <1>  -0.3380 
  5 N       -2.4590    -1.7730    -1.0910 N.pl3 1 <1>   0.0480 
  6 C        2.4580    -0.5990     0.9310 C.2   1 <1>   0.5690 
  7 N       -3.1550     0.2120    -0.5110 N.2   1 <1>  -0.3380 
  8 C       -3.4800    -0.9110    -1.0610 C.2   1 <1>   0.0360 
  9 C       -2.4150    -3.1470    -1.6220 C.3   1 <1>   0.0160 
 10 O        2.9830    -0.0420     1.8630 O.2   1 <1>  -0.5700 
 11 N        3.1070    -1.4740     0.1020 N.am  1 <1>  -0.5470 
 12 C        4.4340    -1.9340     0.0580 C.ar  1 <1>   0.1170 
 13 C        4.7260    -3.1230    -0.6140 C.ar  1 <1>  -0.1430 
 14 C        5.4780    -1.2310     0.6510 C.ar  1 <1>  -0.1500 
 15 C        6.0330    -3.5780    -0.6780 C.ar  1 <1>  -0.1500 
 16 C        3.6290    -3.9440    -1.2830 C.3   1 <1>  -0.0970 
 17 C        6.7790    -1.6940     0.5840 C.ar  1 <1>  -0.1500 
 18 C        7.0650    -2.8710    -0.0840 C.ar  1 <1>  -0.1430 
 19 C        8.4910    -3.3850    -0.1590 C.3   1 <1>  -0.0970 
 20 H        0.4600    -0.1770     1.5920 H     1 <1>   0.0800 
 21 H        0.8900     0.5800     0.0660 H     1 <1>   0.0800 
 22 H       -4.4550    -1.1390    -1.4530 H     1 <1>   0.1500 
 23 H       -1.6860    -3.2000    -2.4110 H     1 <1>   0.0800 
 24 H       -3.3810    -3.4190    -2.0070 H     1 <1>   0.0800 
 25 H       -2.1390    -3.8250    -0.8340 H     1 <1>   0.0800 
 26 H        2.4940    -1.9330    -0.5700 H     1 <1>   0.3700 
 27 H        5.2830    -0.3110     1.1690 H     1 <1>   0.1500 
 28 H        6.2590    -4.4950    -1.1930 H     1 <1>   0.1500 
 29 H        2.8710    -4.2000    -0.5640 H     1 <1>   0.0800 
 30 H        4.0260    -4.8570    -1.6890 H     1 <1>   0.0800 
 31 H        3.1850    -3.3830    -2.0850 H     1 <1>   0.0800 
 32 H        7.5650    -1.1310     1.0550 H     1 <1>   0.1500 
 33 H        8.6610    -3.8800    -1.0990 H     1 <1>   0.0800 
 34 H        8.6680    -4.0820     0.6390 H     1 <1>   0.0800 
 35 H        9.1900    -2.5730    -0.0730 H     1 <1>   0.0800 
@<TRIPOS>BOND
  1   1   2  1   
  2   1   3  1   
  3   2   4  2   
  4   2   5  1   
  5   3   6  1   
  6   3  20  1   
  7   3  21  1   
  8   4   7  1   
  9   5   8  1   
 10   5   9  1   
 11   6  10  2   
 12   6  11  am  
 13   7   8  2   
 14   8  22  1   
 15   9  23  1   
 16   9  24  1   
 17   9  25  1   
 18  11  12  1   
 19  11  26  1   
 20  12  13  ar  
 21  12  14  ar  
 22  13  15  ar  
 23  13  16  1   
 24  14  17  ar  
 25  14  27  1   
 26  15  18  ar  
 27  15  28  1   
 28  16  29  1   
 29  16  30  1   
 30  16  31  1   
 31  17  18  ar  
 32  17  32  1   
 33  18  19  1   
 34  19  33  1   
 35  19  34  1   
 36  19  35  1   
@<TRIPOS>SUBSTRUCTURE
  1 ****  11 GROUP 4 **** **** 0

# MOE 2024.06 (io_trps.svl 2023.06)
