@<TRIPOS>MOLECULE
NONAME
44 45 1 0 0 
SMALL
USER_CHARGES


@<TRIPOS>ATOM
  1 O        1.6050    -1.6300     0.8420 O.2   1 <1>  -0.5700 
  2 C        1.5800    -1.0380    -0.2040 C.2   1 <1>   0.5690 
  3 N        0.6240    -1.3030    -1.1110 N.am  1 <1>  -0.8000 
  4 C        2.6460     0.0180    -0.4880 C.3   1 <1>  -0.0190 
  5 C        4.0500    -0.6180    -0.4910 C.3   1 <1>  -0.1600 
  6 C        2.5750     1.1520     0.5530 C.3   1 <1>  -0.1600 
  7 C        5.1590     0.4240    -0.6140 C.3   1 <1>   0.3430 
  8 C        3.7220     2.1500     0.4040 C.3   1 <1>   0.3430 
  9 N        5.0220     1.4270     0.4850 N.4   1 <1>  -0.9590 
 10 C        6.1640     2.3800     0.6010 C.3   1 <1>   0.4230 
 11 C        6.4510     3.1270    -0.7110 C.3   1 <1>  -0.1600 
 12 C        7.4160     1.6460     1.0930 C.3   1 <1>  -0.1600 
 13 C        7.6110     4.1160    -0.5220 C.3   1 <1>  -0.1600 
 14 C        8.5840     2.6260     1.2820 C.3   1 <1>  -0.1600 
 15 C        8.8830     3.4160    -0.0070 C.3   1 <1>  -0.0800 
 16 C        9.9950     4.4610     0.2000 C.3   1 <1>  -0.1600 
 17 C       11.3570     3.8440     0.5460 C.3   1 <1>  -0.2400 
 18 H       -0.0750    -2.0160    -0.8900 H     1 <1>   0.3700 
 19 H        0.5250    -0.8530    -2.0200 H     1 <1>   0.3700 
 20 H        2.4600     0.4360    -1.4610 H     1 <1>   0.0800 
 21 H        4.1250    -1.3100    -1.3120 H     1 <1>   0.0800 
 22 H        4.2000    -1.1830     0.4130 H     1 <1>   0.0800 
 23 H        2.5970     0.7400     1.5480 H     1 <1>   0.0800 
 24 H        1.6390     1.6730     0.4470 H     1 <1>   0.0800 
 25 H        5.0910     0.9160    -1.5710 H     1 <1>   0.0800 
 26 H        6.1160    -0.0690    -0.5540 H     1 <1>   0.0800 
 27 H        3.6580     2.8860     1.1900 H     1 <1>   0.0800 
 28 H        3.6420     2.6570    -0.5440 H     1 <1>   0.0800 
 29 H        5.0020     0.8930     1.3630 H     1 <1>   0.4500 
 30 H        5.9160     3.1180     1.3480 H     1 <1>   0.0800 
 31 H        5.5840     3.6780    -1.0270 H     1 <1>   0.0800 
 32 H        6.7260     2.4380    -1.4890 H     1 <1>   0.0800 
 33 H        7.7200     0.8980     0.3840 H     1 <1>   0.0800 
 34 H        7.2140     1.1670     2.0350 H     1 <1>   0.0800 
 35 H        7.3180     4.8840     0.1750 H     1 <1>   0.0800 
 36 H        7.8230     4.5970    -1.4630 H     1 <1>   0.0800 
 37 H        9.4550     2.0660     1.5770 H     1 <1>   0.0800 
 38 H        8.3550     3.3130     2.0790 H     1 <1>   0.0800 
 39 H        9.2150     2.7240    -0.7640 H     1 <1>   0.0800 
 40 H        9.7130     5.1510     0.9780 H     1 <1>   0.0800 
 41 H       10.1120     5.0300    -0.7070 H     1 <1>   0.0800 
 42 H       11.3370     3.3740     1.5120 H     1 <1>   0.0800 
 43 H       12.1080     4.6140     0.5670 H     1 <1>   0.0800 
 44 H       11.6410     3.1150    -0.1930 H     1 <1>   0.0800 
@<TRIPOS>BOND
  1   1   2  2   
  2   2   3  am  
  3   2   4  1   
  4   3  18  1   
  5   3  19  1   
  6   4   5  1   
  7   4   6  1   
  8   4  20  1   
  9   5   7  1   
 10   5  21  1   
 11   5  22  1   
 12   6   8  1   
 13   6  23  1   
 14   6  24  1   
 15   7   9  1   
 16   7  25  1   
 17   7  26  1   
 18   8   9  1   
 19   8  27  1   
 20   8  28  1   
 21   9  10  1   
 22   9  29  1   
 23  10  11  1   
 24  10  12  1   
 25  10  30  1   
 26  11  13  1   
 27  11  31  1   
 28  11  32  1   
 29  12  14  1   
 30  12  33  1   
 31  12  34  1   
 32  13  15  1   
 33  13  35  1   
 34  13  36  1   
 35  14  15  1   
 36  14  37  1   
 37  14  38  1   
 38  15  16  1   
 39  15  39  1   
 40  16  17  1   
 41  16  40  1   
 42  16  41  1   
 43  17  42  1   
 44  17  43  1   
 45  17  44  1   
@<TRIPOS>SUBSTRUCTURE
  1 ****   9 GROUP 4 **** **** 0

# MOE 2024.06 (io_trps.svl 2023.06)
