@<TRIPOS>MOLECULE
NONAME
44 46 1 0 0 
SMALL
USER_CHARGES


@<TRIPOS>ATOM
  1 O       -0.3630    -0.9560     0.1590 O.3   1 <1>  -0.5320 
  2 C       -1.6190    -1.4200     0.2300 C.ar  1 <1>   0.0830 
  3 C       -2.1780    -1.6480     1.4740 C.ar  1 <1>  -0.1500 
  4 C       -2.3430    -1.6700    -0.9230 C.ar  1 <1>  -0.1500 
  5 C       -3.4730    -2.1260     1.5700 C.ar  1 <1>  -0.1500 
  6 C       -3.6390    -2.1460    -0.8260 C.ar  1 <1>  -0.1500 
  7 C       -4.2130    -2.3700     0.4200 C.ar  1 <1>  -0.1430 
  8 C       -5.6400    -2.8730     0.5240 C.3   1 <1>   0.4860 
  9 N       -6.5020    -1.7560     0.9950 N.4   1 <1>  -0.9590 
 10 C       -7.9070    -2.2130     1.2950 C.3   1 <1>   0.3430 
 11 C       -6.5050    -0.5980     0.0230 C.3   1 <1>   0.3430 
 12 C       -8.8060    -1.0700     1.8120 C.3   1 <1>   0.2090 
 13 C       -7.3790     0.5810     0.5010 C.3   1 <1>   0.2090 
 14 N       -8.7350     0.1280     0.9280 N.pl3 1 <1>  -0.8380 
 15 C       -9.8050     0.3570     0.0640 C.ar  1 <1>   0.1000 
 16 C      -10.7780     1.3100     0.3670 C.ar  1 <1>  -0.1430 
 17 C       -9.9180    -0.3700    -1.1180 C.ar  1 <1>  -0.1500 
 18 C      -11.8350     1.5160    -0.5040 C.ar  1 <1>  -0.1500 
 19 C      -10.6920     2.1300     1.6470 C.3   1 <1>  -0.0970 
 20 C      -10.9750    -0.1580    -1.9830 C.ar  1 <1>  -0.1500 
 21 C      -11.9360     0.7870    -1.6750 C.ar  1 <1>  -0.1500 
 22 H       -0.0280    -0.8620    -0.7510 H     1 <1>   0.4500 
 23 H       -1.5920    -1.4530     2.3550 H     1 <1>   0.1500 
 24 H       -1.9010    -1.4990    -1.8880 H     1 <1>   0.1500 
 25 H       -3.8830    -2.3060     2.5490 H     1 <1>   0.1500 
 26 H       -4.1880    -2.3410    -1.7330 H     1 <1>   0.1500 
 27 H       -5.6770    -3.6920     1.2230 H     1 <1>   0.0800 
 28 H       -5.9770    -3.2270    -0.4370 H     1 <1>   0.0800 
 29 H       -6.0850    -1.4010     1.8640 H     1 <1>   0.4500 
 30 H       -7.8900    -3.0010     2.0300 H     1 <1>   0.0800 
 31 H       -8.3560    -2.6080     0.3990 H     1 <1>   0.0800 
 32 H       -6.8820    -0.9280    -0.9290 H     1 <1>   0.0800 
 33 H       -5.4990    -0.2420    -0.1280 H     1 <1>   0.0800 
 34 H       -8.5070    -0.7900     2.8070 H     1 <1>   0.0800 
 35 H       -9.8260    -1.4140     1.8650 H     1 <1>   0.0800 
 36 H       -7.4770     1.2990    -0.2970 H     1 <1>   0.0800 
 37 H       -6.8990     1.0780     1.3250 H     1 <1>   0.0800 
 38 H       -9.1800    -1.1050    -1.3650 H     1 <1>   0.1500 
 39 H      -12.5900     2.2490    -0.2770 H     1 <1>   0.1500 
 40 H      -10.7370     1.4790     2.5000 H     1 <1>   0.0800 
 41 H      -11.4990     2.8370     1.7110 H     1 <1>   0.0800 
 42 H       -9.7630     2.6690     1.6710 H     1 <1>   0.0800 
 43 H      -11.0560    -0.7240    -2.8940 H     1 <1>   0.1500 
 44 H      -12.7620     0.9560    -2.3450 H     1 <1>   0.1500 
@<TRIPOS>BOND
  1   1   2  1   
  2   1  22  1   
  3   2   3  ar  
  4   2   4  ar  
  5   3   5  ar  
  6   3  23  1   
  7   4   6  ar  
  8   4  24  1   
  9   5   7  ar  
 10   5  25  1   
 11   6   7  ar  
 12   6  26  1   
 13   7   8  1   
 14   8   9  1   
 15   8  27  1   
 16   8  28  1   
 17   9  10  1   
 18   9  11  1   
 19   9  29  1   
 20  10  12  1   
 21  10  30  1   
 22  10  31  1   
 23  11  13  1   
 24  11  32  1   
 25  11  33  1   
 26  12  14  1   
 27  12  34  1   
 28  12  35  1   
 29  13  14  1   
 30  13  36  1   
 31  13  37  1   
 32  14  15  1   
 33  15  16  ar  
 34  15  17  ar  
 35  16  18  ar  
 36  16  19  1   
 37  17  20  ar  
 38  17  38  1   
 39  18  21  ar  
 40  18  39  1   
 41  19  40  1   
 42  19  41  1   
 43  19  42  1   
 44  20  21  ar  
 45  20  43  1   
 46  21  44  1   
@<TRIPOS>SUBSTRUCTURE
  1 ****  11 GROUP 4 **** **** 0

# MOE 2024.06 (io_trps.svl 2023.06)
