@<TRIPOS>MOLECULE
NONAME
45 47 1 0 0 
SMALL
USER_CHARGES


@<TRIPOS>ATOM
  1 F        1.1780     0.7990    -0.1450 F     1 <1>  -0.3400 
  2 C        0.4610     1.6460    -0.8750 C.3   1 <1>   1.1640 
  3 F       -0.3510     0.9000    -1.6140 F     1 <1>  -0.3400 
  4 F        1.3090     2.2220    -1.7170 F     1 <1>  -0.3400 
  5 C       -0.3000     2.6800    -0.0270 C.ar  1 <1>  -0.1440 
  6 C       -1.4190     3.3270    -0.5420 C.ar  1 <1>  -0.1500 
  7 C        0.1130     2.9980     1.2610 C.ar  1 <1>  -0.1500 
  8 C       -2.1350     4.2700     0.1910 C.ar  1 <1>  -0.1440 
  9 C       -0.5810     3.9320     2.0050 C.ar  1 <1>  -0.1500 
 10 C       -1.6930     4.5620     1.4770 C.ar  1 <1>  -0.1500 
 11 C       -3.3660     4.9370    -0.4580 C.3   1 <1>   0.4240 
 12 O       -2.9210     5.4250    -1.6690 O.3   1 <1>  -0.6800 
 13 C       -3.9190     6.1590     0.2960 C.3   1 <1>  -0.1600 
 14 C       -4.4750     3.9090    -0.7790 C.3   1 <1>  -0.1600 
 15 C       -5.2800     6.5710    -0.2670 C.3   1 <1>   0.1400 
 16 C       -5.7390     4.0860     0.0670 C.3   1 <1>   0.1400 
 17 N       -6.2720     5.4780    -0.0450 N.am  1 <1>  -0.6600 
 18 C       -7.6130     5.7780    -0.0740 C.2   1 <1>   0.6900 
 19 O       -7.9840     6.8770    -0.4430 O.2   1 <1>  -0.5700 
 20 N       -8.5090     4.8370     0.3500 N.am  1 <1>  -0.5470 
 21 C       -9.9100     4.8060     0.3190 C.ar  1 <1>   0.1170 
 22 C      -10.5820     3.9880     1.2210 C.ar  1 <1>  -0.1500 
 23 C      -10.6630     5.5430    -0.5900 C.ar  1 <1>  -0.1500 
 24 C      -11.9640     3.9090     1.2190 C.ar  1 <1>  -0.1500 
 25 C      -12.0440     5.4690    -0.5950 C.ar  1 <1>  -0.1500 
 26 C      -12.6970     4.6510     0.3090 C.ar  1 <1>  -0.1500 
 27 H       -1.7440     3.0920    -1.5440 H     1 <1>   0.1500 
 28 H        0.9770     2.5230     1.6950 H     1 <1>   0.1500 
 29 H       -0.2530     4.1710     3.0030 H     1 <1>   0.1500 
 30 H       -2.1910     5.2810     2.1000 H     1 <1>   0.1500 
 31 H       -2.0460     5.8310    -1.5280 H     1 <1>   0.4000 
 32 H       -3.2270     6.9790     0.2370 H     1 <1>   0.0800 
 33 H       -4.0720     5.9320     1.3330 H     1 <1>   0.0800 
 34 H       -4.1080     2.9110    -0.6240 H     1 <1>   0.0800 
 35 H       -4.7640     3.9850    -1.8130 H     1 <1>   0.0800 
 36 H       -5.2060     6.7720    -1.3230 H     1 <1>   0.0800 
 37 H       -5.6200     7.4680     0.2230 H     1 <1>   0.0800 
 38 H       -5.5130     3.8810     1.1000 H     1 <1>   0.0800 
 39 H       -6.4780     3.3790    -0.2690 H     1 <1>   0.0800 
 40 H       -8.0690     4.0840     0.8610 H     1 <1>   0.3700 
 41 H      -10.0240     3.4100     1.9330 H     1 <1>   0.1500 
 42 H      -10.1680     6.1800    -1.3010 H     1 <1>   0.1500 
 43 H      -12.4700     3.2730     1.9240 H     1 <1>   0.1500 
 44 H      -12.6090     6.0490    -1.3040 H     1 <1>   0.1500 
 45 H      -13.7720     4.5930     0.3060 H     1 <1>   0.1500 
@<TRIPOS>BOND
  1   1   2  1   
  2   2   3  1   
  3   2   4  1   
  4   2   5  1   
  5   5   6  ar  
  6   5   7  ar  
  7   6   8  ar  
  8   6  27  1   
  9   7   9  ar  
 10   7  28  1   
 11   8  10  ar  
 12   8  11  1   
 13   9  10  ar  
 14   9  29  1   
 15  10  30  1   
 16  11  12  1   
 17  11  13  1   
 18  11  14  1   
 19  12  31  1   
 20  13  15  1   
 21  13  32  1   
 22  13  33  1   
 23  14  16  1   
 24  14  34  1   
 25  14  35  1   
 26  15  17  1   
 27  15  36  1   
 28  15  37  1   
 29  16  17  1   
 30  16  38  1   
 31  16  39  1   
 32  17  18  am  
 33  18  19  2   
 34  18  20  am  
 35  20  21  1   
 36  20  40  1   
 37  21  22  ar  
 38  21  23  ar  
 39  22  24  ar  
 40  22  41  1   
 41  23  25  ar  
 42  23  42  1   
 43  24  26  ar  
 44  24  43  1   
 45  25  26  ar  
 46  25  44  1   
 47  26  45  1   
@<TRIPOS>SUBSTRUCTURE
  1 ****  16 GROUP 4 **** **** 0

# MOE 2024.06 (io_trps.svl 2023.06)
