@<TRIPOS>MOLECULE
NONAME
41 41 1 0 0 
SMALL
USER_CHARGES


@<TRIPOS>ATOM
  1 BR       0.6060     1.0180     2.0220 Br    1 <1>  -0.1110 
  2 C        2.0010     1.6520     0.8490 C.ar  1 <1>   0.1110 
  3 C        2.0250     2.9830     0.4590 C.ar  1 <1>   0.0820 
  4 C        2.9440     0.7330     0.4260 C.ar  1 <1>  -0.1500 
  5 O        1.0500     3.8190     0.8930 O.3   1 <1>  -0.3630 
  6 C        3.0650     3.4050    -0.3780 C.ar  1 <1>   0.0830 
  7 C        3.9600     1.1530    -0.4200 C.ar  1 <1>  -0.1440 
  8 C       -0.0550     3.9600     0.0310 C.3   1 <1>   0.1200 
  9 O        3.2470     4.6780    -0.8180 O.3   1 <1>  -0.3630 
 10 C        4.0050     2.4840    -0.8180 C.ar  1 <1>  -0.1500 
 11 C        5.0170     0.1830    -0.8990 C.3   1 <1>   0.4860 
 12 C       -1.0420     4.9360     0.6730 C.3   1 <1>  -0.1600 
 13 C        2.9640     5.7730     0.0260 C.3   1 <1>   0.1200 
 14 N        6.1600     0.3110     0.0270 N.4   1 <1>  -0.9060 
 15 C       -2.2720     5.1480    -0.2150 C.3   1 <1>  -0.2400 
 16 C        3.7750     6.9690    -0.4630 C.3   1 <1>  -0.2400 
 17 C        7.3020    -0.5600    -0.3150 C.3   1 <1>   0.3430 
 18 C        8.3980    -0.3270     0.7140 C.3   1 <1>  -0.2400 
 19 H        2.8610    -0.2870     0.7620 H     1 <1>   0.1500 
 20 H       -0.5080     2.9930    -0.1040 H     1 <1>   0.0800 
 21 H        0.2950     4.3340    -0.9160 H     1 <1>   0.0800 
 22 H        4.7750     2.8420    -1.4800 H     1 <1>   0.1500 
 23 H        5.3140     0.4320    -1.9050 H     1 <1>   0.0800 
 24 H        4.6290    -0.8230    -0.8870 H     1 <1>   0.0800 
 25 H       -0.5540     5.8810     0.8340 H     1 <1>   0.0800 
 26 H       -1.3560     4.5440     1.6250 H     1 <1>   0.0800 
 27 H        3.2340     5.5150     1.0360 H     1 <1>   0.0800 
 28 H        1.9120     5.9860    -0.0290 H     1 <1>   0.0800 
 29 H        5.8300     0.1110     0.9790 H     1 <1>   0.4500 
 30 H        6.4540     1.2960     0.0370 H     1 <1>   0.4500 
 31 H       -1.9830     5.5540    -1.1690 H     1 <1>   0.0800 
 32 H       -2.9510     5.8370     0.2570 H     1 <1>   0.0800 
 33 H       -2.7870     4.2170    -0.3750 H     1 <1>   0.0800 
 34 H        4.8260     6.7490    -0.4160 H     1 <1>   0.0800 
 35 H        3.5750     7.8220     0.1600 H     1 <1>   0.0800 
 36 H        3.5020     7.2120    -1.4750 H     1 <1>   0.0800 
 37 H        7.6720    -0.3240    -1.3010 H     1 <1>   0.0800 
 38 H        7.0010    -1.5960    -0.2980 H     1 <1>   0.0800 
 39 H        8.7330     0.6960     0.6970 H     1 <1>   0.0800 
 40 H        9.2410    -0.9540     0.4820 H     1 <1>   0.0800 
 41 H        8.0600    -0.5810     1.7030 H     1 <1>   0.0800 
@<TRIPOS>BOND
  1   1   2  1   
  2   2   3  ar  
  3   2   4  ar  
  4   3   5  1   
  5   3   6  ar  
  6   4   7  ar  
  7   4  19  1   
  8   5   8  1   
  9   6   9  1   
 10   6  10  ar  
 11   7  10  ar  
 12   7  11  1   
 13   8  12  1   
 14   8  20  1   
 15   8  21  1   
 16   9  13  1   
 17  10  22  1   
 18  11  14  1   
 19  11  23  1   
 20  11  24  1   
 21  12  15  1   
 22  12  25  1   
 23  12  26  1   
 24  13  16  1   
 25  13  27  1   
 26  13  28  1   
 27  14  17  1   
 28  14  29  1   
 29  14  30  1   
 30  15  31  1   
 31  15  32  1   
 32  15  33  1   
 33  16  34  1   
 34  16  35  1   
 35  16  36  1   
 36  17  18  1   
 37  17  37  1   
 38  17  38  1   
 39  18  39  1   
 40  18  40  1   
 41  18  41  1   
@<TRIPOS>SUBSTRUCTURE
  1 ****   6 GROUP 4 **** **** 0

# MOE 2024.06 (io_trps.svl 2023.06)
