@<TRIPOS>MOLECULE
NONAME
54 56 1 0 0 
SMALL
USER_CHARGES


@<TRIPOS>ATOM
  1 S       -0.2100    -0.1520     0.7950 S.o2  1 <1>   1.4470 
  2 O       -0.4560    -0.4350     2.1930 O.2   1 <1>  -0.6500 
  3 O        0.9620    -0.7100     0.1570 O.2   1 <1>  -0.6500 
  4 N       -1.5580    -0.7280    -0.0600 N.am  1 <1>  -0.8490 
  5 C       -0.2610     1.6360     0.4900 C.ar  1 <1>  -0.0090 
  6 C       -2.8250    -0.2840     0.5450 C.3   1 <1>   0.1960 
  7 C       -1.5230    -2.1890    -0.1660 C.3   1 <1>   0.1960 
  8 C       -0.5480     2.5370     1.5100 C.ar  1 <1>  -0.1500 
  9 C       -0.0330     2.1470    -0.7830 C.ar  1 <1>  -0.1500 
 10 C       -4.0110    -0.6810    -0.3440 C.3   1 <1>  -0.0190 
 11 C       -2.6650    -2.6850    -1.0630 C.3   1 <1>  -0.1600 
 12 C       -0.6060     3.9000     1.2690 C.ar  1 <1>  -0.1500 
 13 C       -0.0880     3.5070    -1.0330 C.ar  1 <1>  -0.1500 
 14 C       -5.3200    -0.1860     0.2550 C.2   1 <1>   0.5690 
 15 C       -4.0330    -2.2040    -0.5580 C.3   1 <1>  -0.1600 
 16 C       -0.3760     4.3860    -0.0050 C.ar  1 <1>  -0.1500 
 17 O       -5.4530    -0.1610     1.4540 O.2   1 <1>  -0.5700 
 18 N       -6.3090     0.2090    -0.5890 N.am  1 <1>  -0.7300 
 19 C       -7.6360     0.7220    -0.1640 C.3   1 <1>   0.1400 
 20 C       -8.7420    -0.2220    -0.6410 C.3   1 <1>  -0.0220 
 21 C      -10.1560     0.2540    -0.3050 C.2   1 <1>  -0.2760 
 22 C      -10.4630     1.3870     0.3410 C.2   1 <1>  -0.2880 
 23 C      -11.2280    -0.7220    -0.7830 C.3   1 <1>  -0.0220 
 24 C      -11.8770     1.8230     0.6900 C.3   1 <1>  -0.0220 
 25 C      -12.6310    -0.0970    -0.7670 C.3   1 <1>  -0.1600 
 26 C      -12.8780     0.6700     0.5370 C.3   1 <1>  -0.1600 
 27 H       -2.8230     0.7870     0.6590 H     1 <1>   0.0800 
 28 H       -2.9390    -0.7220     1.5250 H     1 <1>   0.0800 
 29 H       -1.6040    -2.6290     0.8150 H     1 <1>   0.0800 
 30 H       -0.5860    -2.5020    -0.5970 H     1 <1>   0.0800 
 31 H       -0.7290     2.1690     2.5070 H     1 <1>   0.1500 
 32 H        0.1910     1.4650    -1.5870 H     1 <1>   0.1500 
 33 H       -3.8770    -0.1950    -1.2940 H     1 <1>   0.0800 
 34 H       -2.6480    -3.7600    -1.0950 H     1 <1>   0.0800 
 35 H       -2.4960    -2.3250    -2.0630 H     1 <1>   0.0800 
 36 H       -0.8290     4.5800     2.0730 H     1 <1>   0.1500 
 37 H        0.0940     3.8810    -2.0260 H     1 <1>   0.1500 
 38 H       -4.8000    -2.4690    -1.2650 H     1 <1>   0.0800 
 39 H       -4.2580    -2.6890     0.3770 H     1 <1>   0.0800 
 40 H       -0.4190     5.4440    -0.1950 H     1 <1>   0.1500 
 41 H       -6.1600     0.1660    -1.5970 H     1 <1>   0.3700 
 42 H       -7.7840     1.7010    -0.5860 H     1 <1>   0.0800 
 43 H       -7.6730     0.8050     0.9090 H     1 <1>   0.0800 
 44 H       -8.5870    -1.1840    -0.1830 H     1 <1>   0.0800 
 45 H       -8.6640    -0.3350    -1.7070 H     1 <1>   0.0800 
 46 H       -9.7350     2.1030     0.6790 H     1 <1>   0.1500 
 47 H      -11.2150    -1.5880    -0.1440 H     1 <1>   0.0800 
 48 H      -11.0130    -1.0460    -1.7860 H     1 <1>   0.0800 
 49 H      -12.1580     2.6360     0.0440 H     1 <1>   0.0800 
 50 H      -11.9050     2.1780     1.7060 H     1 <1>   0.0800 
 51 H      -13.3710    -0.8700    -0.8860 H     1 <1>   0.0800 
 52 H      -12.7230     0.5830    -1.5960 H     1 <1>   0.0800 
 53 H      -13.8810     1.0570     0.5560 H     1 <1>   0.0800 
 54 H      -12.7640    -0.0060     1.3680 H     1 <1>   0.0800 
@<TRIPOS>BOND
  1   1   2  2   
  2   1   3  2   
  3   1   4  am  
  4   1   5  1   
  5   4   6  1   
  6   4   7  1   
  7   5   8  ar  
  8   5   9  ar  
  9   6  10  1   
 10   6  27  1   
 11   6  28  1   
 12   7  11  1   
 13   7  29  1   
 14   7  30  1   
 15   8  12  ar  
 16   8  31  1   
 17   9  13  ar  
 18   9  32  1   
 19  10  14  1   
 20  10  15  1   
 21  10  33  1   
 22  11  15  1   
 23  11  34  1   
 24  11  35  1   
 25  12  16  ar  
 26  12  36  1   
 27  13  16  ar  
 28  13  37  1   
 29  14  17  2   
 30  14  18  am  
 31  15  38  1   
 32  15  39  1   
 33  16  40  1   
 34  18  19  1   
 35  18  41  1   
 36  19  20  1   
 37  19  42  1   
 38  19  43  1   
 39  20  21  1   
 40  20  44  1   
 41  20  45  1   
 42  21  22  2   
 43  21  23  1   
 44  22  24  1   
 45  22  46  1   
 46  23  25  1   
 47  23  47  1   
 48  23  48  1   
 49  24  26  1   
 50  24  49  1   
 51  24  50  1   
 52  25  26  1   
 53  25  51  1   
 54  25  52  1   
 55  26  53  1   
 56  26  54  1   
@<TRIPOS>SUBSTRUCTURE
  1 ****  14 GROUP 4 **** **** 0

# MOE 2024.06 (io_trps.svl 2023.06)
