@<TRIPOS>MOLECULE
NONAME
38 39 1 0 0 
SMALL
USER_CHARGES


@<TRIPOS>ATOM
  1 CL      -0.1880    -0.4510     1.3190 Cl    1 <1>  -0.1770 
  2 C        0.9200    -1.6790     0.7640 C.ar  1 <1>   0.1770 
  3 C        0.5530    -2.5550    -0.2550 C.ar  1 <1>   0.1770 
  4 C        2.1670    -1.7660     1.3560 C.ar  1 <1>  -0.1500 
  5 CL      -1.0220    -2.4420    -0.9980 Cl    1 <1>  -0.1770 
  6 C        1.4290    -3.5300    -0.6980 C.ar  1 <1>  -0.1500 
  7 C        3.0490    -2.7460     0.9120 C.ar  1 <1>   0.0860 
  8 C        2.6830    -3.6200    -0.1050 C.ar  1 <1>   0.0860 
  9 C        4.3850    -3.0970     1.3040 C.2   1 <1>   0.5440 
 10 C        3.7990    -4.4960    -0.3240 C.2   1 <1>   0.5440 
 11 O        5.0600    -2.5540     2.1520 O.2   1 <1>  -0.5700 
 12 N        4.8030    -4.1590     0.5460 N.am  1 <1>  -0.4200 
 13 O        3.8710    -5.3870    -1.1420 O.2   1 <1>  -0.5700 
 14 C        6.0940    -4.8690     0.6960 C.3   1 <1>   0.1400 
 15 C        7.1850    -4.1580    -0.1080 C.3   1 <1>  -0.0990 
 16 C        8.5460    -4.8140     0.0630 C.2   1 <1>   0.5690 
 17 O        8.5800    -5.9310     0.5260 O.2   1 <1>  -0.5700 
 18 N        9.6910    -4.1480    -0.3020 N.am  1 <1>  -0.6600 
 19 C        9.7050    -2.8640    -1.0560 C.3   1 <1>   0.1400 
 20 C       11.0210    -4.7830    -0.0850 C.3   1 <1>   0.1400 
 21 C        9.9450    -1.6940    -0.1050 C.3   1 <1>  -0.2400 
 22 C       11.4600    -4.6010     1.3670 C.3   1 <1>  -0.2400 
 23 H        2.4540    -1.0910     2.1440 H     1 <1>   0.1500 
 24 H        1.1490    -4.2090    -1.4860 H     1 <1>   0.1500 
 25 H        5.9870    -5.8850     0.3520 H     1 <1>   0.0800 
 26 H        6.3660    -4.8930     1.7380 H     1 <1>   0.0800 
 27 H        7.2480    -3.1400     0.2280 H     1 <1>   0.0800 
 28 H        6.9270    -4.1790    -1.1500 H     1 <1>   0.0800 
 29 H        8.7720    -2.7230    -1.5720 H     1 <1>   0.0800 
 30 H       10.4790    -2.8910    -1.8050 H     1 <1>   0.0800 
 31 H       11.7530    -4.3520    -0.7460 H     1 <1>   0.0800 
 32 H       10.9530    -5.8350    -0.3080 H     1 <1>   0.0800 
 33 H        9.2220    -1.6990     0.6910 H     1 <1>   0.0800 
 34 H        9.8550    -0.7670    -0.6430 H     1 <1>   0.0800 
 35 H       10.9340    -1.7440     0.3100 H     1 <1>   0.0800 
 36 H       11.5470    -3.5600     1.6150 H     1 <1>   0.0800 
 37 H       12.4160    -5.0690     1.5150 H     1 <1>   0.0800 
 38 H       10.7500    -5.0660     2.0280 H     1 <1>   0.0800 
@<TRIPOS>BOND
  1   1   2  1   
  2   2   3  ar  
  3   2   4  ar  
  4   3   5  1   
  5   3   6  ar  
  6   4   7  ar  
  7   4  23  1   
  8   6   8  ar  
  9   6  24  1   
 10   7   8  ar  
 11   7   9  1   
 12   8  10  1   
 13   9  11  2   
 14   9  12  am  
 15  10  12  am  
 16  10  13  2   
 17  12  14  1   
 18  14  15  1   
 19  14  25  1   
 20  14  26  1   
 21  15  16  1   
 22  15  27  1   
 23  15  28  1   
 24  16  17  2   
 25  16  18  am  
 26  18  19  1   
 27  18  20  1   
 28  19  21  1   
 29  19  29  1   
 30  19  30  1   
 31  20  22  1   
 32  20  31  1   
 33  20  32  1   
 34  21  33  1   
 35  21  34  1   
 36  21  35  1   
 37  22  36  1   
 38  22  37  1   
 39  22  38  1   
@<TRIPOS>SUBSTRUCTURE
  1 ****  12 GROUP 4 **** **** 0

# MOE 2024.06 (io_trps.svl 2023.06)
