@<TRIPOS>MOLECULE
NONAME
43 44 1 0 0 
SMALL
USER_CHARGES


@<TRIPOS>ATOM
  1 S       -0.0910    -0.1800     0.0370 S.o2  1 <1>   1.4470 
  2 O       -0.2200    -0.8110    -1.2550 O.2   1 <1>  -0.6500 
  3 O       -0.4720    -0.8920     1.2360 O.2   1 <1>  -0.6500 
  4 N       -1.1070     1.1440    -0.0710 N.am  1 <1>  -0.9140 
  5 C        1.5460     0.5710     0.2390 C.ar  1 <1>  -0.0090 
  6 C       -2.4790     0.7700     0.1390 C.3   1 <1>   0.3340 
  7 C        1.8730     1.2700     1.3940 C.ar  1 <1>  -0.1500 
  8 C        2.5140     0.4820    -0.7550 C.ar  1 <1>  -0.1500 
  9 C       -3.3130     1.9520    -0.2960 C.2   1 <1>  -0.2880 
 10 C        3.1170     1.8540     1.5540 C.ar  1 <1>  -0.1500 
 11 C        3.7580     1.0660    -0.6000 C.ar  1 <1>  -0.1500 
 12 C       -4.1840     1.9580    -1.3100 C.2   1 <1>  -0.3000 
 13 C        4.0830     1.7600     0.5600 C.ar  1 <1>   0.1170 
 14 N        5.3250     2.3760     0.7570 N.am  1 <1>  -0.5470 
 15 C        6.5560     2.1180     0.2220 C.2   1 <1>   0.6900 
 16 O        6.7390     1.1290    -0.4630 O.2   1 <1>  -0.5700 
 17 N        7.5920     2.9770     0.4980 N.am  1 <1>  -0.6600 
 18 C        8.9990     2.6070     0.1740 C.3   1 <1>   0.1400 
 19 C        7.4270     4.3880     0.9520 C.3   1 <1>   0.1400 
 20 C        9.5470     3.5450    -0.9060 C.3   1 <1>  -0.1600 
 21 C        7.9670     5.3430    -0.1180 C.3   1 <1>  -0.1600 
 22 C        9.4190     5.0180    -0.4920 C.3   1 <1>  -0.1600 
 23 H       -1.0560     1.4160    -1.0490 H     1 <1>   0.4200 
 24 H       -2.6520     0.5470     1.1800 H     1 <1>   0.0800 
 25 H       -2.7310    -0.0970    -0.4520 H     1 <1>   0.0800 
 26 H        1.1400     1.3540     2.1790 H     1 <1>   0.1500 
 27 H        2.2960    -0.0520    -1.6650 H     1 <1>   0.1500 
 28 H       -3.1270     2.8210     0.3140 H     1 <1>   0.1500 
 29 H        3.3390     2.3840     2.4630 H     1 <1>   0.1500 
 30 H        4.4820     0.9810    -1.3910 H     1 <1>   0.1500 
 31 H       -4.7640     2.8190    -1.5970 H     1 <1>   0.1500 
 32 H       -4.3940     1.1090    -1.9400 H     1 <1>   0.1500 
 33 H        5.3690     3.0510     1.5100 H     1 <1>   0.3700 
 34 H        9.0590     1.5880    -0.1690 H     1 <1>   0.0800 
 35 H        9.5960     2.6890     1.0660 H     1 <1>   0.0800 
 36 H        7.9720     4.5240     1.8700 H     1 <1>   0.0800 
 37 H        6.3930     4.6200     1.1360 H     1 <1>   0.0800 
 38 H        9.0030     3.3730    -1.8190 H     1 <1>   0.0800 
 39 H       10.5800     3.3080    -1.0920 H     1 <1>   0.0800 
 40 H        7.9060     6.3550     0.2430 H     1 <1>   0.0800 
 41 H        7.3440     5.2700    -0.9930 H     1 <1>   0.0800 
 42 H        9.7380     5.6520    -1.3020 H     1 <1>   0.0800 
 43 H       10.0590     5.2080     0.3530 H     1 <1>   0.0800 
@<TRIPOS>BOND
  1   1   2  2   
  2   1   3  2   
  3   1   4  am  
  4   1   5  1   
  5   4   6  1   
  6   4  23  1   
  7   5   7  ar  
  8   5   8  ar  
  9   6   9  1   
 10   6  24  1   
 11   6  25  1   
 12   7  10  ar  
 13   7  26  1   
 14   8  11  ar  
 15   8  27  1   
 16   9  12  2   
 17   9  28  1   
 18  10  13  ar  
 19  10  29  1   
 20  11  13  ar  
 21  11  30  1   
 22  12  31  1   
 23  12  32  1   
 24  13  14  1   
 25  14  15  am  
 26  14  33  1   
 27  15  16  2   
 28  15  17  am  
 29  17  18  1   
 30  17  19  1   
 31  18  20  1   
 32  18  34  1   
 33  18  35  1   
 34  19  21  1   
 35  19  36  1   
 36  19  37  1   
 37  20  22  1   
 38  20  38  1   
 39  20  39  1   
 40  21  22  1   
 41  21  40  1   
 42  21  41  1   
 43  22  42  1   
 44  22  43  1   
@<TRIPOS>SUBSTRUCTURE
  1 ****  13 GROUP 4 **** **** 0

# MOE 2024.06 (io_trps.svl 2023.06)
