@<TRIPOS>MOLECULE
NONAME
52 55 1 0 0 
SMALL
USER_CHARGES


@<TRIPOS>ATOM
  1 O       -0.2140    -0.6350     0.9270 O.3   1 <1>  -0.3630 
  2 C       -1.5040    -0.8240     0.5450 C.ar  1 <1>   0.0830 
  3 C        0.7540    -1.6570     0.8330 C.3   1 <1>   0.0400 
  4 C       -2.3600     0.2700     0.6090 C.ar  1 <1>  -0.1440 
  5 C       -1.9900    -2.0490     0.0980 C.ar  1 <1>  -0.1500 
  6 C       -3.6830     0.1240     0.2350 C.ar  1 <1>  -0.1500 
  7 C       -1.8460     1.6230     1.0830 C.3   1 <1>  -0.0960 
  8 C       -3.3160    -2.1970    -0.2760 C.ar  1 <1>  -0.1430 
  9 C       -4.1690    -1.1010    -0.1990 C.ar  1 <1>  -0.1430 
 10 C       -3.7890    -3.5600    -0.7710 C.3   1 <1>  -0.0970 
 11 C       -5.6320    -1.2070    -0.5580 C.3   1 <1>   0.4860 
 12 N       -6.3300    -1.4820     0.7090 N.4   1 <1>  -0.9060 
 13 C       -7.8120    -1.6440     0.7300 C.3   1 <1>   0.4230 
 14 C       -8.4120    -2.5400    -0.3810 C.3   1 <1>  -0.0800 
 15 C       -8.5710    -0.3020     0.7890 C.3   1 <1>  -0.0800 
 16 C       -8.5180    -1.8330    -1.7570 C.3   1 <1>  -0.1600 
 17 C       -9.8520    -2.8740     0.0700 C.3   1 <1>  -0.1600 
 18 C       -8.6440     0.4000    -0.5860 C.3   1 <1>  -0.1600 
 19 C      -10.0120    -0.6310     1.2370 C.3   1 <1>  -0.1600 
 20 C       -9.3140    -0.5230    -1.6220 C.3   1 <1>  -0.0800 
 21 C      -10.6790    -1.5770     0.2170 C.3   1 <1>  -0.0800 
 22 C      -10.7380    -0.8640    -1.1450 C.3   1 <1>  -0.1600 
 23 H        1.6940    -1.2570     1.1660 H     1 <1>   0.0800 
 24 H        0.8330    -1.9710    -0.1920 H     1 <1>   0.0800 
 25 H        0.4620    -2.4750     1.4680 H     1 <1>   0.0800 
 26 H       -1.3350    -2.8970     0.0380 H     1 <1>   0.1500 
 27 H       -4.3310     0.9820     0.2840 H     1 <1>   0.1500 
 28 H       -1.0460     1.9510     0.4440 H     1 <1>   0.0800 
 29 H       -1.4660     1.5380     2.0860 H     1 <1>   0.0800 
 30 H       -2.6200     2.3680     1.0710 H     1 <1>   0.0800 
 31 H       -2.9840    -4.2740    -0.7530 H     1 <1>   0.0800 
 32 H       -4.1370    -3.4880    -1.7860 H     1 <1>   0.0800 
 33 H       -4.5780    -3.9410    -0.1500 H     1 <1>   0.0800 
 34 H       -5.7830    -2.0110    -1.2590 H     1 <1>   0.0800 
 35 H       -5.9680    -0.2850    -0.9980 H     1 <1>   0.0800 
 36 H       -6.0630    -0.7370     1.3600 H     1 <1>   0.4500 
 37 H       -5.8940    -2.3270     1.0900 H     1 <1>   0.4500 
 38 H       -8.0370    -2.1400     1.6610 H     1 <1>   0.0800 
 39 H       -7.8550    -3.4560    -0.4670 H     1 <1>   0.0800 
 40 H       -8.1250     0.3500     1.5200 H     1 <1>   0.0800 
 41 H       -9.0280    -2.4820    -2.4500 H     1 <1>   0.0800 
 42 H       -7.5610    -1.6300    -2.1940 H     1 <1>   0.0800 
 43 H       -9.8380    -3.4030     1.0080 H     1 <1>   0.0800 
 44 H      -10.3230    -3.5210    -0.6510 H     1 <1>   0.0800 
 45 H       -7.6710     0.6980    -0.9270 H     1 <1>   0.0800 
 46 H       -9.2260     1.3020    -0.4940 H     1 <1>   0.0800 
 47 H      -10.0070    -1.0920     2.2100 H     1 <1>   0.0800 
 48 H      -10.5880     0.2760     1.3180 H     1 <1>   0.0800 
 49 H       -9.3680    -0.0260    -2.5770 H     1 <1>   0.0800 
 50 H      -11.6790    -1.8160     0.5410 H     1 <1>   0.0800 
 51 H      -11.2260    -1.4950    -1.8680 H     1 <1>   0.0800 
 52 H      -11.3220     0.0370    -1.0620 H     1 <1>   0.0800 
@<TRIPOS>BOND
  1   1   2  1   
  2   1   3  1   
  3   2   4  ar  
  4   2   5  ar  
  5   3  23  1   
  6   3  24  1   
  7   3  25  1   
  8   4   6  ar  
  9   4   7  1   
 10   5   8  ar  
 11   5  26  1   
 12   6   9  ar  
 13   6  27  1   
 14   7  28  1   
 15   7  29  1   
 16   7  30  1   
 17   8   9  ar  
 18   8  10  1   
 19   9  11  1   
 20  10  31  1   
 21  10  32  1   
 22  10  33  1   
 23  11  12  1   
 24  11  34  1   
 25  11  35  1   
 26  12  13  1   
 27  12  36  1   
 28  12  37  1   
 29  13  14  1   
 30  13  15  1   
 31  13  38  1   
 32  14  16  1   
 33  14  17  1   
 34  14  39  1   
 35  15  18  1   
 36  15  19  1   
 37  15  40  1   
 38  16  20  1   
 39  16  41  1   
 40  16  42  1   
 41  17  21  1   
 42  17  43  1   
 43  17  44  1   
 44  18  20  1   
 45  18  45  1   
 46  18  46  1   
 47  19  21  1   
 48  19  47  1   
 49  19  48  1   
 50  20  22  1   
 51  20  49  1   
 52  21  22  1   
 53  21  50  1   
 54  22  51  1   
 55  22  52  1   
@<TRIPOS>SUBSTRUCTURE
  1 ****  11 GROUP 4 **** **** 0

# MOE 2024.06 (io_trps.svl 2023.06)
