@<TRIPOS>MOLECULE
NONAME
43 44 1 0 0 
SMALL
USER_CHARGES


@<TRIPOS>ATOM
  1 BR       0.2600    -1.9790     2.1640 Br    1 <1>  -0.1110 
  2 C       -1.4340    -2.0800     1.2550 C.ar  1 <1>   0.1110 
  3 C       -1.5590    -2.9310     0.1780 C.ar  1 <1>  -0.1500 
  4 C       -2.4790    -1.2990     1.7110 C.ar  1 <1>  -0.1500 
  5 C       -2.7800    -3.0010    -0.4670 C.ar  1 <1>   0.0830 
  6 C       -3.7070    -1.3530     1.0620 C.ar  1 <1>  -0.1440 
  7 O       -2.8840    -3.8770    -1.4970 O.3   1 <1>  -0.3620 
  8 C       -3.8470    -2.1920    -0.0460 C.ar  1 <1>   0.0830 
  9 C       -4.8480    -0.4770     1.5880 C.3   1 <1>   0.5020 
 10 C       -3.7400    -4.9800    -1.2960 C.3   1 <1>   0.0400 
 11 O       -5.0330    -2.2070    -0.7060 O.3   1 <1>  -0.3630 
 12 N       -5.9180    -1.3390     2.0940 N.am  1 <1>  -0.7300 
 13 C       -5.3450     0.5390     0.5670 C.2   1 <1>  -0.1240 
 14 C       -5.0360    -1.7080    -2.0260 C.3   1 <1>   0.0400 
 15 C       -7.1560    -1.3840     1.5770 C.2   1 <1>   0.6900 
 16 C       -6.6470     0.5250     0.1630 C.2   1 <1>  -0.0290 
 17 C       -4.2870     1.4100     0.1660 C.2   1 <1>   0.7060 
 18 O       -7.9020    -2.2550     1.9780 O.2   1 <1>  -0.5700 
 19 N       -7.5390    -0.4510     0.6220 N.am  1 <1>  -0.4690 
 20 C       -7.2190     1.5750    -0.7930 C.3   1 <1>  -0.1020 
 21 O       -3.4160     1.7860     0.9280 O.2   1 <1>  -0.5700 
 22 O       -4.2240     1.8000    -1.1130 O.3   1 <1>  -0.4300 
 23 C       -8.9200    -0.5680     0.0570 C.3   1 <1>   0.0600 
 24 C       -3.1670     2.6090    -1.5910 C.3   1 <1>   0.0400 
 25 H       -0.7320    -3.5320    -0.1510 H     1 <1>   0.1500 
 26 H       -2.3190    -0.6550     2.5580 H     1 <1>   0.1500 
 27 H       -4.4840     0.0790     2.4360 H     1 <1>   0.0800 
 28 H       -3.4370    -5.4980    -0.4030 H     1 <1>   0.0800 
 29 H       -3.6550    -5.6320    -2.1460 H     1 <1>   0.0800 
 30 H       -4.7540    -4.6350    -1.2000 H     1 <1>   0.0800 
 31 H       -5.6270    -2.1650     2.6080 H     1 <1>   0.3700 
 32 H       -4.5270    -2.4010    -2.6700 H     1 <1>   0.0800 
 33 H       -4.5450    -0.7520    -2.0410 H     1 <1>   0.0800 
 34 H       -6.0590    -1.6010    -2.3380 H     1 <1>   0.0800 
 35 H       -7.3740     1.1430    -1.7650 H     1 <1>   0.0800 
 36 H       -6.5730     2.4240    -0.8980 H     1 <1>   0.0800 
 37 H       -8.1540     1.9510    -0.4200 H     1 <1>   0.0800 
 38 H       -9.3580    -1.5230     0.2880 H     1 <1>   0.0800 
 39 H       -8.8920    -0.4760    -1.0130 H     1 <1>   0.0800 
 40 H       -9.5440     0.2020     0.4730 H     1 <1>   0.0800 
 41 H       -3.3240     2.7930    -2.6390 H     1 <1>   0.0800 
 42 H       -2.2360     2.0900    -1.4410 H     1 <1>   0.0800 
 43 H       -3.1650     3.5390    -1.0480 H     1 <1>   0.0800 
@<TRIPOS>BOND
  1   1   2  1   
  2   2   3  ar  
  3   2   4  ar  
  4   3   5  ar  
  5   3  25  1   
  6   4   6  ar  
  7   4  26  1   
  8   5   7  1   
  9   5   8  ar  
 10   6   8  ar  
 11   6   9  1   
 12   7  10  1   
 13   8  11  1   
 14   9  12  1   
 15   9  13  1   
 16   9  27  1   
 17  10  28  1   
 18  10  29  1   
 19  10  30  1   
 20  11  14  1   
 21  12  15  am  
 22  12  31  1   
 23  13  16  2   
 24  13  17  1   
 25  14  32  1   
 26  14  33  1   
 27  14  34  1   
 28  15  18  2   
 29  15  19  am  
 30  16  19  1   
 31  16  20  1   
 32  17  21  2   
 33  17  22  1   
 34  19  23  1   
 35  20  35  1   
 36  20  36  1   
 37  20  37  1   
 38  22  24  1   
 39  23  38  1   
 40  23  39  1   
 41  23  40  1   
 42  24  41  1   
 43  24  42  1   
 44  24  43  1   
@<TRIPOS>SUBSTRUCTURE
  1 ****   6 GROUP 4 **** **** 0

# MOE 2024.06 (io_trps.svl 2023.06)
