@<TRIPOS>MOLECULE
NONAME
29 30 1 0 0 
SMALL
USER_CHARGES


@<TRIPOS>ATOM
  1 O        2.6020    -0.9150    -0.8170 O.co2 1 <1>  -0.9050 
  2 C        2.0780     0.1310    -0.4040 C.2   1 <1>   0.9010 
  3 O        1.2510     0.7620    -1.0530 O.co2 1 <1>  -0.9050 
  4 C        2.6010     0.7200     0.8740 C.3   1 <1>  -0.1120 
  5 C        4.0550     1.0540     0.6550 C.2   1 <1>   0.4750 
  6 N        4.7250     2.0250     1.1580 N.2   1 <1>  -0.2730 
  7 N        4.8260     0.2870    -0.1560 N.pl3 1 <1>  -0.7080 
  8 N        5.9900     1.8750     0.6200 N.pl3 1 <1>  -0.3730 
  9 C        6.0000     0.8280    -0.1790 C.cat 1 <1>   1.0670 
 10 C        7.1480     2.6340     0.7620 C.2   1 <1>   0.9700 
 11 N        7.0750     0.4530    -0.8810 N.pl3 1 <1>  -0.6970 
 12 O        7.1300     3.5910     1.5100 O.2   1 <1>  -0.5790 
 13 C        8.3140     2.2440     0.0140 C.2   1 <1>  -0.1380 
 14 C        8.2580     1.1490    -0.7930 C.2   1 <1>   0.1510 
 15 C        9.5760     3.0980     0.1740 C.3   1 <1>  -0.0370 
 16 C        9.3840     0.5700    -1.6360 C.3   1 <1>  -0.1160 
 17 C       10.4290     2.5820     1.3330 C.3   1 <1>  -0.2530 
 18 H        2.4990    -0.0040     1.6580 H     1 <1>   0.0650 
 19 H        2.0430     1.6020     1.1230 H     1 <1>   0.0650 
 20 H        4.3510    -0.4820    -0.6730 H     1 <1>   0.4400 
 21 H        6.9760    -0.3630    -1.4890 H     1 <1>   0.4400 
 22 H        9.3140     4.1270     0.3590 H     1 <1>   0.0650 
 23 H       10.1600     3.0960    -0.7280 H     1 <1>   0.0650 
 24 H        9.1710     0.7100    -2.6800 H     1 <1>   0.0650 
 25 H        9.4840    -0.4830    -1.4430 H     1 <1>   0.0650 
 26 H       10.3320     1.0260    -1.4200 H     1 <1>   0.0650 
 27 H        9.8820     2.6360     2.2590 H     1 <1>   0.0650 
 28 H       11.3160     3.1840     1.4310 H     1 <1>   0.0650 
 29 H       10.7280     1.5620     1.1640 H     1 <1>   0.0650 
@<TRIPOS>BOND
  1   1   2  ar  
  2   2   3  ar  
  3   2   4  1   
  4   4   5  1   
  5   4  18  1   
  6   4  19  1   
  7   5   6  2   
  8   5   7  1   
  9   6   8  1   
 10   7   9  ar  
 11   7  20  1   
 12   8   9  ar  
 13   8  10  1   
 14   9  11  ar  
 15  10  12  2   
 16  10  13  1   
 17  11  14  1   
 18  11  21  1   
 19  13  14  2   
 20  13  15  1   
 21  14  16  1   
 22  15  17  1   
 23  15  22  1   
 24  15  23  1   
 25  16  24  1   
 26  16  25  1   
 27  16  26  1   
 28  17  27  1   
 29  17  28  1   
 30  17  29  1   
@<TRIPOS>SUBSTRUCTURE
  1 ****   9 GROUP 4 **** **** 0

# MOE 2024.06 (io_trps.svl 2023.06)
