@<TRIPOS>MOLECULE
NONAME
44 47 1 0 0 
SMALL
USER_CHARGES


@<TRIPOS>ATOM
  1 O        0.6460     0.4310     1.2280 O.2   1 <1>  -0.5700 
  2 C        1.5560     0.8560     0.5550 C.2   1 <1>   0.4950 
  3 C        2.0820     2.1830     0.6330 C.2   1 <1>  -0.1240 
  4 C        2.2660    -0.1420    -0.3510 C.3   1 <1>  -0.0990 
  5 C        3.2910     2.5270     0.1390 C.2   1 <1>  -0.0620 
  6 C        1.1820     3.2340     1.2610 C.3   1 <1>   0.3400 
  7 C        3.2500     0.5210    -1.3330 C.3   1 <1>  -0.1600 
  8 O        3.8210     3.7480     0.2460 O.3   1 <1>  -0.1590 
  9 C        4.1530     1.5470    -0.6320 C.3   1 <1>  -0.0220 
 10 C       -0.1390     3.4020     0.4870 C.2   1 <1>  -0.1240 
 11 C        1.9110     4.5740     1.4220 C.ar  1 <1>  -0.1440 
 12 C        3.1730     4.7720     0.8660 C.ar  1 <1>   0.0820 
 13 C       -0.1690     3.3850    -0.9160 C.2   1 <1>  -0.2880 
 14 C       -1.2960     3.5530     1.2510 C.2   1 <1>   0.4950 
 15 C        1.3180     5.6090     2.1350 C.ar  1 <1>  -0.1500 
 16 C        3.7990     6.0190     0.9730 C.ar  1 <1>   0.0820 
 17 O        0.8030     3.2300    -1.6490 O.3   1 <1>  -0.8500 
 18 C       -1.4770     3.5460    -1.6650 C.3   1 <1>  -0.0220 
 19 O       -1.3480     3.5900     2.4860 O.2   1 <1>  -0.5700 
 20 C       -2.6440     3.6920     0.5640 C.3   1 <1>  -0.0990 
 21 C        1.9560     6.8280     2.2790 C.ar  1 <1>  -0.1500 
 22 O        4.9910     6.3170     0.3910 O.3   1 <1>  -0.3630 
 23 C        3.1930     7.0320     1.6960 C.ar  1 <1>  -0.1500 
 24 C       -2.5110     4.3100    -0.8350 C.3   1 <1>  -0.1600 
 25 C        5.1390     6.0180    -0.9820 C.3   1 <1>   0.0400 
 26 H        1.5200    -0.6810    -0.9060 H     1 <1>   0.0800 
 27 H        2.7910    -0.8390     0.2730 H     1 <1>   0.0800 
 28 H        0.9700     2.8780     2.2530 H     1 <1>   0.0800 
 29 H        2.6710     1.0480    -2.0770 H     1 <1>   0.0800 
 30 H        3.8420    -0.2240    -1.8330 H     1 <1>   0.0800 
 31 H        4.8400     1.0650     0.0400 H     1 <1>   0.0800 
 32 H        4.7150     2.0790    -1.3790 H     1 <1>   0.0800 
 33 H        0.3490     5.4670     2.5810 H     1 <1>   0.1500 
 34 H       -1.8420     2.5670    -1.9190 H     1 <1>   0.0800 
 35 H       -1.2880     4.0780    -2.5800 H     1 <1>   0.0800 
 36 H       -3.2850     4.3090     1.1660 H     1 <1>   0.0800 
 37 H       -3.0820     2.7140     0.4920 H     1 <1>   0.0800 
 38 H        1.4840     7.6170     2.8370 H     1 <1>   0.1500 
 39 H        3.6910     7.9790     1.7900 H     1 <1>   0.1500 
 40 H       -3.4600     4.3080    -1.3390 H     1 <1>   0.0800 
 41 H       -2.1770     5.3280    -0.7380 H     1 <1>   0.0800 
 42 H        5.8640     6.6920    -1.3980 H     1 <1>   0.0800 
 43 H        4.1900     6.1420    -1.4770 H     1 <1>   0.0800 
 44 H        5.4820     5.0050    -1.0840 H     1 <1>   0.0800 
@<TRIPOS>BOND
  1   1   2  2   
  2   2   3  1   
  3   2   4  1   
  4   3   5  2   
  5   3   6  1   
  6   4   7  1   
  7   4  26  1   
  8   4  27  1   
  9   5   8  1   
 10   5   9  1   
 11   6  10  1   
 12   6  11  1   
 13   6  28  1   
 14   7   9  1   
 15   7  29  1   
 16   7  30  1   
 17   8  12  1   
 18   9  31  1   
 19   9  32  1   
 20  10  13  2   
 21  10  14  1   
 22  11  12  ar  
 23  11  15  ar  
 24  12  16  ar  
 25  13  17  1   
 26  13  18  1   
 27  14  19  2   
 28  14  20  1   
 29  15  21  ar  
 30  15  33  1   
 31  16  22  1   
 32  16  23  ar  
 33  18  24  1   
 34  18  34  1   
 35  18  35  1   
 36  20  24  1   
 37  20  36  1   
 38  20  37  1   
 39  21  23  ar  
 40  21  38  1   
 41  22  25  1   
 42  23  39  1   
 43  24  40  1   
 44  24  41  1   
 45  25  42  1   
 46  25  43  1   
 47  25  44  1   
@<TRIPOS>SUBSTRUCTURE
  1 ****   6 GROUP 4 **** **** 0

# MOE 2024.06 (io_trps.svl 2023.06)
