@<TRIPOS>MOLECULE
NONAME
45 46 1 0 0 
SMALL
USER_CHARGES


@<TRIPOS>ATOM
  1 S        0.0260     2.4750    -0.1290 S.o2  1 <1>   1.2040 
  2 O        0.7100     2.3670    -1.3980 O.2   1 <1>  -0.6500 
  3 O       -0.2160     3.7830     0.4390 O.2   1 <1>  -0.6500 
  4 C       -1.5200     1.5400    -0.1900 C.ar  1 <1>  -0.0090 
  5 C        0.9540     1.5490     1.0920 C.3   1 <1>  -0.0550 
  6 C       -2.6020     1.8800     0.6090 C.ar  1 <1>  -0.1500 
  7 C       -1.6560     0.4330    -1.0150 C.ar  1 <1>  -0.1500 
  8 C        2.3870     2.0650     1.2900 C.3   1 <1>  -0.0160 
  9 C       -3.7730     1.1420     0.5910 C.ar  1 <1>  -0.1500 
 10 C       -2.8250    -0.3070    -1.0350 C.ar  1 <1>  -0.1500 
 11 C        3.3870     1.2280     0.5070 C.ar  1 <1>  -0.1440 
 12 C       -3.9080     0.0290    -0.2320 C.ar  1 <1>  -0.1430 
 13 C        3.7360     1.5460    -0.7990 C.ar  1 <1>   0.1600 
 14 C        3.9730     0.1250     1.0940 C.ar  1 <1>  -0.1500 
 15 C       -5.1930    -0.8270    -0.2900 C.3   1 <1>   0.1440 
 16 N        4.6030     0.8700    -1.5370 N.ar  1 <1>  -0.6200 
 17 C        4.8750    -0.5890     0.3360 C.ar  1 <1>  -0.1500 
 18 C       -4.8650    -2.2750     0.1020 C.3   1 <1>  -0.2400 
 19 C       -5.7620    -0.8010    -1.7170 C.3   1 <1>  -0.2400 
 20 C       -6.2960    -0.3290     0.6590 C.3   1 <1>  -0.2400 
 21 C        5.1540    -0.1820    -0.9590 C.ar  1 <1>   0.1670 
 22 C        6.1430    -0.9530    -1.8060 C.3   1 <1>  -0.0970 
 23 H        0.9870     0.5110     0.8180 H     1 <1>   0.0800 
 24 H        0.4380     1.6180     2.0300 H     1 <1>   0.0800 
 25 H       -2.5330     2.7390     1.2560 H     1 <1>   0.1500 
 26 H       -0.8380     0.1460    -1.6560 H     1 <1>   0.1500 
 27 H        2.6360     2.0100     2.3350 H     1 <1>   0.0800 
 28 H        2.4590     3.1010     1.0020 H     1 <1>   0.0800 
 29 H       -4.5710     1.4630     1.2350 H     1 <1>   0.1500 
 30 H       -2.8800    -1.1550    -1.6940 H     1 <1>   0.1500 
 31 H        3.2780     2.4020    -1.2670 H     1 <1>   0.1500 
 32 H        3.7450    -0.1720     2.1030 H     1 <1>   0.1500 
 33 H        5.3580    -1.4550     0.7490 H     1 <1>   0.1500 
 34 H       -4.4340    -2.3010     1.0870 H     1 <1>   0.0800 
 35 H       -4.1650    -2.7150    -0.5840 H     1 <1>   0.0800 
 36 H       -5.7540    -2.8800     0.1010 H     1 <1>   0.0800 
 37 H       -5.0700    -1.2260    -2.4190 H     1 <1>   0.0800 
 38 H       -5.9630     0.2130    -2.0140 H     1 <1>   0.0800 
 39 H       -6.6780    -1.3610    -1.7710 H     1 <1>   0.0800 
 40 H       -5.9570    -0.3510     1.6790 H     1 <1>   0.0800 
 41 H       -7.1690    -0.9540     0.5860 H     1 <1>   0.0800 
 42 H       -6.5860     0.6760     0.4060 H     1 <1>   0.0800 
 43 H        6.9490    -0.3030    -2.0940 H     1 <1>   0.0800 
 44 H        5.6520    -1.3090    -2.6930 H     1 <1>   0.0800 
 45 H        6.5460    -1.7920    -1.2690 H     1 <1>   0.0800 
@<TRIPOS>BOND
  1   1   2  2   
  2   1   3  2   
  3   1   4  1   
  4   1   5  1   
  5   4   6  ar  
  6   4   7  ar  
  7   5   8  1   
  8   5  23  1   
  9   5  24  1   
 10   6   9  ar  
 11   6  25  1   
 12   7  10  ar  
 13   7  26  1   
 14   8  11  1   
 15   8  27  1   
 16   8  28  1   
 17   9  12  ar  
 18   9  29  1   
 19  10  12  ar  
 20  10  30  1   
 21  11  13  ar  
 22  11  14  ar  
 23  12  15  1   
 24  13  16  ar  
 25  13  31  1   
 26  14  17  ar  
 27  14  32  1   
 28  15  18  1   
 29  15  19  1   
 30  15  20  1   
 31  16  21  ar  
 32  17  21  ar  
 33  17  33  1   
 34  18  34  1   
 35  18  35  1   
 36  18  36  1   
 37  19  37  1   
 38  19  38  1   
 39  19  39  1   
 40  20  40  1   
 41  20  41  1   
 42  20  42  1   
 43  21  22  1   
 44  22  43  1   
 45  22  44  1   
 46  22  45  1   
@<TRIPOS>SUBSTRUCTURE
  1 ****   4 GROUP 4 **** **** 0

# MOE 2024.06 (io_trps.svl 2023.06)
