@<TRIPOS>MOLECULE
NONAME
44 46 1 0 0 
SMALL
USER_CHARGES


@<TRIPOS>ATOM
  1 F       -0.7860     1.6950    -0.5290 F     1 <1>  -0.3400 
  2 C       -1.7950     0.8580    -0.3360 C.3   1 <1>   1.3000 
  3 F       -1.6540     0.3220     0.8700 F     1 <1>  -0.3400 
  4 F       -1.6970    -0.1110    -1.2380 F     1 <1>  -0.3400 
  5 O       -3.0260     1.5460    -0.4520 O.3   1 <1>  -0.3630 
  6 C       -4.1580     0.8320    -0.2820 C.ar  1 <1>   0.0820 
  7 C       -4.7670     0.2310    -1.3710 C.ar  1 <1>  -0.1500 
  8 C       -4.7180     0.7150     0.9800 C.ar  1 <1>  -0.1500 
  9 C       -5.9300    -0.4980    -1.1960 C.ar  1 <1>  -0.1500 
 10 C       -5.8810    -0.0140     1.1540 C.ar  1 <1>  -0.1500 
 11 C       -6.4960    -0.6220     0.0660 C.ar  1 <1>  -0.1430 
 12 C       -7.7740    -1.4190     0.2550 C.3   1 <1>   0.4870 
 13 N       -8.9070    -0.4760     0.4480 N.4   1 <1>  -0.9590 
 14 C      -10.1660    -1.1990     0.8650 C.3   1 <1>   0.3430 
 15 C       -9.1450     0.3690    -0.7850 C.3   1 <1>   0.3430 
 16 C      -11.3730    -0.2520     1.0270 C.3   1 <1>   0.2090 
 17 C      -10.3520     1.3190    -0.6370 C.3   1 <1>   0.2090 
 18 N      -11.5630     0.5660    -0.2030 N.pl3 1 <1>  -0.8380 
 19 C      -12.7760     1.2370    -0.3120 C.ar  1 <1>   0.1000 
 20 C      -13.7050     0.8220    -1.2560 C.ar  1 <1>  -0.1500 
 21 C      -13.0870     2.3190     0.5050 C.ar  1 <1>  -0.1500 
 22 C      -14.9190     1.4710    -1.3850 C.ar  1 <1>  -0.1500 
 23 C      -14.3000     2.9700     0.3790 C.ar  1 <1>  -0.1500 
 24 C      -15.2190     2.5470    -0.5670 C.ar  1 <1>  -0.1500 
 25 H       -4.3280     0.3310    -2.3500 H     1 <1>   0.1500 
 26 H       -4.2410     1.1900     1.8200 H     1 <1>   0.1500 
 27 H       -6.3800    -0.9670    -2.0560 H     1 <1>   0.1500 
 28 H       -6.2900    -0.1020     2.1470 H     1 <1>   0.1500 
 29 H       -7.6680    -2.0550     1.1200 H     1 <1>   0.0800 
 30 H       -7.9500    -2.0430    -0.6060 H     1 <1>   0.0800 
 31 H       -8.6370     0.1700     1.2000 H     1 <1>   0.4500 
 32 H      -10.0030    -1.7190     1.7940 H     1 <1>   0.0800 
 33 H      -10.4230    -1.9320     0.1170 H     1 <1>   0.0800 
 34 H       -9.3340    -0.2740    -1.6290 H     1 <1>   0.0800 
 35 H       -8.2660     0.9530    -1.0060 H     1 <1>   0.0800 
 36 H      -11.2240     0.3950     1.8750 H     1 <1>   0.0800 
 37 H      -12.2630    -0.8320     1.2060 H     1 <1>   0.0800 
 38 H      -10.5520     1.7940    -1.5830 H     1 <1>   0.0800 
 39 H      -10.1270     2.0910     0.0790 H     1 <1>   0.0800 
 40 H      -13.4700    -0.0120    -1.8900 H     1 <1>   0.1500 
 41 H      -12.3800     2.6520     1.2400 H     1 <1>   0.1500 
 42 H      -15.6320     1.1410    -2.1210 H     1 <1>   0.1500 
 43 H      -14.5340     3.8070     1.0140 H     1 <1>   0.1500 
 44 H      -16.1630     3.0530    -0.6660 H     1 <1>   0.1500 
@<TRIPOS>BOND
  1   1   2  1   
  2   2   3  1   
  3   2   4  1   
  4   2   5  1   
  5   5   6  1   
  6   6   7  ar  
  7   6   8  ar  
  8   7   9  ar  
  9   7  25  1   
 10   8  10  ar  
 11   8  26  1   
 12   9  11  ar  
 13   9  27  1   
 14  10  11  ar  
 15  10  28  1   
 16  11  12  1   
 17  12  13  1   
 18  12  29  1   
 19  12  30  1   
 20  13  14  1   
 21  13  15  1   
 22  13  31  1   
 23  14  16  1   
 24  14  32  1   
 25  14  33  1   
 26  15  17  1   
 27  15  34  1   
 28  15  35  1   
 29  16  18  1   
 30  16  36  1   
 31  16  37  1   
 32  17  18  1   
 33  17  38  1   
 34  17  39  1   
 35  18  19  1   
 36  19  20  ar  
 37  19  21  ar  
 38  20  22  ar  
 39  20  40  1   
 40  21  23  ar  
 41  21  41  1   
 42  22  24  ar  
 43  22  42  1   
 44  23  24  ar  
 45  23  43  1   
 46  24  44  1   
@<TRIPOS>SUBSTRUCTURE
  1 ****  15 GROUP 4 **** **** 0

# MOE 2024.06 (io_trps.svl 2023.06)
