@<TRIPOS>MOLECULE
NONAME
37 38 1 0 0 
SMALL
USER_CHARGES


@<TRIPOS>ATOM
  1 CL      -0.2940     0.6970    -0.0100 Cl    1 <1>  -0.1770 
  2 C        1.3790     1.1960     0.0330 C.ar  1 <1>   0.1770 
  3 C        1.8280     2.2030    -0.8030 C.ar  1 <1>   0.1600 
  4 C        2.2520     0.5840     0.9060 C.ar  1 <1>  -0.1500 
  5 N        3.0810     2.6440    -0.8350 N.ar  1 <1>  -0.6200 
  6 C        3.5540     1.0350     0.8800 C.ar  1 <1>  -0.1500 
  7 C        3.9240     2.0560     0.0000 C.ar  1 <1>   0.4270 
  8 N        5.1910     2.5850    -0.1120 N.am  1 <1>  -0.5470 
  9 C        6.3890     2.2340     0.4440 C.2   1 <1>   0.5690 
 10 O        6.5240     1.3090     1.2080 O.2   1 <1>  -0.5700 
 11 C        7.6550     3.0300     0.0770 C.3   1 <1>   0.4040 
 12 N        8.9360     2.2530     0.2920 N.4   1 <1>  -0.9590 
 13 C       10.1440     3.1260     0.3070 C.3   1 <1>   0.3430 
 14 C        9.0610     1.1130    -0.6640 C.3   1 <1>   0.3430 
 15 C       11.3700     2.2990     0.6950 C.3   1 <1>  -0.1600 
 16 C       10.2730     0.2600    -0.2890 C.3   1 <1>  -0.1600 
 17 C       11.5610     1.0940    -0.2360 C.3   1 <1>  -0.0800 
 18 C       12.7400     0.2340     0.2300 C.3   1 <1>  -0.2400 
 19 H        1.1210     2.6620    -1.4710 H     1 <1>   0.1500 
 20 H        1.9230    -0.1990     1.5660 H     1 <1>   0.1500 
 21 H        4.2710     0.5930     1.5440 H     1 <1>   0.1500 
 22 H        5.1570     3.3640    -0.7680 H     1 <1>   0.3700 
 23 H        7.6690     3.9120     0.6930 H     1 <1>   0.0800 
 24 H        7.5890     3.3400    -0.9510 H     1 <1>   0.0800 
 25 H        8.8390     1.8150     1.2240 H     1 <1>   0.4500 
 26 H       10.0150     3.9270     1.0170 H     1 <1>   0.0800 
 27 H       10.2970     3.5560    -0.6700 H     1 <1>   0.0800 
 28 H        9.1820     1.4860    -1.6690 H     1 <1>   0.0800 
 29 H        8.1740     0.5000    -0.6290 H     1 <1>   0.0800 
 30 H       11.2660     1.9690     1.7150 H     1 <1>   0.0800 
 31 H       12.2420     2.9290     0.6490 H     1 <1>   0.0800 
 32 H       10.3830    -0.5240    -1.0180 H     1 <1>   0.0800 
 33 H       10.0920    -0.2100     0.6620 H     1 <1>   0.0800 
 34 H       11.7810     1.4540    -1.2290 H     1 <1>   0.0800 
 35 H       12.5700    -0.1530     1.2200 H     1 <1>   0.0800 
 36 H       13.6470     0.8140     0.2430 H     1 <1>   0.0800 
 37 H       12.8870    -0.5970    -0.4380 H     1 <1>   0.0800 
@<TRIPOS>BOND
  1   1   2  1   
  2   2   3  ar  
  3   2   4  ar  
  4   3   5  ar  
  5   3  19  1   
  6   4   6  ar  
  7   4  20  1   
  8   5   7  ar  
  9   6   7  ar  
 10   6  21  1   
 11   7   8  1   
 12   8   9  am  
 13   8  22  1   
 14   9  10  2   
 15   9  11  1   
 16  11  12  1   
 17  11  23  1   
 18  11  24  1   
 19  12  13  1   
 20  12  14  1   
 21  12  25  1   
 22  13  15  1   
 23  13  26  1   
 24  13  27  1   
 25  14  16  1   
 26  14  28  1   
 27  14  29  1   
 28  15  17  1   
 29  15  30  1   
 30  15  31  1   
 31  16  17  1   
 32  16  32  1   
 33  16  33  1   
 34  17  18  1   
 35  17  34  1   
 36  18  35  1   
 37  18  36  1   
 38  18  37  1   
@<TRIPOS>SUBSTRUCTURE
  1 ****   9 GROUP 4 **** **** 0

# MOE 2024.06 (io_trps.svl 2023.06)
