@<TRIPOS>MOLECULE
NONAME
43 44 1 0 0 
SMALL
USER_CHARGES


@<TRIPOS>ATOM
  1 CL      -0.0200     0.1600     0.7230 Cl    1 <1>  -0.1770 
  2 C        1.6620     0.0380     0.2740 C.ar  1 <1>   0.1770 
  3 C        2.4160     1.1910     0.1670 C.ar  1 <1>  -0.1500 
  4 C        2.2070    -1.2090     0.0330 C.ar  1 <1>  -0.1500 
  5 C        3.7550     1.1100    -0.1880 C.ar  1 <1>   0.1170 
  6 C        3.5410    -1.3030    -0.3270 C.ar  1 <1>  -0.1500 
  7 N        4.5100     2.2890    -0.2940 N.am  1 <1>  -0.5470 
  8 C        4.3110    -0.1530    -0.4360 C.ar  1 <1>   0.0830 
  9 C        5.6250     2.6140     0.4230 C.2   1 <1>   0.5690 
 10 O        5.6130    -0.2450    -0.8070 O.3   1 <1>  -0.3620 
 11 O        5.9950     1.9730     1.3770 O.2   1 <1>  -0.5700 
 12 C        6.4250     3.8420    -0.0140 C.3   1 <1>  -0.0190 
 13 C        6.4540    -1.0160     0.0280 C.3   1 <1>   0.1200 
 14 C        7.8080     3.4330    -0.5570 C.3   1 <1>  -0.1600 
 15 C        6.5730     4.8630     1.1300 C.3   1 <1>  -0.1600 
 16 C        7.8830    -0.5080    -0.1230 C.3   1 <1>   0.1200 
 17 C        8.6240     4.6560    -0.9990 C.3   1 <1>  -0.1600 
 18 C        7.3890     6.0870     0.6900 C.3   1 <1>  -0.1600 
 19 O        8.7430    -1.4010     0.5140 O.3   1 <1>  -0.5600 
 20 C        8.7610     5.6710     0.1440 C.3   1 <1>  -0.1600 
 21 C       10.0670    -0.9800     0.5390 C.3   1 <1>   0.0400 
 22 H        1.9640     2.1430     0.3670 H     1 <1>   0.1500 
 23 H        1.5960    -2.0890     0.1240 H     1 <1>   0.1500 
 24 H        3.9790    -2.2640    -0.5280 H     1 <1>   0.1500 
 25 H        4.2510     2.9150    -1.0540 H     1 <1>   0.3700 
 26 H        5.8890     4.3230    -0.8130 H     1 <1>   0.0800 
 27 H        6.3820    -2.0430    -0.2780 H     1 <1>   0.0800 
 28 H        6.1330    -0.8990     1.0490 H     1 <1>   0.0800 
 29 H        7.6860     2.7600    -1.3880 H     1 <1>   0.0800 
 30 H        8.3480     2.9090     0.2140 H     1 <1>   0.0800 
 31 H        7.0650     4.3920     1.9650 H     1 <1>   0.0800 
 32 H        5.6000     5.1790     1.4620 H     1 <1>   0.0800 
 33 H        7.9770     0.4580     0.3420 H     1 <1>   0.0800 
 34 H        8.1550    -0.4580    -1.1630 H     1 <1>   0.0800 
 35 H        8.1400     5.1270    -1.8380 H     1 <1>   0.0800 
 36 H        9.6020     4.3400    -1.3180 H     1 <1>   0.0800 
 37 H        7.5230     6.7500     1.5280 H     1 <1>   0.0800 
 38 H        6.8500     6.6240    -0.0710 H     1 <1>   0.0800 
 39 H        9.2890     6.5410    -0.2080 H     1 <1>   0.0800 
 40 H        9.3410     5.2340     0.9390 H     1 <1>   0.0800 
 41 H       10.6480    -1.7340     1.0400 H     1 <1>   0.0800 
 42 H       10.1340    -0.0520     1.0800 H     1 <1>   0.0800 
 43 H       10.4210    -0.8590    -0.4700 H     1 <1>   0.0800 
@<TRIPOS>BOND
  1   1   2  1   
  2   2   3  ar  
  3   2   4  ar  
  4   3   5  ar  
  5   3  22  1   
  6   4   6  ar  
  7   4  23  1   
  8   5   7  1   
  9   5   8  ar  
 10   6   8  ar  
 11   6  24  1   
 12   7   9  am  
 13   7  25  1   
 14   8  10  1   
 15   9  11  2   
 16   9  12  1   
 17  10  13  1   
 18  12  14  1   
 19  12  15  1   
 20  12  26  1   
 21  13  16  1   
 22  13  27  1   
 23  13  28  1   
 24  14  17  1   
 25  14  29  1   
 26  14  30  1   
 27  15  18  1   
 28  15  31  1   
 29  15  32  1   
 30  16  19  1   
 31  16  33  1   
 32  16  34  1   
 33  17  20  1   
 34  17  35  1   
 35  17  36  1   
 36  18  20  1   
 37  18  37  1   
 38  18  38  1   
 39  19  21  1   
 40  20  39  1   
 41  20  40  1   
 42  21  41  1   
 43  21  42  1   
 44  21  43  1   
@<TRIPOS>SUBSTRUCTURE
  1 ****   9 GROUP 4 **** **** 0

# MOE 2024.06 (io_trps.svl 2023.06)
