@<TRIPOS>MOLECULE
NONAME
35 37 1 0 0 
SMALL
USER_CHARGES


@<TRIPOS>ATOM
  1 CL      -0.9620    -3.0690    -1.7510 Cl    1 <1>  -0.1770 
  2 C       -2.3130    -2.3100    -0.9540 C.ar  1 <1>   0.1770 
  3 C       -3.4600    -3.0390    -0.7110 C.ar  1 <1>  -0.1500 
  4 C       -2.2220    -0.9850    -0.5730 C.ar  1 <1>  -0.1500 
  5 C       -4.5280    -2.4310    -0.0750 C.ar  1 <1>  -0.1500 
  6 C       -3.2970    -0.3880     0.0620 C.ar  1 <1>  -0.1500 
  7 C       -4.4780    -1.0910     0.3260 C.ar  1 <1>   0.0860 
  8 C       -5.5720    -0.4420     1.0250 C.2   1 <1>   0.5330 
  9 O       -5.2750     0.2720     1.9920 O.2   1 <1>  -0.5700 
 10 C       -6.9540    -0.6020     0.6780 C.cat 1 <1>   0.7510 
 11 N       -7.9840    -0.1630     1.4710 N.pl3 1 <1>  -0.7000 
 12 N       -7.5350    -1.1610    -0.4150 N.pl3 1 <1>  -0.8080 
 13 C       -9.1720    -0.4570     0.8760 C.2   1 <1>   0.1820 
 14 O       -6.9420    -1.5960    -1.4600 O.3   1 <1>  -0.4420 
 15 C       -8.9020    -1.0820    -0.2890 C.2   1 <1>   0.1820 
 16 C      -10.4960    -0.0600     1.5020 C.3   1 <1>   0.0080 
 17 C       -9.8320    -1.6100    -1.3680 C.3   1 <1>   0.0080 
 18 C      -11.5820    -1.1400     1.4010 C.3   1 <1>  -0.1600 
 19 C      -11.0750    -2.3310    -0.8270 C.3   1 <1>  -0.1600 
 20 C      -12.0450    -1.4420    -0.0330 C.3   1 <1>  -0.1600 
 21 H       -3.5180    -4.0670    -1.0220 H     1 <1>   0.1500 
 22 H       -1.3200    -0.4340    -0.7720 H     1 <1>   0.1500 
 23 H       -5.4250    -3.0020     0.0990 H     1 <1>   0.1500 
 24 H       -3.2240     0.6430     0.3640 H     1 <1>   0.1500 
 25 H       -7.7900     0.3350     2.3390 H     1 <1>   0.4500 
 26 H      -10.8380     0.8480     1.0370 H     1 <1>   0.0800 
 27 H      -10.3320     0.1520     2.5430 H     1 <1>   0.0800 
 28 H       -9.2840    -2.3110    -1.9730 H     1 <1>   0.0800 
 29 H      -10.1160    -0.7940    -2.0070 H     1 <1>   0.0800 
 30 H      -12.4360    -0.7970     1.9590 H     1 <1>   0.0800 
 31 H      -11.2370    -2.0450     1.8730 H     1 <1>   0.0800 
 32 H      -10.7650    -3.1680    -0.2240 H     1 <1>   0.0800 
 33 H      -11.6060    -2.7330    -1.6720 H     1 <1>   0.0800 
 34 H      -12.2390    -0.5290    -0.5690 H     1 <1>   0.0800 
 35 H      -12.9800    -1.9710     0.0350 H     1 <1>   0.0800 
@<TRIPOS>BOND
  1   1   2  1   
  2   2   3  ar  
  3   2   4  ar  
  4   3   5  ar  
  5   3  21  1   
  6   4   6  ar  
  7   4  22  1   
  8   5   7  ar  
  9   5  23  1   
 10   6   7  ar  
 11   6  24  1   
 12   7   8  1   
 13   8   9  2   
 14   8  10  1   
 15  10  11  ar  
 16  10  12  ar  
 17  11  13  1   
 18  11  25  1   
 19  12  14  1   
 20  12  15  1   
 21  13  15  2   
 22  13  16  1   
 23  15  17  1   
 24  16  18  1   
 25  16  26  1   
 26  16  27  1   
 27  17  19  1   
 28  17  28  1   
 29  17  29  1   
 30  18  20  1   
 31  18  30  1   
 32  18  31  1   
 33  19  20  1   
 34  19  32  1   
 35  19  33  1   
 36  20  34  1   
 37  20  35  1   
@<TRIPOS>SUBSTRUCTURE
  1 ****  12 GROUP 4 **** **** 0

# MOE 2024.06 (io_trps.svl 2023.06)
