@<TRIPOS>MOLECULE
NONAME
36 39 1 0 0 
SMALL
USER_CHARGES


@<TRIPOS>ATOM
  1 S        0.3310    -0.0250    -1.9870 S.3   1 <1>  -0.0800 
  2 C        1.7230     0.7660    -1.2320 C.ar  1 <1>   0.2970 
  3 C       -0.7180     1.3640    -1.6370 C.2   1 <1>  -0.0450 
  4 N        2.9060     0.1830    -1.1710 N.ar  1 <1>  -0.5670 
  5 C        1.3640     2.0210    -0.7520 C.ar  1 <1>   0.0000 
  6 C       -2.0910     1.5120    -1.9520 C.2   1 <1>   0.8660 
  7 C       -0.0180     2.3260    -0.9960 C.2   1 <1>   0.0830 
  8 C        3.8290     0.9190    -0.5740 C.ar  1 <1>   0.1660 
  9 C        2.3570     2.7660    -0.1350 C.ar  1 <1>  -0.1500 
 10 O       -2.7310     0.6480    -2.5320 O.2   1 <1>  -0.5700 
 11 N       -2.7290     2.6750    -1.5910 N.2   1 <1>  -0.6610 
 12 N       -0.7160     3.4630    -0.6630 N.pl3 1 <1>  -0.5330 
 13 C        3.6120     2.1950    -0.0500 C.ar  1 <1>  -0.1430 
 14 C        5.2020     0.2890    -0.4590 C.3   1 <1>  -0.0170 
 15 C       -2.0430     3.5770    -0.9810 C.2   1 <1>   0.4400 
 16 C        4.7490     2.9710     0.6010 C.3   1 <1>   0.2640 
 17 C        6.3110     1.3200    -0.1820 C.3   1 <1>   0.2800 
 18 O        5.8710     2.1700     0.8360 O.3   1 <1>  -0.5600 
 19 C        7.5750     0.6430     0.3900 C.3   1 <1>  -0.1600 
 20 C        6.6600     2.1520    -1.4310 C.3   1 <1>  -0.2400 
 21 C        8.2250    -0.4360    -0.4960 C.3   1 <1>  -0.2400 
 22 H        2.1520     3.7460     0.2580 H     1 <1>   0.1500 
 23 H       -0.2490     4.2290    -0.1730 H     1 <1>   0.4000 
 24 H        5.4250    -0.2430    -1.3660 H     1 <1>   0.0800 
 25 H        5.1710    -0.4300     0.3390 H     1 <1>   0.0800 
 26 H       -2.5280     4.4930    -0.6900 H     1 <1>   0.0600 
 27 H        4.4340     3.3580     1.5540 H     1 <1>   0.0800 
 28 H        5.0480     3.7970    -0.0200 H     1 <1>   0.0800 
 29 H        7.3200     0.1900     1.3320 H     1 <1>   0.0800 
 30 H        8.3090     1.4050     0.5900 H     1 <1>   0.0800 
 31 H        7.0830     1.5230    -2.1920 H     1 <1>   0.0800 
 32 H        5.7890     2.6120    -1.8590 H     1 <1>   0.0800 
 33 H        7.3800     2.9100    -1.1820 H     1 <1>   0.0800 
 34 H        7.5380    -1.2380    -0.6980 H     1 <1>   0.0800 
 35 H        9.0780    -0.8490     0.0120 H     1 <1>   0.0800 
 36 H        8.5650    -0.0220    -1.4280 H     1 <1>   0.0800 
@<TRIPOS>BOND
  1   1   2  1   
  2   1   3  1   
  3   2   4  ar  
  4   2   5  ar  
  5   3   6  1   
  6   3   7  2   
  7   4   8  ar  
  8   5   7  1   
  9   5   9  ar  
 10   6  10  2   
 11   6  11  1   
 12   7  12  1   
 13   8  13  ar  
 14   8  14  1   
 15   9  13  ar  
 16   9  22  1   
 17  11  15  2   
 18  12  15  1   
 19  12  23  1   
 20  13  16  1   
 21  14  17  1   
 22  14  24  1   
 23  14  25  1   
 24  15  26  1   
 25  16  18  1   
 26  16  27  1   
 27  16  28  1   
 28  17  18  1   
 29  17  19  1   
 30  17  20  1   
 31  19  21  1   
 32  19  29  1   
 33  19  30  1   
 34  20  31  1   
 35  20  32  1   
 36  20  33  1   
 37  21  34  1   
 38  21  35  1   
 39  21  36  1   
@<TRIPOS>SUBSTRUCTURE
  1 ****   5 GROUP 4 **** **** 0

# MOE 2024.06 (io_trps.svl 2023.06)
