@<TRIPOS>MOLECULE
NONAME
38 39 1 0 0 
SMALL
USER_CHARGES


@<TRIPOS>ATOM
  1 BR       0.7070     0.1510    -1.7980 Br    1 <1>  -0.1110 
  2 C        0.0860    -1.3570    -0.7680 C.ar  1 <1>   0.1110 
  3 C        0.6810    -1.6660     0.4480 C.ar  1 <1>   0.0830 
  4 C       -0.9630    -2.0980    -1.2770 C.ar  1 <1>  -0.1500 
  5 O        1.6920    -0.9300     0.9560 O.3   1 <1>  -0.3630 
  6 C        0.1990    -2.7470     1.1680 C.ar  1 <1>  -0.1500 
  7 C       -1.4450    -3.1780    -0.5470 C.ar  1 <1>  -0.1430 
  8 C        2.9910    -1.2760     0.5320 C.3   1 <1>   0.0400 
  9 C       -0.8540    -3.5000     0.6710 C.ar  1 <1>  -0.1500 
 10 C       -2.6140    -3.9920    -1.0720 C.3   1 <1>   0.4870 
 11 N       -3.8290    -3.6580    -0.2800 N.4   1 <1>  -0.9590 
 12 C       -4.9130    -4.6450    -0.5470 C.3   1 <1>   0.3430 
 13 C       -4.2270    -2.2350    -0.4900 C.3   1 <1>   0.3430 
 14 C       -5.8110    -4.7760     0.6820 C.3   1 <1>  -0.1600 
 15 C       -5.3270    -1.7860     0.4740 C.3   1 <1>  -0.1600 
 16 C       -6.9640    -3.7610     0.7590 C.3   1 <1>  -0.1600 
 17 C       -6.7040    -2.3800     0.1420 C.3   1 <1>  -0.1600 
 18 H       -1.3820    -1.8180    -2.2280 H     1 <1>   0.1500 
 19 H        0.6530    -2.9890     2.1130 H     1 <1>   0.1500 
 20 H        3.6880    -0.6130     1.0120 H     1 <1>   0.0800 
 21 H        3.0550    -1.1640    -0.5360 H     1 <1>   0.0800 
 22 H        3.1930    -2.2930     0.8170 H     1 <1>   0.0800 
 23 H       -1.2000    -4.3390     1.2510 H     1 <1>   0.1500 
 24 H       -2.3820    -5.0410    -0.9720 H     1 <1>   0.0800 
 25 H       -2.7760    -3.7780    -2.1160 H     1 <1>   0.0800 
 26 H       -3.5630    -3.7420     0.7080 H     1 <1>   0.4500 
 27 H       -4.4740    -5.6110    -0.7410 H     1 <1>   0.0800 
 28 H       -5.4920    -4.3590    -1.4110 H     1 <1>   0.0800 
 29 H       -4.5590    -2.0900    -1.5050 H     1 <1>   0.0800 
 30 H       -3.3690    -1.6000    -0.3300 H     1 <1>   0.0800 
 31 H       -5.2150    -4.7210     1.5770 H     1 <1>   0.0800 
 32 H       -6.2510    -5.7590     0.6700 H     1 <1>   0.0800 
 33 H       -5.4070    -0.7170     0.3750 H     1 <1>   0.0800 
 34 H       -5.0520    -1.9830     1.4950 H     1 <1>   0.0800 
 35 H       -7.2310    -3.6340     1.7960 H     1 <1>   0.0800 
 36 H       -7.8300    -4.1790     0.2720 H     1 <1>   0.0800 
 37 H       -6.8330    -2.4260    -0.9270 H     1 <1>   0.0800 
 38 H       -7.4640    -1.7120     0.5120 H     1 <1>   0.0800 
@<TRIPOS>BOND
  1   1   2  1   
  2   2   3  ar  
  3   2   4  ar  
  4   3   5  1   
  5   3   6  ar  
  6   4   7  ar  
  7   4  18  1   
  8   5   8  1   
  9   6   9  ar  
 10   6  19  1   
 11   7   9  ar  
 12   7  10  1   
 13   8  20  1   
 14   8  21  1   
 15   8  22  1   
 16   9  23  1   
 17  10  11  1   
 18  10  24  1   
 19  10  25  1   
 20  11  12  1   
 21  11  13  1   
 22  11  26  1   
 23  12  14  1   
 24  12  27  1   
 25  12  28  1   
 26  13  15  1   
 27  13  29  1   
 28  13  30  1   
 29  14  16  1   
 30  14  31  1   
 31  14  32  1   
 32  15  17  1   
 33  15  33  1   
 34  15  34  1   
 35  16  17  1   
 36  16  35  1   
 37  16  36  1   
 38  17  37  1   
 39  17  38  1   
@<TRIPOS>SUBSTRUCTURE
  1 ****   7 GROUP 4 **** **** 0

# MOE 2024.06 (io_trps.svl 2023.06)
