@<TRIPOS>MOLECULE
NONAME
41 43 1 0 0 
SMALL
USER_CHARGES


@<TRIPOS>ATOM
  1 S        0.3000    -1.5740     0.4170 S.3   1 <1>  -0.2860 
  2 C       -1.4050    -1.0330     0.2550 C.2   1 <1>   0.2420 
  3 C        1.2250     0.0380     0.5160 C.3   1 <1>   0.1310 
  4 N       -1.7490     0.2020     0.1900 N.2   1 <1>  -0.3380 
  5 N       -2.4330    -1.8790     0.1890 N.pl3 1 <1>   0.0480 
  6 C        2.7290    -0.1810     0.5490 C.2   1 <1>   0.5690 
  7 N       -3.0790     0.2000     0.0710 N.2   1 <1>  -0.3380 
  8 C       -3.4710    -1.0340     0.0710 C.2   1 <1>   0.0060 
  9 C       -2.4150    -3.3580     0.2400 C.3   1 <1>   0.0960 
 10 O        3.4160     0.6900     1.0230 O.2   1 <1>  -0.5700 
 11 N        3.2310    -1.3490     0.0390 N.am  1 <1>  -0.5470 
 12 C       -4.9200    -1.4980    -0.0440 C.3   1 <1>   0.0200 
 13 C       -2.2480    -3.9460    -1.1650 C.3   1 <1>  -0.2400 
 14 C        4.5460    -1.8250    -0.0910 C.ar  1 <1>   0.1170 
 15 C       -5.9070    -0.3490    -0.2820 C.3   1 <1>  -0.2400 
 16 C        4.7330    -3.1970    -0.2490 C.ar  1 <1>  -0.1500 
 17 C        5.6650    -0.9820    -0.0830 C.ar  1 <1>  -0.1500 
 18 C        6.0180    -3.6790    -0.3890 C.ar  1 <1>   0.0830 
 19 C        6.9520    -1.4840    -0.2240 C.ar  1 <1>  -0.1500 
 20 O        6.4130    -4.9460    -0.5500 O.3   1 <1>  -0.3630 
 21 C        7.0990    -2.8480    -0.3770 C.ar  1 <1>   0.0830 
 22 C        7.8360    -4.9210    -0.6420 C.3   1 <1>   0.4000 
 23 O        8.2270    -3.5540    -0.5290 O.3   1 <1>  -0.3630 
 24 H        0.8980     0.5380     1.4100 H     1 <1>   0.0800 
 25 H        0.9510     0.6200    -0.3450 H     1 <1>   0.0800 
 26 H       -3.3320    -3.7050     0.6790 H     1 <1>   0.0800 
 27 H       -1.6020    -3.6740     0.8690 H     1 <1>   0.0800 
 28 H        2.5100    -2.0170    -0.2340 H     1 <1>   0.3700 
 29 H       -5.1940    -2.0080     0.8620 H     1 <1>   0.0800 
 30 H       -5.0000    -2.1940    -0.8600 H     1 <1>   0.0800 
 31 H       -3.0630    -3.6450    -1.8010 H     1 <1>   0.0800 
 32 H       -2.2380    -5.0200    -1.1110 H     1 <1>   0.0800 
 33 H       -1.3200    -3.6190    -1.6000 H     1 <1>   0.0800 
 34 H       -5.8670     0.3500     0.5350 H     1 <1>   0.0800 
 35 H       -6.9100    -0.7290    -0.3630 H     1 <1>   0.0800 
 36 H       -5.6580     0.1720    -1.1900 H     1 <1>   0.0800 
 37 H        3.9050    -3.8790    -0.2610 H     1 <1>   0.1500 
 38 H        5.5350     0.0780     0.0310 H     1 <1>   0.1500 
 39 H        7.8130    -0.8410    -0.2170 H     1 <1>   0.1500 
 40 H        8.1440    -5.3060    -1.5980 H     1 <1>   0.0800 
 41 H        8.2600    -5.4850     0.1700 H     1 <1>   0.0800 
@<TRIPOS>BOND
  1   1   2  1   
  2   1   3  1   
  3   2   4  2   
  4   2   5  1   
  5   3   6  1   
  6   3  24  1   
  7   3  25  1   
  8   4   7  1   
  9   5   8  1   
 10   5   9  1   
 11   6  10  2   
 12   6  11  am  
 13   7   8  2   
 14   8  12  1   
 15   9  13  1   
 16   9  26  1   
 17   9  27  1   
 18  11  14  1   
 19  11  28  1   
 20  12  15  1   
 21  12  29  1   
 22  12  30  1   
 23  13  31  1   
 24  13  32  1   
 25  13  33  1   
 26  14  16  ar  
 27  14  17  ar  
 28  15  34  1   
 29  15  35  1   
 30  15  36  1   
 31  16  18  ar  
 32  16  37  1   
 33  17  19  ar  
 34  17  38  1   
 35  18  20  1   
 36  18  21  ar  
 37  19  21  ar  
 38  19  39  1   
 39  20  22  1   
 40  21  23  1   
 41  22  23  1   
 42  22  40  1   
 43  22  41  1   
@<TRIPOS>SUBSTRUCTURE
  1 ****  11 GROUP 4 **** **** 0

# MOE 2024.06 (io_trps.svl 2023.06)
