@<TRIPOS>MOLECULE
NONAME
52 53 1 0 0 
SMALL
USER_CHARGES


@<TRIPOS>ATOM
  1 S       -1.1460     0.3100     0.7720 S.o2  1 <1>   1.4470 
  2 O       -0.4000    -0.5460     1.6680 O.2   1 <1>  -0.6500 
  3 O       -2.2080    -0.2610    -0.0300 O.2   1 <1>  -0.6500 
  4 N       -1.8870     1.4800     1.7470 N.am  1 <1>  -0.8490 
  5 C       -0.0400     1.2780    -0.2890 C.ar  1 <1>  -0.0090 
  6 C       -3.1110     0.9410     2.4080 C.3   1 <1>   0.2570 
  7 C       -0.9620     2.0770     2.7090 C.3   1 <1>   0.1960 
  8 C        1.3080     0.9620    -0.4080 C.ar  1 <1>  -0.1500 
  9 C       -0.5180     2.3650    -1.0120 C.ar  1 <1>  -0.1500 
 10 C       -4.4270     1.3610     1.7410 C.2   1 <1>   0.5690 
 11 C       -1.4780     3.4520     3.1290 C.3   1 <1>  -0.2400 
 12 C        2.1510     1.7060    -1.2150 C.ar  1 <1>  -0.1500 
 13 C        0.3200     3.1130    -1.8210 C.ar  1 <1>  -0.1500 
 14 O       -5.3060     1.7920     2.4500 O.2   1 <1>  -0.5700 
 15 N       -4.5640     1.2170     0.3870 N.am  1 <1>  -0.5470 
 16 C        1.6610     2.7880    -1.9250 C.ar  1 <1>  -0.1430 
 17 C       -5.6610     1.5190    -0.4350 C.ar  1 <1>   0.1170 
 18 C        2.5820     3.6050    -2.8130 C.3   1 <1>  -0.0970 
 19 C       -6.2610     0.4970    -1.1790 C.ar  1 <1>  -0.1430 
 20 C       -6.1490     2.8260    -0.5500 C.ar  1 <1>  -0.1430 
 21 C       -7.3390     0.7830    -2.0000 C.ar  1 <1>  -0.1500 
 22 C       -5.7700    -0.9480    -1.1230 C.3   1 <1>  -0.0170 
 23 C       -7.2320     3.0870    -1.3720 C.ar  1 <1>  -0.1500 
 24 C       -5.5210     3.9960     0.1980 C.3   1 <1>  -0.0970 
 25 C       -7.8280     2.0720    -2.0950 C.ar  1 <1>  -0.1500 
 26 C       -4.7320    -1.2070    -2.2180 C.3   1 <1>  -0.2400 
 27 H       -3.1610     1.2780     3.4280 H     1 <1>   0.0800 
 28 H       -3.0770    -0.1340     2.4450 H     1 <1>   0.0800 
 29 H        0.0060     2.2120     2.2520 H     1 <1>   0.0800 
 30 H       -0.8350     1.4320     3.5640 H     1 <1>   0.0800 
 31 H        1.7060     0.1220     0.1380 H     1 <1>   0.1500 
 32 H       -1.5600     2.6290    -0.9410 H     1 <1>   0.1500 
 33 H       -1.6020     4.0780     2.2630 H     1 <1>   0.0800 
 34 H       -0.7640     3.9180     3.7830 H     1 <1>   0.0800 
 35 H       -2.4140     3.3800     3.6510 H     1 <1>   0.0800 
 36 H        3.1910     1.4370    -1.2890 H     1 <1>   0.1500 
 37 H       -0.0780     3.9480    -2.3710 H     1 <1>   0.1500 
 38 H       -3.8180     0.6740    -0.0650 H     1 <1>   0.3700 
 39 H        2.2580     4.6300    -2.8490 H     1 <1>   0.0800 
 40 H        2.5750     3.2040    -3.8110 H     1 <1>   0.0800 
 41 H        3.5890     3.5820    -2.4370 H     1 <1>   0.0800 
 42 H       -7.8050     0.0010    -2.5720 H     1 <1>   0.1500 
 43 H       -6.6030    -1.6150    -1.2600 H     1 <1>   0.0800 
 44 H       -5.3480    -1.1720    -0.1590 H     1 <1>   0.0800 
 45 H       -7.6200     4.0870    -1.4560 H     1 <1>   0.1500 
 46 H       -5.7580     4.9280    -0.2810 H     1 <1>   0.0800 
 47 H       -5.8960     4.0240     1.2050 H     1 <1>   0.0800 
 48 H       -4.4510     3.8980     0.2270 H     1 <1>   0.0800 
 49 H       -8.6690     2.2840    -2.7320 H     1 <1>   0.1500 
 50 H       -5.1680    -1.0480    -3.1880 H     1 <1>   0.0800 
 51 H       -4.3760    -2.2200    -2.1580 H     1 <1>   0.0800 
 52 H       -3.8960    -0.5410    -2.1060 H     1 <1>   0.0800 
@<TRIPOS>BOND
  1   1   2  2   
  2   1   3  2   
  3   1   4  am  
  4   1   5  1   
  5   4   6  1   
  6   4   7  1   
  7   5   8  ar  
  8   5   9  ar  
  9   6  10  1   
 10   6  27  1   
 11   6  28  1   
 12   7  11  1   
 13   7  29  1   
 14   7  30  1   
 15   8  12  ar  
 16   8  31  1   
 17   9  13  ar  
 18   9  32  1   
 19  10  14  2   
 20  10  15  am  
 21  11  33  1   
 22  11  34  1   
 23  11  35  1   
 24  12  16  ar  
 25  12  36  1   
 26  13  16  ar  
 27  13  37  1   
 28  15  17  1   
 29  15  38  1   
 30  16  18  1   
 31  17  19  ar  
 32  17  20  ar  
 33  18  39  1   
 34  18  40  1   
 35  18  41  1   
 36  19  21  ar  
 37  19  22  1   
 38  20  23  ar  
 39  20  24  1   
 40  21  25  ar  
 41  21  42  1   
 42  22  26  1   
 43  22  43  1   
 44  22  44  1   
 45  23  25  ar  
 46  23  45  1   
 47  24  46  1   
 48  24  47  1   
 49  24  48  1   
 50  25  49  1   
 51  26  50  1   
 52  26  51  1   
 53  26  52  1   
@<TRIPOS>SUBSTRUCTURE
  1 ****  15 GROUP 4 **** **** 0

# MOE 2024.06 (io_trps.svl 2023.06)
