@<TRIPOS>MOLECULE
NONAME
50 52 1 0 0 
SMALL
USER_CHARGES


@<TRIPOS>ATOM
  1 O        1.0500    -0.9770    -1.7670 O.3   1 <1>  -0.5600 
  2 C        1.3450    -2.2780    -1.3610 C.3   1 <1>   0.1200 
  3 C        0.8020    -0.1000    -0.7120 C.3   1 <1>   0.1200 
  4 C        2.6490    -2.2680    -0.5500 C.3   1 <1>   0.1100 
  5 C        2.0770     0.0400     0.1320 C.3   1 <1>   0.1100 
  6 N        2.5800    -1.2870     0.5590 N.3   1 <1>  -0.3020 
  7 N        3.8080    -1.2400     1.4010 N.4   1 <1>  -0.6410 
  8 C        5.0210    -0.7120     0.7140 C.3   1 <1>   0.4230 
  9 C        6.1910    -1.6800     0.9020 C.3   1 <1>  -0.1600 
 10 C        5.3850     0.6700     1.2640 C.3   1 <1>  -0.1600 
 11 C        7.4610    -1.1340     0.2450 C.3   1 <1>   0.3430 
 12 C        6.6580     1.1990     0.6000 C.3   1 <1>   0.3430 
 13 N        7.7770     0.2270     0.7790 N.4   1 <1>  -0.9590 
 14 C        9.0180     0.7900     0.1420 C.3   1 <1>   0.3430 
 15 C       10.2870     0.0480     0.5700 C.3   1 <1>  -0.0170 
 16 C       11.4750     0.7570    -0.0480 C.ar  1 <1>  -0.1440 
 17 C       12.1030     1.7900     0.6310 C.ar  1 <1>  -0.1500 
 18 C       11.9360     0.3870    -1.3030 C.ar  1 <1>  -0.1500 
 19 C       13.1740     2.4520     0.0580 C.ar  1 <1>  -0.1500 
 20 C       13.0080     1.0500    -1.8750 C.ar  1 <1>  -0.1500 
 21 C       13.6260     2.0840    -1.1960 C.ar  1 <1>  -0.1500 
 22 H        1.4520    -2.8820    -2.2450 H     1 <1>   0.0800 
 23 H        0.5220    -2.6600    -0.7810 H     1 <1>   0.0800 
 24 H       -0.0200    -0.4760    -0.1270 H     1 <1>   0.0800 
 25 H        0.5200     0.8500    -1.1330 H     1 <1>   0.0800 
 26 H        3.4550    -2.0240    -1.2180 H     1 <1>   0.0800 
 27 H        2.8190    -3.2540    -0.1530 H     1 <1>   0.0800 
 28 H        1.8590     0.6410     0.9970 H     1 <1>   0.0800 
 29 H        2.8150     0.5460    -0.4640 H     1 <1>   0.0800 
 30 H        3.9880    -2.1920     1.7540 H     1 <1>   0.4500 
 31 H        3.6040    -0.6880     2.2480 H     1 <1>   0.4500 
 32 H        4.8140    -0.6250    -0.3410 H     1 <1>   0.0800 
 33 H        5.9560    -2.6250     0.4430 H     1 <1>   0.0800 
 34 H        6.3860    -1.8500     1.9470 H     1 <1>   0.0800 
 35 H        5.5380     0.6330     2.3280 H     1 <1>   0.0800 
 36 H        4.5890     1.3650     1.0620 H     1 <1>   0.0800 
 37 H        7.3250    -1.0800    -0.8250 H     1 <1>   0.0800 
 38 H        8.2820    -1.8080     0.4400 H     1 <1>   0.0800 
 39 H        6.9240     2.1500     1.0370 H     1 <1>   0.0800 
 40 H        6.4810     1.3580    -0.4530 H     1 <1>   0.0800 
 41 H        7.9850     0.1520     1.7880 H     1 <1>   0.4500 
 42 H        9.1320     1.8240     0.4260 H     1 <1>   0.0800 
 43 H        8.9350     0.7560    -0.9330 H     1 <1>   0.0800 
 44 H       10.2760    -0.9720     0.2310 H     1 <1>   0.0800 
 45 H       10.3880     0.0580     1.6410 H     1 <1>   0.0800 
 46 H       11.7740     2.0920     1.6110 H     1 <1>   0.1500 
 47 H       11.4760    -0.4170    -1.8500 H     1 <1>   0.1500 
 48 H       13.6610     3.2540     0.5870 H     1 <1>   0.1500 
 49 H       13.3650     0.7620    -2.8490 H     1 <1>   0.1500 
 50 H       14.4600     2.5990    -1.6420 H     1 <1>   0.1500 
@<TRIPOS>BOND
  1   1   2  1   
  2   1   3  1   
  3   2   4  1   
  4   2  22  1   
  5   2  23  1   
  6   3   5  1   
  7   3  24  1   
  8   3  25  1   
  9   4   6  1   
 10   4  26  1   
 11   4  27  1   
 12   5   6  1   
 13   5  28  1   
 14   5  29  1   
 15   6   7  1   
 16   7   8  1   
 17   7  30  1   
 18   7  31  1   
 19   8   9  1   
 20   8  10  1   
 21   8  32  1   
 22   9  11  1   
 23   9  33  1   
 24   9  34  1   
 25  10  12  1   
 26  10  35  1   
 27  10  36  1   
 28  11  13  1   
 29  11  37  1   
 30  11  38  1   
 31  12  13  1   
 32  12  39  1   
 33  12  40  1   
 34  13  14  1   
 35  13  41  1   
 36  14  15  1   
 37  14  42  1   
 38  14  43  1   
 39  15  16  1   
 40  15  44  1   
 41  15  45  1   
 42  16  17  ar  
 43  16  18  ar  
 44  17  19  ar  
 45  17  46  1   
 46  18  20  ar  
 47  18  47  1   
 48  19  21  ar  
 49  19  48  1   
 50  20  21  ar  
 51  20  49  1   
 52  21  50  1   
@<TRIPOS>SUBSTRUCTURE
  1 ****  13 GROUP 4 **** **** 0

# MOE 2024.06 (io_trps.svl 2023.06)
