@<TRIPOS>MOLECULE
NONAME
50 51 1 0 0 
SMALL
USER_CHARGES


@<TRIPOS>ATOM
  1 S        1.1050     2.9430    -1.6440 S.o2  1 <1>   1.3330 
  2 O        0.8910     1.6230    -2.1800 O.2   1 <1>  -0.6500 
  3 O        2.4460     3.4640    -1.5280 O.2   1 <1>  -0.6500 
  4 N        0.4330     3.0250    -0.0520 N.am  1 <1>  -0.6930 
  5 C        0.1280     4.1180    -2.5550 C.3   1 <1>  -0.1350 
  6 C       -0.8820     2.6520     0.2340 C.ar  1 <1>   0.1990 
  7 C        1.3240     3.4550     1.0750 C.3   1 <1>   0.2570 
  8 C       -1.8740     3.6340     0.3760 C.ar  1 <1>  -0.1440 
  9 C       -1.2330     1.3040     0.3920 C.ar  1 <1>  -0.1440 
 10 C        2.3080     2.3890     1.5680 C.2   1 <1>   0.5690 
 11 C       -3.1800     3.2620     0.6460 C.ar  1 <1>  -0.1500 
 12 C       -1.6050     5.1310     0.2450 C.3   1 <1>  -0.0970 
 13 C       -2.5460     0.9600     0.6620 C.ar  1 <1>  -0.1500 
 14 C       -0.2330     0.1570     0.2820 C.3   1 <1>  -0.0960 
 15 O        2.1280     1.9240     2.6690 O.2   1 <1>  -0.5700 
 16 N        3.3480     2.0170     0.7590 N.am  1 <1>  -0.5470 
 17 C       -3.5190     1.9310     0.7880 C.ar  1 <1>  -0.1500 
 18 C        4.3750     1.0660     0.9220 C.ar  1 <1>   0.1170 
 19 C        5.0350     0.5860    -0.2120 C.ar  1 <1>   0.0820 
 20 C        4.7780     0.5850     2.1640 C.ar  1 <1>  -0.1500 
 21 O        4.6770     1.0270    -1.4420 O.3   1 <1>  -0.3630 
 22 C        6.0630    -0.3340    -0.1040 C.ar  1 <1>  -0.1500 
 23 C        5.8020    -0.3420     2.2800 C.ar  1 <1>  -0.1440 
 24 C        3.7500     0.2160    -2.1270 C.3   1 <1>   0.0400 
 25 C        6.4450    -0.8000     1.1410 C.ar  1 <1>  -0.1500 
 26 C        6.2210    -0.8560     3.6450 C.3   1 <1>  -0.0970 
 27 H        0.4630     4.1620    -3.5720 H     1 <1>   0.0800 
 28 H        0.2180     5.0930    -2.1210 H     1 <1>   0.0800 
 29 H       -0.9040     3.8230    -2.5470 H     1 <1>   0.0800 
 30 H        0.7070     3.7350     1.9100 H     1 <1>   0.0800 
 31 H        1.8800     4.3260     0.7810 H     1 <1>   0.0800 
 32 H       -3.9480     4.0090     0.7500 H     1 <1>   0.1500 
 33 H       -0.5710     5.3760     0.3960 H     1 <1>   0.0800 
 34 H       -2.1760     5.6710     0.9780 H     1 <1>   0.0800 
 35 H       -1.9020     5.4680    -0.7310 H     1 <1>   0.0800 
 36 H       -2.8200    -0.0740     0.7780 H     1 <1>   0.1500 
 37 H       -0.2770    -0.2680    -0.7040 H     1 <1>   0.0800 
 38 H       -0.4650    -0.6110     0.9980 H     1 <1>   0.0800 
 39 H        0.7730     0.4770     0.4680 H     1 <1>   0.0800 
 40 H        3.3510     2.4370    -0.1840 H     1 <1>   0.3700 
 41 H       -4.5370     1.6510     0.9980 H     1 <1>   0.1500 
 42 H        4.2910     0.9400     3.0520 H     1 <1>   0.1500 
 43 H        6.5610    -0.6780    -0.9920 H     1 <1>   0.1500 
 44 H        3.4540     0.7260    -3.0250 H     1 <1>   0.0800 
 45 H        2.8910     0.0560    -1.4980 H     1 <1>   0.0800 
 46 H        4.2170    -0.7220    -2.3670 H     1 <1>   0.0800 
 47 H        7.2420    -1.5180     1.2200 H     1 <1>   0.1500 
 48 H        5.8840    -0.1930     4.4210 H     1 <1>   0.0800 
 49 H        7.2920    -0.9290     3.7030 H     1 <1>   0.0800 
 50 H        5.7940    -1.8290     3.8130 H     1 <1>   0.0800 
@<TRIPOS>BOND
  1   1   2  2   
  2   1   3  2   
  3   1   4  am  
  4   1   5  1   
  5   4   6  1   
  6   4   7  1   
  7   5  27  1   
  8   5  28  1   
  9   5  29  1   
 10   6   8  ar  
 11   6   9  ar  
 12   7  10  1   
 13   7  30  1   
 14   7  31  1   
 15   8  11  ar  
 16   8  12  1   
 17   9  13  ar  
 18   9  14  1   
 19  10  15  2   
 20  10  16  am  
 21  11  17  ar  
 22  11  32  1   
 23  12  33  1   
 24  12  34  1   
 25  12  35  1   
 26  13  17  ar  
 27  13  36  1   
 28  14  37  1   
 29  14  38  1   
 30  14  39  1   
 31  16  18  1   
 32  16  40  1   
 33  17  41  1   
 34  18  19  ar  
 35  18  20  ar  
 36  19  21  1   
 37  19  22  ar  
 38  20  23  ar  
 39  20  42  1   
 40  21  24  1   
 41  22  25  ar  
 42  22  43  1   
 43  23  25  ar  
 44  23  26  1   
 45  24  44  1   
 46  24  45  1   
 47  24  46  1   
 48  25  47  1   
 49  26  48  1   
 50  26  49  1   
 51  26  50  1   
@<TRIPOS>SUBSTRUCTURE
  1 ****  10 GROUP 4 **** **** 0

# MOE 2024.06 (io_trps.svl 2023.06)
