@<TRIPOS>MOLECULE
NONAME
41 42 1 0 0 
SMALL
USER_CHARGES


@<TRIPOS>ATOM
  1 O        0.2440     1.8630    -2.3910 O.2   1 <1>  -0.5700 
  2 C        1.3250     1.9440    -1.8550 C.2   1 <1>   0.6900 
  3 N        1.6690     1.0790    -0.8710 N.am  1 <1>  -0.5390 
  4 N        2.1970     2.9020    -2.2020 N.am  1 <1>  -0.7300 
  5 C        2.8490     1.1370    -0.1580 C.2   1 <1>  -0.0290 
  6 C        3.4340     3.1920    -1.4540 C.3   1 <1>   0.5020 
  7 C        3.7470     2.1370    -0.3860 C.2   1 <1>  -0.1240 
  8 C        3.0000     0.0020     0.8450 C.3   1 <1>  -0.1020 
  9 C        3.2680     4.5740    -0.8260 C.ar  1 <1>  -0.1440 
 10 C        4.9970     2.3680     0.2750 C.2   1 <1>   0.7060 
 11 C        4.1260     5.6070    -1.1750 C.ar  1 <1>  -0.1500 
 12 C        2.2660     4.8120     0.1030 C.ar  1 <1>  -0.1500 
 13 O        5.2630     1.9580     1.3880 O.2   1 <1>  -0.5700 
 14 O        5.9280     3.0840    -0.3690 O.3   1 <1>  -0.4300 
 15 C        4.0080     6.8700    -0.6180 C.ar  1 <1>   0.0830 
 16 C        2.1200     6.0700     0.6770 C.ar  1 <1>   0.0830 
 17 C        7.1570     3.4320     0.2410 C.3   1 <1>   0.0400 
 18 O        4.9340     7.7670    -1.0690 O.3   1 <1>  -0.3630 
 19 C        2.9900     7.0990     0.3200 C.ar  1 <1>   0.0830 
 20 O        1.1480     6.3610     1.5950 O.3   1 <1>  -0.3620 
 21 C        4.9760     9.1080    -0.6370 C.3   1 <1>   0.0400 
 22 O        2.7760     8.2870     0.9310 O.3   1 <1>  -0.5330 
 23 C        0.2080     5.3870     1.9940 C.3   1 <1>   0.0400 
 24 H        0.9710     0.3560    -0.6980 H     1 <1>   0.3700 
 25 H        1.8550     3.6360    -2.8190 H     1 <1>   0.3700 
 26 H        4.2400     3.2140    -2.1680 H     1 <1>   0.0800 
 27 H        2.3730     0.1830     1.6980 H     1 <1>   0.0800 
 28 H        4.0120    -0.1110     1.1830 H     1 <1>   0.0800 
 29 H        2.7100    -0.9300     0.3940 H     1 <1>   0.0800 
 30 H        4.9120     5.4440    -1.8900 H     1 <1>   0.1500 
 31 H        1.6080     4.0040     0.3650 H     1 <1>   0.1500 
 32 H        7.7330     4.0130    -0.4570 H     1 <1>   0.0800 
 33 H        7.6850     2.5320     0.5010 H     1 <1>   0.0800 
 34 H        6.9530     4.0130     1.1240 H     1 <1>   0.0800 
 35 H        5.7850     9.6000    -1.1440 H     1 <1>   0.0800 
 36 H        5.1440     9.1270     0.4250 H     1 <1>   0.0800 
 37 H        4.0430     9.5830    -0.8860 H     1 <1>   0.0800 
 38 H        2.0140     8.1870     1.5380 H     1 <1>   0.4500 
 39 H       -0.4610     5.8370     2.7050 H     1 <1>   0.0800 
 40 H        0.7290     4.5650     2.4540 H     1 <1>   0.0800 
 41 H       -0.3450     5.0580     1.1310 H     1 <1>   0.0800 
@<TRIPOS>BOND
  1   1   2  2   
  2   2   3  am  
  3   2   4  am  
  4   3   5  1   
  5   3  24  1   
  6   4   6  1   
  7   4  25  1   
  8   5   7  2   
  9   5   8  1   
 10   6   7  1   
 11   6   9  1   
 12   6  26  1   
 13   7  10  1   
 14   8  27  1   
 15   8  28  1   
 16   8  29  1   
 17   9  11  ar  
 18   9  12  ar  
 19  10  13  2   
 20  10  14  1   
 21  11  15  ar  
 22  11  30  1   
 23  12  16  ar  
 24  12  31  1   
 25  14  17  1   
 26  15  18  1   
 27  15  19  ar  
 28  16  19  ar  
 29  16  20  1   
 30  17  32  1   
 31  17  33  1   
 32  17  34  1   
 33  18  21  1   
 34  19  22  1   
 35  20  23  1   
 36  21  35  1   
 37  21  36  1   
 38  21  37  1   
 39  22  38  1   
 40  23  39  1   
 41  23  40  1   
 42  23  41  1   
@<TRIPOS>SUBSTRUCTURE
  1 ****   9 GROUP 4 **** **** 0

# MOE 2024.06 (io_trps.svl 2023.06)
