@<TRIPOS>MOLECULE
NONAME
40 42 1 0 0 
SMALL
USER_CHARGES


@<TRIPOS>ATOM
  1 F       -0.8830    -0.5890     0.9090 F     1 <1>  -0.1900 
  2 C       -2.1600    -0.4100     0.7010 C.ar  1 <1>   0.1900 
  3 C       -2.9960    -1.5100     0.6850 C.ar  1 <1>  -0.1500 
  4 C       -2.6310     0.8740     0.5030 C.ar  1 <1>  -0.1500 
  5 C       -4.3480    -1.3120     0.4640 C.ar  1 <1>  -0.1500 
  6 C       -3.9860     1.0560     0.2820 C.ar  1 <1>  -0.1500 
  7 C       -4.8610    -0.0310     0.2590 C.ar  1 <1>   0.1170 
  8 N       -6.2440     0.1570     0.0320 N.am  1 <1>  -0.2370 
  9 C       -7.0030    -0.5710    -0.8430 C.2   1 <1>   0.5690 
 10 C       -7.0270     1.1110     0.6230 C.2   1 <1>   0.5690 
 11 O       -6.5730    -1.3550    -1.6570 O.2   1 <1>  -0.5700 
 12 C       -8.4930    -0.2060    -0.7320 C.3   1 <1>   0.2510 
 13 O       -6.6660     1.9370     1.4210 O.2   1 <1>  -0.5700 
 14 C       -8.4490     1.0630     0.1300 C.3   1 <1>  -0.0990 
 15 N       -9.3950    -1.2010    -0.0690 N.3   1 <1>  -0.8100 
 16 C      -10.8110    -0.8380    -0.2880 C.3   1 <1>   0.1100 
 17 C       -9.1030    -2.5940    -0.4730 C.3   1 <1>   0.1100 
 18 C      -11.6730    -1.3370     0.8740 C.3   1 <1>  -0.1600 
 19 C       -9.8780    -3.6440     0.3340 C.3   1 <1>  -0.1600 
 20 C      -12.2640    -2.7420     0.6770 C.3   1 <1>  -0.1600 
 21 C      -11.3610    -3.7470    -0.0500 C.3   1 <1>  -0.1600 
 22 H       -2.5930    -2.4950     0.8410 H     1 <1>   0.1500 
 23 H       -1.9520     1.7070     0.5240 H     1 <1>   0.1500 
 24 H       -5.0100    -2.1600     0.4450 H     1 <1>   0.1500 
 25 H       -4.3650     2.0510     0.1310 H     1 <1>   0.1500 
 26 H       -8.8600     0.0130    -1.7200 H     1 <1>   0.0800 
 27 H       -8.6450     1.9370    -0.4620 H     1 <1>   0.0800 
 28 H       -9.1200     1.0260     0.9700 H     1 <1>   0.0800 
 29 H      -11.1670    -1.2200    -1.2310 H     1 <1>   0.0800 
 30 H      -10.9120     0.2330    -0.3180 H     1 <1>   0.0800 
 31 H       -8.0620    -2.8010    -0.2980 H     1 <1>   0.0800 
 32 H       -9.2880    -2.7210    -1.5270 H     1 <1>   0.0800 
 33 H      -12.4920    -0.6540     1.0110 H     1 <1>   0.0800 
 34 H      -11.0880    -1.3090     1.7770 H     1 <1>   0.0800 
 35 H       -9.7610    -3.4650     1.3880 H     1 <1>   0.0800 
 36 H       -9.4240    -4.5960     0.1240 H     1 <1>   0.0800 
 37 H      -13.1850    -2.6610     0.1250 H     1 <1>   0.0800 
 38 H      -12.5130    -3.1360     1.6480 H     1 <1>   0.0800 
 39 H      -11.7130    -4.7370     0.1820 H     1 <1>   0.0800 
 40 H      -11.4610    -3.6220    -1.1150 H     1 <1>   0.0800 
@<TRIPOS>BOND
  1   1   2  1   
  2   2   3  ar  
  3   2   4  ar  
  4   3   5  ar  
  5   3  22  1   
  6   4   6  ar  
  7   4  23  1   
  8   5   7  ar  
  9   5  24  1   
 10   6   7  ar  
 11   6  25  1   
 12   7   8  1   
 13   8   9  am  
 14   8  10  am  
 15   9  11  2   
 16   9  12  1   
 17  10  13  2   
 18  10  14  1   
 19  12  14  1   
 20  12  15  1   
 21  12  26  1   
 22  14  27  1   
 23  14  28  1   
 24  15  16  1   
 25  15  17  1   
 26  16  18  1   
 27  16  29  1   
 28  16  30  1   
 29  17  19  1   
 30  17  31  1   
 31  17  32  1   
 32  18  20  1   
 33  18  33  1   
 34  18  34  1   
 35  19  21  1   
 36  19  35  1   
 37  19  36  1   
 38  20  21  1   
 39  20  37  1   
 40  20  38  1   
 41  21  39  1   
 42  21  40  1   
@<TRIPOS>SUBSTRUCTURE
  1 ****   9 GROUP 4 **** **** 0

# MOE 2024.06 (io_trps.svl 2023.06)
