@<TRIPOS>MOLECULE
NONAME
37 37 1 0 0 
SMALL
USER_CHARGES


@<TRIPOS>ATOM
  1 O        0.0340     0.8330     1.4260 O.2   1 <1>  -0.5700 
  2 C        0.1470     1.6420     0.5370 C.2   1 <1>   0.5690 
  3 N        1.3230     1.8870    -0.1190 N.am  1 <1>  -0.5470 
  4 C       -1.0770     2.4640     0.1210 C.3   1 <1>  -0.0190 
  5 C        2.6010     1.3170     0.0020 C.ar  1 <1>   0.1170 
  6 C       -1.4830     3.4270     1.2640 C.3   1 <1>  -0.1600 
  7 C       -2.2160     1.5120    -0.3160 C.3   1 <1>  -0.1600 
  8 C        3.7180     2.0320    -0.4370 C.ar  1 <1>  -0.1430 
  9 C        2.7930     0.0440     0.5290 C.ar  1 <1>  -0.1500 
 10 C       -1.9680     4.7990     0.7720 C.3   1 <1>  -0.2400 
 11 C       -3.4530     2.2110    -0.8940 C.3   1 <1>  -0.2400 
 12 C        4.9820     1.4700    -0.3380 C.ar  1 <1>  -0.1500 
 13 C        3.5830     3.4330    -1.0230 C.3   1 <1>  -0.0970 
 14 C        4.0560    -0.5070     0.6260 C.ar  1 <1>  -0.1500 
 15 C        5.1610     0.2040     0.1930 C.ar  1 <1>  -0.1430 
 16 C        6.5510    -0.3970     0.2950 C.3   1 <1>  -0.0970 
 17 H        1.2870     2.6550    -0.7830 H     1 <1>   0.3700 
 18 H       -0.7940     3.0510    -0.7340 H     1 <1>   0.0800 
 19 H       -0.6290     3.5980     1.8990 H     1 <1>   0.0800 
 20 H       -2.2370     2.9650     1.8790 H     1 <1>   0.0800 
 21 H       -2.5150     0.9060     0.5220 H     1 <1>   0.0800 
 22 H       -1.8270     0.8430    -1.0650 H     1 <1>   0.0800 
 23 H        1.9500    -0.5310     0.8670 H     1 <1>   0.1500 
 24 H       -1.1940     5.2940     0.2140 H     1 <1>   0.0800 
 25 H       -2.2230     5.4160     1.6150 H     1 <1>   0.0800 
 26 H       -2.8380     4.7110     0.1480 H     1 <1>   0.0800 
 27 H       -3.9760     2.7520    -0.1260 H     1 <1>   0.0800 
 28 H       -4.1280     1.4770    -1.2970 H     1 <1>   0.0800 
 29 H       -3.1760     2.8890    -1.6820 H     1 <1>   0.0800 
 30 H        5.8420     2.0200    -0.6760 H     1 <1>   0.1500 
 31 H        3.0780     4.0770    -0.3260 H     1 <1>   0.0800 
 32 H        3.0290     3.3960    -1.9440 H     1 <1>   0.0800 
 33 H        4.5490     3.8580    -1.2290 H     1 <1>   0.0800 
 34 H        4.1720    -1.4930     1.0390 H     1 <1>   0.1500 
 35 H        7.2770     0.3710     0.4940 H     1 <1>   0.0800 
 36 H        6.8040    -0.8850    -0.6290 H     1 <1>   0.0800 
 37 H        6.5930    -1.1170     1.0910 H     1 <1>   0.0800 
@<TRIPOS>BOND
  1   1   2  2   
  2   2   3  am  
  3   2   4  1   
  4   3   5  1   
  5   3  17  1   
  6   4   6  1   
  7   4   7  1   
  8   4  18  1   
  9   5   8  ar  
 10   5   9  ar  
 11   6  10  1   
 12   6  19  1   
 13   6  20  1   
 14   7  11  1   
 15   7  21  1   
 16   7  22  1   
 17   8  12  ar  
 18   8  13  1   
 19   9  14  ar  
 20   9  23  1   
 21  10  24  1   
 22  10  25  1   
 23  10  26  1   
 24  11  27  1   
 25  11  28  1   
 26  11  29  1   
 27  12  15  ar  
 28  12  30  1   
 29  13  31  1   
 30  13  32  1   
 31  13  33  1   
 32  14  15  ar  
 33  14  34  1   
 34  15  16  1   
 35  16  35  1   
 36  16  36  1   
 37  16  37  1   
@<TRIPOS>SUBSTRUCTURE
  1 ****   3 GROUP 4 **** **** 0

# MOE 2024.06 (io_trps.svl 2023.06)
