@<TRIPOS>MOLECULE
NONAME
40 42 1 0 0 
SMALL
USER_CHARGES


@<TRIPOS>ATOM
  1 F        1.5510     2.7100     2.2200 F     1 <1>  -0.3400 
  2 C        1.8110     1.6580     1.4550 C.3   1 <1>   1.1640 
  3 F        2.0700     0.6510     2.2820 F     1 <1>  -0.3400 
  4 F        0.6720     1.3520     0.8450 F     1 <1>  -0.3400 
  5 C        2.9480     1.9360     0.4600 C.ar  1 <1>  -0.1440 
  6 C        4.1960     1.3360     0.5890 C.ar  1 <1>  -0.1500 
  7 C        2.7410     2.8120    -0.6010 C.ar  1 <1>  -0.1500 
  8 C        5.2200     1.5910    -0.3120 C.ar  1 <1>   0.1000 
  9 C        3.7540     3.0760    -1.5070 C.ar  1 <1>  -0.1500 
 10 N        6.4500     0.9670    -0.1460 N.pl3 1 <1>  -0.8380 
 11 C        4.9860     2.4690    -1.3630 C.ar  1 <1>  -0.1500 
 12 C        7.5980     1.8480     0.2220 C.3   1 <1>   0.2090 
 13 C        6.7880    -0.0950    -1.1380 C.3   1 <1>   0.2090 
 14 C        8.8000     1.0070     0.7020 C.3   1 <1>   0.3430 
 15 C        7.9920    -0.9320    -0.6540 C.3   1 <1>   0.3430 
 16 N        9.1770    -0.0790    -0.2790 N.4   1 <1>  -0.9590 
 17 C       10.3280    -0.8820     0.2110 C.3   1 <1>   0.5230 
 18 C       11.5470     0.0180     0.2400 C.2   1 <1>  -0.0400 
 19 O       11.8230     0.7270    -0.8400 O.3   1 <1>  -0.2800 
 20 C       12.4530     0.2640     1.2120 C.2   1 <1>  -0.1500 
 21 C       12.9090     1.4310    -0.5870 C.2   1 <1>  -0.0100 
 22 C       13.3480     1.1930     0.6670 C.2   1 <1>  -0.1500 
 23 H        4.3990     0.6550     1.3970 H     1 <1>   0.1500 
 24 H        1.7850     3.2950    -0.7280 H     1 <1>   0.1500 
 25 H        3.5790     3.7560    -2.3240 H     1 <1>   0.1500 
 26 H        5.7670     2.6770    -2.0690 H     1 <1>   0.1500 
 27 H        7.2920     2.5170     1.0090 H     1 <1>   0.0800 
 28 H        7.8850     2.4450    -0.6260 H     1 <1>   0.0800 
 29 H        7.0120     0.3550    -2.0890 H     1 <1>   0.0800 
 30 H        5.9340    -0.7390    -1.2700 H     1 <1>   0.0800 
 31 H        8.5370     0.5630     1.6470 H     1 <1>   0.0800 
 32 H        9.6400     1.6610     0.8660 H     1 <1>   0.0800 
 33 H        8.2680    -1.6280    -1.4300 H     1 <1>   0.0800 
 34 H        7.6730    -1.5020     0.2030 H     1 <1>   0.0800 
 35 H        9.5320     0.3960    -1.1220 H     1 <1>   0.4500 
 36 H       10.5190    -1.7010    -0.4630 H     1 <1>   0.0800 
 37 H       10.1300    -1.2780     1.1940 H     1 <1>   0.0800 
 38 H       12.5240    -0.1400     2.2090 H     1 <1>   0.1500 
 39 H       13.3080     2.0770    -1.3520 H     1 <1>   0.1500 
 40 H       14.2060     1.6090     1.1690 H     1 <1>   0.1500 
@<TRIPOS>BOND
  1   1   2  1   
  2   2   3  1   
  3   2   4  1   
  4   2   5  1   
  5   5   6  ar  
  6   5   7  ar  
  7   6   8  ar  
  8   6  23  1   
  9   7   9  ar  
 10   7  24  1   
 11   8  10  1   
 12   8  11  ar  
 13   9  11  ar  
 14   9  25  1   
 15  10  12  1   
 16  10  13  1   
 17  11  26  1   
 18  12  14  1   
 19  12  27  1   
 20  12  28  1   
 21  13  15  1   
 22  13  29  1   
 23  13  30  1   
 24  14  16  1   
 25  14  31  1   
 26  14  32  1   
 27  15  16  1   
 28  15  33  1   
 29  15  34  1   
 30  16  17  1   
 31  16  35  1   
 32  17  18  1   
 33  17  36  1   
 34  17  37  1   
 35  18  19  1   
 36  18  20  2   
 37  19  21  1   
 38  20  22  1   
 39  20  38  1   
 40  21  22  2   
 41  21  39  1   
 42  22  40  1   
@<TRIPOS>SUBSTRUCTURE
  1 ****  10 GROUP 4 **** **** 0

# MOE 2024.06 (io_trps.svl 2023.06)
