@<TRIPOS>MOLECULE
NONAME
35 35 1 0 0 
SMALL
USER_CHARGES


@<TRIPOS>ATOM
  1 F        0.0370     1.7990     2.1210 F     1 <1>  -0.3400 
  2 C        1.0310     1.4060     1.3280 C.3   1 <1>   1.0200 
  3 F        2.0770     1.2580     2.1340 F     1 <1>  -0.3400 
  4 F        0.7100     0.1640     0.9660 F     1 <1>  -0.3400 
  5 C        1.2720     2.3270     0.0610 C.3   1 <1>   0.6690 
  6 N        2.4320     1.8640    -0.8100 N.pl3 1 <1>  -0.8690 
  7 N        0.2590     2.2010    -1.0480 N.am  1 <1>  -0.7300 
  8 C        1.2890     3.8090     0.6390 C.3   1 <1>   1.0200 
  9 C        3.7510     1.8920    -0.4380 C.ar  1 <1>   0.4100 
 10 C       -1.0690     1.9740    -1.1770 C.2   1 <1>   0.5690 
 11 F        1.9140     3.9950     1.8000 F     1 <1>  -0.3400 
 12 F        0.0560     4.2660     0.8540 F     1 <1>  -0.3400 
 13 F        1.8200     4.6900    -0.2080 F     1 <1>  -0.3400 
 14 N        4.0750     2.7040     0.5450 N.ar  1 <1>  -0.6200 
 15 C        4.6670     1.0790    -1.1010 C.ar  1 <1>  -0.1500 
 16 O       -1.5060     1.9340    -2.2960 O.2   1 <1>  -0.5700 
 17 C       -2.0200     1.7730     0.0000 C.3   1 <1>  -0.0990 
 18 C        5.3520     2.7110     0.8930 C.ar  1 <1>   0.1600 
 19 C        5.9940     1.0890    -0.7340 C.ar  1 <1>  -0.1430 
 20 C       -3.5100     1.7380    -0.3840 C.3   1 <1>  -0.2400 
 21 C        6.3340     1.9380     0.3000 C.ar  1 <1>  -0.1500 
 22 C        7.0370     0.2240    -1.4180 C.3   1 <1>  -0.0970 
 23 H        2.1730     1.0160    -1.3160 H     1 <1>   0.4000 
 24 H        0.7070     2.4320    -1.9370 H     1 <1>   0.3700 
 25 H        4.3290     0.4500    -1.9000 H     1 <1>   0.1500 
 26 H       -1.8860     2.5750     0.6990 H     1 <1>   0.0800 
 27 H       -1.7810     0.8440     0.4820 H     1 <1>   0.0800 
 28 H        5.6310     3.3700     1.6970 H     1 <1>   0.1500 
 29 H       -3.7920     2.6580    -0.8660 H     1 <1>   0.0800 
 30 H       -4.1190     1.6060     0.4930 H     1 <1>   0.0800 
 31 H       -3.7020     0.9250    -1.0630 H     1 <1>   0.0800 
 32 H        7.3500     2.0030     0.6450 H     1 <1>   0.1500 
 33 H        6.5940    -0.3640    -2.2010 H     1 <1>   0.0800 
 34 H        7.4880    -0.4410    -0.7030 H     1 <1>   0.0800 
 35 H        7.8040     0.8450    -1.8470 H     1 <1>   0.0800 
@<TRIPOS>BOND
  1   1   2  1   
  2   2   3  1   
  3   2   4  1   
  4   2   5  1   
  5   5   6  1   
  6   5   7  1   
  7   5   8  1   
  8   6   9  1   
  9   6  23  1   
 10   7  10  am  
 11   7  24  1   
 12   8  11  1   
 13   8  12  1   
 14   8  13  1   
 15   9  14  ar  
 16   9  15  ar  
 17  10  16  2   
 18  10  17  1   
 19  14  18  ar  
 20  15  19  ar  
 21  15  25  1   
 22  17  20  1   
 23  17  26  1   
 24  17  27  1   
 25  18  21  ar  
 26  18  28  1   
 27  19  21  ar  
 28  19  22  1   
 29  20  29  1   
 30  20  30  1   
 31  20  31  1   
 32  21  32  1   
 33  22  33  1   
 34  22  34  1   
 35  22  35  1   
@<TRIPOS>SUBSTRUCTURE
  1 ****   5 GROUP 4 **** **** 0

# MOE 2024.06 (io_trps.svl 2023.06)
