@<TRIPOS>MOLECULE
NONAME
40 41 1 0 0 
SMALL
USER_CHARGES


@<TRIPOS>ATOM
  1 P        0.2030     0.1800     0.1220 P.3   1 <1>   0.9000 
  2 O       -0.4160     0.5760     1.4310 O.co2 1 <1>  -0.9500 
  3 O       -0.7590     0.0000    -1.0100 O.co2 1 <1>  -0.9500 
  4 C        1.3470    -1.1750     0.2890 C.3   1 <1>  -0.1860 
  5 C        1.1720     1.6650    -0.2570 C.3   1 <1>   0.3430 
  6 C        2.6900    -0.5960    -0.0350 C.2   1 <1>   0.9060 
  7 C        0.9890    -2.3890    -0.5870 C.3   1 <1>  -0.0170 
  8 N        0.3360     2.8350     0.1530 N.4   1 <1>  -0.9590 
  9 O        3.0160    -0.4080    -1.2130 O.co2 1 <1>  -0.9000 
 10 O        3.3670    -0.1140     0.8790 O.co2 1 <1>  -0.9000 
 11 C        1.8310    -3.6170    -0.2610 C.ar  1 <1>  -0.1440 
 12 C       -0.7480     3.0820    -0.8400 C.3   1 <1>   0.3430 
 13 C        1.0930     4.0400     0.5580 C.3   1 <1>   0.3430 
 14 C        3.0950    -3.7630    -0.8070 C.ar  1 <1>  -0.1500 
 15 C        1.3390    -4.6010     0.5830 C.ar  1 <1>  -0.1500 
 16 C       -1.6090     4.2810    -0.4040 C.3   1 <1>   0.1200 
 17 C        0.1230     5.1800     0.9240 C.3   1 <1>   0.1200 
 18 C        3.8590    -4.8810    -0.5190 C.ar  1 <1>  -0.1500 
 19 C        2.0990    -5.7220     0.8720 C.ar  1 <1>  -0.1500 
 20 O       -0.8090     5.3980    -0.1040 O.3   1 <1>  -0.5600 
 21 C        3.3610    -5.8630     0.3200 C.ar  1 <1>  -0.1500 
 22 H        1.3860    -1.4970     1.3100 H     1 <1>   0.0800 
 23 H        1.4570     1.7270    -1.2920 H     1 <1>   0.0800 
 24 H        2.0700     1.6890     0.3350 H     1 <1>   0.0800 
 25 H        1.1040    -2.1300    -1.6260 H     1 <1>   0.0800 
 26 H       -0.0510    -2.6220    -0.4390 H     1 <1>   0.0800 
 27 H       -0.1440     2.3820     0.9740 H     1 <1>   0.4500 
 28 H       -1.3680     2.2030    -0.9300 H     1 <1>   0.0800 
 29 H       -0.3190     3.2840    -1.8060 H     1 <1>   0.0800 
 30 H        1.7220     4.3610    -0.2550 H     1 <1>   0.0800 
 31 H        1.7240     3.8060     1.4000 H     1 <1>   0.0800 
 32 H        3.4870    -2.9940    -1.4530 H     1 <1>   0.1500 
 33 H        0.3610    -4.4900     1.0170 H     1 <1>   0.1500 
 34 H       -2.1890     4.0250     0.4660 H     1 <1>   0.0800 
 35 H       -2.2820     4.5560    -1.1960 H     1 <1>   0.0800 
 36 H        0.6680     6.0940     1.0730 H     1 <1>   0.0800 
 37 H       -0.4110     4.9440     1.8280 H     1 <1>   0.0800 
 38 H        4.8410    -4.9760    -0.9470 H     1 <1>   0.1500 
 39 H        1.7090    -6.4790     1.5270 H     1 <1>   0.1500 
 40 H        3.9550    -6.7300     0.5440 H     1 <1>   0.1500 
@<TRIPOS>BOND
  1   1   2  ar  
  2   1   3  ar  
  3   1   4  1   
  4   1   5  1   
  5   4   6  1   
  6   4   7  1   
  7   4  22  1   
  8   5   8  1   
  9   5  23  1   
 10   5  24  1   
 11   6   9  ar  
 12   6  10  ar  
 13   7  11  1   
 14   7  25  1   
 15   7  26  1   
 16   8  12  1   
 17   8  13  1   
 18   8  27  1   
 19  11  14  ar  
 20  11  15  ar  
 21  12  16  1   
 22  12  28  1   
 23  12  29  1   
 24  13  17  1   
 25  13  30  1   
 26  13  31  1   
 27  14  18  ar  
 28  14  32  1   
 29  15  19  ar  
 30  15  33  1   
 31  16  20  1   
 32  16  34  1   
 33  16  35  1   
 34  17  20  1   
 35  17  36  1   
 36  17  37  1   
 37  18  21  ar  
 38  18  38  1   
 39  19  21  ar  
 40  19  39  1   
 41  21  40  1   
@<TRIPOS>SUBSTRUCTURE
  1 ****   4 GROUP 4 **** **** 0

# MOE 2024.06 (io_trps.svl 2023.06)
