@<TRIPOS>MOLECULE
NONAME
58 61 1 0 0 
SMALL
USER_CHARGES


@<TRIPOS>ATOM
  1 O        0.6120     0.2270     0.3120 O.2   1 <1>  -0.5700 
  2 C        1.5660     0.8530    -0.1060 C.2   1 <1>   0.6900 
  3 N        1.4590     2.2090    -0.3240 N.am  1 <1>  -0.4200 
  4 N        2.7680     0.2210    -0.3660 N.am  1 <1>  -0.4200 
  5 C        2.5800     2.9020    -0.7370 C.2   1 <1>   0.6160 
  6 C        0.1270     2.8790    -0.1500 C.3   1 <1>   0.2200 
  7 C        3.9330     0.9740    -0.4320 C.2   1 <1>   0.6160 
  8 C        2.8460    -1.2720    -0.5470 C.3   1 <1>   0.2200 
  9 O        2.4460     3.8950    -1.4300 O.2   1 <1>  -0.5700 
 10 C        3.8760     2.4100    -0.3870 C.2   1 <1>   0.0290 
 11 C       -0.5660     3.1140    -1.5020 C.3   1 <1>  -0.1600 
 12 C        0.2180     4.1750     0.6770 C.3   1 <1>  -0.1600 
 13 O        4.9990     0.3830    -0.5130 O.2   1 <1>  -0.5700 
 14 C        1.8630    -1.7940    -1.6110 C.3   1 <1>  -0.1600 
 15 C        2.6940    -2.0160     0.7890 C.3   1 <1>  -0.1600 
 16 C        4.9470     3.2180    -0.0430 C.2   1 <1>  -0.0380 
 17 C       -1.9530     3.7430    -1.3040 C.3   1 <1>  -0.1600 
 18 C       -1.1750     4.7920     0.8740 C.3   1 <1>  -0.1600 
 19 C        2.0290    -3.3090    -1.8040 C.3   1 <1>  -0.1600 
 20 C        2.8460    -3.5320     0.5900 C.3   1 <1>  -0.1600 
 21 N        6.2000     2.7300     0.1770 N.pl3 1 <1>  -0.6690 
 22 C        4.8130     4.7320     0.1330 C.3   1 <1>  -0.1020 
 23 C       -1.8670     5.0330    -0.4750 C.3   1 <1>  -0.1600 
 24 C        1.8680    -4.0550    -0.4720 C.3   1 <1>  -0.1600 
 25 C        7.4410     3.4530     0.4960 C.3   1 <1>   0.0690 
 26 C        8.0960     4.2390    -0.5930 C.3   1 <1>  -0.2000 
 27 C        8.6970     2.9490    -0.1370 C.3   1 <1>  -0.2000 
 28 H       -0.5190     2.2270     0.4130 H     1 <1>   0.0800 
 29 H        3.8220    -1.5260    -0.9220 H     1 <1>   0.0800 
 30 H        0.0260     3.7740    -2.1120 H     1 <1>   0.0800 
 31 H       -0.6730     2.1770    -2.0180 H     1 <1>   0.0800 
 32 H        0.6500     3.9600     1.6380 H     1 <1>   0.0800 
 33 H        0.8350     4.9000     0.1770 H     1 <1>   0.0800 
 34 H        0.8470    -1.6070    -1.3160 H     1 <1>   0.0800 
 35 H        2.0460    -1.2960    -2.5470 H     1 <1>   0.0800 
 36 H        3.4450    -1.6730     1.4780 H     1 <1>   0.0800 
 37 H        1.7260    -1.8240     1.2160 H     1 <1>   0.0800 
 38 H       -2.3890     3.9600    -2.2640 H     1 <1>   0.0800 
 39 H       -2.5960     3.0400    -0.8020 H     1 <1>   0.0800 
 40 H       -1.7790     4.1310     1.4720 H     1 <1>   0.0800 
 41 H       -1.0840     5.7250     1.4030 H     1 <1>   0.0800 
 42 H        1.2940    -3.6650    -2.5060 H     1 <1>   0.0800 
 43 H        3.0030    -3.5150    -2.2130 H     1 <1>   0.0800 
 44 H        3.8550    -3.7530     0.2850 H     1 <1>   0.0800 
 45 H        2.6680    -4.0370     1.5240 H     1 <1>   0.0800 
 46 H        6.3460     1.7120     0.0500 H     1 <1>   0.4000 
 47 H        5.3680     5.0620     0.9920 H     1 <1>   0.0800 
 48 H        3.7970     5.0410     0.2860 H     1 <1>   0.0800 
 49 H        5.1970     5.2310    -0.7380 H     1 <1>   0.0800 
 50 H       -2.8580     5.4200    -0.3080 H     1 <1>   0.0800 
 51 H       -1.3160     5.7740    -1.0300 H     1 <1>   0.0800 
 52 H        2.0340    -5.1070    -0.6260 H     1 <1>   0.0800 
 53 H        0.8590    -3.9310    -0.1150 H     1 <1>   0.0800 
 54 H        7.4830     3.8080     1.5130 H     1 <1>   0.1000 
 55 H        7.6100     4.2800    -1.5520 H     1 <1>   0.1000 
 56 H        8.6000     5.1540    -0.3400 H     1 <1>   0.1000 
 57 H        9.6130     2.9870     0.4240 H     1 <1>   0.1000 
 58 H        8.6440     2.0970    -0.7920 H     1 <1>   0.1000 
@<TRIPOS>BOND
  1   1   2  2   
  2   2   3  am  
  3   2   4  am  
  4   3   5  am  
  5   3   6  1   
  6   4   7  am  
  7   4   8  1   
  8   5   9  2   
  9   5  10  1   
 10   6  11  1   
 11   6  12  1   
 12   6  28  1   
 13   7  10  1   
 14   7  13  2   
 15   8  14  1   
 16   8  15  1   
 17   8  29  1   
 18  10  16  2   
 19  11  17  1   
 20  11  30  1   
 21  11  31  1   
 22  12  18  1   
 23  12  32  1   
 24  12  33  1   
 25  14  19  1   
 26  14  34  1   
 27  14  35  1   
 28  15  20  1   
 29  15  36  1   
 30  15  37  1   
 31  16  21  1   
 32  16  22  1   
 33  17  23  1   
 34  17  38  1   
 35  17  39  1   
 36  18  23  1   
 37  18  40  1   
 38  18  41  1   
 39  19  24  1   
 40  19  42  1   
 41  19  43  1   
 42  20  24  1   
 43  20  44  1   
 44  20  45  1   
 45  21  25  1   
 46  21  46  1   
 47  22  47  1   
 48  22  48  1   
 49  22  49  1   
 50  23  50  1   
 51  23  51  1   
 52  24  52  1   
 53  24  53  1   
 54  25  26  1   
 55  25  27  1   
 56  25  54  1   
 57  26  27  1   
 58  26  55  1   
 59  26  56  1   
 60  27  57  1   
 61  27  58  1   
@<TRIPOS>SUBSTRUCTURE
  1 ****   7 GROUP 4 **** **** 0

# MOE 2024.06 (io_trps.svl 2023.06)
