@<TRIPOS>MOLECULE
NONAME
47 48 1 0 0 
SMALL
USER_CHARGES


@<TRIPOS>ATOM
  1 O        7.4140    -4.9360     0.7630 O.3   1 <1>  -0.5600 
  2 C        7.2730    -3.9930    -0.2650 C.3   1 <1>   0.2000 
  3 C        6.9640    -6.2460     0.5260 C.3   1 <1>   0.2000 
  4 C        5.7800    -3.8270    -0.6580 C.3   1 <1>   0.3430 
  5 C        8.1820    -4.3760    -1.4400 C.3   1 <1>  -0.2400 
  6 C        5.6750    -6.2800    -0.3380 C.3   1 <1>   0.3430 
  7 C        6.7310    -6.8630     1.9040 C.3   1 <1>  -0.2400 
  8 N        4.9260    -4.9900    -0.2330 N.4   1 <1>  -0.9590 
  9 C        3.5510    -5.0020    -0.8210 C.3   1 <1>   0.3430 
 10 C        2.6530    -3.9620    -0.1170 C.3   1 <1>   0.2000 
 11 O        2.9800    -3.9290     1.2400 O.3   1 <1>  -0.6800 
 12 C        1.1560    -4.2670    -0.2600 C.3   1 <1>   0.1200 
 13 O        0.4400    -3.3490     0.5380 O.3   1 <1>  -0.3630 
 14 C       -0.9160    -3.3570     0.5960 C.ar  1 <1>   0.0830 
 15 C       -1.7180    -4.2930    -0.0530 C.ar  1 <1>  -0.1500 
 16 C       -1.5050    -2.3570     1.3560 C.ar  1 <1>  -0.1500 
 17 C       -3.1030    -4.2180     0.0640 C.ar  1 <1>   0.0830 
 18 C       -2.8810    -2.2830     1.4720 C.ar  1 <1>  -0.1500 
 19 O       -3.9620    -5.0840    -0.5320 O.3   1 <1>  -0.3630 
 20 C       -3.6750    -3.2120     0.8260 C.ar  1 <1>  -0.1500 
 21 C       -3.5050    -6.1630    -1.3160 C.3   1 <1>   0.0400 
 22 H        7.6250    -3.0550     0.1310 H     1 <1>   0.0800 
 23 H        7.7510    -6.7870     0.0280 H     1 <1>   0.0800 
 24 H        5.7220    -3.6930    -1.7240 H     1 <1>   0.0800 
 25 H        5.4040    -2.9270    -0.1990 H     1 <1>   0.0800 
 26 H        7.8520    -5.2700    -1.9350 H     1 <1>   0.0800 
 27 H        9.1890    -4.5150    -1.0880 H     1 <1>   0.0800 
 28 H        8.1940    -3.5800    -2.1640 H     1 <1>   0.0800 
 29 H        5.0580    -7.1030    -0.0170 H     1 <1>   0.0800 
 30 H        5.9500    -6.4560    -1.3640 H     1 <1>   0.0800 
 31 H        5.9700    -6.3240     2.4400 H     1 <1>   0.0800 
 32 H        7.6440    -6.8340     2.4730 H     1 <1>   0.0800 
 33 H        6.4290    -7.8900     1.8110 H     1 <1>   0.0800 
 34 H        4.7620    -4.8320     0.7830 H     1 <1>   0.4500 
 35 H        3.1120    -5.9750    -0.6700 H     1 <1>   0.0800 
 36 H        3.5850    -4.8150    -1.8810 H     1 <1>   0.0800 
 37 H        2.8480    -2.9840    -0.5230 H     1 <1>   0.0800 
 38 H        2.2680    -3.4450     1.7210 H     1 <1>   0.4000 
 39 H        0.9340    -5.2630     0.0840 H     1 <1>   0.0800 
 40 H        0.8360    -4.1490    -1.2810 H     1 <1>   0.0800 
 41 H       -1.2780    -5.0700    -0.6400 H     1 <1>   0.1500 
 42 H       -0.8840    -1.6370     1.8560 H     1 <1>   0.1500 
 43 H       -3.3340    -1.5050     2.0620 H     1 <1>   0.1500 
 44 H       -4.7460    -3.1640     0.9090 H     1 <1>   0.1500 
 45 H       -4.3650    -6.7050    -1.6680 H     1 <1>   0.0800 
 46 H       -2.8950    -6.8040    -0.7070 H     1 <1>   0.0800 
 47 H       -2.9510    -5.7760    -2.1530 H     1 <1>   0.0800 
@<TRIPOS>BOND
  1   1   2  1   
  2   1   3  1   
  3   2   4  1   
  4   2   5  1   
  5   2  22  1   
  6   3   6  1   
  7   3   7  1   
  8   3  23  1   
  9   4   8  1   
 10   4  24  1   
 11   4  25  1   
 12   5  26  1   
 13   5  27  1   
 14   5  28  1   
 15   6   8  1   
 16   6  29  1   
 17   6  30  1   
 18   7  31  1   
 19   7  32  1   
 20   7  33  1   
 21   8   9  1   
 22   8  34  1   
 23   9  10  1   
 24   9  35  1   
 25   9  36  1   
 26  10  11  1   
 27  10  12  1   
 28  10  37  1   
 29  11  38  1   
 30  12  13  1   
 31  12  39  1   
 32  12  40  1   
 33  13  14  1   
 34  14  15  ar  
 35  14  16  ar  
 36  15  17  ar  
 37  15  41  1   
 38  16  18  ar  
 39  16  42  1   
 40  17  19  1   
 41  17  20  ar  
 42  18  20  ar  
 43  18  43  1   
 44  19  21  1   
 45  20  44  1   
 46  21  45  1   
 47  21  46  1   
 48  21  47  1   
@<TRIPOS>SUBSTRUCTURE
  1 ****  10 GROUP 4 **** **** 0

# MOE 2024.06 (io_trps.svl 2023.06)
