@<TRIPOS>MOLECULE
NONAME
36 37 1 0 0 
SMALL
USER_CHARGES


@<TRIPOS>ATOM
  1 S       -2.9480    -0.3930    -0.8160 S.o2  1 <1>   1.5680 
  2 S       -1.2880    -1.5940    -0.4390 S.3   1 <1>  -0.3480 
  3 O       -3.1090     0.3380     0.4630 O.co2 1 <1>  -0.8170 
  4 O       -4.0130    -1.3890    -1.0920 O.co2 1 <1>  -0.8170 
  5 O       -2.5390     0.4290    -1.9800 O.co2 1 <1>  -0.8170 
  6 C       -1.7400    -2.4020     1.1260 C.3   1 <1>   0.1310 
  7 C       -2.4270    -3.7430     0.9070 C.2   1 <1>   0.5690 
  8 O       -2.1010    -4.6690     1.6140 O.2   1 <1>  -0.5700 
  9 N       -3.3940    -3.8590    -0.0390 N.am  1 <1>  -0.7300 
 10 C       -4.2480    -5.0110    -0.3710 C.3   1 <1>   0.2200 
 11 C       -5.0760    -5.4410     0.8490 C.3   1 <1>   0.0210 
 12 C       -3.3920    -6.1410    -0.9460 C.3   1 <1>  -0.2400 
 13 C       -6.2620    -6.2940     0.4310 C.2   1 <1>  -0.1810 
 14 C       -7.3780    -5.7990    -0.2820 C.ar  1 <1>   0.0000 
 15 C       -6.4640    -7.6150     0.6460 C.2   1 <1>  -0.3020 
 16 C       -8.2300    -6.8800    -0.4780 C.ar  1 <1>  -0.1520 
 17 C       -7.7370    -4.5390    -0.7750 C.ar  1 <1>  -0.1500 
 18 N       -7.6590    -7.9860     0.0970 N.pl3 1 <1>   0.0330 
 19 C       -9.4370    -6.7280    -1.1650 C.ar  1 <1>  -0.1500 
 20 C       -8.9250    -4.3890    -1.4510 C.ar  1 <1>  -0.1500 
 21 C       -9.7760    -5.4840    -1.6470 C.ar  1 <1>  -0.1500 
 22 H       -2.3840    -1.7320     1.6660 H     1 <1>   0.0800 
 23 H       -0.8280    -2.5440     1.6720 H     1 <1>   0.0800 
 24 H       -3.6610    -2.9980    -0.5560 H     1 <1>   0.3700 
 25 H       -4.9270    -4.6850    -1.1400 H     1 <1>   0.0800 
 26 H       -5.4490    -4.5680     1.3530 H     1 <1>   0.0800 
 27 H       -4.4570    -5.9890     1.5360 H     1 <1>   0.0800 
 28 H       -2.7090    -6.5130    -0.2040 H     1 <1>   0.0800 
 29 H       -2.8380    -5.7830    -1.7940 H     1 <1>   0.0800 
 30 H       -4.0250    -6.9480    -1.2660 H     1 <1>   0.0800 
 31 H       -5.8280    -8.3160     1.1560 H     1 <1>   0.1500 
 32 H       -7.0780    -3.7020    -0.6190 H     1 <1>   0.1500 
 33 H       -8.0680    -8.9250     0.1070 H     1 <1>   0.2700 
 34 H      -10.0840    -7.5740    -1.3100 H     1 <1>   0.1500 
 35 H       -9.2090    -3.4260    -1.8360 H     1 <1>   0.1500 
 36 H      -10.7000    -5.3400    -2.1790 H     1 <1>   0.1500 
@<TRIPOS>BOND
  1   1   2  1   
  2   1   3  ar  
  3   1   4  ar  
  4   1   5  ar  
  5   2   6  1   
  6   6   7  1   
  7   6  22  1   
  8   6  23  1   
  9   7   8  2   
 10   7   9  am  
 11   9  10  1   
 12   9  24  1   
 13  10  11  1   
 14  10  12  1   
 15  10  25  1   
 16  11  13  1   
 17  11  26  1   
 18  11  27  1   
 19  12  28  1   
 20  12  29  1   
 21  12  30  1   
 22  13  14  1   
 23  13  15  2   
 24  14  16  ar  
 25  14  17  ar  
 26  15  18  1   
 27  15  31  1   
 28  16  18  1   
 29  16  19  ar  
 30  17  20  ar  
 31  17  32  1   
 32  18  33  1   
 33  19  21  ar  
 34  19  34  1   
 35  20  21  ar  
 36  20  35  1   
 37  21  36  1   
@<TRIPOS>SUBSTRUCTURE
  1 ****  10 GROUP 4 **** **** 0

# MOE 2024.06 (io_trps.svl 2023.06)
