@<TRIPOS>MOLECULE
NONAME
47 49 1 0 0 
SMALL
USER_CHARGES


@<TRIPOS>ATOM
  1 S        0.0260    -0.0680    -0.2910 S.o2  1 <1>   1.4470 
  2 O        0.5900    -0.4470    -1.5680 O.2   1 <1>  -0.6500 
  3 O        0.8450    -0.2110     0.8950 O.2   1 <1>  -0.6500 
  4 N       -0.3720     1.5770    -0.4000 N.am  1 <1>  -0.8490 
  5 C       -1.5730    -0.9240    -0.0730 C.ar  1 <1>  -0.0090 
  6 C        0.6650     2.3760    -1.0260 C.3   1 <1>   0.1960 
  7 C       -0.6570     2.2320     0.8660 C.3   1 <1>   0.1960 
  8 C       -1.6550    -2.2340     0.4050 C.ar  1 <1>  -0.1440 
  9 C       -2.7620    -0.2870    -0.4100 C.ar  1 <1>  -0.1500 
 10 C        0.2990     3.8170    -0.6850 C.3   1 <1>  -0.1600 
 11 C       -0.6310     3.7150     0.5250 C.3   1 <1>  -0.1600 
 12 C       -2.8900    -2.8460     0.5500 C.ar  1 <1>  -0.1500 
 13 C       -0.4070    -3.0300     0.7700 C.3   1 <1>  -0.0970 
 14 C       -4.0190    -0.8730    -0.2630 C.ar  1 <1>   0.0860 
 15 C       -4.0520    -2.1790     0.2210 C.ar  1 <1>  -0.1500 
 16 C       -5.2260    -0.1380    -0.6020 C.2   1 <1>   0.5440 
 17 O       -5.1920     0.7530    -1.4260 O.2   1 <1>  -0.5700 
 18 N       -6.4130    -0.4390     0.0230 N.am  1 <1>  -0.5470 
 19 C       -7.6790     0.1200    -0.1910 C.ar  1 <1>   0.1170 
 20 C       -7.9900     1.4380     0.1530 C.ar  1 <1>  -0.1440 
 21 C       -8.6690    -0.6840    -0.7430 C.ar  1 <1>  -0.1500 
 22 C       -9.2720     1.9190    -0.0650 C.ar  1 <1>  -0.1500 
 23 C       -6.9530     2.3700     0.7670 C.3   1 <1>  -0.0970 
 24 C       -9.9450    -0.1980    -0.9550 C.ar  1 <1>  -0.1500 
 25 C      -10.2480     1.1070    -0.6150 C.ar  1 <1>  -0.1500 
 26 H        0.6930     2.2060    -2.0900 H     1 <1>   0.0800 
 27 H        1.6250     2.1300    -0.5990 H     1 <1>   0.0800 
 28 H        0.1190     2.0190     1.5840 H     1 <1>   0.0800 
 29 H       -1.6100     1.9250     1.2620 H     1 <1>   0.0800 
 30 H       -2.7260     0.7120    -0.8130 H     1 <1>   0.1500 
 31 H       -0.2150     4.2700    -1.5160 H     1 <1>   0.0800 
 32 H        1.1840     4.3880    -0.4660 H     1 <1>   0.0800 
 33 H       -0.2830     4.2990     1.3580 H     1 <1>   0.0800 
 34 H       -1.6230     4.0370     0.2580 H     1 <1>   0.0800 
 35 H       -2.9510    -3.8570     0.9180 H     1 <1>   0.1500 
 36 H        0.0410    -2.6300     1.6620 H     1 <1>   0.0800 
 37 H        0.3130    -2.9910    -0.0290 H     1 <1>   0.0800 
 38 H       -0.6430    -4.0630     0.9480 H     1 <1>   0.0800 
 39 H       -4.9900    -2.6910     0.3330 H     1 <1>   0.1500 
 40 H       -6.3870    -1.1920     0.7040 H     1 <1>   0.3700 
 41 H       -8.4360    -1.6970    -1.0150 H     1 <1>   0.1500 
 42 H       -9.5190     2.9340     0.1920 H     1 <1>   0.1500 
 43 H       -6.3890     1.8590     1.5240 H     1 <1>   0.0800 
 44 H       -7.4220     3.2260     1.2160 H     1 <1>   0.0800 
 45 H       -6.2790     2.7120     0.0020 H     1 <1>   0.0800 
 46 H      -10.7010    -0.8310    -1.3860 H     1 <1>   0.1500 
 47 H      -11.2390     1.4920    -0.7800 H     1 <1>   0.1500 
@<TRIPOS>BOND
  1   1   2  2   
  2   1   3  2   
  3   1   4  am  
  4   1   5  1   
  5   4   6  1   
  6   4   7  1   
  7   5   8  ar  
  8   5   9  ar  
  9   6  10  1   
 10   6  26  1   
 11   6  27  1   
 12   7  11  1   
 13   7  28  1   
 14   7  29  1   
 15   8  12  ar  
 16   8  13  1   
 17   9  14  ar  
 18   9  30  1   
 19  10  11  1   
 20  10  31  1   
 21  10  32  1   
 22  11  33  1   
 23  11  34  1   
 24  12  15  ar  
 25  12  35  1   
 26  13  36  1   
 27  13  37  1   
 28  13  38  1   
 29  14  15  ar  
 30  14  16  1   
 31  15  39  1   
 32  16  17  2   
 33  16  18  am  
 34  18  19  1   
 35  18  40  1   
 36  19  20  ar  
 37  19  21  ar  
 38  20  22  ar  
 39  20  23  1   
 40  21  24  ar  
 41  21  41  1   
 42  22  25  ar  
 43  22  42  1   
 44  23  43  1   
 45  23  44  1   
 46  23  45  1   
 47  24  25  ar  
 48  24  46  1   
 49  25  47  1   
@<TRIPOS>SUBSTRUCTURE
  1 ****   9 GROUP 4 **** **** 0

# MOE 2024.06 (io_trps.svl 2023.06)
