@<TRIPOS>MOLECULE
NONAME
30 31 1 0 0 
SMALL
USER_CHARGES


@<TRIPOS>ATOM
  1 O        0.6850     0.0180     0.2780 O.2   1 <1>  -0.5700 
  2 C        1.4670     0.9200     0.1370 C.2   1 <1>   0.6590 
  3 O        2.7880     0.7000     0.2080 O.3   1 <1>  -0.0870 
  4 C        0.9740     2.3290    -0.1280 C.3   1 <1>  -0.1790 
  5 N        3.7090     1.6430     0.0510 N.2   1 <1>  -0.5130 
  6 C        4.9160     1.2510     0.1200 C.2   1 <1>   0.4360 
  7 C        6.1240     2.0140     0.0070 C.2   1 <1>  -0.1240 
  8 C        5.4040    -0.1630     0.3890 C.3   1 <1>  -0.1000 
  9 C        7.1740     1.2180    -0.2730 C.2   1 <1>   0.0250 
 10 C        6.1340     3.5220     0.2180 C.3   1 <1>  -0.1020 
 11 C        6.1000    -1.4290    -0.0020 C.3   1 <1>  -0.1900 
 12 C        6.6230    -0.1640    -0.5410 C.3   1 <1>  -0.0600 
 13 C        8.5700     1.4830    -0.4250 C.1   1 <1>   0.4920 
 14 C        5.3500    -2.3920    -0.9300 C.3   1 <1>  -0.1450 
 15 C        6.9530    -2.1760     1.0300 C.3   1 <1>  -0.1450 
 16 N        9.6810     1.7090    -0.5440 N.1   1 <1>  -0.5570 
 17 H        1.3510     2.6720    -1.0720 H     1 <1>   0.0800 
 18 H        1.3150     2.9830     0.6530 H     1 <1>   0.0800 
 19 H       -0.0990     2.3380    -0.1520 H     1 <1>   0.0800 
 20 H        5.4170    -0.1740     1.4650 H     1 <1>   0.1000 
 21 H        5.7720     3.7570     1.2030 H     1 <1>   0.0800 
 22 H        5.4920     3.9950    -0.5040 H     1 <1>   0.0800 
 23 H        7.1260     3.9220     0.1100 H     1 <1>   0.0800 
 24 H        6.5230    -0.1990    -1.6140 H     1 <1>   0.1000 
 25 H        6.0460    -2.9990    -1.4820 H     1 <1>   0.0800 
 26 H        4.7360    -1.8520    -1.6290 H     1 <1>   0.0800 
 27 H        4.7100    -3.0370    -0.3530 H     1 <1>   0.0800 
 28 H        6.3290    -2.7980     1.6480 H     1 <1>   0.0800 
 29 H        7.4820    -1.4870     1.6640 H     1 <1>   0.0800 
 30 H        7.6760    -2.7990     0.5330 H     1 <1>   0.0800 
@<TRIPOS>BOND
  1   1   2  2   
  2   2   3  1   
  3   2   4  1   
  4   3   5  1   
  5   4  17  1   
  6   4  18  1   
  7   4  19  1   
  8   5   6  2   
  9   6   7  1   
 10   6   8  1   
 11   7   9  2   
 12   7  10  1   
 13   8  11  1   
 14   8  12  1   
 15   8  20  1   
 16   9  12  1   
 17   9  13  1   
 18  10  21  1   
 19  10  22  1   
 20  10  23  1   
 21  11  12  1   
 22  11  14  1   
 23  11  15  1   
 24  12  24  1   
 25  13  16  3   
 26  14  25  1   
 27  14  26  1   
 28  14  27  1   
 29  15  28  1   
 30  15  29  1   
 31  15  30  1   
@<TRIPOS>SUBSTRUCTURE
  1 ****   6 GROUP 4 **** **** 0

# MOE 2024.06 (io_trps.svl 2023.06)
