@<TRIPOS>MOLECULE
NONAME
47 48 1 0 0 
SMALL
USER_CHARGES


@<TRIPOS>ATOM
  1 O       -0.5100    -0.3610    -0.7300 O.2   1 <1>  -0.5700 
  2 C       -0.5970    -1.5160    -0.3610 C.2   1 <1>   0.8050 
  3 O        0.5280    -2.2070    -0.1430 O.3   1 <1>  -0.4300 
  4 C       -1.8430    -2.2110    -0.1400 C.2   1 <1>   0.0550 
  5 C        1.7990    -1.6250    -0.3290 C.3   1 <1>   0.1200 
  6 O       -3.0170    -1.6120    -0.3260 O.3   1 <1>  -0.2800 
  7 C       -2.0820    -3.4910     0.2640 C.2   1 <1>  -0.1500 
  8 C        2.8540    -2.6750     0.0030 C.3   1 <1>  -0.2400 
  9 C       -3.9850    -2.4590    -0.0590 C.2   1 <1>  -0.0400 
 10 C       -3.4660    -3.6490     0.3170 C.2   1 <1>  -0.1500 
 11 C       -5.4220    -1.9880    -0.2040 C.3   1 <1>   0.3200 
 12 N       -6.3220    -3.1490    -0.3680 N.am  1 <1>  -0.7300 
 13 C       -7.4840    -3.3480     0.3080 C.2   1 <1>   0.7160 
 14 O       -7.8460    -2.5040     1.1030 O.2   1 <1>  -0.5700 
 15 C       -8.2820    -4.5240     0.0540 C.2   1 <1>  -0.0860 
 16 C       -7.9770    -5.7470    -0.4710 C.2   1 <1>  -0.0400 
 17 C       -9.6620    -4.6110     0.3310 C.2   1 <1>  -0.1500 
 18 O       -9.0420    -6.5060    -0.5370 O.3   1 <1>  -0.2800 
 19 C       -6.6780    -6.3630    -0.9520 C.3   1 <1>  -0.0600 
 20 C      -10.0700    -5.8380    -0.0530 C.2   1 <1>  -0.0400 
 21 C      -11.4420    -6.5140    -0.0080 C.3   1 <1>   0.1800 
 22 C      -11.8680    -6.8960    -1.4310 C.3   1 <1>  -0.2400 
 23 C      -12.4930    -5.5670     0.5890 C.3   1 <1>  -0.2400 
 24 C      -11.3600    -7.7760     0.8590 C.3   1 <1>  -0.2400 
 25 H        1.8830    -0.7710     0.3230 H     1 <1>   0.0800 
 26 H        1.8810    -1.3050    -1.3550 H     1 <1>   0.0800 
 27 H       -1.3550    -4.2490     0.5030 H     1 <1>   0.1500 
 28 H        2.7530    -2.9910     1.0260 H     1 <1>   0.0800 
 29 H        3.8350    -2.2560    -0.1300 H     1 <1>   0.0800 
 30 H        2.7520    -3.5230    -0.6490 H     1 <1>   0.0800 
 31 H       -3.9850    -4.5450     0.6100 H     1 <1>   0.1500 
 32 H       -5.5030    -1.3600    -1.0740 H     1 <1>   0.0800 
 33 H       -5.6960    -1.4070     0.6600 H     1 <1>   0.0800 
 34 H       -6.0820    -3.7860    -1.1240 H     1 <1>   0.3700 
 35 H      -10.2370    -3.8140     0.7690 H     1 <1>   0.1500 
 36 H       -5.8350    -5.7450    -0.7160 H     1 <1>   0.0800 
 37 H       -6.7230    -6.5150    -2.0150 H     1 <1>   0.0800 
 38 H       -6.5420    -7.3170    -0.4750 H     1 <1>   0.0800 
 39 H      -11.9100    -6.0200    -2.0520 H     1 <1>   0.0800 
 40 H      -12.8350    -7.3650    -1.4260 H     1 <1>   0.0800 
 41 H      -11.1580    -7.5800    -1.8610 H     1 <1>   0.0800 
 42 H      -13.4560    -6.0430     0.6200 H     1 <1>   0.0800 
 43 H      -12.5730    -4.6750    -0.0060 H     1 <1>   0.0800 
 44 H      -12.2180    -5.2880     1.5910 H     1 <1>   0.0800 
 45 H      -12.3160    -8.2640     0.9150 H     1 <1>   0.0800 
 46 H      -11.0420    -7.5200     1.8540 H     1 <1>   0.0800 
 47 H      -10.6460    -8.4660     0.4460 H     1 <1>   0.0800 
@<TRIPOS>BOND
  1   1   2  2   
  2   2   3  1   
  3   2   4  1   
  4   3   5  1   
  5   4   6  1   
  6   4   7  2   
  7   5   8  1   
  8   5  25  1   
  9   5  26  1   
 10   6   9  1   
 11   7  10  1   
 12   7  27  1   
 13   8  28  1   
 14   8  29  1   
 15   8  30  1   
 16   9  10  2   
 17   9  11  1   
 18  10  31  1   
 19  11  12  1   
 20  11  32  1   
 21  11  33  1   
 22  12  13  am  
 23  12  34  1   
 24  13  14  2   
 25  13  15  1   
 26  15  16  2   
 27  15  17  1   
 28  16  18  1   
 29  16  19  1   
 30  17  20  2   
 31  17  35  1   
 32  18  20  1   
 33  19  36  1   
 34  19  37  1   
 35  19  38  1   
 36  20  21  1   
 37  21  22  1   
 38  21  23  1   
 39  21  24  1   
 40  22  39  1   
 41  22  40  1   
 42  22  41  1   
 43  23  42  1   
 44  23  43  1   
 45  23  44  1   
 46  24  45  1   
 47  24  46  1   
 48  24  47  1   
@<TRIPOS>SUBSTRUCTURE
  1 ****  12 GROUP 4 **** **** 0

# MOE 2024.06 (io_trps.svl 2023.06)
