@<TRIPOS>MOLECULE
NONAME
50 52 1 0 0 
SMALL
USER_CHARGES


@<TRIPOS>ATOM
  1 O       -0.4590    -1.4170     1.7800 O.2   1 <1>  -0.5700 
  2 C       -1.0360    -1.9360     0.8430 C.2   1 <1>   0.5440 
  3 N       -0.3330    -2.7880     0.0180 N.am  1 <1>  -0.6600 
  4 C       -2.4410    -1.6490     0.6270 C.ar  1 <1>   0.0860 
  5 C       -0.7700    -3.2210    -1.3420 C.3   1 <1>   0.1400 
  6 C        1.0100    -3.3230     0.3900 C.3   1 <1>   0.1400 
  7 C       -3.3800    -2.6740     0.5510 C.ar  1 <1>  -0.1500 
  8 C       -2.8980    -0.3400     0.4950 C.ar  1 <1>  -0.1500 
  9 C       -0.6350    -4.7460    -1.4800 C.3   1 <1>   0.1200 
 10 C        1.0630    -4.8410     0.1470 C.3   1 <1>   0.1200 
 11 C       -4.7260    -2.4280     0.3260 C.ar  1 <1>   0.1170 
 12 C       -4.2360    -0.0710     0.2740 C.ar  1 <1>  -0.1500 
 13 O        0.6640    -5.1570    -1.1600 O.3   1 <1>  -0.5600 
 14 N       -5.5950    -3.5240     0.2380 N.am  1 <1>  -0.5470 
 15 C       -5.1440    -1.1100     0.1850 C.ar  1 <1>  -0.1500 
 16 C       -6.9540    -3.6380     0.3710 C.2   1 <1>   0.5690 
 17 O       -7.6690    -2.7050     0.6450 O.2   1 <1>  -0.5700 
 18 C       -7.5730    -5.0320     0.1990 C.3   1 <1>   0.1240 
 19 C       -6.4990    -6.1210     0.3690 C.ar  1 <1>  -0.1430 
 20 C       -8.3430    -5.1980    -1.1320 C.3   1 <1>  -0.1600 
 21 C       -5.7200    -6.5670    -0.6940 C.ar  1 <1>  -0.1500 
 22 C       -6.2720    -6.6510     1.6310 C.ar  1 <1>  -0.1500 
 23 C       -9.6450    -4.3860    -1.1940 C.3   1 <1>  -0.2400 
 24 C       -4.7370    -7.5200    -0.4950 C.ar  1 <1>  -0.1500 
 25 C       -5.2880    -7.6030     1.8310 C.ar  1 <1>  -0.1500 
 26 C       -4.5190    -8.0380     0.7680 C.ar  1 <1>  -0.1500 
 27 H       -0.1420    -2.7480    -2.0770 H     1 <1>   0.0800 
 28 H       -1.7830    -2.9250    -1.5400 H     1 <1>   0.0800 
 29 H        1.2230    -3.1220     1.4250 H     1 <1>   0.0800 
 30 H        1.7630    -2.8370    -0.2050 H     1 <1>   0.0800 
 31 H       -3.0430    -3.6860     0.6780 H     1 <1>   0.1500 
 32 H       -2.1900     0.4670     0.5720 H     1 <1>   0.1500 
 33 H       -0.8320    -5.0460    -2.4940 H     1 <1>   0.0800 
 34 H       -1.3260    -5.2500    -0.8280 H     1 <1>   0.0800 
 35 H        0.4170    -5.3540     0.8380 H     1 <1>   0.0800 
 36 H        2.0670    -5.2020     0.2810 H     1 <1>   0.0800 
 37 H       -4.5730     0.9460     0.1730 H     1 <1>   0.1500 
 38 H       -5.1340    -4.4340     0.1620 H     1 <1>   0.3700 
 39 H       -6.1810    -0.8880     0.0070 H     1 <1>   0.1500 
 40 H       -8.2860    -5.1520     0.9950 H     1 <1>   0.0800 
 41 H       -8.5920    -6.2380    -1.2590 H     1 <1>   0.0800 
 42 H       -7.7170    -4.9030    -1.9550 H     1 <1>   0.0800 
 43 H       -5.8640    -6.1810    -1.6870 H     1 <1>   0.1500 
 44 H       -6.8580    -6.3220     2.4740 H     1 <1>   0.1500 
 45 H      -10.2920    -4.6420    -0.3740 H     1 <1>   0.0800 
 46 H      -10.1630    -4.5930    -2.1140 H     1 <1>   0.0800 
 47 H       -9.4420    -3.3290    -1.1550 H     1 <1>   0.0800 
 48 H       -4.1420    -7.8630    -1.3240 H     1 <1>   0.1500 
 49 H       -5.1220    -8.0070     2.8150 H     1 <1>   0.1500 
 50 H       -3.7560    -8.7810     0.9230 H     1 <1>   0.1500 
@<TRIPOS>BOND
  1   1   2  2   
  2   2   3  am  
  3   2   4  1   
  4   3   5  1   
  5   3   6  1   
  6   4   7  ar  
  7   4   8  ar  
  8   5   9  1   
  9   5  27  1   
 10   5  28  1   
 11   6  10  1   
 12   6  29  1   
 13   6  30  1   
 14   7  11  ar  
 15   7  31  1   
 16   8  12  ar  
 17   8  32  1   
 18   9  13  1   
 19   9  33  1   
 20   9  34  1   
 21  10  13  1   
 22  10  35  1   
 23  10  36  1   
 24  11  14  1   
 25  11  15  ar  
 26  12  15  ar  
 27  12  37  1   
 28  14  16  am  
 29  14  38  1   
 30  15  39  1   
 31  16  17  2   
 32  16  18  1   
 33  18  19  1   
 34  18  20  1   
 35  18  40  1   
 36  19  21  ar  
 37  19  22  ar  
 38  20  23  1   
 39  20  41  1   
 40  20  42  1   
 41  21  24  ar  
 42  21  43  1   
 43  22  25  ar  
 44  22  44  1   
 45  23  45  1   
 46  23  46  1   
 47  23  47  1   
 48  24  26  ar  
 49  24  48  1   
 50  25  26  ar  
 51  25  49  1   
 52  26  50  1   
@<TRIPOS>SUBSTRUCTURE
  1 ****   7 GROUP 4 **** **** 0

# MOE 2024.06 (io_trps.svl 2023.06)
