@<TRIPOS>MOLECULE
NONAME
37 38 1 0 0 
SMALL
USER_CHARGES


@<TRIPOS>ATOM
  1 BR      -0.3080    -0.4650    -0.3350 Br    1 <1>  -0.1110 
  2 C        1.6050    -0.4780    -0.1060 C.ar  1 <1>   0.1110 
  3 C        2.3770    -1.2190    -0.9790 C.ar  1 <1>  -0.1500 
  4 C        2.1580     0.2540     0.9270 C.ar  1 <1>  -0.1500 
  5 C        3.7500    -1.2240    -0.8070 C.ar  1 <1>  -0.1500 
  6 C        3.5330     0.2390     1.0830 C.ar  1 <1>  -0.1500 
  7 C        4.3460    -0.4940     0.2220 C.ar  1 <1>   0.1170 
  8 N        5.7310    -0.4790     0.4380 N.am  1 <1>  -0.5470 
  9 C        6.7900    -0.7720    -0.3680 C.2   1 <1>   0.6900 
 10 O        6.6560    -1.0440    -1.5470 O.2   1 <1>  -0.5700 
 11 N        8.0320    -0.7000     0.1920 N.am  1 <1>  -0.6600 
 12 C        8.6150    -1.8800     0.8890 C.3   1 <1>   0.2200 
 13 C        9.0330     0.1690    -0.4920 C.3   1 <1>   0.2200 
 14 C        9.3010    -2.7970    -0.1410 C.3   1 <1>  -0.1600 
 15 C        7.5910    -2.6490     1.7280 C.3   1 <1>  -0.2400 
 16 C       10.3470    -0.5780    -0.7970 C.3   1 <1>  -0.1600 
 17 C        9.2810     1.3980     0.3780 C.3   1 <1>  -0.2400 
 18 C       10.0740    -2.0250    -1.2290 C.3   1 <1>  -0.1600 
 19 H        1.9170    -1.7790    -1.7730 H     1 <1>   0.1500 
 20 H        1.5260     0.8190     1.5870 H     1 <1>   0.1500 
 21 H        4.3590    -1.8020    -1.4780 H     1 <1>   0.1500 
 22 H        3.9790     0.8060     1.8800 H     1 <1>   0.1500 
 23 H        6.0430    -0.1470     1.3440 H     1 <1>   0.3700 
 24 H        9.3680    -1.5120     1.5660 H     1 <1>   0.0800 
 25 H        8.6170     0.4970    -1.4320 H     1 <1>   0.0800 
 26 H        8.5630    -3.4180    -0.6180 H     1 <1>   0.0800 
 27 H        9.9760    -3.4480     0.3850 H     1 <1>   0.0800 
 28 H        6.8250    -3.0770     1.1060 H     1 <1>   0.0800 
 29 H        7.1440    -1.9990     2.4570 H     1 <1>   0.0800 
 30 H        8.0820    -3.4500     2.2510 H     1 <1>   0.0800 
 31 H       10.9840    -0.5780     0.0700 H     1 <1>   0.0800 
 32 H       10.8710    -0.0580    -1.5800 H     1 <1>   0.0800 
 33 H        9.6810     1.1120     1.3340 H     1 <1>   0.0800 
 34 H        8.3610     1.9350     0.5230 H     1 <1>   0.0800 
 35 H        9.9820     2.0540    -0.1070 H     1 <1>   0.0800 
 36 H        9.4760    -2.0030    -2.1250 H     1 <1>   0.0800 
 37 H       10.9950    -2.5310    -1.4590 H     1 <1>   0.0800 
@<TRIPOS>BOND
  1   1   2  1   
  2   2   3  ar  
  3   2   4  ar  
  4   3   5  ar  
  5   3  19  1   
  6   4   6  ar  
  7   4  20  1   
  8   5   7  ar  
  9   5  21  1   
 10   6   7  ar  
 11   6  22  1   
 12   7   8  1   
 13   8   9  am  
 14   8  23  1   
 15   9  10  2   
 16   9  11  am  
 17  11  12  1   
 18  11  13  1   
 19  12  14  1   
 20  12  15  1   
 21  12  24  1   
 22  13  16  1   
 23  13  17  1   
 24  13  25  1   
 25  14  18  1   
 26  14  26  1   
 27  14  27  1   
 28  15  28  1   
 29  15  29  1   
 30  15  30  1   
 31  16  18  1   
 32  16  31  1   
 33  16  32  1   
 34  17  33  1   
 35  17  34  1   
 36  17  35  1   
 37  18  36  1   
 38  18  37  1   
@<TRIPOS>SUBSTRUCTURE
  1 ****   8 GROUP 4 **** **** 0

# MOE 2024.06 (io_trps.svl 2023.06)
