@<TRIPOS>MOLECULE
NONAME
31 32 1 0 0 
SMALL
USER_CHARGES


@<TRIPOS>ATOM
  1 O        0.1380     0.5930    -0.7980 O.2   1 <1>  -0.5700 
  2 C        0.3700     1.7380    -0.4730 C.2   1 <1>   0.7800 
  3 O       -0.6130     2.5400    -0.0710 O.3   1 <1>  -0.4300 
  4 N        1.6410     2.2140    -0.4950 N.am  1 <1>  -0.5470 
  5 C       -1.9540     2.0870    -0.0300 C.3   1 <1>   0.1200 
  6 C        2.1590     3.4850    -0.2160 C.ar  1 <1>   0.1170 
  7 C       -2.8490     3.2100     0.5030 C.3   1 <1>   0.2000 
  8 C        3.4180     3.5890     0.3630 C.ar  1 <1>  -0.1500 
  9 C        1.4680     4.6540    -0.5160 C.ar  1 <1>  -0.1500 
 10 O       -4.1790     2.8190     0.4210 O.3   1 <1>  -0.5600 
 11 C       -2.7920     4.5040    -0.2980 C.3   1 <1>  -0.1600 
 12 C        3.9700     4.8260     0.6450 C.ar  1 <1>  -0.1500 
 13 C        2.0150     5.8930    -0.2340 C.ar  1 <1>  -0.1500 
 14 C       -5.0110     3.9350     0.4310 C.3   1 <1>   0.1200 
 15 C       -4.1700     5.1050    -0.0760 C.3   1 <1>  -0.1600 
 16 C        3.2680     5.9810     0.3480 C.ar  1 <1>  -0.1500 
 17 H        2.3130     1.4820    -0.7070 H     1 <1>   0.3700 
 18 H       -2.0050     1.2300     0.6180 H     1 <1>   0.0800 
 19 H       -2.2480     1.8130    -1.0280 H     1 <1>   0.0800 
 20 H       -2.6340     3.3960     1.5410 H     1 <1>   0.0800 
 21 H        3.9690     2.6970     0.6000 H     1 <1>   0.1500 
 22 H        0.4990     4.6000    -0.9780 H     1 <1>   0.1500 
 23 H       -2.6470     4.2790    -1.3410 H     1 <1>   0.0800 
 24 H       -1.9980     5.1440     0.0410 H     1 <1>   0.0800 
 25 H        4.9450     4.8920     1.0970 H     1 <1>   0.1500 
 26 H        1.4680     6.7900    -0.4690 H     1 <1>   0.1500 
 27 H       -5.3400     4.0990     1.4430 H     1 <1>   0.0800 
 28 H       -5.8560     3.7350    -0.2050 H     1 <1>   0.0800 
 29 H       -4.5770     5.5110    -0.9860 H     1 <1>   0.0800 
 30 H       -4.1400     5.8780     0.6710 H     1 <1>   0.0800 
 31 H        3.6940     6.9440     0.5680 H     1 <1>   0.1500 
@<TRIPOS>BOND
  1   1   2  2   
  2   2   3  1   
  3   2   4  am  
  4   3   5  1   
  5   4   6  1   
  6   4  17  1   
  7   5   7  1   
  8   5  18  1   
  9   5  19  1   
 10   6   8  ar  
 11   6   9  ar  
 12   7  10  1   
 13   7  11  1   
 14   7  20  1   
 15   8  12  ar  
 16   8  21  1   
 17   9  13  ar  
 18   9  22  1   
 19  10  14  1   
 20  11  15  1   
 21  11  23  1   
 22  11  24  1   
 23  12  16  ar  
 24  12  25  1   
 25  13  16  ar  
 26  13  26  1   
 27  14  15  1   
 28  14  27  1   
 29  14  28  1   
 30  15  29  1   
 31  15  30  1   
 32  16  31  1   
@<TRIPOS>SUBSTRUCTURE
  1 ****   3 GROUP 4 **** **** 0

# MOE 2024.06 (io_trps.svl 2023.06)
