@<TRIPOS>MOLECULE
NONAME
50 52 1 0 0 
SMALL
USER_CHARGES


@<TRIPOS>ATOM
  1 S        0.3090     0.6820    -1.8960 S.3   1 <1>  -0.0800 
  2 C       -0.4660    -0.5770    -0.9470 C.2   1 <1>   0.1040 
  3 C        1.6190     0.8440    -0.7380 C.2   1 <1>  -0.1400 
  4 N       -1.6350    -1.1670    -1.3960 N.am  1 <1>  -0.4940 
  5 C        0.2530    -0.8330     0.1880 C.2   1 <1>  -0.0860 
  6 C        1.4360    -0.0150     0.2800 C.2   1 <1>  -0.1500 
  7 C        2.6820     1.8750    -1.0710 C.3   1 <1>   0.0200 
  8 C       -2.5320    -0.8710    -2.3860 C.2   1 <1>   0.5690 
  9 C       -0.1130    -1.7910     1.1920 C.2   1 <1>   0.8060 
 10 C        3.7780     1.9410    -0.0030 C.3   1 <1>  -0.2400 
 11 O       -2.4520     0.0800    -3.1250 O.2   1 <1>  -0.5700 
 12 C       -3.7170    -1.8290    -2.5330 C.3   1 <1>   0.1710 
 13 O       -1.1460    -2.4380     1.1560 O.2   1 <1>  -0.5700 
 14 O        0.7230    -1.9790     2.2210 O.3   1 <1>  -0.4300 
 15 N       -3.8700    -2.7840    -1.3940 N.3   1 <1>  -0.8100 
 16 C        0.4400    -2.9050     3.2530 C.3   1 <1>   0.0400 
 17 C       -4.7020    -3.9480    -1.7820 C.3   1 <1>   0.1100 
 18 C       -4.4620    -2.1260    -0.1980 C.3   1 <1>   0.1100 
 19 C       -4.8710    -4.9600    -0.6310 C.3   1 <1>   0.2090 
 20 C       -4.6040    -3.1020     0.9850 C.3   1 <1>   0.2090 
 21 N       -5.4250    -4.2840     0.5800 N.pl3 1 <1>  -0.8380 
 22 C       -6.7120    -4.4980     1.0250 C.ar  1 <1>   0.7200 
 23 N       -7.2840    -5.6550     0.6900 N.ar  1 <1>  -0.6200 
 24 N       -7.2790    -3.5310     1.7480 N.ar  1 <1>  -0.6200 
 25 C       -8.5040    -5.8520     1.1250 C.ar  1 <1>   0.1600 
 26 C       -8.4990    -3.7550     2.1680 C.ar  1 <1>   0.1600 
 27 C       -9.1690    -4.9180     1.8810 C.ar  1 <1>  -0.1500 
 28 H       -1.9590    -1.9840    -0.8540 H     1 <1>   0.3700 
 29 H        2.1010    -0.1120     1.1220 H     1 <1>   0.1500 
 30 H        2.2140     2.8400    -1.1630 H     1 <1>   0.0800 
 31 H        3.1220     1.6280    -2.0210 H     1 <1>   0.0800 
 32 H        3.3540     2.2080     0.9490 H     1 <1>   0.0800 
 33 H        4.5100     2.6810    -0.2740 H     1 <1>   0.0800 
 34 H        4.2680     0.9880     0.0850 H     1 <1>   0.0800 
 35 H       -3.5540    -2.3820    -3.4400 H     1 <1>   0.0800 
 36 H       -4.6180    -1.2540    -2.6560 H     1 <1>   0.0800 
 37 H        1.2500    -2.8860     3.9600 H     1 <1>   0.0800 
 38 H        0.3460    -3.8880     2.8240 H     1 <1>   0.0800 
 39 H       -0.4790    -2.6200     3.7350 H     1 <1>   0.0800 
 40 H       -4.2440    -4.4520    -2.6150 H     1 <1>   0.0800 
 41 H       -5.6790    -3.6130    -2.0880 H     1 <1>   0.0800 
 42 H       -5.4380    -1.7370    -0.4360 H     1 <1>   0.0800 
 43 H       -3.8440    -1.3030     0.1150 H     1 <1>   0.0800 
 44 H       -3.9120    -5.3830    -0.3890 H     1 <1>   0.0800 
 45 H       -5.5070    -5.7620    -0.9600 H     1 <1>   0.0800 
 46 H       -5.0380    -2.5910     1.8250 H     1 <1>   0.0800 
 47 H       -3.6270    -3.4380     1.2830 H     1 <1>   0.0800 
 48 H       -8.9840    -6.7810     0.8730 H     1 <1>   0.1500 
 49 H       -8.9780    -2.9910     2.7570 H     1 <1>   0.1500 
 50 H      -10.1680    -5.0910     2.2310 H     1 <1>   0.1500 
@<TRIPOS>BOND
  1   1   2  1   
  2   1   3  1   
  3   2   4  1   
  4   2   5  2   
  5   3   6  2   
  6   3   7  1   
  7   4   8  am  
  8   4  28  1   
  9   5   6  1   
 10   5   9  1   
 11   6  29  1   
 12   7  10  1   
 13   7  30  1   
 14   7  31  1   
 15   8  11  2   
 16   8  12  1   
 17   9  13  2   
 18   9  14  1   
 19  10  32  1   
 20  10  33  1   
 21  10  34  1   
 22  12  15  1   
 23  12  35  1   
 24  12  36  1   
 25  14  16  1   
 26  15  17  1   
 27  15  18  1   
 28  16  37  1   
 29  16  38  1   
 30  16  39  1   
 31  17  19  1   
 32  17  40  1   
 33  17  41  1   
 34  18  20  1   
 35  18  42  1   
 36  18  43  1   
 37  19  21  1   
 38  19  44  1   
 39  19  45  1   
 40  20  21  1   
 41  20  46  1   
 42  20  47  1   
 43  21  22  1   
 44  22  23  ar  
 45  22  24  ar  
 46  23  25  ar  
 47  24  26  ar  
 48  25  27  ar  
 49  25  48  1   
 50  26  27  ar  
 51  26  49  1   
 52  27  50  1   
@<TRIPOS>SUBSTRUCTURE
  1 ****  18 GROUP 4 **** **** 0

# MOE 2024.06 (io_trps.svl 2023.06)
