@<TRIPOS>MOLECULE
Structure2382
37 37 1 0 0 
SMALL
USER_CHARGES


@<TRIPOS>ATOM
  1 O        0.1750    -0.3260     0.6960 O.2   1 <1>  -0.5700 
  2 C        0.1290    -1.5370     0.6540 C.2   1 <1>   0.7800 
  3 O       -0.9590    -2.1770     0.2210 O.3   1 <1>  -0.4300 
  4 N        1.1980    -2.3090     1.0280 N.am  1 <1>  -0.6600 
  5 C       -2.1800    -1.6010    -0.1950 C.3   1 <1>   0.2800 
  6 C        1.2510    -3.7930     0.8490 C.3   1 <1>   0.1400 
  7 C        2.4700    -1.7000     1.5280 C.3   1 <1>   0.1400 
  8 C       -3.0750    -2.7860    -0.5630 C.3   1 <1>  -0.2400 
  9 C       -2.8220    -0.8240     0.9600 C.3   1 <1>  -0.2400 
 10 C       -1.9610    -0.7300    -1.4380 C.3   1 <1>  -0.2400 
 11 C        2.4420    -4.1950    -0.0430 C.3   1 <1>   0.3430 
 12 C        3.6550    -2.0960     0.6310 C.3   1 <1>   0.3430 
 13 N        3.7180    -3.5800     0.4330 N.4   1 <1>  -0.9590 
 14 C        4.9550    -3.9720    -0.3520 C.3   1 <1>   0.2370 
 15 C        6.1730    -4.0100     0.5740 C.2   1 <1>   0.9060 
 16 O        5.9130    -4.0370     1.7880 O.co2 1 <1>  -0.9000 
 17 O        7.3070    -3.9650     0.1040 O.co2 1 <1>  -0.9000 
 18 H        0.3420    -4.1610     0.4060 H     1 <1>   0.0800 
 19 H        1.3540    -4.2590     1.8140 H     1 <1>   0.0800 
 20 H        2.6550    -2.0380     2.5330 H     1 <1>   0.0800 
 21 H        2.3950    -0.6260     1.5560 H     1 <1>   0.0800 
 22 H       -2.6330    -3.3580    -1.3590 H     1 <1>   0.0800 
 23 H       -4.0370    -2.4380    -0.8920 H     1 <1>   0.0800 
 24 H       -3.2210    -3.4230     0.2910 H     1 <1>   0.0800 
 25 H       -2.8960    -1.4440     1.8340 H     1 <1>   0.0800 
 26 H       -3.8100    -0.5060     0.6830 H     1 <1>   0.0800 
 27 H       -2.2550     0.0580     1.1980 H     1 <1>   0.0800 
 28 H       -1.4500    -1.2860    -2.2020 H     1 <1>   0.0800 
 29 H       -1.3950     0.1520    -1.2000 H     1 <1>   0.0800 
 30 H       -2.9090    -0.4070    -1.8290 H     1 <1>   0.0800 
 31 H        2.2420    -3.8700    -1.0510 H     1 <1>   0.0800 
 32 H        2.5360    -5.2680    -0.0510 H     1 <1>   0.0800 
 33 H        4.5730    -1.7560     1.0850 H     1 <1>   0.0800 
 34 H        3.5500    -1.6050    -0.3210 H     1 <1>   0.0800 
 35 H        3.9840    -3.9520     1.3750 H     1 <1>   0.4500 
 36 H        5.1470    -3.2770    -1.1490 H     1 <1>   0.0800 
 37 H        4.8420    -4.9570    -0.7640 H     1 <1>   0.0800 
@<TRIPOS>BOND
  1   1   2  2   
  2   2   3  1   
  3   2   4  am  
  4   3   5  1   
  5   4   6  1   
  6   4   7  1   
  7   5   8  1   
  8   5   9  1   
  9   5  10  1   
 10   6  11  1   
 11   6  18  1   
 12   6  19  1   
 13   7  12  1   
 14   7  20  1   
 15   7  21  1   
 16   8  22  1   
 17   8  23  1   
 18   8  24  1   
 19   9  25  1   
 20   9  26  1   
 21   9  27  1   
 22  10  28  1   
 23  10  29  1   
 24  10  30  1   
 25  11  13  1   
 26  11  31  1   
 27  11  32  1   
 28  12  13  1   
 29  12  33  1   
 30  12  34  1   
 31  13  14  1   
 32  13  35  1   
 33  14  15  1   
 34  14  36  1   
 35  14  37  1   
 36  15  16  ar  
 37  15  17  ar  
@<TRIPOS>SUBSTRUCTURE
  1 ****   4 GROUP 4 **** **** 0

# MOE 2024.06 (io_trps.svl 2023.06)
