@<TRIPOS>MOLECULE
NONAME
48 49 1 0 0 
SMALL
USER_CHARGES


@<TRIPOS>ATOM
  1 O       -3.0780     2.7920     1.0640 O.2   1 <1>  -0.5700 
  2 C       -2.7740     1.7620     0.5020 C.2   1 <1>   0.5690 
  3 N       -3.6140     1.2800    -0.4830 N.am  1 <1>  -0.6600 
  4 C       -1.4580     1.0600     0.9770 C.3   1 <1>   0.0610 
  5 C       -3.2290     0.3680    -1.5970 C.3   1 <1>   0.2200 
  6 C       -5.0410     1.7660    -0.4720 C.3   1 <1>   0.3200 
  7 C       -1.6430    -0.4590     1.2030 C.3   1 <1>  -0.2400 
  8 C       -1.0130     1.6230     2.3490 C.3   1 <1>  -0.2400 
  9 C       -0.2860     1.3240     0.0090 C.3   1 <1>  -0.2400 
 10 C       -3.2140     1.1310    -2.9210 C.3   1 <1>  -0.2400 
 11 C       -4.1450    -0.8560    -1.6610 C.3   1 <1>  -0.2400 
 12 C       -5.9290     0.9020     0.4140 C.2   1 <1>   0.2980 
 13 O       -5.6090     0.7510     1.6730 O.3   1 <1>  -0.0190 
 14 N       -6.9790     0.2880     0.0430 N.2   1 <1>  -0.5650 
 15 N       -6.5280    -0.0330     2.1420 N.2   1 <1>  -0.4100 
 16 C       -7.3410    -0.3090     1.1840 C.2   1 <1>   0.4620 
 17 C       -8.5130    -1.1640     1.2870 C.ar  1 <1>   0.0540 
 18 C       -9.3480    -1.4040     0.1930 C.ar  1 <1>  -0.1500 
 19 C       -8.8520    -1.7820     2.4920 C.ar  1 <1>  -0.1500 
 20 C      -10.4630    -2.2200     0.2870 C.ar  1 <1>  -0.1440 
 21 C       -9.9640    -2.5960     2.5990 C.ar  1 <1>  -0.1500 
 22 C      -10.7700    -2.8160     1.4980 C.ar  1 <1>  -0.1500 
 23 C      -11.3510    -2.4610    -0.9200 C.3   1 <1>  -0.0970 
 24 H       -2.2350     0.0100    -1.4420 H     1 <1>   0.0800 
 25 H       -5.4440     1.7610    -1.4660 H     1 <1>   0.0800 
 26 H       -5.0940     2.7810    -0.1210 H     1 <1>   0.0800 
 27 H       -1.7910    -1.0010     0.2930 H     1 <1>   0.0800 
 28 H       -2.4950    -0.6310     1.8370 H     1 <1>   0.0800 
 29 H       -0.7760    -0.8780     1.6830 H     1 <1>   0.0800 
 30 H       -1.7910     1.4810     3.0790 H     1 <1>   0.0800 
 31 H       -0.8140     2.6780     2.2790 H     1 <1>   0.0800 
 32 H       -0.1210     1.1380     2.7030 H     1 <1>   0.0800 
 33 H       -0.4560     0.9130    -0.9660 H     1 <1>   0.0800 
 34 H        0.6230     0.8960     0.3920 H     1 <1>   0.0800 
 35 H       -0.1390     2.3840    -0.1020 H     1 <1>   0.0800 
 36 H       -4.2020     1.4230    -3.2260 H     1 <1>   0.0800 
 37 H       -2.8030     0.5050    -3.6920 H     1 <1>   0.0800 
 38 H       -2.5950     2.0060    -2.8330 H     1 <1>   0.0800 
 39 H       -5.1370    -0.5910    -1.9750 H     1 <1>   0.0800 
 40 H       -4.1920    -1.3360    -0.7000 H     1 <1>   0.0800 
 41 H       -3.7530    -1.5620    -2.3700 H     1 <1>   0.0800 
 42 H       -9.1150    -0.9410    -0.7490 H     1 <1>   0.1500 
 43 H       -8.2350    -1.6210     3.3590 H     1 <1>   0.1500 
 44 H      -10.2030    -3.0610     3.5400 H     1 <1>   0.1500 
 45 H      -11.6350    -3.4500     1.5870 H     1 <1>   0.1500 
 46 H      -10.8500    -2.1750    -1.8270 H     1 <1>   0.0800 
 47 H      -12.2550    -1.8860    -0.8280 H     1 <1>   0.0800 
 48 H      -11.6070    -3.5030    -0.9890 H     1 <1>   0.0800 
@<TRIPOS>BOND
  1   1   2  2   
  2   2   3  am  
  3   2   4  1   
  4   3   5  1   
  5   3   6  1   
  6   4   7  1   
  7   4   8  1   
  8   4   9  1   
  9   5  10  1   
 10   5  11  1   
 11   5  24  1   
 12   6  12  1   
 13   6  25  1   
 14   6  26  1   
 15   7  27  1   
 16   7  28  1   
 17   7  29  1   
 18   8  30  1   
 19   8  31  1   
 20   8  32  1   
 21   9  33  1   
 22   9  34  1   
 23   9  35  1   
 24  10  36  1   
 25  10  37  1   
 26  10  38  1   
 27  11  39  1   
 28  11  40  1   
 29  11  41  1   
 30  12  13  1   
 31  12  14  2   
 32  13  15  1   
 33  14  16  1   
 34  15  16  2   
 35  16  17  1   
 36  17  18  ar  
 37  17  19  ar  
 38  18  20  ar  
 39  18  42  1   
 40  19  21  ar  
 41  19  43  1   
 42  20  22  ar  
 43  20  23  1   
 44  21  22  ar  
 45  21  44  1   
 46  22  45  1   
 47  23  46  1   
 48  23  47  1   
 49  23  48  1   
@<TRIPOS>SUBSTRUCTURE
  1 ****  12 GROUP 4 **** **** 0

# MOE 2024.06 (io_trps.svl 2023.06)
