@<TRIPOS>MOLECULE
NONAME
41 43 1 0 0 
SMALL
USER_CHARGES


@<TRIPOS>ATOM
  1 S        0.1910    -0.1000    -0.2410 S.o2  1 <1>   1.1020 
  2 O        0.8070    -0.0410     1.0710 O.2   1 <1>  -0.6500 
  3 O        0.8020     0.5050    -1.4070 O.2   1 <1>  -0.6500 
  4 C       -1.5600     0.3100    -0.1240 C.3   1 <1>   0.0990 
  5 C       -0.5530    -1.6830    -0.6010 C.3   1 <1>   0.2070 
  6 C       -1.7800    -1.2120     0.2760 C.3   1 <1>   0.2100 
  7 C       -1.9050     1.3090     1.0020 C.3   1 <1>  -0.2400 
  8 C       -2.2200     0.7460    -1.4560 C.3   1 <1>  -0.2400 
  9 C        0.1730    -2.9440    -0.1210 C.ar  1 <1>  -0.1080 
 10 N       -3.0770    -1.8010    -0.1310 N.3   1 <1>  -0.7500 
 11 C        0.4760    -3.9290    -1.0500 C.ar  1 <1>  -0.1500 
 12 C        0.5260    -3.1440     1.2080 C.ar  1 <1>  -0.1500 
 13 C       -3.0610    -3.2770     0.0050 C.3   1 <1>   0.1100 
 14 C       -4.1890    -1.2650     0.6850 C.3   1 <1>   0.1100 
 15 C        1.1130    -5.0950    -0.6610 C.ar  1 <1>  -0.1500 
 16 C        1.1630    -4.3090     1.5980 C.ar  1 <1>  -0.1500 
 17 C       -4.4340    -3.8960    -0.3110 C.3   1 <1>   0.1200 
 18 C       -5.5260    -1.9420     0.3380 C.3   1 <1>   0.1200 
 19 C        1.4560    -5.2860     0.6650 C.ar  1 <1>  -0.1500 
 20 O       -5.4240    -3.3260     0.4920 O.3   1 <1>  -0.5600 
 21 H       -0.8390    -1.7620    -1.6350 H     1 <1>   0.0000 
 22 H       -1.6030    -1.3720     1.3250 H     1 <1>   0.0000 
 23 H       -1.5160     0.9680     1.9460 H     1 <1>   0.0800 
 24 H       -2.9660     1.4390     1.0970 H     1 <1>   0.0800 
 25 H       -1.4640     2.2660     0.7850 H     1 <1>   0.0800 
 26 H       -2.0180     0.0470    -2.2460 H     1 <1>   0.0800 
 27 H       -1.8380     1.7060    -1.7550 H     1 <1>   0.0800 
 28 H       -3.2860     0.8230    -1.3430 H     1 <1>   0.0800 
 29 H        0.2180    -3.7970    -2.0870 H     1 <1>   0.1500 
 30 H        0.3170    -2.3990     1.9570 H     1 <1>   0.1500 
 31 H       -2.7770    -3.5540     1.0070 H     1 <1>   0.0800 
 32 H       -2.3440    -3.7000    -0.6750 H     1 <1>   0.0800 
 33 H       -4.2960    -0.2120     0.5100 H     1 <1>   0.0800 
 34 H       -3.9850    -1.4150     1.7320 H     1 <1>   0.0800 
 35 H        1.3440    -5.8520    -1.3900 H     1 <1>   0.1500 
 36 H        1.4340    -4.4530     2.6300 H     1 <1>   0.1500 
 37 H       -4.4200    -4.9530    -0.1150 H     1 <1>   0.0800 
 38 H       -4.6910    -3.7370    -1.3440 H     1 <1>   0.0800 
 39 H       -5.8090    -1.7260    -0.6770 H     1 <1>   0.0800 
 40 H       -6.3030    -1.5960     0.9970 H     1 <1>   0.0800 
 41 H        1.9520    -6.1910     0.9690 H     1 <1>   0.1500 
@<TRIPOS>BOND
  1   1   2  2   
  2   1   3  2   
  3   1   4  1   
  4   1   5  1   
  5   4   6  1   
  6   4   7  1   
  7   4   8  1   
  8   5   6  1   
  9   5   9  1   
 10   5  21  1   
 11   6  10  1   
 12   6  22  1   
 13   7  23  1   
 14   7  24  1   
 15   7  25  1   
 16   8  26  1   
 17   8  27  1   
 18   8  28  1   
 19   9  11  ar  
 20   9  12  ar  
 21  10  13  1   
 22  10  14  1   
 23  11  15  ar  
 24  11  29  1   
 25  12  16  ar  
 26  12  30  1   
 27  13  17  1   
 28  13  31  1   
 29  13  32  1   
 30  14  18  1   
 31  14  33  1   
 32  14  34  1   
 33  15  19  ar  
 34  15  35  1   
 35  16  19  ar  
 36  16  36  1   
 37  17  20  1   
 38  17  37  1   
 39  17  38  1   
 40  18  20  1   
 41  18  39  1   
 42  18  40  1   
 43  19  41  1   
@<TRIPOS>SUBSTRUCTURE
  1 ****   6 GROUP 4 **** **** 0

# MOE 2024.06 (io_trps.svl 2023.06)
