@<TRIPOS>MOLECULE
NONAME
53 57 1 0 0 
SMALL
USER_CHARGES


@<TRIPOS>ATOM
  1 O       -0.5030    -0.0400    -0.4400 O.2   1 <1>  -0.5700 
  2 C       -0.8130    -0.9870     0.2580 C.2   1 <1>   0.6900 
  3 N       -2.0630    -1.0610     0.8070 N.am  1 <1>  -0.6600 
  4 N        0.0640    -1.9850     0.5250 N.am  1 <1>  -0.7300 
  5 C       -2.8100    -2.3490     0.9210 C.3   1 <1>   0.1400 
  6 C       -2.9530     0.1380     0.8210 C.3   1 <1>   0.1400 
  7 C        1.4570    -2.1340     0.0740 C.3   1 <1>   0.3000 
  8 C       -3.8930    -2.4610    -0.1670 C.3   1 <1>   0.1400 
  9 C       -3.9990     0.0400    -0.2960 C.3   1 <1>   0.1400 
 10 C        1.5390    -2.1930    -1.4640 C.3   1 <1>  -0.1600 
 11 C        1.9860    -3.4620     0.6480 C.3   1 <1>  -0.1600 
 12 C        2.3330    -0.9820     0.6030 C.3   1 <1>  -0.1600 
 13 N       -4.7640    -1.2440    -0.1970 N.am  1 <1>  -0.6600 
 14 C        3.0010    -2.4040    -1.9060 C.3   1 <1>  -0.0800 
 15 C        3.4490    -3.6890     0.2190 C.3   1 <1>  -0.0800 
 16 C        3.7970    -1.1890     0.1650 C.3   1 <1>  -0.0800 
 17 C       -6.1310    -1.2620     0.0090 C.2   1 <1>   0.7150 
 18 C        3.5220    -3.7290    -1.3190 C.3   1 <1>  -0.1600 
 19 C        3.8610    -1.2410    -1.3740 C.3   1 <1>  -0.1600 
 20 C        4.3130    -2.5230     0.7370 C.3   1 <1>  -0.1600 
 21 O       -6.6510    -0.2550     0.4600 O.2   1 <1>  -0.5700 
 22 C       -6.9710    -2.4110    -0.2700 C.2   1 <1>   0.0550 
 23 O       -6.5930    -3.4030    -1.0770 O.3   1 <1>  -0.2800 
 24 C       -8.2310    -2.6850     0.1730 C.2   1 <1>  -0.1500 
 25 C       -7.5620    -4.2870    -1.1510 C.2   1 <1>  -0.0100 
 26 C       -8.6110    -3.9010    -0.3950 C.2   1 <1>  -0.1500 
 27 H       -0.1700    -2.5610     1.3250 H     1 <1>   0.3700 
 28 H       -3.2750    -2.3990     1.8900 H     1 <1>   0.0800 
 29 H       -2.1420    -3.1870     0.8310 H     1 <1>   0.0800 
 30 H       -2.3730     1.0360     0.6920 H     1 <1>   0.0800 
 31 H       -3.4510     0.2030     1.7720 H     1 <1>   0.0800 
 32 H       -4.4730    -3.3420     0.0320 H     1 <1>   0.0800 
 33 H       -3.4230    -2.5790    -1.1280 H     1 <1>   0.0800 
 34 H       -3.4980     0.0800    -1.2480 H     1 <1>   0.0800 
 35 H       -4.6610     0.8860    -0.2400 H     1 <1>   0.0800 
 36 H        0.9270    -2.9960    -1.8320 H     1 <1>   0.0800 
 37 H        1.1770    -1.2740    -1.8880 H     1 <1>   0.0800 
 38 H        1.3830    -4.2780     0.2930 H     1 <1>   0.0800 
 39 H        1.9340    -3.4430     1.7220 H     1 <1>   0.0800 
 40 H        2.2760    -0.9390     1.6750 H     1 <1>   0.0800 
 41 H        1.9810    -0.0440     0.2110 H     1 <1>   0.0800 
 42 H        3.0530    -2.4340    -2.9810 H     1 <1>   0.0800 
 43 H        3.8100    -4.6190     0.6250 H     1 <1>   0.0800 
 44 H        4.4030    -0.3770     0.5280 H     1 <1>   0.0800 
 45 H        4.5390    -3.8890    -1.6310 H     1 <1>   0.0800 
 46 H        2.9340    -4.5490    -1.6920 H     1 <1>   0.0800 
 47 H        3.5060    -0.3100    -1.7830 H     1 <1>   0.0800 
 48 H        4.8820    -1.3680    -1.6910 H     1 <1>   0.0800 
 49 H        4.2820    -2.4950     1.8130 H     1 <1>   0.0800 
 50 H        5.3380    -2.6720     0.4450 H     1 <1>   0.0800 
 51 H       -8.8310    -2.0810     0.8320 H     1 <1>   0.1500 
 52 H       -7.4280    -5.1610    -1.7650 H     1 <1>   0.1500 
 53 H       -9.5520    -4.4000    -0.2450 H     1 <1>   0.1500 
@<TRIPOS>BOND
  1   1   2  2   
  2   2   3  am  
  3   2   4  am  
  4   3   5  1   
  5   3   6  1   
  6   4   7  1   
  7   4  27  1   
  8   5   8  1   
  9   5  28  1   
 10   5  29  1   
 11   6   9  1   
 12   6  30  1   
 13   6  31  1   
 14   7  10  1   
 15   7  11  1   
 16   7  12  1   
 17   8  13  1   
 18   8  32  1   
 19   8  33  1   
 20   9  13  1   
 21   9  34  1   
 22   9  35  1   
 23  10  14  1   
 24  10  36  1   
 25  10  37  1   
 26  11  15  1   
 27  11  38  1   
 28  11  39  1   
 29  12  16  1   
 30  12  40  1   
 31  12  41  1   
 32  13  17  am  
 33  14  18  1   
 34  14  19  1   
 35  14  42  1   
 36  15  18  1   
 37  15  20  1   
 38  15  43  1   
 39  16  19  1   
 40  16  20  1   
 41  16  44  1   
 42  17  21  2   
 43  17  22  1   
 44  18  45  1   
 45  18  46  1   
 46  19  47  1   
 47  19  48  1   
 48  20  49  1   
 49  20  50  1   
 50  22  23  1   
 51  22  24  2   
 52  23  25  1   
 53  24  26  1   
 54  24  51  1   
 55  25  26  2   
 56  25  52  1   
 57  26  53  1   
@<TRIPOS>SUBSTRUCTURE
  1 ****   2 GROUP 4 **** **** 0

# MOE 2024.06 (io_trps.svl 2023.06)
