@<TRIPOS>MOLECULE
NONAME
49 51 1 0 0 
SMALL
USER_CHARGES


@<TRIPOS>ATOM
  1 S       -1.4980    -1.2700    -0.0820 S.3   1 <1>  -0.3320 
  2 C       -3.0370    -0.4410     0.3430 C.ar  1 <1>   0.1020 
  3 C       -0.6260    -1.6310     1.5060 C.3   1 <1>  -0.0100 
  4 C       -3.8660    -0.0830    -0.6980 C.ar  1 <1>  -0.1500 
  5 C       -3.3900    -0.1670     1.6530 C.ar  1 <1>  -0.1500 
  6 C       -5.0740     0.5610    -0.4430 C.ar  1 <1>   0.0830 
  7 C       -4.5870     0.4750     1.9050 C.ar  1 <1>  -0.1500 
  8 O       -5.9070     0.9030    -1.4580 O.3   1 <1>  -0.3630 
  9 C       -5.4570     0.8630     0.8800 C.ar  1 <1>   0.0860 
 10 C       -5.5790     0.7660    -2.8240 C.3   1 <1>   0.0400 
 11 C       -6.6940     1.5450     1.2280 C.2   1 <1>   0.5440 
 12 O       -7.1930     1.4020     2.3280 O.2   1 <1>  -0.5700 
 13 N       -7.3350     2.3500     0.3230 N.am  1 <1>  -0.5470 
 14 C       -8.5730     2.9890     0.4210 C.ar  1 <1>   0.1170 
 15 C       -9.5640     2.7430    -0.5370 C.ar  1 <1>   0.0860 
 16 C       -8.8260     3.8800     1.4580 C.ar  1 <1>  -0.1500 
 17 C       -9.3510     1.7530    -1.5660 C.2   1 <1>   0.5440 
 18 C      -10.7670     3.4430    -0.4520 C.ar  1 <1>  -0.1500 
 19 C      -10.0290     4.5530     1.5360 C.ar  1 <1>  -0.1500 
 20 O       -8.9920     2.1060    -2.6750 O.2   1 <1>  -0.5700 
 21 N       -9.5250     0.4090    -1.3110 N.am  1 <1>  -0.6600 
 22 C      -11.0010     4.3400     0.5730 C.ar  1 <1>  -0.1500 
 23 C       -9.2780    -0.6450    -2.3390 C.3   1 <1>   0.1400 
 24 C       -9.8800    -0.1490     0.0330 C.3   1 <1>   0.1400 
 25 C       -8.3410    -1.7330    -1.7890 C.3   1 <1>   0.1200 
 26 C       -8.9090    -1.2720     0.4350 C.3   1 <1>   0.1200 
 27 O       -8.8230    -2.2370    -0.5760 O.3   1 <1>  -0.5600 
 28 H        0.2940    -2.1310     1.2640 H     1 <1>   0.0800 
 29 H       -1.2600    -2.2660     2.0970 H     1 <1>   0.0800 
 30 H       -0.4320    -0.6960     1.9990 H     1 <1>   0.0800 
 31 H       -3.5490    -0.3230    -1.6940 H     1 <1>   0.1500 
 32 H       -2.7560    -0.4430     2.4720 H     1 <1>   0.1500 
 33 H       -4.8600     0.6870     2.9250 H     1 <1>   0.1500 
 34 H       -6.3990     1.1550    -3.4030 H     1 <1>   0.0800 
 35 H       -5.4360    -0.2760    -3.0500 H     1 <1>   0.0800 
 36 H       -4.6870     1.3310    -3.0300 H     1 <1>   0.0800 
 37 H       -6.9970     2.2040    -0.6370 H     1 <1>   0.3700 
 38 H       -8.0670     4.0410     2.2030 H     1 <1>   0.1500 
 39 H      -11.5210     3.2700    -1.1990 H     1 <1>   0.1500 
 40 H      -10.2090     5.2430     2.3430 H     1 <1>   0.1500 
 41 H      -11.9360     4.8710     0.6270 H     1 <1>   0.1500 
 42 H       -8.8410    -0.2180    -3.2240 H     1 <1>   0.0800 
 43 H      -10.2150    -1.0920    -2.6160 H     1 <1>   0.0800 
 44 H      -10.8780    -0.5470    -0.0050 H     1 <1>   0.0800 
 45 H       -9.8570     0.6120     0.7920 H     1 <1>   0.0800 
 46 H       -7.3530    -1.3390    -1.6290 H     1 <1>   0.0800 
 47 H       -8.2780    -2.5530    -2.4820 H     1 <1>   0.0800 
 48 H       -9.2570    -1.7600     1.3280 H     1 <1>   0.0800 
 49 H       -7.9270    -0.8780     0.6210 H     1 <1>   0.0800 
@<TRIPOS>BOND
  1   1   2  1   
  2   1   3  1   
  3   2   4  ar  
  4   2   5  ar  
  5   3  28  1   
  6   3  29  1   
  7   3  30  1   
  8   4   6  ar  
  9   4  31  1   
 10   5   7  ar  
 11   5  32  1   
 12   6   8  1   
 13   6   9  ar  
 14   7   9  ar  
 15   7  33  1   
 16   8  10  1   
 17   9  11  1   
 18  10  34  1   
 19  10  35  1   
 20  10  36  1   
 21  11  12  2   
 22  11  13  am  
 23  13  14  1   
 24  13  37  1   
 25  14  15  ar  
 26  14  16  ar  
 27  15  17  1   
 28  15  18  ar  
 29  16  19  ar  
 30  16  38  1   
 31  17  20  2   
 32  17  21  am  
 33  18  22  ar  
 34  18  39  1   
 35  19  22  ar  
 36  19  40  1   
 37  21  23  1   
 38  21  24  1   
 39  22  41  1   
 40  23  25  1   
 41  23  42  1   
 42  23  43  1   
 43  24  26  1   
 44  24  44  1   
 45  24  45  1   
 46  25  27  1   
 47  25  46  1   
 48  25  47  1   
 49  26  27  1   
 50  26  48  1   
 51  26  49  1   
@<TRIPOS>SUBSTRUCTURE
  1 ****  13 GROUP 4 **** **** 0

# MOE 2024.06 (io_trps.svl 2023.06)
