@<TRIPOS>MOLECULE
NONAME
56 58 1 0 0 
SMALL
USER_CHARGES


@<TRIPOS>ATOM
  1 O        0.2750    -0.0310     0.1420 O.2   1 <1>  -0.5700 
  2 C        0.7710    -1.1160    -0.0830 C.2   1 <1>   0.6900 
  3 N        2.1220    -1.1970    -0.3330 N.am  1 <1>  -0.6600 
  4 N        0.0180    -2.2550    -0.0720 N.am  1 <1>  -0.5470 
  5 C        2.9630     0.0310    -0.1640 C.3   1 <1>   0.1400 
  6 C        2.7330    -2.2770    -1.1690 C.3   1 <1>   0.1400 
  7 C       -1.3730    -2.4290    -0.0640 C.ar  1 <1>   0.1170 
  8 C        4.4070    -0.3120     0.2410 C.3   1 <1>   0.3430 
  9 C        4.1900    -2.5690    -0.7510 C.3   1 <1>   0.3430 
 10 C       -2.2560    -1.4750    -0.5580 C.ar  1 <1>  -0.1500 
 11 C       -1.9010    -3.6130     0.4360 C.ar  1 <1>  -0.1500 
 12 N        5.0300    -1.3220    -0.6900 N.4   1 <1>  -0.9590 
 13 C       -3.6210    -1.6980    -0.5490 C.ar  1 <1>  -0.1500 
 14 C       -3.2660    -3.8380     0.4440 C.ar  1 <1>  -0.1500 
 15 C        6.4580    -1.6360    -0.3930 C.3   1 <1>   0.4230 
 16 C       -4.1430    -2.8830    -0.0490 C.ar  1 <1>  -0.1430 
 17 C        6.6760    -2.1090     1.0550 C.3   1 <1>  -0.1600 
 18 C        7.3410    -0.4230    -0.7140 C.3   1 <1>  -0.1600 
 19 C       -5.6480    -3.1440    -0.0310 C.3   1 <1>   0.0630 
 20 C        8.1560    -2.4430     1.2970 C.3   1 <1>  -0.1600 
 21 C        8.8220    -0.7510    -0.4760 C.3   1 <1>  -0.1600 
 22 C       -6.2180    -3.1510    -1.4530 C.3   1 <1>  -0.2400 
 23 C       -6.3720    -2.1140     0.8410 C.3   1 <1>  -0.2400 
 24 C        9.0570    -1.2480     0.9570 C.3   1 <1>  -0.1600 
 25 H        0.5470    -3.0970     0.1130 H     1 <1>   0.3700 
 26 H        2.5390     0.6630     0.5990 H     1 <1>   0.0800 
 27 H        2.9610     0.5910    -1.0830 H     1 <1>   0.0800 
 28 H        2.7110    -1.9720    -2.2010 H     1 <1>   0.0800 
 29 H        2.1620    -3.1850    -1.0910 H     1 <1>   0.0800 
 30 H        4.3910    -0.7020     1.2450 H     1 <1>   0.0800 
 31 H        4.9890     0.5940     0.2500 H     1 <1>   0.0800 
 32 H        4.6210    -3.2670    -1.4500 H     1 <1>   0.0800 
 33 H        4.1750    -3.0410     0.2170 H     1 <1>   0.0800 
 34 H       -1.8810    -0.5500    -0.9540 H     1 <1>   0.1500 
 35 H       -1.2460    -4.3690     0.8260 H     1 <1>   0.1500 
 36 H        5.0150    -0.9040    -1.6290 H     1 <1>   0.4500 
 37 H       -4.2770    -0.9390    -0.9360 H     1 <1>   0.1500 
 38 H       -3.6450    -4.7640     0.8390 H     1 <1>   0.1500 
 39 H        6.7730    -2.4370    -1.0450 H     1 <1>   0.0800 
 40 H        6.0940    -2.9890     1.2580 H     1 <1>   0.0800 
 41 H        6.3950    -1.3390     1.7520 H     1 <1>   0.0800 
 42 H        7.0790     0.4110    -0.0890 H     1 <1>   0.0800 
 43 H        7.2140    -0.1380    -1.7440 H     1 <1>   0.0800 
 44 H       -5.8240    -4.1170     0.3970 H     1 <1>   0.0800 
 45 H        8.4420    -3.2880     0.6930 H     1 <1>   0.0800 
 46 H        8.3020    -2.7170     2.3280 H     1 <1>   0.0800 
 47 H        9.4220     0.1280    -0.6510 H     1 <1>   0.0800 
 48 H        9.1460    -1.5070    -1.1720 H     1 <1>   0.0800 
 49 H       -6.1120    -2.1850    -1.9130 H     1 <1>   0.0800 
 50 H       -7.2610    -3.4110    -1.4350 H     1 <1>   0.0800 
 51 H       -5.6940    -3.8740    -2.0530 H     1 <1>   0.0800 
 52 H       -6.2690    -1.1250     0.4310 H     1 <1>   0.0800 
 53 H       -5.9530    -2.1170     1.8320 H     1 <1>   0.0800 
 54 H       -7.4180    -2.3510     0.9090 H     1 <1>   0.0800 
 55 H       10.0900    -1.5350     1.0710 H     1 <1>   0.0800 
 56 H        8.8680    -0.4460     1.6510 H     1 <1>   0.0800 
@<TRIPOS>BOND
  1   1   2  2   
  2   2   3  am  
  3   2   4  am  
  4   3   5  1   
  5   3   6  1   
  6   4   7  1   
  7   4  25  1   
  8   5   8  1   
  9   5  26  1   
 10   5  27  1   
 11   6   9  1   
 12   6  28  1   
 13   6  29  1   
 14   7  10  ar  
 15   7  11  ar  
 16   8  12  1   
 17   8  30  1   
 18   8  31  1   
 19   9  12  1   
 20   9  32  1   
 21   9  33  1   
 22  10  13  ar  
 23  10  34  1   
 24  11  14  ar  
 25  11  35  1   
 26  12  15  1   
 27  12  36  1   
 28  13  16  ar  
 29  13  37  1   
 30  14  16  ar  
 31  14  38  1   
 32  15  17  1   
 33  15  18  1   
 34  15  39  1   
 35  16  19  1   
 36  17  20  1   
 37  17  40  1   
 38  17  41  1   
 39  18  21  1   
 40  18  42  1   
 41  18  43  1   
 42  19  22  1   
 43  19  23  1   
 44  19  44  1   
 45  20  24  1   
 46  20  45  1   
 47  20  46  1   
 48  21  24  1   
 49  21  47  1   
 50  21  48  1   
 51  22  49  1   
 52  22  50  1   
 53  22  51  1   
 54  23  52  1   
 55  23  53  1   
 56  23  54  1   
 57  24  55  1   
 58  24  56  1   
@<TRIPOS>SUBSTRUCTURE
  1 ****   2 GROUP 4 **** **** 0

# MOE 2024.06 (io_trps.svl 2023.06)
