@<TRIPOS>MOLECULE
NONAME
55 59 1 0 0 
SMALL
USER_CHARGES


@<TRIPOS>ATOM
  1 S       -0.5120    -0.9400    -0.2190 S.3   1 <1>  -0.0800 
  2 C       -1.7500     0.2690     0.1320 C.ar  1 <1>   0.2970 
  3 C        0.7880     0.2290     0.0720 C.ar  1 <1>   0.0400 
  4 N       -3.0200    -0.0640     0.0820 N.ar  1 <1>  -0.5670 
  5 C       -1.1770     1.4980     0.4360 C.ar  1 <1>   0.0000 
  6 C        2.1560     0.0320    -0.0070 C.ar  1 <1>   0.4100 
  7 C        0.2710     1.4560     0.4010 C.ar  1 <1>   0.2560 
  8 C       -3.8430     0.9320     0.3720 C.ar  1 <1>   0.4100 
  9 C       -2.0640     2.5390     0.7250 C.ar  1 <1>  -0.1430 
 10 N        2.9690     1.0460     0.2300 N.ar  1 <1>  -0.6200 
 11 N        2.7240    -1.1880    -0.3160 N.pl3 1 <1>  -0.8380 
 12 N        1.0990     2.4710     0.6530 N.ar  1 <1>  -0.5660 
 13 N       -5.1880     0.6290     0.3000 N.pl3 1 <1>  -0.8380 
 14 C       -3.4150     2.2320     0.7090 C.ar  1 <1>  -0.1430 
 15 C       -1.5490     3.9400     1.0570 C.3   1 <1>  -0.0170 
 16 C        2.3860     2.1940     0.5470 C.ar  1 <1>   0.4700 
 17 C        3.8350    -1.2660    -1.2980 C.3   1 <1>   0.2090 
 18 C        2.5870    -2.3200     0.6340 C.3   1 <1>   0.2090 
 19 C       -5.6870    -0.5720     1.0390 C.3   1 <1>   0.2090 
 20 C       -5.8460     0.8060    -1.0260 C.3   1 <1>   0.2090 
 21 C       -4.4690     3.2900     1.0490 C.3   1 <1>  -0.0170 
 22 C       -2.6460     5.0090     1.0500 C.3   1 <1>  -0.1600 
 23 C        3.3550    -2.0480    -2.5150 C.3   1 <1>  -0.2400 
 24 C        3.5720    -2.1510     1.7870 C.3   1 <1>  -0.2400 
 25 C       -5.7790    -1.8120     0.1280 C.3   1 <1>   0.1200 
 26 C       -5.9030    -0.5190    -1.8090 C.3   1 <1>   0.1200 
 27 C       -3.8890     4.5040     1.7800 C.3   1 <1>  -0.1600 
 28 O       -6.4970    -1.5280    -1.0410 O.3   1 <1>  -0.5600 
 29 H       -0.7990     4.2300     0.3430 H     1 <1>   0.0800 
 30 H       -1.0880     3.9090     2.0280 H     1 <1>   0.0800 
 31 H        3.0580     3.0120     0.7450 H     1 <1>   0.1500 
 32 H        4.6900    -1.7460    -0.8550 H     1 <1>   0.0800 
 33 H        4.1290    -0.2760    -1.6060 H     1 <1>   0.0800 
 34 H        2.7690    -3.2490     0.1220 H     1 <1>   0.0800 
 35 H        1.5850    -2.3470     1.0250 H     1 <1>   0.0800 
 36 H       -6.6610    -0.3560     1.4410 H     1 <1>   0.0800 
 37 H       -5.0290    -0.7860     1.8630 H     1 <1>   0.0800 
 38 H       -5.3050     1.5340    -1.6040 H     1 <1>   0.0800 
 39 H       -6.8460     1.1740    -0.8790 H     1 <1>   0.0800 
 40 H       -5.2350     2.8550     1.6670 H     1 <1>   0.0800 
 41 H       -4.9310     3.6120     0.1330 H     1 <1>   0.0800 
 42 H       -2.9020     5.2490     0.0330 H     1 <1>   0.0800 
 43 H       -2.2770     5.9040     1.5220 H     1 <1>   0.0800 
 44 H        3.0970    -3.0530    -2.2400 H     1 <1>   0.0800 
 45 H        4.1340    -2.0820    -3.2530 H     1 <1>   0.0800 
 46 H        2.4960    -1.5630    -2.9430 H     1 <1>   0.0800 
 47 H        4.5830    -2.1550     1.4250 H     1 <1>   0.0800 
 48 H        3.4550    -2.9600     2.4840 H     1 <1>   0.0800 
 49 H        3.3830    -1.2260     2.3010 H     1 <1>   0.0800 
 50 H       -6.2850    -2.6100     0.6400 H     1 <1>   0.0800 
 51 H       -4.7940    -2.1470    -0.1460 H     1 <1>   0.0800 
 52 H       -4.9100    -0.8320    -2.0830 H     1 <1>   0.0800 
 53 H       -6.4880    -0.3980    -2.7030 H     1 <1>   0.0800 
 54 H       -3.6280     4.2240     2.7860 H     1 <1>   0.0800 
 55 H       -4.6310     5.2820     1.8300 H     1 <1>   0.0800 
@<TRIPOS>BOND
  1   1   2  1   
  2   1   3  1   
  3   2   4  ar  
  4   2   5  ar  
  5   3   6  ar  
  6   3   7  ar  
  7   4   8  ar  
  8   5   7  1   
  9   5   9  ar  
 10   6  10  ar  
 11   6  11  1   
 12   7  12  ar  
 13   8  13  1   
 14   8  14  ar  
 15   9  14  ar  
 16   9  15  1   
 17  10  16  ar  
 18  11  17  1   
 19  11  18  1   
 20  12  16  ar  
 21  13  19  1   
 22  13  20  1   
 23  14  21  1   
 24  15  22  1   
 25  15  29  1   
 26  15  30  1   
 27  16  31  1   
 28  17  23  1   
 29  17  32  1   
 30  17  33  1   
 31  18  24  1   
 32  18  34  1   
 33  18  35  1   
 34  19  25  1   
 35  19  36  1   
 36  19  37  1   
 37  20  26  1   
 38  20  38  1   
 39  20  39  1   
 40  21  27  1   
 41  21  40  1   
 42  21  41  1   
 43  22  27  1   
 44  22  42  1   
 45  22  43  1   
 46  23  44  1   
 47  23  45  1   
 48  23  46  1   
 49  24  47  1   
 50  24  48  1   
 51  24  49  1   
 52  25  28  1   
 53  25  50  1   
 54  25  51  1   
 55  26  28  1   
 56  26  52  1   
 57  26  53  1   
 58  27  54  1   
 59  27  55  1   
@<TRIPOS>SUBSTRUCTURE
  1 ****   2 GROUP 4 **** **** 0

# MOE 2024.06 (io_trps.svl 2023.06)
