@<TRIPOS>MOLECULE
NONAME
32 34 1 0 0 
SMALL
USER_CHARGES


@<TRIPOS>ATOM
  1 O       -1.3490    -0.2360    -0.7320 O.3   1 <1>  -0.5600 
  2 C       -1.5310     0.9650    -1.4280 C.3   1 <1>   0.1200 
  3 C       -2.3980    -0.5140     0.1550 C.3   1 <1>   0.1200 
  4 C       -1.5830     2.1600    -0.4570 C.3   1 <1>   0.2090 
  5 C       -2.5290     0.5890     1.2230 C.3   1 <1>   0.2090 
  6 N       -2.6070     1.9510     0.6090 N.pl3 1 <1>  -0.8380 
  7 C       -3.8530     2.5210     0.4100 C.ar  1 <1>   0.4100 
  8 N       -4.7560     1.7610    -0.1460 N.ar  1 <1>  -0.6200 
  9 C       -4.1100     3.8830     0.7820 C.ar  1 <1>   0.1670 
 10 C       -5.9470     2.3710    -0.3550 C.ar  1 <1>   0.3100 
 11 N       -5.2360     4.4900     0.5870 N.ar  1 <1>  -0.6200 
 12 C       -3.0120     4.6880     1.4570 C.3   1 <1>  -0.0970 
 13 C       -6.1900     3.7210     0.0010 C.ar  1 <1>   0.3100 
 14 C       -6.9860     1.6400    -0.9520 C.ar  1 <1>  -0.1500 
 15 C       -7.4510     4.2740    -0.2570 C.ar  1 <1>  -0.1500 
 16 C       -8.2130     2.2050    -1.1940 C.ar  1 <1>  -0.1500 
 17 C       -8.4480     3.5360    -0.8430 C.ar  1 <1>  -0.1500 
 18 H       -2.4460     0.9030    -1.9910 H     1 <1>   0.0800 
 19 H       -0.7090     1.0770    -2.1110 H     1 <1>   0.0800 
 20 H       -2.1930    -1.4600     0.6220 H     1 <1>   0.0800 
 21 H       -3.3120    -0.5970    -0.4070 H     1 <1>   0.0800 
 22 H       -1.8120     3.0530    -1.0110 H     1 <1>   0.0800 
 23 H       -0.6180     2.2880    -0.0010 H     1 <1>   0.0800 
 24 H       -1.6780     0.5470     1.8790 H     1 <1>   0.0800 
 25 H       -3.4100     0.4080     1.8140 H     1 <1>   0.0800 
 26 H       -2.6060     4.1310     2.2820 H     1 <1>   0.0800 
 27 H       -3.4010     5.6180     1.8300 H     1 <1>   0.0800 
 28 H       -2.2290     4.8970     0.7530 H     1 <1>   0.0800 
 29 H       -6.7870     0.6180    -1.2160 H     1 <1>   0.1500 
 30 H       -7.6120     5.2990     0.0220 H     1 <1>   0.1500 
 31 H       -9.0010     1.6330    -1.6540 H     1 <1>   0.1500 
 32 H       -9.4140     3.9710    -1.0370 H     1 <1>   0.1500 
@<TRIPOS>BOND
  1   1   2  1   
  2   1   3  1   
  3   2   4  1   
  4   2  18  1   
  5   2  19  1   
  6   3   5  1   
  7   3  20  1   
  8   3  21  1   
  9   4   6  1   
 10   4  22  1   
 11   4  23  1   
 12   5   6  1   
 13   5  24  1   
 14   5  25  1   
 15   6   7  1   
 16   7   8  ar  
 17   7   9  ar  
 18   8  10  ar  
 19   9  11  ar  
 20   9  12  1   
 21  10  13  ar  
 22  10  14  ar  
 23  11  13  ar  
 24  12  26  1   
 25  12  27  1   
 26  12  28  1   
 27  13  15  ar  
 28  14  16  ar  
 29  14  29  1   
 30  15  17  ar  
 31  15  30  1   
 32  16  17  ar  
 33  16  31  1   
 34  17  32  1   
@<TRIPOS>SUBSTRUCTURE
  1 ****   8 GROUP 4 **** **** 0

# MOE 2024.06 (io_trps.svl 2023.06)
