@<TRIPOS>MOLECULE
NONAME
39 40 1 0 0 
SMALL
USER_CHARGES


@<TRIPOS>ATOM
  1 O       -1.4440    -0.1420     1.2080 O.3   1 <1>  -0.3630 
  2 C       -1.9660     0.7770     0.3460 C.ar  1 <1>   0.0830 
  3 C       -0.0880    -0.1510     1.5970 C.3   1 <1>   0.0400 
  4 C       -1.3840     1.9950    -0.0500 C.ar  1 <1>   0.0830 
  5 C       -3.2060     0.4210    -0.1580 C.ar  1 <1>  -0.1500 
  6 O       -0.1730     2.3750     0.4530 O.3   1 <1>  -0.3630 
  7 C       -2.0730     2.8040    -0.9510 C.ar  1 <1>  -0.1500 
  8 C       -3.8910     1.2390    -1.0410 C.ar  1 <1>  -0.1430 
  9 C        0.4810     3.5600     0.0540 C.3   1 <1>   0.0400 
 10 C       -3.3120     2.4320    -1.4420 C.ar  1 <1>  -0.1500 
 11 C       -5.2610     0.8310    -1.5470 C.3   1 <1>   0.4860 
 12 N       -6.2190     0.8890    -0.4100 N.4   1 <1>  -0.9590 
 13 C       -7.5280     0.2710    -0.7620 C.3   1 <1>   0.3430 
 14 C       -6.3690     2.2790     0.1160 C.3   1 <1>   0.3430 
 15 C       -8.4220     0.2180     0.4780 C.3   1 <1>  -0.1600 
 16 C       -7.2440     2.2620     1.3700 C.3   1 <1>  -0.1600 
 17 C       -8.6060     1.6060     1.1070 C.3   1 <1>  -0.1600 
 18 H        0.1050    -1.0680     2.1220 H     1 <1>   0.0800 
 19 H        0.0930     0.6860     2.2470 H     1 <1>   0.0800 
 20 H        0.5300    -0.0950     0.7180 H     1 <1>   0.0800 
 21 H       -3.6170    -0.5200     0.1600 H     1 <1>   0.1500 
 22 H       -1.6610     3.7370    -1.2860 H     1 <1>   0.1500 
 23 H        1.4200     3.6140     0.5750 H     1 <1>   0.0800 
 24 H       -0.1300     4.4050     0.3210 H     1 <1>   0.0800 
 25 H        0.6550     3.5260    -1.0070 H     1 <1>   0.0800 
 26 H       -3.8120     3.0850    -2.1370 H     1 <1>   0.1500 
 27 H       -5.2070    -0.1720    -1.9370 H     1 <1>   0.0800 
 28 H       -5.5770     1.4920    -2.3370 H     1 <1>   0.0800 
 29 H       -5.8000     0.3400     0.3510 H     1 <1>   0.4500 
 30 H       -7.3780    -0.7290    -1.1380 H     1 <1>   0.0800 
 31 H       -8.0130     0.8550    -1.5280 H     1 <1>   0.0800 
 32 H       -6.8230     2.9070    -0.6320 H     1 <1>   0.0800 
 33 H       -5.4020     2.6890     0.3640 H     1 <1>   0.0800 
 34 H       -7.9930    -0.4560     1.1990 H     1 <1>   0.0800 
 35 H       -9.3840    -0.1770     0.2020 H     1 <1>   0.0800 
 36 H       -7.3950     3.2730     1.7070 H     1 <1>   0.0800 
 37 H       -6.7290     1.7370     2.1560 H     1 <1>   0.0800 
 38 H       -9.1550     1.5190     2.0300 H     1 <1>   0.0800 
 39 H       -9.1820     2.2290     0.4420 H     1 <1>   0.0800 
@<TRIPOS>BOND
  1   1   2  1   
  2   1   3  1   
  3   2   4  ar  
  4   2   5  ar  
  5   3  18  1   
  6   3  19  1   
  7   3  20  1   
  8   4   6  1   
  9   4   7  ar  
 10   5   8  ar  
 11   5  21  1   
 12   6   9  1   
 13   7  10  ar  
 14   7  22  1   
 15   8  10  ar  
 16   8  11  1   
 17   9  23  1   
 18   9  24  1   
 19   9  25  1   
 20  10  26  1   
 21  11  12  1   
 22  11  27  1   
 23  11  28  1   
 24  12  13  1   
 25  12  14  1   
 26  12  29  1   
 27  13  15  1   
 28  13  30  1   
 29  13  31  1   
 30  14  16  1   
 31  14  32  1   
 32  14  33  1   
 33  15  17  1   
 34  15  34  1   
 35  15  35  1   
 36  16  17  1   
 37  16  36  1   
 38  16  37  1   
 39  17  38  1   
 40  17  39  1   
@<TRIPOS>SUBSTRUCTURE
  1 ****   8 GROUP 4 **** **** 0

# MOE 2024.06 (io_trps.svl 2023.06)
