@<TRIPOS>MOLECULE
NONAME
32 32 1 0 0 
SMALL
USER_CHARGES


@<TRIPOS>ATOM
  1 S       -0.1330     0.0450    -0.6170 S.o2  1 <1>   1.4470 
  2 O       -0.8430     0.6050    -1.7430 O.2   1 <1>  -0.6500 
  3 O        0.0600    -1.3830    -0.5110 O.2   1 <1>  -0.6500 
  4 N       -0.9140     0.4500     0.8160 N.am  1 <1>  -0.9140 
  5 C        1.4610     0.8870    -0.4440 C.ar  1 <1>  -0.0090 
  6 C       -2.3630     0.4800     0.8670 C.3   1 <1>   0.2760 
  7 C        1.5200     2.2610    -0.2400 C.ar  1 <1>  -0.1500 
  8 C        2.6600     0.1860    -0.5130 C.ar  1 <1>  -0.1500 
  9 C       -2.9970    -0.7800     0.2780 C.3   1 <1>  -0.2400 
 10 C       -2.9070     1.7620     0.2440 C.3   1 <1>  -0.2400 
 11 C        2.7330     2.9120    -0.1050 C.ar  1 <1>  -0.1500 
 12 C        3.8780     0.8280    -0.3800 C.ar  1 <1>  -0.1500 
 13 C        3.9180     2.2030    -0.1740 C.ar  1 <1>   0.0820 
 14 O        5.0620     2.9100    -0.0330 O.3   1 <1>  -0.3630 
 15 C        6.3380     2.2770    -0.1170 C.3   1 <1>   0.0140 
 16 C        7.5010     3.2440     0.0410 C.2   1 <1>   0.9060 
 17 O        7.9860     3.7640    -0.9720 O.co2 1 <1>  -0.9000 
 18 O        7.9820     3.4190     1.1670 O.co2 1 <1>  -0.9000 
 19 H       -0.6260    -0.3030     1.4360 H     1 <1>   0.4200 
 20 H       -2.6310     0.5110     1.9120 H     1 <1>   0.0800 
 21 H        0.6040     2.8260    -0.1860 H     1 <1>   0.1500 
 22 H        2.6420    -0.8790    -0.6740 H     1 <1>   0.1500 
 23 H       -2.8760    -0.8170    -0.7900 H     1 <1>   0.0800 
 24 H       -4.0510    -0.7800     0.4860 H     1 <1>   0.0800 
 25 H       -2.5680    -1.6620     0.7170 H     1 <1>   0.0800 
 26 H       -2.8070     1.7610    -0.8250 H     1 <1>   0.0800 
 27 H       -2.3950     2.6170     0.6490 H     1 <1>   0.0800 
 28 H       -3.9530     1.8570     0.4730 H     1 <1>   0.0800 
 29 H        2.7750     3.9750     0.0530 H     1 <1>   0.1500 
 30 H        4.7820     0.2520    -0.4380 H     1 <1>   0.1500 
 31 H        6.4210     1.8100    -1.0790 H     1 <1>   0.0800 
 32 H        6.4040     1.5440     0.6620 H     1 <1>   0.0800 
@<TRIPOS>BOND
  1   1   2  2   
  2   1   3  2   
  3   1   4  am  
  4   1   5  1   
  5   4   6  1   
  6   4  19  1   
  7   5   7  ar  
  8   5   8  ar  
  9   6   9  1   
 10   6  10  1   
 11   6  20  1   
 12   7  11  ar  
 13   7  21  1   
 14   8  12  ar  
 15   8  22  1   
 16   9  23  1   
 17   9  24  1   
 18   9  25  1   
 19  10  26  1   
 20  10  27  1   
 21  10  28  1   
 22  11  13  ar  
 23  11  29  1   
 24  12  13  ar  
 25  12  30  1   
 26  13  14  1   
 27  14  15  1   
 28  15  16  1   
 29  15  31  1   
 30  15  32  1   
 31  16  17  ar  
 32  16  18  ar  
@<TRIPOS>SUBSTRUCTURE
  1 ****   5 GROUP 4 **** **** 0

# MOE 2024.06 (io_trps.svl 2023.06)
