@<TRIPOS>MOLECULE
NONAME
40 41 1 0 0 
SMALL
USER_CHARGES


@<TRIPOS>ATOM
  1 S       -0.2050    -1.7690     0.2710 S.3   1 <1>  -0.2860 
  2 C        1.4950    -1.1980     0.3710 C.2   1 <1>   0.2420 
  3 C       -0.9510    -0.7030    -1.0610 C.3   1 <1>   0.2110 
  4 N        1.9620    -0.2480    -0.3680 N.2   1 <1>  -0.5650 
  5 N        2.3720    -1.7480     1.2410 N.pl3 1 <1>   0.0480 
  6 C       -2.4650    -0.5880    -0.8640 C.2   1 <1>   0.5690 
  7 C       -0.5740    -1.3280    -2.4120 C.3   1 <1>  -0.2400 
  8 C        3.2440    -0.1630     0.0430 C.2   1 <1>   0.0770 
  9 C        3.5110    -1.0640     1.0170 C.2   1 <1>  -0.3020 
 10 C        2.1500    -2.8350     2.2090 C.3   1 <1>   0.0160 
 11 O       -3.0170     0.4130    -1.2550 O.2   1 <1>  -0.5700 
 12 N       -3.1280    -1.6280    -0.2640 N.am  1 <1>  -0.5470 
 13 C       -4.4910    -1.8390     0.0080 C.ar  1 <1>   0.1170 
 14 C       -4.8370    -2.7840     0.9670 C.ar  1 <1>  -0.1500 
 15 C       -5.5130    -1.1590    -0.6470 C.ar  1 <1>  -0.1500 
 16 C       -6.1640    -3.0400     1.2650 C.ar  1 <1>  -0.1500 
 17 C       -6.8420    -1.4090    -0.3520 C.ar  1 <1>  -0.1500 
 18 C       -7.1750    -2.3570     0.6110 C.ar  1 <1>   0.0820 
 19 O       -8.4500    -2.6670     0.9650 O.3   1 <1>  -0.3630 
 20 C       -9.5450    -2.0060     0.3750 C.3   1 <1>   0.1200 
 21 C      -10.8230    -2.5680     0.9920 C.3   1 <1>  -0.2400 
 22 H       -0.5140     0.2750    -0.9610 H     1 <1>   0.0800 
 23 H       -0.9760    -2.3220    -2.4920 H     1 <1>   0.0800 
 24 H        0.4950    -1.3680    -2.5160 H     1 <1>   0.0800 
 25 H       -0.9720    -0.7270    -3.2100 H     1 <1>   0.0800 
 26 H        3.9200     0.5560    -0.3910 H     1 <1>   0.1500 
 27 H        4.4280    -1.2470     1.5470 H     1 <1>   0.1500 
 28 H        3.0540    -3.0190     2.7590 H     1 <1>   0.0800 
 29 H        1.3680    -2.5500     2.8890 H     1 <1>   0.0800 
 30 H        1.8610    -3.7260     1.6830 H     1 <1>   0.0800 
 31 H       -2.5060    -2.3480     0.1020 H     1 <1>   0.3700 
 32 H       -4.0680    -3.3230     1.4880 H     1 <1>   0.1500 
 33 H       -5.2770    -0.4280    -1.3980 H     1 <1>   0.1500 
 34 H       -6.4260    -3.7710     2.0080 H     1 <1>   0.1500 
 35 H       -7.5960    -0.8590    -0.8820 H     1 <1>   0.1500 
 36 H       -9.5230    -2.1890    -0.6850 H     1 <1>   0.0800 
 37 H       -9.4570    -0.9530     0.5770 H     1 <1>   0.0800 
 38 H      -10.8920    -3.6230     0.8000 H     1 <1>   0.0800 
 39 H      -11.6790    -2.0820     0.5620 H     1 <1>   0.0800 
 40 H      -10.8260    -2.3950     2.0540 H     1 <1>   0.0800 
@<TRIPOS>BOND
  1   1   2  1   
  2   1   3  1   
  3   2   4  2   
  4   2   5  1   
  5   3   6  1   
  6   3   7  1   
  7   3  22  1   
  8   4   8  1   
  9   5   9  1   
 10   5  10  1   
 11   6  11  2   
 12   6  12  am  
 13   7  23  1   
 14   7  24  1   
 15   7  25  1   
 16   8   9  2   
 17   8  26  1   
 18   9  27  1   
 19  10  28  1   
 20  10  29  1   
 21  10  30  1   
 22  12  13  1   
 23  12  31  1   
 24  13  14  ar  
 25  13  15  ar  
 26  14  16  ar  
 27  14  32  1   
 28  15  17  ar  
 29  15  33  1   
 30  16  18  ar  
 31  16  34  1   
 32  17  18  ar  
 33  17  35  1   
 34  18  19  1   
 35  19  20  1   
 36  20  21  1   
 37  20  36  1   
 38  20  37  1   
 39  21  38  1   
 40  21  39  1   
 41  21  40  1   
@<TRIPOS>SUBSTRUCTURE
  1 ****  12 GROUP 4 **** **** 0

# MOE 2024.06 (io_trps.svl 2023.06)
