@<TRIPOS>MOLECULE
NONAME
37 37 1 0 0 
SMALL
USER_CHARGES


@<TRIPOS>ATOM
  1 O       -0.0250     0.0310    -0.3620 O.2   1 <1>  -0.5700 
  2 C       -0.1300     1.1820     0.0120 C.2   1 <1>   0.6900 
  3 N       -1.3480     1.7650     0.2010 N.am  1 <1>  -0.5470 
  4 N        0.9590     1.9590     0.2530 N.am  1 <1>  -0.7300 
  5 C       -2.6440     1.2300     0.1710 C.ar  1 <1>   0.1170 
  6 C        2.3880     1.6430     0.1020 C.3   1 <1>   0.3000 
  7 C       -3.7120     2.0830    -0.0720 C.ar  1 <1>  -0.1500 
  8 C       -2.9140    -0.1170     0.3960 C.ar  1 <1>  -0.1500 
  9 C        3.1400     2.9360     0.4910 C.3   1 <1>  -0.1600 
 10 C        2.7480     0.4930     1.0480 C.3   1 <1>  -0.2400 
 11 C        2.6700     1.2650    -1.3570 C.3   1 <1>  -0.2400 
 12 C       -5.0150     1.6180    -0.0980 C.ar  1 <1>   0.0830 
 13 C       -4.2120    -0.5950     0.3710 C.ar  1 <1>  -0.1500 
 14 C        4.6780     2.8830     0.4190 C.3   1 <1>  -0.2400 
 15 O       -5.9840     2.5360    -0.3450 O.3   1 <1>  -0.3630 
 16 C       -5.2660     0.2670     0.1250 C.ar  1 <1>  -0.1500 
 17 C       -7.3410     2.1610    -0.4230 C.3   1 <1>   0.0400 
 18 H       -1.3080     2.7750     0.2550 H     1 <1>   0.3700 
 19 H        0.8030     2.8360     0.7370 H     1 <1>   0.3700 
 20 H       -3.5380     3.1270    -0.2490 H     1 <1>   0.1500 
 21 H       -2.1080    -0.8000     0.5940 H     1 <1>   0.1500 
 22 H        2.8710     3.2000     1.4990 H     1 <1>   0.0800 
 23 H        2.8110     3.7310    -0.1540 H     1 <1>   0.0800 
 24 H        2.5470     0.7670     2.0680 H     1 <1>   0.0800 
 25 H        3.7880     0.2410     0.9590 H     1 <1>   0.0800 
 26 H        2.1840    -0.3890     0.8070 H     1 <1>   0.0800 
 27 H        2.4050     2.0740    -2.0130 H     1 <1>   0.0800 
 28 H        2.1130     0.3910    -1.6390 H     1 <1>   0.0800 
 29 H        3.7090     1.0370    -1.4950 H     1 <1>   0.0800 
 30 H       -4.3990    -1.6400     0.5440 H     1 <1>   0.1500 
 31 H        5.0730     2.1340     1.0820 H     1 <1>   0.0800 
 32 H        5.0850     3.8340     0.7150 H     1 <1>   0.0800 
 33 H        5.0140     2.6770    -0.5810 H     1 <1>   0.0800 
 34 H       -6.2640    -0.1280     0.1110 H     1 <1>   0.1500 
 35 H       -7.9190     3.0420    -0.6370 H     1 <1>   0.0800 
 36 H       -7.6430     1.7470     0.5220 H     1 <1>   0.0800 
 37 H       -7.4600     1.4440    -1.2160 H     1 <1>   0.0800 
@<TRIPOS>BOND
  1   1   2  2   
  2   2   3  am  
  3   2   4  am  
  4   3   5  1   
  5   3  18  1   
  6   4   6  1   
  7   4  19  1   
  8   5   7  ar  
  9   5   8  ar  
 10   6   9  1   
 11   6  10  1   
 12   6  11  1   
 13   7  12  ar  
 14   7  20  1   
 15   8  13  ar  
 16   8  21  1   
 17   9  14  1   
 18   9  22  1   
 19   9  23  1   
 20  10  24  1   
 21  10  25  1   
 22  10  26  1   
 23  11  27  1   
 24  11  28  1   
 25  11  29  1   
 26  12  15  1   
 27  12  16  ar  
 28  13  16  ar  
 29  13  30  1   
 30  14  31  1   
 31  14  32  1   
 32  14  33  1   
 33  15  17  1   
 34  16  34  1   
 35  17  35  1   
 36  17  36  1   
 37  17  37  1   
@<TRIPOS>SUBSTRUCTURE
  1 ****   3 GROUP 4 **** **** 0

# MOE 2024.06 (io_trps.svl 2023.06)
