@<TRIPOS>MOLECULE
NONAME
57 59 1 0 0 
SMALL
USER_CHARGES


@<TRIPOS>ATOM
  1 S       -0.1100     0.8110     2.0340 S.o2  1 <1>   1.4470 
  2 O       -0.1870    -0.4860     2.6640 O.2   1 <1>  -0.6500 
  3 O       -0.8630     1.9290     2.5530 O.2   1 <1>  -0.6500 
  4 N       -0.6580     0.5180     0.4770 N.am  1 <1>  -0.9140 
  5 C        1.6190     1.2890     1.7770 C.ar  1 <1>  -0.0090 
  6 C       -2.1070     0.6160     0.3640 C.3   1 <1>   0.1960 
  7 C        1.9430     2.3830     0.9820 C.ar  1 <1>  -0.1500 
  8 C        2.6610     0.5790     2.3640 C.ar  1 <1>  -0.1500 
  9 C       -2.5390     0.2510    -1.0550 C.3   1 <1>  -0.0160 
 10 C        3.2600     2.7520     0.7750 C.ar  1 <1>  -0.1500 
 11 C        3.9820     0.9400     2.1640 C.ar  1 <1>  -0.1500 
 12 C       -4.0520     0.3300    -1.1790 C.ar  1 <1>  -0.1430 
 13 C        4.2870     2.0330     1.3590 C.ar  1 <1>   0.0830 
 14 C       -4.6630     1.5290    -1.5090 C.ar  1 <1>  -0.1500 
 15 C       -4.8330    -0.7940    -0.9570 C.ar  1 <1>  -0.1500 
 16 O        5.5470     2.4500     1.0980 O.3   1 <1>  -0.3630 
 17 C       -6.0410     1.6050    -1.6170 C.ar  1 <1>  -0.1500 
 18 C       -6.2110    -0.7190    -1.0640 C.ar  1 <1>  -0.1500 
 19 C        6.6750     1.7140     1.5480 C.3   1 <1>   0.1810 
 20 C       -6.8160     0.4810    -1.3940 C.ar  1 <1>  -0.1500 
 21 C        7.9780     2.3020     1.0170 C.2   1 <1>   0.5690 
 22 O        8.7480     2.7540     1.8350 O.2   1 <1>  -0.5700 
 23 N        8.2840     2.2750    -0.3240 N.am  1 <1>  -0.6600 
 24 C        7.3840     1.7670    -1.3920 C.3   1 <1>   0.1400 
 25 C        9.5850     2.7900    -0.8270 C.3   1 <1>   0.1400 
 26 C        7.5370     0.2540    -1.5980 C.3   1 <1>  -0.1600 
 27 C       10.5720     1.6450    -1.0840 C.3   1 <1>  -0.1600 
 28 C        8.9570    -0.3180    -1.4280 C.3   1 <1>  -0.1600 
 29 C       10.0730     0.5440    -2.0410 C.3   1 <1>  -0.1600 
 30 H       -0.4150    -0.4600     0.3320 H     1 <1>   0.4200 
 31 H       -2.4240     1.6230     0.5830 H     1 <1>   0.0800 
 32 H       -2.5790    -0.0480     1.0710 H     1 <1>   0.0800 
 33 H        1.1510     2.9510     0.5220 H     1 <1>   0.1500 
 34 H        2.4350    -0.2690     2.9900 H     1 <1>   0.1500 
 35 H       -2.2120    -0.7450    -1.2930 H     1 <1>   0.0800 
 36 H       -2.0860     0.9330    -1.7530 H     1 <1>   0.0800 
 37 H        3.4970     3.6020     0.1600 H     1 <1>   0.1500 
 38 H        4.7510     0.3630     2.6430 H     1 <1>   0.1500 
 39 H       -4.0720     2.4110    -1.6840 H     1 <1>   0.1500 
 40 H       -4.3760    -1.7330    -0.6990 H     1 <1>   0.1500 
 41 H       -6.5100     2.5390    -1.8730 H     1 <1>   0.1500 
 42 H       -6.8130    -1.5940    -0.8910 H     1 <1>   0.1500 
 43 H        6.5800     0.6990     1.2140 H     1 <1>   0.0800 
 44 H        6.6850     1.7450     2.6220 H     1 <1>   0.0800 
 45 H       -7.8870     0.5390    -1.4780 H     1 <1>   0.1500 
 46 H        7.6210     2.2680    -2.3150 H     1 <1>   0.0800 
 47 H        6.3590     2.0040    -1.1680 H     1 <1>   0.0800 
 48 H       10.0130     3.4690    -0.1080 H     1 <1>   0.0800 
 49 H        9.4260     3.3470    -1.7340 H     1 <1>   0.0800 
 50 H        7.1900     0.0270    -2.5900 H     1 <1>   0.0800 
 51 H        6.8770    -0.2580    -0.9200 H     1 <1>   0.0800 
 52 H       10.8430     1.2100    -0.1380 H     1 <1>   0.0800 
 53 H       11.4670     2.0740    -1.4970 H     1 <1>   0.0800 
 54 H        8.9790    -1.2920    -1.8860 H     1 <1>   0.0800 
 55 H        9.1590    -0.4630    -0.3800 H     1 <1>   0.0800 
 56 H       10.9090    -0.1010    -2.2520 H     1 <1>   0.0800 
 57 H        9.7540     0.9690    -2.9760 H     1 <1>   0.0800 
@<TRIPOS>BOND
  1   1   2  2   
  2   1   3  2   
  3   1   4  am  
  4   1   5  1   
  5   4   6  1   
  6   4  30  1   
  7   5   7  ar  
  8   5   8  ar  
  9   6   9  1   
 10   6  31  1   
 11   6  32  1   
 12   7  10  ar  
 13   7  33  1   
 14   8  11  ar  
 15   8  34  1   
 16   9  12  1   
 17   9  35  1   
 18   9  36  1   
 19  10  13  ar  
 20  10  37  1   
 21  11  13  ar  
 22  11  38  1   
 23  12  14  ar  
 24  12  15  ar  
 25  13  16  1   
 26  14  17  ar  
 27  14  39  1   
 28  15  18  ar  
 29  15  40  1   
 30  16  19  1   
 31  17  20  ar  
 32  17  41  1   
 33  18  20  ar  
 34  18  42  1   
 35  19  21  1   
 36  19  43  1   
 37  19  44  1   
 38  20  45  1   
 39  21  22  2   
 40  21  23  am  
 41  23  24  1   
 42  23  25  1   
 43  24  26  1   
 44  24  46  1   
 45  24  47  1   
 46  25  27  1   
 47  25  48  1   
 48  25  49  1   
 49  26  28  1   
 50  26  50  1   
 51  26  51  1   
 52  27  29  1   
 53  27  52  1   
 54  27  53  1   
 55  28  29  1   
 56  28  54  1   
 57  28  55  1   
 58  29  56  1   
 59  29  57  1   
@<TRIPOS>SUBSTRUCTURE
  1 ****   7 GROUP 4 **** **** 0

# MOE 2024.06 (io_trps.svl 2023.06)
