@<TRIPOS>MOLECULE
NONAME
43 45 1 0 0 
SMALL
USER_CHARGES


@<TRIPOS>ATOM
  1 S        0.1900     0.3690     0.1860 S.3   1 <1>  -0.3320 
  2 C       -1.6000     0.3250     0.2370 C.ar  1 <1>   0.4120 
  3 C        0.6830    -1.2710    -0.5090 C.3   1 <1>   0.2140 
  4 N       -2.1490    -0.7900    -0.2220 N.ar  1 <1>  -0.6200 
  5 C       -2.2900     1.4230     0.7370 C.ar  1 <1>   0.0730 
  6 C        2.1990    -1.3500    -0.5300 C.ar  1 <1>  -0.1440 
  7 C       -3.4670    -0.8390    -0.1910 C.ar  1 <1>   0.1670 
  8 C       -1.6210     2.5960     1.2140 C.1   1 <1>   0.4840 
  9 C       -3.6730     1.3430     0.7580 C.ar  1 <1>  -0.1500 
 10 C        2.8710    -2.1630     0.3700 C.ar  1 <1>  -0.1500 
 11 C        2.9270    -0.6150    -1.4530 C.ar  1 <1>  -0.1500 
 12 C       -4.2730     0.1890     0.2860 C.ar  1 <1>  -0.1440 
 13 C       -4.0650    -2.1360    -0.7050 C.3   1 <1>  -0.0160 
 14 N       -1.1630     3.5620     1.6080 N.1   1 <1>  -0.5570 
 15 C        4.2530    -2.2500     0.3540 C.ar  1 <1>   0.0830 
 16 C        4.3090    -0.6950    -1.4770 C.ar  1 <1>  -0.1500 
 17 C       -5.7900     0.0770     0.2880 C.3   1 <1>   0.4860 
 18 C       -5.5770    -2.0550    -0.9010 C.3   1 <1>   0.3430 
 19 O        4.8230    -3.0710     1.2710 O.3   1 <1>  -0.3630 
 20 C        4.9750    -1.5100    -0.5780 C.ar  1 <1>  -0.1500 
 21 N       -6.2130    -1.3530     0.2530 N.4   1 <1>  -0.9590 
 22 C        6.2240    -3.2100     1.3590 C.3   1 <1>   0.0400 
 23 C       -7.7030    -1.4780     0.2160 C.3   1 <1>   0.2630 
 24 H        0.2710    -1.3390    -1.5000 H     1 <1>   0.0800 
 25 H        0.2540    -2.0290     0.1220 H     1 <1>   0.0800 
 26 H       -4.2510     2.1720     1.1370 H     1 <1>   0.1500 
 27 H        2.3300    -2.7390     1.0990 H     1 <1>   0.1500 
 28 H        2.4200     0.0260    -2.1530 H     1 <1>   0.1500 
 29 H       -3.8340    -2.9230    -0.0100 H     1 <1>   0.0800 
 30 H       -3.6060    -2.3940    -1.6430 H     1 <1>   0.0800 
 31 H        4.8660    -0.1190    -2.1960 H     1 <1>   0.1500 
 32 H       -6.1810     0.5950    -0.5730 H     1 <1>   0.0800 
 33 H       -6.1820     0.5520     1.1730 H     1 <1>   0.0800 
 34 H       -5.9760    -3.0520    -1.0010 H     1 <1>   0.0800 
 35 H       -5.7890    -1.5160    -1.8110 H     1 <1>   0.0800 
 36 H        6.0460    -1.5540    -0.6180 H     1 <1>   0.1500 
 37 H       -5.8650    -1.7910     1.1200 H     1 <1>   0.4500 
 38 H        6.4410    -3.8960     2.1570 H     1 <1>   0.0800 
 39 H        6.6560    -2.2490     1.5750 H     1 <1>   0.0800 
 40 H        6.5940    -3.6010     0.4290 H     1 <1>   0.0800 
 41 H       -8.0980    -1.0230    -0.6780 H     1 <1>   0.0800 
 42 H       -8.1430    -0.9920     1.0730 H     1 <1>   0.0800 
 43 H       -7.9920    -2.5170     0.2290 H     1 <1>   0.0800 
@<TRIPOS>BOND
  1   1   2  1   
  2   1   3  1   
  3   2   4  ar  
  4   2   5  ar  
  5   3   6  1   
  6   3  24  1   
  7   3  25  1   
  8   4   7  ar  
  9   5   8  1   
 10   5   9  ar  
 11   6  10  ar  
 12   6  11  ar  
 13   7  12  ar  
 14   7  13  1   
 15   8  14  3   
 16   9  12  ar  
 17   9  26  1   
 18  10  15  ar  
 19  10  27  1   
 20  11  16  ar  
 21  11  28  1   
 22  12  17  1   
 23  13  18  1   
 24  13  29  1   
 25  13  30  1   
 26  15  19  1   
 27  15  20  ar  
 28  16  20  ar  
 29  16  31  1   
 30  17  21  1   
 31  17  32  1   
 32  17  33  1   
 33  18  21  1   
 34  18  34  1   
 35  18  35  1   
 36  19  22  1   
 37  20  36  1   
 38  21  23  1   
 39  21  37  1   
 40  22  38  1   
 41  22  39  1   
 42  22  40  1   
 43  23  41  1   
 44  23  42  1   
 45  23  43  1   
@<TRIPOS>SUBSTRUCTURE
  1 ****   2 GROUP 4 **** **** 0

# MOE 2024.06 (io_trps.svl 2023.06)
