@<TRIPOS>MOLECULE
NONAME
49 51 1 0 0 
SMALL
USER_CHARGES


@<TRIPOS>ATOM
  1 O       -1.7810     1.5350    -0.7610 O.3   1 <1>  -0.5600 
  2 C       -2.7080     2.5510    -1.0100 C.3   1 <1>   0.1200 
  3 C       -2.0100     0.8010     0.4060 C.3   1 <1>   0.1200 
  4 C       -4.1270     1.9610    -1.1320 C.3   1 <1>   0.3430 
  5 C       -3.3950     0.1280     0.3490 C.3   1 <1>   0.3430 
  6 N       -4.4870     1.1270     0.0720 N.4   1 <1>  -0.9590 
  7 C       -5.7990     0.4390    -0.0830 C.3   1 <1>   0.3430 
  8 C       -6.9500     1.4460    -0.0170 C.3   1 <1>  -0.1600 
  9 C       -8.2990     0.7150    -0.0790 C.3   1 <1>  -0.1600 
 10 C       -9.4820     1.6830    -0.0080 C.3   1 <1>   0.1200 
 11 O      -10.6580     0.9160    -0.0800 O.3   1 <1>  -0.3630 
 12 C      -11.8840     1.4890    -0.0460 C.ar  1 <1>   0.0820 
 13 C      -12.9750     0.6390    -0.1350 C.ar  1 <1>  -0.1500 
 14 C      -12.1000     2.8590     0.0720 C.ar  1 <1>  -0.1500 
 15 C      -14.2610     1.1440    -0.1090 C.ar  1 <1>  -0.1500 
 16 C      -13.3910     3.3560     0.0970 C.ar  1 <1>  -0.1500 
 17 C      -14.4940     2.5110     0.0080 C.ar  1 <1>   0.0000 
 18 C      -15.8390     3.0380     0.0340 C.ar  1 <1>   0.0000 
 19 C      -16.2980     3.7780     1.1200 C.ar  1 <1>  -0.1500 
 20 C      -16.7140     2.8210    -1.0260 C.ar  1 <1>  -0.1500 
 21 C      -17.5840     4.2850     1.1470 C.ar  1 <1>  -0.1500 
 22 C      -18.0020     3.3250    -1.0050 C.ar  1 <1>  -0.1500 
 23 C      -18.4400     4.0590     0.0830 C.ar  1 <1>  -0.1500 
 24 H       -2.4260     3.0310    -1.9320 H     1 <1>   0.0800 
 25 H       -2.6520     3.2760    -0.2160 H     1 <1>   0.0800 
 26 H       -1.9290     1.4600     1.2530 H     1 <1>   0.0800 
 27 H       -1.2370     0.0550     0.4780 H     1 <1>   0.0800 
 28 H       -4.1640     1.3540    -2.0210 H     1 <1>   0.0800 
 29 H       -4.8340     2.7660    -1.2510 H     1 <1>   0.0800 
 30 H       -3.5830    -0.3760     1.2820 H     1 <1>   0.0800 
 31 H       -3.3750    -0.6160    -0.4310 H     1 <1>   0.0800 
 32 H       -4.5430     1.7540     0.8850 H     1 <1>   0.4500 
 33 H       -5.9250    -0.2790     0.7130 H     1 <1>   0.0800 
 34 H       -5.8300    -0.0940    -1.0200 H     1 <1>   0.0800 
 35 H       -6.8940     2.1320    -0.8440 H     1 <1>   0.0800 
 36 H       -6.8970     1.9990     0.9050 H     1 <1>   0.0800 
 37 H       -8.3770     0.0240     0.7440 H     1 <1>   0.0800 
 38 H       -8.3700     0.1590    -0.9990 H     1 <1>   0.0800 
 39 H       -9.4750     2.3670    -0.8400 H     1 <1>   0.0800 
 40 H       -9.4880     2.2230     0.9230 H     1 <1>   0.0800 
 41 H      -12.8070    -0.4190    -0.2250 H     1 <1>   0.1500 
 42 H      -11.2830     3.5510     0.1430 H     1 <1>   0.1500 
 43 H      -15.0990     0.4730    -0.1750 H     1 <1>   0.1500 
 44 H      -13.5540     4.4160     0.1840 H     1 <1>   0.1500 
 45 H      -15.6380     3.9530     1.9510 H     1 <1>   0.1500 
 46 H      -16.3770     2.2550    -1.8760 H     1 <1>   0.1500 
 47 H      -17.9210     4.8550     1.9960 H     1 <1>   0.1500 
 48 H      -18.6640     3.1470    -1.8340 H     1 <1>   0.1500 
 49 H      -19.4420     4.4520     0.1020 H     1 <1>   0.1500 
@<TRIPOS>BOND
  1   1   2  1   
  2   1   3  1   
  3   2   4  1   
  4   2  24  1   
  5   2  25  1   
  6   3   5  1   
  7   3  26  1   
  8   3  27  1   
  9   4   6  1   
 10   4  28  1   
 11   4  29  1   
 12   5   6  1   
 13   5  30  1   
 14   5  31  1   
 15   6   7  1   
 16   6  32  1   
 17   7   8  1   
 18   7  33  1   
 19   7  34  1   
 20   8   9  1   
 21   8  35  1   
 22   8  36  1   
 23   9  10  1   
 24   9  37  1   
 25   9  38  1   
 26  10  11  1   
 27  10  39  1   
 28  10  40  1   
 29  11  12  1   
 30  12  13  ar  
 31  12  14  ar  
 32  13  15  ar  
 33  13  41  1   
 34  14  16  ar  
 35  14  42  1   
 36  15  17  ar  
 37  15  43  1   
 38  16  17  ar  
 39  16  44  1   
 40  17  18  1   
 41  18  19  ar  
 42  18  20  ar  
 43  19  21  ar  
 44  19  45  1   
 45  20  22  ar  
 46  20  46  1   
 47  21  23  ar  
 48  21  47  1   
 49  22  23  ar  
 50  22  48  1   
 51  23  49  1   
@<TRIPOS>SUBSTRUCTURE
  1 ****  10 GROUP 4 **** **** 0

# MOE 2024.06 (io_trps.svl 2023.06)
