@<TRIPOS>MOLECULE
NONAME
21 23 1 0 0 
SMALL
USER_CHARGES


@<TRIPOS>ATOM
  1 O       -0.3100     0.0080    -0.5470 O.2   1 <1>  -0.5700 
  2 C       -1.4000    -0.5000    -0.4630 C.2   1 <1>   0.5770 
  3 N       -1.8060    -1.6730     0.0950 N.am  1 <1>  -0.6550 
  4 C       -2.7740    -0.1420    -1.0290 C.3   1 <1>   0.0530 
  5 C       -3.1630    -1.5560    -0.5560 C.3   1 <1>   0.2250 
  6 C       -3.7330     0.7720    -0.2280 C.3   1 <1>  -0.0800 
  7 C       -4.3240    -1.2880     0.4260 C.3   1 <1>  -0.0800 
  8 C       -3.9270     0.0290     1.0880 C.3   1 <1>  -0.1600 
  9 C       -5.1300     0.5980    -0.8510 C.3   1 <1>  -0.1600 
 10 C       -5.5310    -0.8280    -0.4120 C.3   1 <1>  -0.1600 
 11 H       -1.2180    -2.5060     0.0840 H     1 <1>   0.3700 
 12 H       -2.7970    -0.0270    -2.0980 H     1 <1>   0.0000 
 13 H       -3.3220    -2.2770    -1.3370 H     1 <1>   0.0000 
 14 H       -3.4020     1.7920    -0.1410 H     1 <1>   0.0800 
 15 H       -4.5330    -2.1060     1.0930 H     1 <1>   0.0800 
 16 H       -4.7190     0.4470     1.6880 H     1 <1>   0.0800 
 17 H       -3.0310    -0.0340     1.6820 H     1 <1>   0.0800 
 18 H       -5.1120     0.7030    -1.9230 H     1 <1>   0.0800 
 19 H       -5.8150     1.3200    -0.4400 H     1 <1>   0.0800 
 20 H       -6.4190    -0.7940     0.1960 H     1 <1>   0.0800 
 21 H       -5.7050    -1.4760    -1.2540 H     1 <1>   0.0800 
@<TRIPOS>BOND
  1   1   2  2   
  2   2   3  am  
  3   2   4  1   
  4   3   5  1   
  5   3  11  1   
  6   4   5  1   
  7   4   6  1   
  8   4  12  1   
  9   5   7  1   
 10   5  13  1   
 11   6   8  1   
 12   6   9  1   
 13   6  14  1   
 14   7   8  1   
 15   7  10  1   
 16   7  15  1   
 17   8  16  1   
 18   8  17  1   
 19   9  10  1   
 20   9  18  1   
 21   9  19  1   
 22  10  20  1   
 23  10  21  1   
@<TRIPOS>SUBSTRUCTURE
  1 ****   4 GROUP 4 **** **** 0

# MOE 2024.06 (io_trps.svl 2023.06)
