@<TRIPOS>MOLECULE
NONAME
46 47 1 0 0 
SMALL
USER_CHARGES


@<TRIPOS>ATOM
  1 O        4.8230     4.8180     0.4470 O.3   1 <1>  -0.5600 
  2 C        4.2760     5.1480    -0.7950 C.3   1 <1>   0.1200 
  3 C        4.4040     3.5740     0.9240 C.3   1 <1>   0.1200 
  4 C        2.7380     5.1740    -0.7090 C.3   1 <1>   0.1100 
  5 C        2.8720     3.5510     1.0720 C.3   1 <1>   0.1100 
  6 N        2.1990     3.8870    -0.2080 N.3   1 <1>  -0.8100 
  7 C        0.7390     3.9390    -0.0880 C.3   1 <1>   0.1100 
  8 C        0.1670     2.5150    -0.0860 C.3   1 <1>   0.3430 
  9 N       -1.3220     2.5260    -0.1110 N.4   1 <1>  -0.9060 
 10 C       -1.9170     1.1760    -0.1400 C.3   1 <1>   0.4860 
 11 C       -3.4110     1.3820    -0.1590 C.ar  1 <1>  -0.1440 
 12 C       -4.0860     1.5020    -1.3640 C.ar  1 <1>  -0.1500 
 13 C       -4.1200     1.4690     1.0300 C.ar  1 <1>  -0.1500 
 14 C       -5.4520     1.7180    -1.3770 C.ar  1 <1>  -0.1500 
 15 C       -5.4860     1.6840     1.0100 C.ar  1 <1>  -0.1500 
 16 C       -6.1660     1.8130    -0.1930 C.ar  1 <1>  -0.1440 
 17 C       -7.6750     2.0500    -0.2280 C.3   1 <1>   0.0630 
 18 C       -8.0380     3.3720     0.4560 C.3   1 <1>  -0.2400 
 19 C       -8.4280     0.8810     0.4140 C.3   1 <1>  -0.2400 
 20 H        4.6050     4.4270    -1.5220 H     1 <1>   0.0800 
 21 H        4.6520     6.1170    -1.0720 H     1 <1>   0.0800 
 22 H        4.8760     3.4140     1.8770 H     1 <1>   0.0800 
 23 H        4.7350     2.8120     0.2400 H     1 <1>   0.0800 
 24 H        2.3430     5.3750    -1.6900 H     1 <1>   0.0800 
 25 H        2.4450     5.9800    -0.0560 H     1 <1>   0.0800 
 26 H        2.5940     4.2600     1.8350 H     1 <1>   0.0800 
 27 H        2.5760     2.5700     1.3980 H     1 <1>   0.0800 
 28 H        0.3410     4.4650    -0.9390 H     1 <1>   0.0800 
 29 H        0.4640     4.4690     0.8090 H     1 <1>   0.0800 
 30 H        0.5160     1.9990     0.7920 H     1 <1>   0.0800 
 31 H        0.5420     2.0010    -0.9570 H     1 <1>   0.0800 
 32 H       -1.6720     3.0320    -0.9330 H     1 <1>   0.4500 
 33 H       -1.7080     3.0170     0.7050 H     1 <1>   0.4500 
 34 H       -1.6320     0.6120     0.7340 H     1 <1>   0.0800 
 35 H       -1.6050     0.6400    -1.0230 H     1 <1>   0.0800 
 36 H       -3.5680     1.4280    -2.3060 H     1 <1>   0.1500 
 37 H       -3.6300     1.3680     1.9830 H     1 <1>   0.1500 
 38 H       -5.9640     1.8090    -2.3210 H     1 <1>   0.1500 
 39 H       -6.0250     1.7490     1.9390 H     1 <1>   0.1500 
 40 H       -7.9920     2.1170    -1.2560 H     1 <1>   0.0800 
 41 H       -7.7930     3.3440     1.5020 H     1 <1>   0.0800 
 42 H       -9.0910     3.5640     0.3570 H     1 <1>   0.0800 
 43 H       -7.4990     4.1820    -0.0020 H     1 <1>   0.0800 
 44 H       -8.1920     0.7980     1.4590 H     1 <1>   0.0800 
 45 H       -8.1580    -0.0390    -0.0730 H     1 <1>   0.0800 
 46 H       -9.4890     1.0220     0.3120 H     1 <1>   0.0800 
@<TRIPOS>BOND
  1   1   2  1   
  2   1   3  1   
  3   2   4  1   
  4   2  20  1   
  5   2  21  1   
  6   3   5  1   
  7   3  22  1   
  8   3  23  1   
  9   4   6  1   
 10   4  24  1   
 11   4  25  1   
 12   5   6  1   
 13   5  26  1   
 14   5  27  1   
 15   6   7  1   
 16   7   8  1   
 17   7  28  1   
 18   7  29  1   
 19   8   9  1   
 20   8  30  1   
 21   8  31  1   
 22   9  10  1   
 23   9  32  1   
 24   9  33  1   
 25  10  11  1   
 26  10  34  1   
 27  10  35  1   
 28  11  12  ar  
 29  11  13  ar  
 30  12  14  ar  
 31  12  36  1   
 32  13  15  ar  
 33  13  37  1   
 34  14  16  ar  
 35  14  38  1   
 36  15  16  ar  
 37  15  39  1   
 38  16  17  1   
 39  17  18  1   
 40  17  19  1   
 41  17  40  1   
 42  18  41  1   
 43  18  42  1   
 44  18  43  1   
 45  19  44  1   
 46  19  45  1   
 47  19  46  1   
@<TRIPOS>SUBSTRUCTURE
  1 ****   9 GROUP 4 **** **** 0

# MOE 2024.06 (io_trps.svl 2023.06)
