@<TRIPOS>MOLECULE
NONAME
54 56 1 0 0 
SMALL
USER_CHARGES


@<TRIPOS>ATOM
  1 O        4.2020     1.9980    -0.4610 O.2   1 <1>  -0.5700 
  2 C        4.4840     3.1790    -0.5510 C.2   1 <1>   0.5440 
  3 N        3.5050     4.0170    -1.0360 N.am  1 <1>  -0.6600 
  4 C        5.7690     3.6820    -0.0970 C.ar  1 <1>   0.0860 
  5 C        2.4840     3.4610    -1.9720 C.3   1 <1>   0.1400 
  6 C        2.9600     5.0780    -0.1440 C.3   1 <1>   0.1400 
  7 C        6.5060     3.0030     0.8750 C.ar  1 <1>  -0.1500 
  8 C        6.3210     4.8600    -0.6080 C.ar  1 <1>  -0.1500 
  9 C        1.3060     2.8770    -1.1720 C.3   1 <1>   0.3430 
 10 C        1.7600     4.5270     0.6590 C.3   1 <1>   0.3430 
 11 C        7.7200     3.4850     1.3270 C.ar  1 <1>  -0.1500 
 12 C        7.5350     5.3490    -0.1610 C.ar  1 <1>  -0.1500 
 13 N        0.7180     3.8900    -0.2230 N.4   1 <1>  -0.9590 
 14 C        8.2450     4.6610     0.8180 C.ar  1 <1>   0.0820 
 15 C       -0.4330     3.3330     0.5520 C.3   1 <1>   0.3430 
 16 O        9.4350     5.0670     1.3130 O.3   1 <1>  -0.3630 
 17 C       -1.7060     3.3030    -0.3220 C.3   1 <1>   0.2000 
 18 C       10.0850     6.2240     0.8360 C.3   1 <1>   0.0400 
 19 O       -1.7020     4.4190    -1.1630 O.3   1 <1>  -0.6800 
 20 C       -2.9960     3.3070     0.5080 C.3   1 <1>   0.1200 
 21 O       -4.0900     3.4580    -0.3720 O.3   1 <1>  -0.3630 
 22 C       -5.3670     3.4780     0.0870 C.ar  1 <1>   0.0820 
 23 C       -6.3700     3.5770    -0.8650 C.ar  1 <1>  -0.1500 
 24 C       -5.7080     3.4040     1.4350 C.ar  1 <1>  -0.1500 
 25 C       -7.7000     3.6030    -0.4830 C.ar  1 <1>  -0.1500 
 26 C       -7.0390     3.4300     1.8150 C.ar  1 <1>  -0.1500 
 27 C       -8.0340     3.5290     0.8580 C.ar  1 <1>  -0.1500 
 28 H        2.9290     2.6840    -2.5720 H     1 <1>   0.0800 
 29 H        2.1390     4.2340    -2.6360 H     1 <1>   0.0800 
 30 H        2.6530     5.9230    -0.7350 H     1 <1>   0.0800 
 31 H        3.7210     5.4130     0.5410 H     1 <1>   0.0800 
 32 H        6.1200     2.0830     1.2780 H     1 <1>   0.1500 
 33 H        5.7910     5.4000    -1.3740 H     1 <1>   0.1500 
 34 H        1.6700     2.0260    -0.6190 H     1 <1>   0.0800 
 35 H        0.5500     2.5330    -1.8590 H     1 <1>   0.0800 
 36 H        1.3190     5.3280     1.2280 H     1 <1>   0.0800 
 37 H        2.1340     3.7930     1.3550 H     1 <1>   0.0800 
 38 H        8.2750     2.9500     2.0780 H     1 <1>   0.1500 
 39 H        7.9170     6.2590    -0.5840 H     1 <1>   0.1500 
 40 H        0.2720     4.6220    -0.8110 H     1 <1>   0.4500 
 41 H       -0.6290     3.9670     1.4010 H     1 <1>   0.0800 
 42 H       -0.2060     2.3460     0.9220 H     1 <1>   0.0800 
 43 H       -1.6960     2.4250    -0.9440 H     1 <1>   0.0800 
 44 H       11.0130     6.3280     1.3690 H     1 <1>   0.0800 
 45 H        9.4590     7.0780     1.0220 H     1 <1>   0.0800 
 46 H       10.2790     6.1070    -0.2150 H     1 <1>   0.0800 
 47 H       -2.6120     4.5310    -1.5300 H     1 <1>   0.4000 
 48 H       -3.0030     4.1300     1.2010 H     1 <1>   0.0800 
 49 H       -3.1130     2.3770     1.0370 H     1 <1>   0.0800 
 50 H       -6.1090     3.6340    -1.9060 H     1 <1>   0.1500 
 51 H       -4.9640     3.3270     2.2040 H     1 <1>   0.1500 
 52 H       -8.4740     3.6800    -1.2270 H     1 <1>   0.1500 
 53 H       -7.3040     3.3730     2.8570 H     1 <1>   0.1500 
 54 H       -9.0690     3.5490     1.1570 H     1 <1>   0.1500 
@<TRIPOS>BOND
  1   1   2  2   
  2   2   3  am  
  3   2   4  1   
  4   3   5  1   
  5   3   6  1   
  6   4   7  ar  
  7   4   8  ar  
  8   5   9  1   
  9   5  28  1   
 10   5  29  1   
 11   6  10  1   
 12   6  30  1   
 13   6  31  1   
 14   7  11  ar  
 15   7  32  1   
 16   8  12  ar  
 17   8  33  1   
 18   9  13  1   
 19   9  34  1   
 20   9  35  1   
 21  10  13  1   
 22  10  36  1   
 23  10  37  1   
 24  11  14  ar  
 25  11  38  1   
 26  12  14  ar  
 27  12  39  1   
 28  13  15  1   
 29  13  40  1   
 30  14  16  1   
 31  15  17  1   
 32  15  41  1   
 33  15  42  1   
 34  16  18  1   
 35  17  19  1   
 36  17  20  1   
 37  17  43  1   
 38  18  44  1   
 39  18  45  1   
 40  18  46  1   
 41  19  47  1   
 42  20  21  1   
 43  20  48  1   
 44  20  49  1   
 45  21  22  1   
 46  22  23  ar  
 47  22  24  ar  
 48  23  25  ar  
 49  23  50  1   
 50  24  26  ar  
 51  24  51  1   
 52  25  27  ar  
 53  25  52  1   
 54  26  27  ar  
 55  26  53  1   
 56  27  54  1   
@<TRIPOS>SUBSTRUCTURE
  1 ****  13 GROUP 4 **** **** 0

# MOE 2024.06 (io_trps.svl 2023.06)
