@<TRIPOS>MOLECULE
NONAME
41 42 1 0 0 
SMALL
USER_CHARGES


@<TRIPOS>ATOM
  1 O       -0.2820    -0.0510     0.3370 O.2   1 <1>  -0.5700 
  2 C       -0.0630     1.0850    -0.0440 C.2   1 <1>   0.8050 
  3 O        1.1670     1.3810    -0.4800 O.3   1 <1>  -0.4300 
  4 C       -1.0660     2.1050    -0.0820 C.2   1 <1>  -0.2370 
  5 C        2.2200     0.4400    -0.4500 C.3   1 <1>   0.0400 
  6 N       -2.3940     1.8950    -0.3820 N.pl3 1 <1>   0.0480 
  7 C       -0.9030     3.4440     0.1850 C.2   1 <1>   0.1250 
  8 C       -3.0420     3.0800    -0.2820 C.2   1 <1>  -0.3320 
  9 C       -3.0430     0.6180    -0.7780 C.3   1 <1>   0.0960 
 10 N        0.2910     4.0330     0.5620 N.2   1 <1>  -0.5750 
 11 C       -2.1580     4.0650     0.0680 C.2   1 <1>   0.0190 
 12 C       -4.5410     3.2240    -0.5100 C.3   1 <1>   0.0200 
 13 C       -4.0590     0.1600     0.2770 C.3   1 <1>  -0.1600 
 14 C        0.6600     5.1060    -0.0120 C.2   1 <1>   0.4400 
 15 C       -2.4310     5.4530     0.3030 C.1   1 <1>   0.5380 
 16 C       -5.3370     2.4040     0.5140 C.3   1 <1>  -0.1600 
 17 C       -5.4050     0.9000     0.2020 C.3   1 <1>  -0.1600 
 18 N        1.8130     5.7920     0.2970 N.pl3 1 <1>  -0.7880 
 19 N       -2.6670     6.5600     0.4530 N.1   1 <1>  -0.5570 
 20 C        2.1190     7.1000    -0.3320 C.3   1 <1>   0.1290 
 21 C        2.7630     5.3190     1.3410 C.3   1 <1>   0.1290 
 22 H        3.1050     0.9110    -0.8360 H     1 <1>   0.0800 
 23 H        1.9510    -0.4050    -1.0600 H     1 <1>   0.0800 
 24 H        2.3780     0.1300     0.5680 H     1 <1>   0.0800 
 25 H       -3.5300     0.7570    -1.7260 H     1 <1>   0.0800 
 26 H       -2.2980    -0.1430    -0.9110 H     1 <1>   0.0800 
 27 H       -4.8190     4.2580    -0.4070 H     1 <1>   0.0800 
 28 H       -4.7970     2.9240    -1.5120 H     1 <1>   0.0800 
 29 H       -4.2500    -0.8860     0.1150 H     1 <1>   0.0800 
 30 H       -3.6280     0.2560     1.2590 H     1 <1>   0.0800 
 31 H        0.0580     5.5370    -0.7940 H     1 <1>   0.0600 
 32 H       -4.9210     2.5570     1.4960 H     1 <1>   0.0800 
 33 H       -6.3440     2.7840     0.5320 H     1 <1>   0.0800 
 34 H       -5.8380     0.7570    -0.7740 H     1 <1>   0.0800 
 35 H       -6.0740     0.4430     0.9120 H     1 <1>   0.0800 
 36 H        2.1780     7.8620     0.4250 H     1 <1>   0.0800 
 37 H        1.3490     7.3690    -1.0340 H     1 <1>   0.0800 
 38 H        3.0590     7.0420    -0.8520 H     1 <1>   0.0800 
 39 H        3.7690     5.3530     0.9610 H     1 <1>   0.0800 
 40 H        2.5420     4.3050     1.6280 H     1 <1>   0.0800 
 41 H        2.6880     5.9470     2.2100 H     1 <1>   0.0800 
@<TRIPOS>BOND
  1   1   2  2   
  2   2   3  1   
  3   2   4  1   
  4   3   5  1   
  5   4   6  1   
  6   4   7  2   
  7   5  22  1   
  8   5  23  1   
  9   5  24  1   
 10   6   8  1   
 11   6   9  1   
 12   7  10  1   
 13   7  11  1   
 14   8  11  2   
 15   8  12  1   
 16   9  13  1   
 17   9  25  1   
 18   9  26  1   
 19  10  14  2   
 20  11  15  1   
 21  12  16  1   
 22  12  27  1   
 23  12  28  1   
 24  13  17  1   
 25  13  29  1   
 26  13  30  1   
 27  14  18  1   
 28  14  31  1   
 29  15  19  3   
 30  16  17  1   
 31  16  32  1   
 32  16  33  1   
 33  17  34  1   
 34  17  35  1   
 35  18  20  1   
 36  18  21  1   
 37  20  36  1   
 38  20  37  1   
 39  20  38  1   
 40  21  39  1   
 41  21  40  1   
 42  21  41  1   
@<TRIPOS>SUBSTRUCTURE
  1 ****   7 GROUP 4 **** **** 0

# MOE 2024.06 (io_trps.svl 2023.06)
