@<TRIPOS>MOLECULE
NONAME
40 40 1 0 0 
SMALL
USER_CHARGES


@<TRIPOS>ATOM
  1 S       -0.1470     0.0860     0.0700 S.o2  1 <1>   1.3330 
  2 O        0.0690     1.3660     0.7030 O.2   1 <1>  -0.6500 
  3 O        0.1980    -0.0600    -1.3230 O.2   1 <1>  -0.6500 
  4 N       -1.7980    -0.2850     0.2470 N.am  1 <1>  -0.8490 
  5 C        0.7600    -1.0890     1.0570 C.3   1 <1>  -0.1350 
  6 C       -2.2430    -1.3820    -0.6980 C.3   1 <1>   0.4560 
  7 C       -2.6090     0.9360     0.0550 C.3   1 <1>   0.1160 
  8 P       -4.0210    -1.7070    -0.9730 P.3   1 <1>   1.2420 
  9 C       -1.5730    -2.6830    -0.2640 C.2   1 <1>  -0.0400 
 10 O       -4.8160    -0.5760    -1.4600 O.2   1 <1>  -0.7000 
 11 O       -4.0910    -2.9440    -1.9960 O.3   1 <1>  -0.5510 
 12 O       -4.6180    -2.3520     0.3810 O.3   1 <1>  -0.5510 
 13 O       -0.7710    -3.2980    -1.1140 O.3   1 <1>  -0.2800 
 14 C       -1.6560    -3.3850     0.8890 C.2   1 <1>  -0.1500 
 15 C       -5.3170    -3.4920    -2.3210 C.3   1 <1>   0.1200 
 16 C       -4.8130    -1.6370     1.5530 C.3   1 <1>   0.1200 
 17 C       -0.3340    -4.3970    -0.5330 C.2   1 <1>  -0.0100 
 18 C       -0.8420    -4.5110     0.7110 C.2   1 <1>  -0.1500 
 19 C       -5.0700    -4.6260    -3.3090 C.3   1 <1>  -0.2400 
 20 C       -6.1270    -0.8620     1.4730 C.3   1 <1>  -0.2400 
 21 H        1.7730    -0.7550     1.1690 H     1 <1>   0.0800 
 22 H        0.7840    -2.0510     0.5900 H     1 <1>   0.0800 
 23 H        0.3200    -1.1760     2.0300 H     1 <1>   0.0800 
 24 H       -1.8510    -1.1440    -1.6690 H     1 <1>   0.0800 
 25 H       -2.2860     1.7130     0.7280 H     1 <1>   0.0800 
 26 H       -3.6460     0.7600     0.2720 H     1 <1>   0.0800 
 27 H       -2.5140     1.2990    -0.9560 H     1 <1>   0.0800 
 28 H       -2.2230    -3.1640     1.7760 H     1 <1>   0.1500 
 29 H       -5.9320    -2.7240    -2.7610 H     1 <1>   0.0800 
 30 H       -5.7820    -3.8610    -1.4210 H     1 <1>   0.0800 
 31 H       -3.9730    -0.9890     1.7280 H     1 <1>   0.0800 
 32 H       -4.8700    -2.3540     2.3540 H     1 <1>   0.0800 
 33 H        0.3340    -5.0410    -1.0790 H     1 <1>   0.1500 
 34 H       -0.6810    -5.2890     1.4360 H     1 <1>   0.1500 
 35 H       -4.5970    -4.2460    -4.1970 H     1 <1>   0.0800 
 36 H       -6.0050    -5.0790    -3.5840 H     1 <1>   0.0800 
 37 H       -4.4430    -5.3760    -2.8600 H     1 <1>   0.0800 
 38 H       -6.0800    -0.0900     0.7270 H     1 <1>   0.0800 
 39 H       -6.3280    -0.3970     2.4210 H     1 <1>   0.0800 
 40 H       -6.9380    -1.5310     1.2450 H     1 <1>   0.0800 
@<TRIPOS>BOND
  1   1   2  2   
  2   1   3  2   
  3   1   4  am  
  4   1   5  1   
  5   4   6  1   
  6   4   7  1   
  7   5  21  1   
  8   5  22  1   
  9   5  23  1   
 10   6   8  1   
 11   6   9  1   
 12   6  24  1   
 13   7  25  1   
 14   7  26  1   
 15   7  27  1   
 16   8  10  2   
 17   8  11  1   
 18   8  12  1   
 19   9  13  1   
 20   9  14  2   
 21  11  15  1   
 22  12  16  1   
 23  13  17  1   
 24  14  18  1   
 25  14  28  1   
 26  15  19  1   
 27  15  29  1   
 28  15  30  1   
 29  16  20  1   
 30  16  31  1   
 31  16  32  1   
 32  17  18  2   
 33  17  33  1   
 34  18  34  1   
 35  19  35  1   
 36  19  36  1   
 37  19  37  1   
 38  20  38  1   
 39  20  39  1   
 40  20  40  1   
@<TRIPOS>SUBSTRUCTURE
  1 ****   6 GROUP 4 **** **** 0

# MOE 2024.06 (io_trps.svl 2023.06)
