@<TRIPOS>MOLECULE
NONAME
40 43 1 0 0 
SMALL
USER_CHARGES


@<TRIPOS>ATOM
  1 O        0.2640    -1.4830     2.0050 O.2   1 <1>  -0.5700 
  2 C        1.1170    -1.6310     1.1820 C.2   1 <1>   0.4480 
  3 C        1.8960    -0.4850     0.5550 C.3   1 <1>  -0.0190 
  4 C        1.5390    -2.9880     0.6430 C.3   1 <1>  -0.0190 
  5 C        3.3970    -0.7140     0.8220 C.3   1 <1>  -0.1600 
  6 C        1.6420    -0.5000    -0.9630 C.3   1 <1>  -0.1600 
  7 C        3.0400    -3.1850     0.9390 C.3   1 <1>  -0.1600 
  8 C        1.3080    -3.0020    -0.8820 C.3   1 <1>  -0.1600 
  9 C        3.8960    -2.0820     0.2520 C.3   1 <1>   0.0610 
 10 C        2.0930    -1.8520    -1.5490 C.3   1 <1>  -0.0800 
 11 C        5.4170    -2.2730     0.5470 C.2   1 <1>   0.5690 
 12 C        3.5970    -2.0400    -1.2740 C.3   1 <1>  -0.1600 
 13 O        5.9410    -1.4400     1.2530 O.2   1 <1>  -0.5700 
 14 N        6.1880    -3.3150     0.0620 N.am  1 <1>  -0.6600 
 15 C        5.7660    -4.5250    -0.7120 C.3   1 <1>   0.1400 
 16 C        7.6640    -3.3520     0.3310 C.3   1 <1>   0.1400 
 17 C        6.2640    -5.8090    -0.0280 C.3   1 <1>   0.1200 
 18 C        8.0720    -4.6930     0.9610 C.3   1 <1>   0.1200 
 19 O        7.6470    -5.7610     0.1620 O.3   1 <1>  -0.5600 
 20 H        1.5750     0.4480     0.9830 H     1 <1>   0.0800 
 21 H        0.9580    -3.7590     1.1180 H     1 <1>   0.0800 
 22 H        3.5670    -0.6810     1.8850 H     1 <1>   0.0800 
 23 H        3.9630     0.0910     0.3850 H     1 <1>   0.0800 
 24 H        0.5930    -0.3490    -1.1560 H     1 <1>   0.0800 
 25 H        2.1810     0.3050    -1.4320 H     1 <1>   0.0800 
 26 H        3.3250    -4.1670     0.6250 H     1 <1>   0.0800 
 27 H        3.1980    -3.1410     2.0040 H     1 <1>   0.0800 
 28 H        0.2570    -2.8860    -1.0850 H     1 <1>   0.0800 
 29 H        1.6170    -3.9470    -1.2930 H     1 <1>   0.0800 
 30 H        1.9160    -1.8590    -2.6110 H     1 <1>   0.0800 
 31 H        3.9150    -2.9340    -1.7680 H     1 <1>   0.0800 
 32 H        4.1480    -1.2290    -1.7190 H     1 <1>   0.0800 
 33 H        6.1870    -4.4730    -1.7010 H     1 <1>   0.0800 
 34 H        4.7050    -4.5900    -0.8150 H     1 <1>   0.0800 
 35 H        7.9640    -2.5570     0.9900 H     1 <1>   0.0800 
 36 H        8.1960    -3.2220    -0.5950 H     1 <1>   0.0800 
 37 H        6.0490    -6.6660    -0.6420 H     1 <1>   0.0800 
 38 H        5.7880    -5.9400     0.9280 H     1 <1>   0.0800 
 39 H        7.6380    -4.7970     1.9410 H     1 <1>   0.0800 
 40 H        9.1420    -4.7530     1.0480 H     1 <1>   0.0800 
@<TRIPOS>BOND
  1   1   2  2   
  2   2   3  1   
  3   2   4  1   
  4   3   5  1   
  5   3   6  1   
  6   3  20  1   
  7   4   7  1   
  8   4   8  1   
  9   4  21  1   
 10   5   9  1   
 11   5  22  1   
 12   5  23  1   
 13   6  10  1   
 14   6  24  1   
 15   6  25  1   
 16   7   9  1   
 17   7  26  1   
 18   7  27  1   
 19   8  10  1   
 20   8  28  1   
 21   8  29  1   
 22   9  11  1   
 23   9  12  1   
 24  10  12  1   
 25  10  30  1   
 26  11  13  2   
 27  11  14  am  
 28  12  31  1   
 29  12  32  1   
 30  14  15  1   
 31  14  16  1   
 32  15  17  1   
 33  15  33  1   
 34  15  34  1   
 35  16  18  1   
 36  16  35  1   
 37  16  36  1   
 38  17  19  1   
 39  17  37  1   
 40  17  38  1   
 41  18  19  1   
 42  18  39  1   
 43  18  40  1   
@<TRIPOS>SUBSTRUCTURE
  1 ****   9 GROUP 4 **** **** 0

# MOE 2024.06 (io_trps.svl 2023.06)
