@<TRIPOS>MOLECULE
NONAME
48 49 1 0 0 
SMALL
USER_CHARGES


@<TRIPOS>ATOM
  1 F       -3.9350    -2.4220     2.1850 F     1 <1>  -0.1900 
  2 C       -4.8240    -2.8080     1.3040 C.ar  1 <1>   0.1900 
  3 C       -4.5500    -3.9060     0.4930 C.ar  1 <1>   0.0830 
  4 C       -6.0050    -2.0970     1.2180 C.ar  1 <1>  -0.1500 
  5 O       -3.3590    -4.5480     0.6470 O.3   1 <1>  -0.3630 
  6 C       -5.5160    -4.2880    -0.4350 C.ar  1 <1>  -0.1500 
  7 C       -6.9540    -2.4920     0.2900 C.ar  1 <1>  -0.1500 
  8 C       -2.9770    -5.6230    -0.1830 C.3   1 <1>   0.1200 
  9 C       -6.7070    -3.5820    -0.5310 C.ar  1 <1>  -0.1500 
 10 C       -1.5710    -6.0700     0.2370 C.3   1 <1>   0.2000 
 11 O       -0.7340    -4.9530     0.2840 O.3   1 <1>  -0.6800 
 12 C       -0.9580    -7.1120    -0.7240 C.3   1 <1>   0.3430 
 13 N        0.5360    -7.0830    -0.6390 N.4   1 <1>  -0.9590 
 14 C        1.1950    -7.5120    -1.9020 C.3   1 <1>   0.3430 
 15 C        1.0600    -7.7820     0.5660 C.3   1 <1>   0.3430 
 16 C        2.6950    -7.2430    -1.8070 C.3   1 <1>  -0.1600 
 17 C        2.5580    -7.5180     0.6980 C.3   1 <1>  -0.1600 
 18 C        3.3290    -7.9190    -0.5740 C.3   1 <1>  -0.0190 
 19 C        4.8150    -7.5950    -0.4280 C.2   1 <1>   0.6590 
 20 O        5.3100    -6.6250    -0.9380 O.2   1 <1>  -0.5700 
 21 O        5.5110    -8.4470     0.3100 O.3   1 <1>  -0.4300 
 22 C        6.8900    -8.2640     0.5360 C.3   1 <1>   0.1200 
 23 C        7.3800    -9.4050     1.4220 C.3   1 <1>  -0.2400 
 24 H       -6.1760    -1.2550     1.8650 H     1 <1>   0.1500 
 25 H       -5.3700    -5.1260    -1.0890 H     1 <1>   0.1500 
 26 H       -7.8820    -1.9520     0.2060 H     1 <1>   0.1500 
 27 H       -2.9820    -5.2810    -1.2040 H     1 <1>   0.0800 
 28 H       -3.6880    -6.4210    -0.0560 H     1 <1>   0.0800 
 29 H       -7.4500    -3.8820    -1.2510 H     1 <1>   0.1500 
 30 H       -1.6210    -6.4810     1.2310 H     1 <1>   0.0800 
 31 H       -1.2250    -4.2140     0.7190 H     1 <1>   0.4000 
 32 H       -1.2600    -6.8550    -1.7260 H     1 <1>   0.0800 
 33 H       -1.3380    -8.0960    -0.5060 H     1 <1>   0.0800 
 34 H        0.7330    -6.0710    -0.4950 H     1 <1>   0.4500 
 35 H        0.7870    -6.9650    -2.7370 H     1 <1>   0.0800 
 36 H        1.0240    -8.5640    -2.0660 H     1 <1>   0.0800 
 37 H        0.8840    -8.8420     0.4810 H     1 <1>   0.0800 
 38 H        0.5580    -7.4200     1.4500 H     1 <1>   0.0800 
 39 H        2.8570    -6.1790    -1.7700 H     1 <1>   0.0800 
 40 H        3.1750    -7.6060    -2.7000 H     1 <1>   0.0800 
 41 H        2.9390    -8.0750     1.5370 H     1 <1>   0.0800 
 42 H        2.7170    -6.4740     0.9080 H     1 <1>   0.0800 
 43 H        3.2530    -8.9850    -0.6990 H     1 <1>   0.0800 
 44 H        7.0350    -7.3110     1.0180 H     1 <1>   0.0800 
 45 H        7.3960    -8.2670    -0.4150 H     1 <1>   0.0800 
 46 H        6.8610    -9.3940     2.3640 H     1 <1>   0.0800 
 47 H        8.4320    -9.2900     1.6110 H     1 <1>   0.0800 
 48 H        7.2220   -10.3500     0.9330 H     1 <1>   0.0800 
@<TRIPOS>BOND
  1   1   2  1   
  2   2   3  ar  
  3   2   4  ar  
  4   3   5  1   
  5   3   6  ar  
  6   4   7  ar  
  7   4  24  1   
  8   5   8  1   
  9   6   9  ar  
 10   6  25  1   
 11   7   9  ar  
 12   7  26  1   
 13   8  10  1   
 14   8  27  1   
 15   8  28  1   
 16   9  29  1   
 17  10  11  1   
 18  10  12  1   
 19  10  30  1   
 20  11  31  1   
 21  12  13  1   
 22  12  32  1   
 23  12  33  1   
 24  13  14  1   
 25  13  15  1   
 26  13  34  1   
 27  14  16  1   
 28  14  35  1   
 29  14  36  1   
 30  15  17  1   
 31  15  37  1   
 32  15  38  1   
 33  16  18  1   
 34  16  39  1   
 35  16  40  1   
 36  17  18  1   
 37  17  41  1   
 38  17  42  1   
 39  18  19  1   
 40  18  43  1   
 41  19  20  2   
 42  19  21  1   
 43  21  22  1   
 44  22  23  1   
 45  22  44  1   
 46  22  45  1   
 47  23  46  1   
 48  23  47  1   
 49  23  48  1   
@<TRIPOS>SUBSTRUCTURE
  1 ****  11 GROUP 4 **** **** 0

# MOE 2024.06 (io_trps.svl 2023.06)
