@<TRIPOS>MOLECULE
NONAME
43 44 1 0 0 
SMALL
USER_CHARGES


@<TRIPOS>ATOM
  1 O       -0.0810     0.8910    -1.1430 O.2   1 <1>  -0.5700 
  2 C        0.4550     1.7340    -0.4660 C.2   1 <1>   0.5690 
  3 N       -0.1350     2.7850     0.1530 N.am  1 <1>  -0.6600 
  4 C        1.9350     1.7280    -0.2130 C.3   1 <1>  -0.0990 
  5 C       -1.5550     3.2050     0.0930 C.3   1 <1>   0.2200 
  6 C        0.8400     3.6120     0.8880 C.3   1 <1>   0.1400 
  7 C        2.1010     2.7350     0.9410 C.3   1 <1>  -0.0190 
  8 C       -2.4650     2.1240     0.6890 C.3   1 <1>  -0.1600 
  9 C       -1.9580     3.5470    -1.3470 C.3   1 <1>  -0.1600 
 10 C        3.3960     3.5340     0.9080 C.2   1 <1>   0.5690 
 11 C       -3.9400     2.5480     0.6200 C.3   1 <1>  -0.1600 
 12 C       -3.4330     3.9730    -1.4190 C.3   1 <1>  -0.1600 
 13 O        3.3750     4.7100     1.1770 O.2   1 <1>  -0.5700 
 14 N        4.5540     2.8980     0.5910 N.am  1 <1>  -0.7300 
 15 C       -4.3480     2.8970    -0.8190 C.3   1 <1>  -0.1600 
 16 C        5.8940     3.5420     0.5880 C.3   1 <1>   0.1400 
 17 C        6.0700     4.4200    -0.6510 C.3   1 <1>   0.1200 
 18 O        7.4020     4.8230    -0.7190 O.3   1 <1>  -0.5600 
 19 C        7.6690     5.7060    -1.7590 C.3   1 <1>   0.0400 
 20 H        2.4290     2.0640    -1.1070 H     1 <1>   0.0800 
 21 H        2.2720     0.7440     0.0540 H     1 <1>   0.0800 
 22 H       -1.6690     4.0960     0.6870 H     1 <1>   0.0800 
 23 H        0.4860     3.8470     1.8770 H     1 <1>   0.0800 
 24 H        1.0150     4.5210     0.3360 H     1 <1>   0.0800 
 25 H        2.0750     2.1960     1.8710 H     1 <1>   0.0800 
 26 H       -2.1890     1.9470     1.7130 H     1 <1>   0.0800 
 27 H       -2.3420     1.2070     0.1400 H     1 <1>   0.0800 
 28 H       -1.8170     2.6850    -1.9750 H     1 <1>   0.0800 
 29 H       -1.3360     4.3430    -1.7160 H     1 <1>   0.0800 
 30 H       -4.0970     3.4040     1.2530 H     1 <1>   0.0800 
 31 H       -4.5610     1.7480     0.9860 H     1 <1>   0.0800 
 32 H       -3.7060     4.1460    -2.4460 H     1 <1>   0.0800 
 33 H       -3.5660     4.8960    -0.8810 H     1 <1>   0.0800 
 34 H        4.5460     1.9020     0.3680 H     1 <1>   0.3700 
 35 H       -5.3680     3.2410    -0.8320 H     1 <1>   0.0800 
 36 H       -4.2940     2.0080    -1.4260 H     1 <1>   0.0800 
 37 H        6.6540     2.7790     0.5990 H     1 <1>   0.0800 
 38 H        5.9990     4.1520     1.4690 H     1 <1>   0.0800 
 39 H        5.4430     5.2930    -0.5760 H     1 <1>   0.0800 
 40 H        5.8380     3.8650    -1.5430 H     1 <1>   0.0800 
 41 H        8.7170     5.9480    -1.7320 H     1 <1>   0.0800 
 42 H        7.0880     6.6020    -1.6220 H     1 <1>   0.0800 
 43 H        7.4280     5.2360    -2.6970 H     1 <1>   0.0800 
@<TRIPOS>BOND
  1   1   2  2   
  2   2   3  am  
  3   2   4  1   
  4   3   5  1   
  5   3   6  1   
  6   4   7  1   
  7   4  20  1   
  8   4  21  1   
  9   5   8  1   
 10   5   9  1   
 11   5  22  1   
 12   6   7  1   
 13   6  23  1   
 14   6  24  1   
 15   7  10  1   
 16   7  25  1   
 17   8  11  1   
 18   8  26  1   
 19   8  27  1   
 20   9  12  1   
 21   9  28  1   
 22   9  29  1   
 23  10  13  2   
 24  10  14  am  
 25  11  15  1   
 26  11  30  1   
 27  11  31  1   
 28  12  15  1   
 29  12  32  1   
 30  12  33  1   
 31  14  16  1   
 32  14  34  1   
 33  15  35  1   
 34  15  36  1   
 35  16  17  1   
 36  16  37  1   
 37  16  38  1   
 38  17  18  1   
 39  17  39  1   
 40  17  40  1   
 41  18  19  1   
 42  19  41  1   
 43  19  42  1   
 44  19  43  1   
@<TRIPOS>SUBSTRUCTURE
  1 ****   6 GROUP 4 **** **** 0

# MOE 2024.06 (io_trps.svl 2023.06)
