@<TRIPOS>MOLECULE
NONAME
34 34 1 0 0 
SMALL
USER_CHARGES


@<TRIPOS>ATOM
  1 CL      -1.8990     1.1340     1.8420 Cl    1 <1>  -0.1770 
  2 C       -0.9850     2.3670     1.0070 C.ar  1 <1>   0.1770 
  3 C       -1.3200     2.6950    -0.2960 C.ar  1 <1>  -0.1440 
  4 C        0.0480     3.0020     1.6760 C.ar  1 <1>  -0.1500 
  5 C       -0.5800     3.6930    -0.9030 C.ar  1 <1>   0.1900 
  6 C       -2.4400     1.9920    -1.0320 C.3   1 <1>   0.4860 
  7 C        0.7740     3.9970     1.0370 C.ar  1 <1>  -0.1500 
  8 F       -0.8790     4.0390    -2.1270 F     1 <1>  -0.1900 
  9 C        0.4580     4.3490    -0.2660 C.ar  1 <1>  -0.1500 
 10 N       -3.7530     2.3780    -0.4390 N.4   1 <1>  -0.9590 
 11 C       -4.8400     1.4940    -0.9720 C.3   1 <1>   0.3430 
 12 C       -4.0410     3.8260    -0.6460 C.3   1 <1>   0.3430 
 13 C       -6.1530     1.6220    -0.1850 C.3   1 <1>   0.1200 
 14 C       -4.1470     4.5120     0.7150 C.3   1 <1>  -0.1600 
 15 O       -7.0690     0.7600    -0.7590 O.3   1 <1>  -0.6800 
 16 C       -4.4400     6.0070     0.5530 C.3   1 <1>  -0.2400 
 17 H        0.2840     2.7220     2.6880 H     1 <1>   0.1500 
 18 H       -2.2980     0.9270    -0.9440 H     1 <1>   0.0800 
 19 H       -2.4160     2.2490    -2.0790 H     1 <1>   0.0800 
 20 H        1.5810     4.4940     1.5510 H     1 <1>   0.1500 
 21 H        1.0100     5.1200    -0.7790 H     1 <1>   0.1500 
 22 H       -3.6630     2.2090     0.5740 H     1 <1>   0.4500 
 23 H       -4.5240     0.4650    -0.9180 H     1 <1>   0.0800 
 24 H       -5.0310     1.7350    -2.0050 H     1 <1>   0.0800 
 25 H       -4.9640     3.9530    -1.1880 H     1 <1>   0.0800 
 26 H       -3.2530     4.2900    -1.2190 H     1 <1>   0.0800 
 27 H       -6.5550     2.6180    -0.2430 H     1 <1>   0.0800 
 28 H       -6.0180     1.3280     0.8420 H     1 <1>   0.0800 
 29 H       -3.2210     4.4040     1.2540 H     1 <1>   0.0800 
 30 H       -4.9390     4.0680     1.2930 H     1 <1>   0.0800 
 31 H       -7.9300     0.7740    -0.2870 H     1 <1>   0.4000 
 32 H       -3.6530     6.4940     0.0010 H     1 <1>   0.0800 
 33 H       -4.5090     6.4760     1.5200 H     1 <1>   0.0800 
 34 H       -5.3720     6.1640     0.0370 H     1 <1>   0.0800 
@<TRIPOS>BOND
  1   1   2  1   
  2   2   3  ar  
  3   2   4  ar  
  4   3   5  ar  
  5   3   6  1   
  6   4   7  ar  
  7   4  17  1   
  8   5   8  1   
  9   5   9  ar  
 10   6  10  1   
 11   6  18  1   
 12   6  19  1   
 13   7   9  ar  
 14   7  20  1   
 15   9  21  1   
 16  10  11  1   
 17  10  12  1   
 18  10  22  1   
 19  11  13  1   
 20  11  23  1   
 21  11  24  1   
 22  12  14  1   
 23  12  25  1   
 24  12  26  1   
 25  13  15  1   
 26  13  27  1   
 27  13  28  1   
 28  14  16  1   
 29  14  29  1   
 30  14  30  1   
 31  15  31  1   
 32  16  32  1   
 33  16  33  1   
 34  16  34  1   
@<TRIPOS>SUBSTRUCTURE
  1 ****   3 GROUP 4 **** **** 0

# MOE 2024.06 (io_trps.svl 2023.06)
