@<TRIPOS>MOLECULE
NONAME
39 42 1 0 0 
SMALL
USER_CHARGES


@<TRIPOS>ATOM
  1 S       -0.3290     0.6090     1.8850 S.2   1 <1>  -0.3800 
  2 C       -1.4900    -0.4110     1.4250 C.2   1 <1>   0.5000 
  3 N       -2.6420     0.0490     0.9080 N.am  1 <1>  -0.5390 
  4 N       -1.3350    -1.7350     1.5550 N.am  1 <1>  -0.4900 
  5 C       -3.6720    -0.7850     0.4830 C.2   1 <1>   0.0810 
  6 C       -2.2940    -2.6340     1.1870 C.2   1 <1>   0.6160 
  7 C       -4.8980    -0.1700     0.0230 C.ar  1 <1>   0.0280 
  8 C       -3.4820    -2.1420     0.5390 C.2   1 <1>  -0.1240 
  9 O       -2.0640    -3.7870     1.4900 O.2   1 <1>  -0.5700 
 10 C       -5.7570    -0.9160    -0.7760 C.ar  1 <1>  -0.1430 
 11 C       -5.2860     1.1260     0.3660 C.ar  1 <1>  -0.1500 
 12 C       -4.5750    -3.0850    -0.0410 C.3   1 <1>   0.1380 
 13 C       -6.9550    -0.3880    -1.2240 C.ar  1 <1>  -0.1500 
 14 C       -5.3350    -2.3220    -1.1650 C.3   1 <1>  -0.0170 
 15 C       -6.4810     1.6580    -0.0810 C.ar  1 <1>  -0.1500 
 16 C       -5.5280    -3.4640     1.1170 C.3   1 <1>  -0.1600 
 17 C       -4.0250    -4.3920    -0.6850 C.3   1 <1>  -0.1600 
 18 C       -7.3190     0.9010    -0.8780 C.ar  1 <1>  -0.1500 
 19 C       -6.6230    -4.4750     0.7310 C.3   1 <1>  -0.1600 
 20 C       -5.1230    -5.3820    -1.1130 C.3   1 <1>  -0.1600 
 21 C       -6.0310    -5.7290     0.0740 C.3   1 <1>  -0.1600 
 22 H       -2.7380     1.0600     0.8010 H     1 <1>   0.3700 
 23 H       -0.5000    -2.1180     1.9890 H     1 <1>   0.3700 
 24 H       -4.6620     1.7290     0.9990 H     1 <1>   0.1500 
 25 H       -7.6110    -0.9720    -1.8450 H     1 <1>   0.1500 
 26 H       -4.6880    -2.2300    -2.0190 H     1 <1>   0.0800 
 27 H       -6.2010    -2.8660    -1.4870 H     1 <1>   0.0800 
 28 H       -6.7640     2.6600     0.1930 H     1 <1>   0.1500 
 29 H       -5.9910    -2.5760     1.5120 H     1 <1>   0.0800 
 30 H       -4.9410    -3.8950     1.9110 H     1 <1>   0.0800 
 31 H       -3.4220    -4.9350     0.0130 H     1 <1>   0.0800 
 32 H       -3.3980    -4.1550    -1.5260 H     1 <1>   0.0800 
 33 H       -8.2510     1.3120    -1.2280 H     1 <1>   0.1500 
 34 H       -7.3310    -4.0170     0.0630 H     1 <1>   0.0800 
 35 H       -7.1640    -4.7620     1.6160 H     1 <1>   0.0800 
 36 H       -4.6600    -6.2850    -1.4740 H     1 <1>   0.0800 
 37 H       -5.7090    -4.9840    -1.9210 H     1 <1>   0.0800 
 38 H       -6.8270    -6.3750    -0.2550 H     1 <1>   0.0800 
 39 H       -5.4550    -6.2670     0.8080 H     1 <1>   0.0800 
@<TRIPOS>BOND
  1   1   2  2   
  2   2   3  am  
  3   2   4  am  
  4   3   5  1   
  5   3  22  1   
  6   4   6  am  
  7   4  23  1   
  8   5   7  1   
  9   5   8  2   
 10   6   8  1   
 11   6   9  2   
 12   7  10  ar  
 13   7  11  ar  
 14   8  12  1   
 15  10  13  ar  
 16  10  14  1   
 17  11  15  ar  
 18  11  24  1   
 19  12  14  1   
 20  12  16  1   
 21  12  17  1   
 22  13  18  ar  
 23  13  25  1   
 24  14  26  1   
 25  14  27  1   
 26  15  18  ar  
 27  15  28  1   
 28  16  19  1   
 29  16  29  1   
 30  16  30  1   
 31  17  20  1   
 32  17  31  1   
 33  17  32  1   
 34  18  33  1   
 35  19  21  1   
 36  19  34  1   
 37  19  35  1   
 38  20  21  1   
 39  20  36  1   
 40  20  37  1   
 41  21  38  1   
 42  21  39  1   
@<TRIPOS>SUBSTRUCTURE
  1 ****   8 GROUP 4 **** **** 0

# MOE 2024.06 (io_trps.svl 2023.06)
