@<TRIPOS>MOLECULE
NONAME
34 35 1 0 0 
SMALL
USER_CHARGES


@<TRIPOS>ATOM
  1 BR      -0.4590    -1.2270    -1.1990 Br    1 <1>  -0.1110 
  2 C       -2.1410    -0.4040    -0.7440 C.ar  1 <1>   0.1110 
  3 C       -3.3030    -0.8400    -1.3520 C.ar  1 <1>   0.1600 
  4 C       -2.1620     0.6120     0.1840 C.ar  1 <1>  -0.1500 
  5 N       -4.5000    -0.3300    -1.0980 N.ar  1 <1>  -0.6200 
  6 C       -3.4050     1.1440     0.4510 C.ar  1 <1>  -0.1500 
  7 C       -4.5390     0.6510    -0.2030 C.ar  1 <1>   0.4270 
  8 N       -5.8170     1.1240     0.0020 N.am  1 <1>  -0.5470 
  9 C       -6.3520     2.0590     0.8400 C.2   1 <1>   0.5690 
 10 O       -5.6960     2.6890     1.6320 O.2   1 <1>  -0.5700 
 11 C       -7.8460     2.3370     0.7710 C.3   1 <1>   0.1310 
 12 S       -8.7790     0.9020     0.0430 S.3   1 <1>  -0.2860 
 13 C      -10.4670     1.5130     0.0060 C.2   1 <1>   0.2430 
 14 N      -10.8030     2.6910     0.3910 N.2   1 <1>  -0.3380 
 15 N      -11.4900     0.7770    -0.4260 N.pl3 1 <1>   0.0480 
 16 N      -12.1260     2.7620     0.2140 N.2   1 <1>  -0.3380 
 17 C      -12.5190     1.6250    -0.2670 C.2   1 <1>   0.0060 
 18 C      -11.4620    -0.6110    -0.9300 C.3   1 <1>   0.0160 
 19 C      -13.9600     1.2680    -0.6160 C.3   1 <1>   0.0200 
 20 C      -14.9640     2.3690    -0.2520 C.3   1 <1>  -0.2400 
 21 H       -3.2410    -1.6370    -2.0720 H     1 <1>   0.1500 
 22 H       -1.2650     0.9620     0.6640 H     1 <1>   0.1500 
 23 H       -3.4910     1.9410     1.1640 H     1 <1>   0.1500 
 24 H       -6.4870     0.6230    -0.5810 H     1 <1>   0.3700 
 25 H       -8.0390     3.1920     0.1510 H     1 <1>   0.0800 
 26 H       -8.2430     2.5060     1.7550 H     1 <1>   0.0800 
 27 H      -10.6200    -0.7360    -1.5860 H     1 <1>   0.0800 
 28 H      -12.3650    -0.8250    -1.4710 H     1 <1>   0.0800 
 29 H      -11.3710    -1.2860    -0.0980 H     1 <1>   0.0800 
 30 H      -14.2320     0.3680    -0.0930 H     1 <1>   0.0800 
 31 H      -14.0240     1.0760    -1.6720 H     1 <1>   0.0800 
 32 H      -14.9260     2.5710     0.8040 H     1 <1>   0.0800 
 33 H      -15.9620     2.0660    -0.5110 H     1 <1>   0.0800 
 34 H      -14.7280     3.2760    -0.7820 H     1 <1>   0.0800 
@<TRIPOS>BOND
  1   1   2  1   
  2   2   3  ar  
  3   2   4  ar  
  4   3   5  ar  
  5   3  21  1   
  6   4   6  ar  
  7   4  22  1   
  8   5   7  ar  
  9   6   7  ar  
 10   6  23  1   
 11   7   8  1   
 12   8   9  am  
 13   8  24  1   
 14   9  10  2   
 15   9  11  1   
 16  11  12  1   
 17  11  25  1   
 18  11  26  1   
 19  12  13  1   
 20  13  14  2   
 21  13  15  1   
 22  14  16  1   
 23  15  17  1   
 24  15  18  1   
 25  16  17  2   
 26  17  19  1   
 27  18  27  1   
 28  18  28  1   
 29  18  29  1   
 30  19  20  1   
 31  19  30  1   
 32  19  31  1   
 33  20  32  1   
 34  20  33  1   
 35  20  34  1   
@<TRIPOS>SUBSTRUCTURE
  1 ****  12 GROUP 4 **** **** 0

# MOE 2024.06 (io_trps.svl 2023.06)
