@<TRIPOS>MOLECULE
NONAME
49 50 1 0 0 
SMALL
USER_CHARGES


@<TRIPOS>ATOM
  1 O       -2.9240    -2.1320    -2.1320 O.3   1 <1>  -0.5600 
  2 C       -3.2340    -2.4610    -0.7980 C.3   1 <1>   0.7670 
  3 C       -3.0270    -0.7880    -2.5140 C.3   1 <1>   0.0400 
  4 C       -2.0820    -2.0060     0.0520 C.1   1 <1>  -0.2000 
  5 C       -4.6070    -1.8660    -0.4120 C.ar  1 <1>  -0.1440 
  6 C       -3.2340    -3.9970    -0.6490 C.ar  1 <1>  -0.1440 
  7 C       -1.1090    -1.8750     0.7240 C.1   1 <1>  -0.2000 
  8 C       -5.7470    -2.3540    -1.0410 C.ar  1 <1>  -0.1500 
  9 C       -4.7570    -0.8540     0.5340 C.ar  1 <1>  -0.1500 
 10 C       -2.6800    -4.8360    -1.6120 C.ar  1 <1>  -0.1500 
 11 C       -3.7730    -4.5790     0.4960 C.ar  1 <1>  -0.1500 
 12 C        0.1380    -2.0070     1.5170 C.3   1 <1>   0.5430 
 13 C       -7.0010    -1.8550    -0.7340 C.ar  1 <1>  -0.1500 
 14 C       -6.0110    -0.3550     0.8430 C.ar  1 <1>  -0.1500 
 15 C       -2.6620    -6.2090    -1.4350 C.ar  1 <1>  -0.1500 
 16 C       -3.7550    -5.9510     0.6750 C.ar  1 <1>  -0.1500 
 17 N        0.7750    -3.2900     1.1050 N.4   1 <1>  -0.9590 
 18 C       -7.1330    -0.8540     0.2100 C.ar  1 <1>  -0.1500 
 19 C       -3.1980    -6.7680    -0.2900 C.ar  1 <1>  -0.1500 
 20 C       -0.0550    -4.4660     1.5060 C.3   1 <1>   0.3430 
 21 C        2.1810    -3.4030     1.5760 C.3   1 <1>   0.3430 
 22 C        0.3230    -5.6730     0.6580 C.3   1 <1>  -0.2400 
 23 C        3.0720    -2.4630     0.7730 C.3   1 <1>  -0.2400 
 24 H       -2.4520    -0.1690    -1.8480 H     1 <1>   0.0800 
 25 H       -4.0610    -0.4880    -2.5090 H     1 <1>   0.0800 
 26 H       -2.6400    -0.6970    -3.5130 H     1 <1>   0.0800 
 27 H       -5.6600    -3.1320    -1.7820 H     1 <1>   0.1500 
 28 H       -3.9080    -0.4360     1.0440 H     1 <1>   0.1500 
 29 H       -2.2570    -4.4290    -2.5160 H     1 <1>   0.1500 
 30 H       -4.2200    -3.9620     1.2590 H     1 <1>   0.1500 
 31 H       -0.0850    -2.0140     2.5710 H     1 <1>   0.0800 
 32 H        0.7850    -1.1730     1.3000 H     1 <1>   0.0800 
 33 H       -7.8720    -2.2470    -1.2300 H     1 <1>   0.1500 
 34 H       -6.1140     0.4260     1.5770 H     1 <1>   0.1500 
 35 H       -2.2360    -6.8430    -2.1940 H     1 <1>   0.1500 
 36 H       -4.1850    -6.3840     1.5630 H     1 <1>   0.1500 
 37 H        0.7720    -3.2760     0.0770 H     1 <1>   0.4500 
 38 H       -8.1080    -0.4660     0.4510 H     1 <1>   0.1500 
 39 H       -3.1910    -7.8360    -0.1560 H     1 <1>   0.1500 
 40 H       -1.1010    -4.2570     1.3410 H     1 <1>   0.0800 
 41 H        0.0810    -4.6850     2.5530 H     1 <1>   0.0800 
 42 H        2.5340    -4.4120     1.4340 H     1 <1>   0.0800 
 43 H        2.2450    -3.1730     2.6280 H     1 <1>   0.0800 
 44 H        0.1950    -5.4570    -0.3880 H     1 <1>   0.0800 
 45 H       -0.3340    -6.4890     0.9030 H     1 <1>   0.0800 
 46 H        1.3300    -5.9970     0.8450 H     1 <1>   0.0800 
 47 H        2.9970    -2.6720    -0.2800 H     1 <1>   0.0800 
 48 H        4.0960    -2.6170     1.0660 H     1 <1>   0.0800 
 49 H        2.8350    -1.4310     0.9570 H     1 <1>   0.0800 
@<TRIPOS>BOND
  1   1   2  1   
  2   1   3  1   
  3   2   4  1   
  4   2   5  1   
  5   2   6  1   
  6   3  24  1   
  7   3  25  1   
  8   3  26  1   
  9   4   7  3   
 10   5   8  ar  
 11   5   9  ar  
 12   6  10  ar  
 13   6  11  ar  
 14   7  12  1   
 15   8  13  ar  
 16   8  27  1   
 17   9  14  ar  
 18   9  28  1   
 19  10  15  ar  
 20  10  29  1   
 21  11  16  ar  
 22  11  30  1   
 23  12  17  1   
 24  12  31  1   
 25  12  32  1   
 26  13  18  ar  
 27  13  33  1   
 28  14  18  ar  
 29  14  34  1   
 30  15  19  ar  
 31  15  35  1   
 32  16  19  ar  
 33  16  36  1   
 34  17  20  1   
 35  17  21  1   
 36  17  37  1   
 37  18  38  1   
 38  19  39  1   
 39  20  22  1   
 40  20  40  1   
 41  20  41  1   
 42  21  23  1   
 43  21  42  1   
 44  21  43  1   
 45  22  44  1   
 46  22  45  1   
 47  22  46  1   
 48  23  47  1   
 49  23  48  1   
 50  23  49  1   
@<TRIPOS>SUBSTRUCTURE
  1 ****   2 GROUP 4 **** **** 0

# MOE 2024.06 (io_trps.svl 2023.06)
