@<TRIPOS>MOLECULE
NONAME
47 49 1 0 0 
SMALL
USER_CHARGES


@<TRIPOS>ATOM
  1 CL      -0.9880    -1.0440    -2.3350 Cl    1 <1>  -0.1400 
  2 C       -0.5030    -1.9020    -0.8920 C.2   1 <1>   0.0020 
  3 C        0.7320    -1.8130    -0.3610 C.2   1 <1>  -0.1780 
  4 C       -1.6360    -2.7520    -0.3380 C.3   1 <1>   0.2480 
  5 C        1.8670    -1.0290    -0.7880 C.ar  1 <1>   0.0280 
  6 N       -2.7740    -1.9070     0.0830 N.3   1 <1>  -0.8100 
  7 C        3.1500    -1.5600    -0.6850 C.ar  1 <1>  -0.1500 
  8 C        1.7420     0.2660    -1.2860 C.ar  1 <1>  -0.1500 
  9 C       -3.9740    -2.7060     0.4240 C.3   1 <1>   0.1100 
 10 C       -2.4320    -0.9680     1.1800 C.3   1 <1>   0.1100 
 11 C        4.2630    -0.8350    -1.0700 C.ar  1 <1>  -0.1500 
 12 C        2.8500     0.9970    -1.6740 C.ar  1 <1>  -0.1500 
 13 C       -5.1770    -1.8140     0.8210 C.3   1 <1>   0.3430 
 14 C       -3.6140    -0.0300     1.5300 C.3   1 <1>   0.3430 
 15 C        4.1150     0.4480    -1.5660 C.ar  1 <1>  -0.1500 
 16 N       -4.8230    -0.3580     0.7090 N.4   1 <1>  -0.9590 
 17 C       -5.9680     0.5680     0.9030 C.3   1 <1>   0.4860 
 18 C       -7.0710     0.1970    -0.0690 C.ar  1 <1>  -0.1430 
 19 C       -6.9160     0.4270    -1.4300 C.ar  1 <1>  -0.1500 
 20 C       -8.2420    -0.3840     0.3960 C.ar  1 <1>  -0.1500 
 21 C       -7.9170     0.0690    -2.3150 C.ar  1 <1>  -0.1500 
 22 C       -9.2420    -0.7410    -0.4910 C.ar  1 <1>  -0.1500 
 23 C       -9.0790    -0.5160    -1.8460 C.ar  1 <1>  -0.1500 
 24 H        0.9550    -2.4010     0.5110 H     1 <1>   0.1500 
 25 H       -1.2850    -3.3360     0.4960 H     1 <1>   0.0800 
 26 H       -1.9580    -3.4280    -1.1120 H     1 <1>   0.0800 
 27 H        3.2790    -2.5570    -0.3040 H     1 <1>   0.1500 
 28 H        0.7700     0.7150    -1.3670 H     1 <1>   0.1500 
 29 H       -4.2570    -3.3030    -0.4270 H     1 <1>   0.0800 
 30 H       -3.7500    -3.3810     1.2340 H     1 <1>   0.0800 
 31 H       -2.1420    -1.5200     2.0590 H     1 <1>   0.0800 
 32 H       -1.5930    -0.3580     0.8920 H     1 <1>   0.0800 
 33 H        5.2450    -1.2670    -0.9840 H     1 <1>   0.1500 
 34 H        2.7290     1.9950    -2.0590 H     1 <1>   0.1500 
 35 H       -5.4770    -2.0460     1.8290 H     1 <1>   0.0800 
 36 H       -6.0060    -2.0440     0.1710 H     1 <1>   0.0800 
 37 H       -3.3120     0.9880     1.3450 H     1 <1>   0.0800 
 38 H       -3.8400    -0.1210     2.5790 H     1 <1>   0.0800 
 39 H        4.9780     1.0140    -1.8680 H     1 <1>   0.1500 
 40 H       -4.4970    -0.2790    -0.2670 H     1 <1>   0.4500 
 41 H       -6.3340     0.4980     1.9140 H     1 <1>   0.0800 
 42 H       -5.6580     1.5840     0.7200 H     1 <1>   0.0800 
 43 H       -6.0220     0.8860    -1.8190 H     1 <1>   0.1500 
 44 H       -8.3940    -0.5640     1.4470 H     1 <1>   0.1500 
 45 H       -7.7970     0.2470    -3.3700 H     1 <1>   0.1500 
 46 H      -10.1530    -1.1910    -0.1310 H     1 <1>   0.1500 
 47 H       -9.8590    -0.7930    -2.5360 H     1 <1>   0.1500 
@<TRIPOS>BOND
  1   1   2  1   
  2   2   3  2   
  3   2   4  1   
  4   3   5  1   
  5   3  24  1   
  6   4   6  1   
  7   4  25  1   
  8   4  26  1   
  9   5   7  ar  
 10   5   8  ar  
 11   6   9  1   
 12   6  10  1   
 13   7  11  ar  
 14   7  27  1   
 15   8  12  ar  
 16   8  28  1   
 17   9  13  1   
 18   9  29  1   
 19   9  30  1   
 20  10  14  1   
 21  10  31  1   
 22  10  32  1   
 23  11  15  ar  
 24  11  33  1   
 25  12  15  ar  
 26  12  34  1   
 27  13  16  1   
 28  13  35  1   
 29  13  36  1   
 30  14  16  1   
 31  14  37  1   
 32  14  38  1   
 33  15  39  1   
 34  16  17  1   
 35  16  40  1   
 36  17  18  1   
 37  17  41  1   
 38  17  42  1   
 39  18  19  ar  
 40  18  20  ar  
 41  19  21  ar  
 42  19  43  1   
 43  20  22  ar  
 44  20  44  1   
 45  21  23  ar  
 46  21  45  1   
 47  22  23  ar  
 48  22  46  1   
 49  23  47  1   
@<TRIPOS>SUBSTRUCTURE
  1 ****   6 GROUP 4 **** **** 0

# MOE 2024.06 (io_trps.svl 2023.06)
