@<TRIPOS>MOLECULE
NONAME
38 39 1 0 0 
SMALL
USER_CHARGES


@<TRIPOS>ATOM
  1 S        0.0490     0.2770     0.6800 S.o2  1 <1>   1.4470 
  2 O       -0.1260     0.2090     2.1150 O.2   1 <1>  -0.6500 
  3 O        0.2440    -0.9460    -0.0670 O.2   1 <1>  -0.6500 
  4 N       -1.3300     1.0420     0.0580 N.am  1 <1>  -0.8490 
  5 C        1.3850     1.4350     0.2720 C.ar  1 <1>  -0.0090 
  6 C       -1.7250     2.2030     0.8610 C.3   1 <1>   0.1960 
  7 C       -2.4380     0.0980    -0.1080 C.3   1 <1>   0.1960 
  8 C        1.4630     2.0200    -0.9870 C.ar  1 <1>  -0.1500 
  9 C        2.3700     1.7610     1.2030 C.ar  1 <1>  -0.1500 
 10 C       -2.8650     2.9570     0.1740 C.3   1 <1>  -0.1600 
 11 C       -3.6130     0.7780    -0.8150 C.3   1 <1>  -0.1600 
 12 C        2.4880     2.8980    -1.2770 C.ar  1 <1>   0.1900 
 13 C        3.3980     2.6430     0.9060 C.ar  1 <1>  -0.1500 
 14 C       -4.0740     2.0370    -0.0630 C.3   1 <1>  -0.0190 
 15 F        2.5160     3.4260    -2.4750 F     1 <1>  -0.1900 
 16 C        3.4720     3.2320    -0.3530 C.ar  1 <1>   0.0830 
 17 C       -5.1930     2.7560    -0.8130 C.2   1 <1>   0.5690 
 18 O        4.4480     4.1070    -0.7160 O.3   1 <1>  -0.3630 
 19 O       -4.9840     3.2680    -1.8820 O.2   1 <1>  -0.5700 
 20 N       -6.4240     2.8170    -0.2740 N.am  1 <1>  -0.8000 
 21 C        5.4890     4.4630     0.1660 C.3   1 <1>   0.0400 
 22 H       -0.8870     2.8710     0.9750 H     1 <1>   0.0800 
 23 H       -2.0360     1.8840     1.8440 H     1 <1>   0.0800 
 24 H       -2.7460    -0.2770     0.8550 H     1 <1>   0.0800 
 25 H       -2.1190    -0.7390    -0.7070 H     1 <1>   0.0800 
 26 H        0.7260     1.7920    -1.7380 H     1 <1>   0.1500 
 27 H        2.3290     1.3130     2.1830 H     1 <1>   0.1500 
 28 H       -2.5090     3.3440    -0.7660 H     1 <1>   0.0800 
 29 H       -3.1600     3.7940     0.7820 H     1 <1>   0.0800 
 30 H       -4.4300     0.0830    -0.8980 H     1 <1>   0.0800 
 31 H       -3.3080     1.0420    -1.8140 H     1 <1>   0.0800 
 32 H        4.1280     2.8560     1.6640 H     1 <1>   0.1500 
 33 H       -4.4540     1.7330     0.8960 H     1 <1>   0.0800 
 34 H       -7.1620     3.2990    -0.7900 H     1 <1>   0.3700 
 35 H       -6.6870     2.4080     0.6210 H     1 <1>   0.3700 
 36 H        6.1370     5.1510    -0.3460 H     1 <1>   0.0800 
 37 H        6.0380     3.5780     0.4360 H     1 <1>   0.0800 
 38 H        5.0660     4.9370     1.0340 H     1 <1>   0.0800 
@<TRIPOS>BOND
  1   1   2  2   
  2   1   3  2   
  3   1   4  am  
  4   1   5  1   
  5   4   6  1   
  6   4   7  1   
  7   5   8  ar  
  8   5   9  ar  
  9   6  10  1   
 10   6  22  1   
 11   6  23  1   
 12   7  11  1   
 13   7  24  1   
 14   7  25  1   
 15   8  12  ar  
 16   8  26  1   
 17   9  13  ar  
 18   9  27  1   
 19  10  14  1   
 20  10  28  1   
 21  10  29  1   
 22  11  14  1   
 23  11  30  1   
 24  11  31  1   
 25  12  15  1   
 26  12  16  ar  
 27  13  16  ar  
 28  13  32  1   
 29  14  17  1   
 30  14  33  1   
 31  16  18  1   
 32  17  19  2   
 33  17  20  am  
 34  18  21  1   
 35  20  34  1   
 36  20  35  1   
 37  21  36  1   
 38  21  37  1   
 39  21  38  1   
@<TRIPOS>SUBSTRUCTURE
  1 ****   4 GROUP 4 **** **** 0

# MOE 2024.06 (io_trps.svl 2023.06)
