@<TRIPOS>MOLECULE
NONAME
50 51 1 0 0 
SMALL
USER_CHARGES


@<TRIPOS>ATOM
  1 CL      -0.6190     1.8960    -1.7780 Cl    1 <1>  -0.1770 
  2 C       -2.0460     1.7710    -0.7740 C.ar  1 <1>   0.1770 
  3 C       -2.0950     2.4030     0.4620 C.ar  1 <1>   0.0830 
  4 C       -3.1130     1.0340    -1.2520 C.ar  1 <1>  -0.1500 
  5 O       -1.0110     3.1130     0.8690 O.3   1 <1>  -0.3630 
  6 C       -3.2560     2.2760     1.2200 C.ar  1 <1>  -0.1500 
  7 C       -4.2770     0.9050    -0.5030 C.ar  1 <1>  -0.0090 
  8 C       -0.9590     3.7440     2.1270 C.3   1 <1>   0.1200 
  9 C       -4.3240     1.5370     0.7360 C.ar  1 <1>  -0.1500 
 10 S       -5.6990    -0.0270    -1.1380 S.o2  1 <1>   1.4470 
 11 C        0.4020     4.4190     2.2590 C.3   1 <1>  -0.2400 
 12 O       -5.3430    -0.7560    -2.3340 O.2   1 <1>  -0.6500 
 13 O       -6.3660    -0.7090    -0.0480 O.2   1 <1>  -0.6500 
 14 N       -6.7990     1.1630    -1.6300 N.am  1 <1>  -0.8490 
 15 C       -8.0080     0.5190    -2.2040 C.3   1 <1>   0.2570 
 16 C       -6.2500     2.1090    -2.6140 C.3   1 <1>   0.1160 
 17 C       -9.2760     1.3800    -2.1080 C.2   1 <1>   0.5690 
 18 O       -9.7630     1.7730    -3.1410 O.2   1 <1>  -0.5700 
 19 N       -9.8530     1.6880    -0.8940 N.am  1 <1>  -0.6600 
 20 C      -11.0630     2.5660    -0.8180 C.3   1 <1>   0.1400 
 21 C       -9.3170     1.2490     0.4350 C.3   1 <1>   0.1400 
 22 C      -12.1520     1.9340     0.0670 C.3   1 <1>   0.3430 
 23 C      -10.4300     0.6470     1.3150 C.3   1 <1>   0.3430 
 24 N      -11.6270     1.5560     1.4290 N.4   1 <1>  -0.9590 
 25 C      -12.6980     0.9300     2.2620 C.3   1 <1>   0.2630 
 26 H       -3.0300     0.5590    -2.2140 H     1 <1>   0.1500 
 27 H       -3.3460     2.7420     2.1840 H     1 <1>   0.1500 
 28 H       -1.0870     2.9960     2.8900 H     1 <1>   0.0800 
 29 H       -1.7500     4.4720     2.1780 H     1 <1>   0.0800 
 30 H       -5.2150     1.4480     1.3340 H     1 <1>   0.1500 
 31 H        1.1870     3.6860     2.1900 H     1 <1>   0.0800 
 32 H        0.4760     4.9110     3.2120 H     1 <1>   0.0800 
 33 H        0.5280     5.1530     1.4830 H     1 <1>   0.0800 
 34 H       -8.2180    -0.4030    -1.6920 H     1 <1>   0.0800 
 35 H       -7.8340     0.2630    -3.2350 H     1 <1>   0.0800 
 36 H       -5.4290     2.6600    -2.1880 H     1 <1>   0.0800 
 37 H       -7.0050     2.8190    -2.9100 H     1 <1>   0.0800 
 38 H       -5.9020     1.5880    -3.4920 H     1 <1>   0.0800 
 39 H      -11.4720     2.7330    -1.8000 H     1 <1>   0.0800 
 40 H      -10.7790     3.5250    -0.4210 H     1 <1>   0.0800 
 41 H       -8.8760     2.0950     0.9330 H     1 <1>   0.0800 
 42 H       -8.5470     0.5110     0.3170 H     1 <1>   0.0800 
 43 H      -12.5270     1.0560    -0.4340 H     1 <1>   0.0800 
 44 H      -12.9690     2.6300     0.1680 H     1 <1>   0.0800 
 45 H      -10.0290     0.4430     2.2950 H     1 <1>   0.0800 
 46 H      -10.7310    -0.2930     0.8830 H     1 <1>   0.0800 
 47 H      -11.3140     2.4230     1.8900 H     1 <1>   0.4500 
 48 H      -13.0460     0.0180     1.8030 H     1 <1>   0.0800 
 49 H      -13.5340     1.6030     2.3670 H     1 <1>   0.0800 
 50 H      -12.3220     0.6980     3.2460 H     1 <1>   0.0800 
@<TRIPOS>BOND
  1   1   2  1   
  2   2   3  ar  
  3   2   4  ar  
  4   3   5  1   
  5   3   6  ar  
  6   4   7  ar  
  7   4  26  1   
  8   5   8  1   
  9   6   9  ar  
 10   6  27  1   
 11   7   9  ar  
 12   7  10  1   
 13   8  11  1   
 14   8  28  1   
 15   8  29  1   
 16   9  30  1   
 17  10  12  2   
 18  10  13  2   
 19  10  14  am  
 20  11  31  1   
 21  11  32  1   
 22  11  33  1   
 23  14  15  1   
 24  14  16  1   
 25  15  17  1   
 26  15  34  1   
 27  15  35  1   
 28  16  36  1   
 29  16  37  1   
 30  16  38  1   
 31  17  18  2   
 32  17  19  am  
 33  19  20  1   
 34  19  21  1   
 35  20  22  1   
 36  20  39  1   
 37  20  40  1   
 38  21  23  1   
 39  21  41  1   
 40  21  42  1   
 41  22  24  1   
 42  22  43  1   
 43  22  44  1   
 44  23  24  1   
 45  23  45  1   
 46  23  46  1   
 47  24  25  1   
 48  24  47  1   
 49  25  48  1   
 50  25  49  1   
 51  25  50  1   
@<TRIPOS>SUBSTRUCTURE
  1 ****  14 GROUP 4 **** **** 0

# MOE 2024.06 (io_trps.svl 2023.06)
