@<TRIPOS>MOLECULE
NONAME
41 41 1 0 0 
SMALL
USER_CHARGES


@<TRIPOS>ATOM
  1 O        0.3220     0.3050     0.1060 O.2   1 <1>  -0.5700 
  2 C        1.4800     0.4740     0.3970 C.2   1 <1>   0.6590 
  3 O        2.3690     0.8380    -0.5260 O.3   1 <1>  -0.0500 
  4 C        1.9290     0.2580     1.8290 C.3   1 <1>  -0.1790 
  5 N        3.7380     1.1530    -0.2950 N.3   1 <1>  -0.6400 
  6 C        3.9960     2.6250    -0.4960 C.3   1 <1>   0.2700 
  7 C        4.6470     0.1040    -0.8830 C.3   1 <1>   0.2700 
  8 C        5.4990     2.9340    -0.4010 C.3   1 <1>  -0.1600 
  9 C        3.2920     3.3900     0.6310 C.3   1 <1>  -0.2400 
 10 C        3.4220     3.1300    -1.8320 C.3   1 <1>  -0.2400 
 11 C        6.1190     0.5320    -0.7680 C.3   1 <1>  -0.1600 
 12 C        4.2870    -0.2160    -2.3450 C.3   1 <1>  -0.2400 
 13 C        4.4730    -1.1820    -0.0680 C.3   1 <1>  -0.2400 
 14 C        6.3300     1.9680    -1.2420 C.3   1 <1>   0.2000 
 15 O        7.7020     2.3210    -1.2290 O.3   1 <1>  -0.4300 
 16 C        8.5140     2.3700    -0.1800 C.2   1 <1>   0.6590 
 17 O        8.1750     2.1100     0.9430 O.2   1 <1>  -0.5700 
 18 C        9.9300     2.7820    -0.4860 C.3   1 <1>  -0.1790 
 19 H        2.6060     1.0300     2.1360 H     1 <1>   0.0800 
 20 H        2.4160    -0.6940     1.9130 H     1 <1>   0.0800 
 21 H        1.0740     0.2680     2.4780 H     1 <1>   0.0800 
 22 H        5.7950     2.8520     0.6290 H     1 <1>   0.0800 
 23 H        5.6840     3.9430    -0.7200 H     1 <1>   0.0800 
 24 H        3.6460     3.0560     1.5890 H     1 <1>   0.0800 
 25 H        2.2270     3.2570     0.5820 H     1 <1>   0.0800 
 26 H        3.4960     4.4420     0.5500 H     1 <1>   0.0800 
 27 H        3.9010     2.6770    -2.6740 H     1 <1>   0.0800 
 28 H        3.5700     4.1920    -1.9130 H     1 <1>   0.0800 
 29 H        2.3650     2.9470    -1.8940 H     1 <1>   0.0800 
 30 H        6.7380    -0.1320    -1.3440 H     1 <1>   0.0800 
 31 H        6.4140     0.4520     0.2620 H     1 <1>   0.0800 
 32 H        4.4390     0.6240    -2.9900 H     1 <1>   0.0800 
 33 H        3.2660    -0.5400    -2.4310 H     1 <1>   0.0800 
 34 H        4.9100    -1.0130    -2.7060 H     1 <1>   0.0800 
 35 H        4.6630    -0.9920     0.9730 H     1 <1>   0.0800 
 36 H        5.1670    -1.9320    -0.4030 H     1 <1>   0.0800 
 37 H        3.4820    -1.5790    -0.1820 H     1 <1>   0.0800 
 38 H        6.0250     2.0470    -2.2700 H     1 <1>   0.0800 
 39 H        9.9300     3.7640    -0.9200 H     1 <1>   0.0800 
 40 H       10.3640     2.0860    -1.1780 H     1 <1>   0.0800 
 41 H       10.5090     2.7930     0.4180 H     1 <1>   0.0800 
@<TRIPOS>BOND
  1   1   2  2   
  2   2   3  1   
  3   2   4  1   
  4   3   5  1   
  5   4  19  1   
  6   4  20  1   
  7   4  21  1   
  8   5   6  1   
  9   5   7  1   
 10   6   8  1   
 11   6   9  1   
 12   6  10  1   
 13   7  11  1   
 14   7  12  1   
 15   7  13  1   
 16   8  14  1   
 17   8  22  1   
 18   8  23  1   
 19   9  24  1   
 20   9  25  1   
 21   9  26  1   
 22  10  27  1   
 23  10  28  1   
 24  10  29  1   
 25  11  14  1   
 26  11  30  1   
 27  11  31  1   
 28  12  32  1   
 29  12  33  1   
 30  12  34  1   
 31  13  35  1   
 32  13  36  1   
 33  13  37  1   
 34  14  15  1   
 35  14  38  1   
 36  15  16  1   
 37  16  17  2   
 38  16  18  1   
 39  18  39  1   
 40  18  40  1   
 41  18  41  1   
@<TRIPOS>SUBSTRUCTURE
  1 ****   5 GROUP 4 **** **** 0

# MOE 2024.06 (io_trps.svl 2023.06)
