@<TRIPOS>MOLECULE
NONAME
33 34 1 0 0 
SMALL
USER_CHARGES


@<TRIPOS>ATOM
  1 S        0.4300     0.1350     0.6170 S.3   1 <1>  -0.3320 
  2 C       -1.1780     0.9440     0.5610 C.ar  1 <1>   0.1020 
  3 C        1.2810     0.5380    -0.9860 C.3   1 <1>   0.1310 
  4 C       -1.6330     1.6130    -0.5640 C.ar  1 <1>  -0.1500 
  5 C       -1.9560     0.8730     1.7030 C.ar  1 <1>  -0.1500 
  6 C        2.7010    -0.0110    -1.0170 C.2   1 <1>   0.5690 
  7 C       -2.8790     2.2180    -0.5350 C.ar  1 <1>  -0.1500 
  8 C       -3.1990     1.4800     1.7230 C.ar  1 <1>  -0.1500 
  9 O        2.9470    -0.8860    -1.8160 O.2   1 <1>  -0.5700 
 10 N        3.6750     0.5010    -0.2000 N.am  1 <1>  -0.6600 
 11 C       -3.6660     2.1540     0.6050 C.ar  1 <1>  -0.1430 
 12 C        3.4970     1.5440     0.8340 C.3   1 <1>   0.1400 
 13 C        5.0620    -0.0100    -0.2080 C.3   1 <1>   0.1400 
 14 C       -5.0300     2.8200     0.6310 C.3   1 <1>  -0.0970 
 15 C        4.9130     1.8860     1.2820 C.3   1 <1>  -0.1600 
 16 C        5.7150     0.6140     1.0210 C.3   1 <1>  -0.1600 
 17 H        1.2900     1.6050    -1.0890 H     1 <1>   0.0800 
 18 H        0.6980     0.0930    -1.7710 H     1 <1>   0.0800 
 19 H       -1.0460     1.6710    -1.4590 H     1 <1>   0.1500 
 20 H       -1.5890     0.3470     2.5650 H     1 <1>   0.1500 
 21 H       -3.2350     2.7400    -1.4070 H     1 <1>   0.1500 
 22 H       -3.8010     1.4250     2.6130 H     1 <1>   0.1500 
 23 H        2.9380     1.1320     1.6580 H     1 <1>   0.0800 
 24 H        2.9880     2.4070     0.4400 H     1 <1>   0.0800 
 25 H        5.5510     0.3190    -1.1090 H     1 <1>   0.0800 
 26 H        5.0730    -1.0860    -0.1640 H     1 <1>   0.0800 
 27 H       -4.9370     3.8280     0.9950 H     1 <1>   0.0800 
 28 H       -5.7000     2.2790     1.2750 H     1 <1>   0.0800 
 29 H       -5.4570     2.8460    -0.3550 H     1 <1>   0.0800 
 30 H        4.9440     2.1870     2.3140 H     1 <1>   0.0800 
 31 H        5.2900     2.6870     0.6700 H     1 <1>   0.0800 
 32 H        6.7600     0.8100     0.8610 H     1 <1>   0.0800 
 33 H        5.6090    -0.0620     1.8510 H     1 <1>   0.0800 
@<TRIPOS>BOND
  1   1   2  1   
  2   1   3  1   
  3   2   4  ar  
  4   2   5  ar  
  5   3   6  1   
  6   3  17  1   
  7   3  18  1   
  8   4   7  ar  
  9   4  19  1   
 10   5   8  ar  
 11   5  20  1   
 12   6   9  2   
 13   6  10  am  
 14   7  11  ar  
 15   7  21  1   
 16   8  11  ar  
 17   8  22  1   
 18  10  12  1   
 19  10  13  1   
 20  11  14  1   
 21  12  15  1   
 22  12  23  1   
 23  12  24  1   
 24  13  16  1   
 25  13  25  1   
 26  13  26  1   
 27  14  27  1   
 28  14  28  1   
 29  14  29  1   
 30  15  16  1   
 31  15  30  1   
 32  15  31  1   
 33  16  32  1   
 34  16  33  1   
@<TRIPOS>SUBSTRUCTURE
  1 ****   1 GROUP 4 **** **** 0

# MOE 2024.06 (io_trps.svl 2023.06)
