@<TRIPOS>MOLECULE
NONAME
37 38 1 0 0 
SMALL
USER_CHARGES


@<TRIPOS>ATOM
  1 O        0.1610     0.3140    -0.1970 O.2   1 <1>  -0.5700 
  2 C        0.4090     1.5020    -0.1060 C.2   1 <1>   0.6900 
  3 N        1.6780     1.9750    -0.3470 N.am  1 <1>  -0.4770 
  4 N       -0.5600     2.3670     0.2860 N.am  1 <1>  -0.7300 
  5 C        2.1300     3.2960    -0.4010 C.ar  1 <1>   0.1170 
  6 C        2.8470     1.0820    -0.1520 C.3   1 <1>   0.2200 
  7 C       -1.9600     2.0190     0.5900 C.3   1 <1>   0.1400 
  8 C        3.4500     3.3900    -0.0190 C.ar  1 <1>  -0.1440 
  9 C        1.4460     4.4400    -0.7950 C.ar  1 <1>  -0.1500 
 10 C        3.9850     2.0170     0.3080 C.3   1 <1>  -0.0170 
 11 C        3.1760     0.3910    -1.4790 C.3   1 <1>  -0.2400 
 12 C       -2.8780     3.0880    -0.0020 C.3   1 <1>  -0.1600 
 13 C        4.1060     4.6050     0.0180 C.ar  1 <1>  -0.1500 
 14 C        2.0910     5.6650    -0.7610 C.ar  1 <1>  -0.1500 
 15 C       -4.3520     2.7730     0.2830 C.3   1 <1>  -0.1600 
 16 C        3.4150     5.7490    -0.3520 C.ar  1 <1>  -0.1500 
 17 C       -5.2690     3.8450    -0.3120 C.3   1 <1>  -0.2400 
 18 H       -0.2570     3.3110     0.5180 H     1 <1>   0.3700 
 19 H        2.6320     0.3480     0.6060 H     1 <1>   0.0800 
 20 H       -2.0870     1.9650     1.6570 H     1 <1>   0.0800 
 21 H       -2.1960     1.0560     0.1680 H     1 <1>   0.0800 
 22 H        0.4300     4.3730    -1.1370 H     1 <1>   0.1500 
 23 H        4.9090     1.8160    -0.2030 H     1 <1>   0.0800 
 24 H        4.1330     1.9230     1.3690 H     1 <1>   0.0800 
 25 H        3.3800     1.1210    -2.2430 H     1 <1>   0.0800 
 26 H        2.3470    -0.2200    -1.7870 H     1 <1>   0.0800 
 27 H        4.0370    -0.2410    -1.3630 H     1 <1>   0.0800 
 28 H       -2.7230     3.1310    -1.0670 H     1 <1>   0.0800 
 29 H       -2.6300     4.0450     0.4230 H     1 <1>   0.0800 
 30 H        5.1360     4.6640     0.3250 H     1 <1>   0.1500 
 31 H        1.5670     6.5570    -1.0590 H     1 <1>   0.1500 
 32 H       -4.5120     2.7190     1.3460 H     1 <1>   0.0800 
 33 H       -4.6050     1.8160    -0.1420 H     1 <1>   0.0800 
 34 H        3.9100     6.7050    -0.3270 H     1 <1>   0.1500 
 35 H       -5.0500     4.8080     0.1150 H     1 <1>   0.0800 
 36 H       -6.2970     3.6060    -0.1040 H     1 <1>   0.0800 
 37 H       -5.1410     3.9000    -1.3790 H     1 <1>   0.0800 
@<TRIPOS>BOND
  1   1   2  2   
  2   2   3  am  
  3   2   4  am  
  4   3   5  1   
  5   3   6  1   
  6   4   7  1   
  7   4  18  1   
  8   5   8  ar  
  9   5   9  ar  
 10   6  10  1   
 11   6  11  1   
 12   6  19  1   
 13   7  12  1   
 14   7  20  1   
 15   7  21  1   
 16   8  10  1   
 17   8  13  ar  
 18   9  14  ar  
 19   9  22  1   
 20  10  23  1   
 21  10  24  1   
 22  11  25  1   
 23  11  26  1   
 24  11  27  1   
 25  12  15  1   
 26  12  28  1   
 27  12  29  1   
 28  13  16  ar  
 29  13  30  1   
 30  14  16  ar  
 31  14  31  1   
 32  15  17  1   
 33  15  32  1   
 34  15  33  1   
 35  16  34  1   
 36  17  35  1   
 37  17  36  1   
 38  17  37  1   
@<TRIPOS>SUBSTRUCTURE
  1 ****   3 GROUP 4 **** **** 0

# MOE 2024.06 (io_trps.svl 2023.06)
