@<TRIPOS>MOLECULE
NONAME
41 42 1 0 0 
SMALL
USER_CHARGES


@<TRIPOS>ATOM
  1 S       -0.2540     0.3690    -0.8330 S.o2  1 <1>   1.4470 
  2 O       -0.6960     0.8240    -2.1310 O.2   1 <1>  -0.6500 
  3 O       -0.7670    -0.8620    -0.2760 O.2   1 <1>  -0.6500 
  4 N       -0.7220     1.6080     0.1950 N.am  1 <1>  -0.9140 
  5 C        1.5550     0.4010    -0.7220 C.ar  1 <1>  -0.0090 
  6 C       -2.1040     1.4900     0.6200 C.3   1 <1>   0.1960 
  7 C        2.1990     0.1760     0.4890 C.ar  1 <1>  -0.1500 
  8 C        2.3480     0.6520    -1.8350 C.ar  1 <1>  -0.1500 
  9 C       -2.4740     2.7330     1.4280 C.3   1 <1>  -0.1600 
 10 C        3.5780     0.2020     0.5840 C.ar  1 <1>  -0.1500 
 11 C        3.7290     0.6790    -1.7440 C.ar  1 <1>  -0.1500 
 12 C       -3.9240     2.6690     1.9190 C.3   1 <1>  -0.2400 
 13 C        4.3680     0.4540    -0.5300 C.ar  1 <1>   0.1170 
 14 N        5.7600     0.4670    -0.3710 N.am  1 <1>  -0.5470 
 15 C        6.8080     0.6650    -1.2290 C.2   1 <1>   0.5690 
 16 O        6.6860     0.8830    -2.4120 O.2   1 <1>  -0.5700 
 17 C        8.2160     0.6000    -0.6230 C.3   1 <1>   0.2610 
 18 O        8.1840     0.2490     0.7390 O.3   1 <1>  -0.5600 
 19 C        8.9630     1.9290    -0.6380 C.3   1 <1>  -0.1600 
 20 C        9.3750     0.6300     1.3500 C.3   1 <1>   0.1200 
 21 C        9.9020     1.8230     0.5550 C.3   1 <1>  -0.1600 
 22 H       -0.6670     2.4350    -0.3950 H     1 <1>   0.4200 
 23 H       -2.2220     0.6090     1.2310 H     1 <1>   0.0800 
 24 H       -2.7490     1.4020    -0.2400 H     1 <1>   0.0800 
 25 H        1.6060    -0.0220     1.3670 H     1 <1>   0.1500 
 26 H        1.8820     0.8290    -2.7900 H     1 <1>   0.1500 
 27 H       -2.3490     3.6110     0.8190 H     1 <1>   0.0800 
 28 H       -1.8180     2.8090     2.2790 H     1 <1>   0.0800 
 29 H        4.0440     0.0230     1.5360 H     1 <1>   0.1500 
 30 H        4.3030     0.8770    -2.6300 H     1 <1>   0.1500 
 31 H       -4.6030     2.6090     1.0860 H     1 <1>   0.0800 
 32 H       -4.1590     3.5510     2.4880 H     1 <1>   0.0800 
 33 H       -4.0710     1.8080     2.5490 H     1 <1>   0.0800 
 34 H        6.1010     0.2780     0.5770 H     1 <1>   0.3700 
 35 H        8.7880    -0.1530    -1.1370 H     1 <1>   0.0800 
 36 H        8.2660     2.7360    -0.4940 H     1 <1>   0.0800 
 37 H        9.4830     2.0760    -1.5690 H     1 <1>   0.0800 
 38 H       10.0580    -0.2020     1.3020 H     1 <1>   0.0800 
 39 H        9.1720     0.8810     2.3770 H     1 <1>   0.0800 
 40 H        9.8830     2.7200     1.1490 H     1 <1>   0.0800 
 41 H       10.9140     1.6340     0.2410 H     1 <1>   0.0800 
@<TRIPOS>BOND
  1   1   2  2   
  2   1   3  2   
  3   1   4  am  
  4   1   5  1   
  5   4   6  1   
  6   4  22  1   
  7   5   7  ar  
  8   5   8  ar  
  9   6   9  1   
 10   6  23  1   
 11   6  24  1   
 12   7  10  ar  
 13   7  25  1   
 14   8  11  ar  
 15   8  26  1   
 16   9  12  1   
 17   9  27  1   
 18   9  28  1   
 19  10  13  ar  
 20  10  29  1   
 21  11  13  ar  
 22  11  30  1   
 23  12  31  1   
 24  12  32  1   
 25  12  33  1   
 26  13  14  1   
 27  14  15  am  
 28  14  34  1   
 29  15  16  2   
 30  15  17  1   
 31  17  18  1   
 32  17  19  1   
 33  17  35  1   
 34  18  20  1   
 35  19  21  1   
 36  19  36  1   
 37  19  37  1   
 38  20  21  1   
 39  20  38  1   
 40  20  39  1   
 41  21  40  1   
 42  21  41  1   
@<TRIPOS>SUBSTRUCTURE
  1 ****  10 GROUP 4 **** **** 0

# MOE 2024.06 (io_trps.svl 2023.06)
