@<TRIPOS>MOLECULE
NONAME
45 47 1 0 0 
SMALL
USER_CHARGES


@<TRIPOS>ATOM
  1 F        4.0890     0.3670    -1.3290 F     1 <1>  -0.1900 
  2 C        3.4260    -0.3480    -0.4600 C.ar  1 <1>   0.1900 
  3 C        2.7730     0.2930     0.5900 C.ar  1 <1>   0.0860 
  4 C        3.4230    -1.7210    -0.6260 C.ar  1 <1>  -0.1500 
  5 C        2.7870     1.7300     0.7430 C.2   1 <1>   0.5440 
  6 C        2.0860    -0.5230     1.4890 C.ar  1 <1>  -0.1500 
  7 C        2.7390    -2.5020     0.2880 C.ar  1 <1>  -0.1500 
  8 O        1.7670     2.3530     0.5310 O.2   1 <1>  -0.5700 
  9 N        3.9170     2.4360     1.1170 N.am  1 <1>  -0.6600 
 10 C        2.0720    -1.9000     1.3430 C.ar  1 <1>  -0.1500 
 11 C        5.2860     1.8500     1.2090 C.3   1 <1>   0.1400 
 12 C        3.9140     3.9300     1.1610 C.3   1 <1>   0.1400 
 13 C        6.1670     2.4000     0.0690 C.3   1 <1>   0.3430 
 14 C        4.7650     4.4800     0.0030 C.3   1 <1>   0.3430 
 15 N        6.1610     3.9100     0.0100 N.4   1 <1>  -0.9590 
 16 C        6.9580     4.4070    -1.1440 C.3   1 <1>   0.4860 
 17 C        8.3970     3.9670    -0.9520 C.ar  1 <1>  -0.1430 
 18 C        9.2440     4.5930    -0.0400 C.ar  1 <1>  -0.1430 
 19 C        8.8650     2.8980    -1.7060 C.ar  1 <1>  -0.1500 
 20 C       10.5370     4.1190     0.1170 C.ar  1 <1>  -0.1500 
 21 C        8.8170     5.7950     0.7960 C.3   1 <1>  -0.0970 
 22 C       10.1580     2.4380    -1.5430 C.ar  1 <1>  -0.1500 
 23 C       10.9930     3.0460    -0.6270 C.ar  1 <1>  -0.1500 
 24 H        3.9420    -2.1690    -1.4550 H     1 <1>   0.1500 
 25 H        1.5530    -0.0650     2.3060 H     1 <1>   0.1500 
 26 H        2.7210    -3.5740     0.1790 H     1 <1>   0.1500 
 27 H        1.5340    -2.5090     2.0510 H     1 <1>   0.1500 
 28 H        5.2540     0.7770     1.1540 H     1 <1>   0.0800 
 29 H        5.7200     2.1080     2.1600 H     1 <1>   0.0800 
 30 H        4.3110     4.2620     2.1040 H     1 <1>   0.0800 
 31 H        2.9130     4.3190     1.0800 H     1 <1>   0.0800 
 32 H        5.8010     2.0030    -0.8630 H     1 <1>   0.0800 
 33 H        7.1760     2.0430     0.2020 H     1 <1>   0.0800 
 34 H        4.8040     5.5540     0.0740 H     1 <1>   0.0800 
 35 H        4.2720     4.2260    -0.9210 H     1 <1>   0.0800 
 36 H        6.6520     4.2370     0.8500 H     1 <1>   0.4500 
 37 H        6.9160     5.4820    -1.1950 H     1 <1>   0.0800 
 38 H        6.5690     4.0070    -2.0660 H     1 <1>   0.0800 
 39 H        8.2350     2.4100    -2.4310 H     1 <1>   0.1500 
 40 H       11.2090     4.5830     0.8180 H     1 <1>   0.1500 
 41 H        8.2260     5.4800     1.6360 H     1 <1>   0.0800 
 42 H        8.2610     6.5000     0.2050 H     1 <1>   0.0800 
 43 H        9.6820     6.3110     1.1760 H     1 <1>   0.0800 
 44 H       10.5200     1.6090    -2.1290 H     1 <1>   0.1500 
 45 H       12.0010     2.6900    -0.4970 H     1 <1>   0.1500 
@<TRIPOS>BOND
  1   1   2  1   
  2   2   3  ar  
  3   2   4  ar  
  4   3   5  1   
  5   3   6  ar  
  6   4   7  ar  
  7   4  24  1   
  8   5   8  2   
  9   5   9  am  
 10   6  10  ar  
 11   6  25  1   
 12   7  10  ar  
 13   7  26  1   
 14   9  11  1   
 15   9  12  1   
 16  10  27  1   
 17  11  13  1   
 18  11  28  1   
 19  11  29  1   
 20  12  14  1   
 21  12  30  1   
 22  12  31  1   
 23  13  15  1   
 24  13  32  1   
 25  13  33  1   
 26  14  15  1   
 27  14  34  1   
 28  14  35  1   
 29  15  16  1   
 30  15  36  1   
 31  16  17  1   
 32  16  37  1   
 33  16  38  1   
 34  17  18  ar  
 35  17  19  ar  
 36  18  20  ar  
 37  18  21  1   
 38  19  22  ar  
 39  19  39  1   
 40  20  23  ar  
 41  20  40  1   
 42  21  41  1   
 43  21  42  1   
 44  21  43  1   
 45  22  23  ar  
 46  22  44  1   
 47  23  45  1   
@<TRIPOS>SUBSTRUCTURE
  1 ****  13 GROUP 4 **** **** 0

# MOE 2024.06 (io_trps.svl 2023.06)
