@<TRIPOS>MOLECULE
NONAME
31 31 1 0 0 
SMALL
USER_CHARGES


@<TRIPOS>ATOM
  1 F        0.8060    -1.1960    -1.3650 F     1 <1>  -0.1900 
  2 C        0.4560    -2.0130    -0.4050 C.ar  1 <1>   0.1900 
  3 C       -0.7420    -2.7000    -0.5070 C.ar  1 <1>   0.1900 
  4 C        1.2940    -2.1740     0.6930 C.ar  1 <1>   0.0860 
  5 F       -1.4950    -2.5280    -1.5660 F     1 <1>  -0.1900 
  6 C       -1.1660    -3.5700     0.4860 C.ar  1 <1>  -0.1440 
  7 C        2.5520    -1.4750     0.8220 C.2   1 <1>   0.5440 
  8 C        0.8530    -3.0430     1.6950 C.ar  1 <1>  -0.1500 
  9 C       -0.3480    -3.7300     1.5960 C.ar  1 <1>  -0.1500 
 10 C       -2.4830    -4.3240     0.3740 C.3   1 <1>  -0.0960 
 11 O        2.6480    -0.6220     1.6850 O.2   1 <1>  -0.5700 
 12 N        3.6510    -1.7690     0.0350 N.am  1 <1>  -0.6600 
 13 C        3.6760    -2.8740    -0.9630 C.3   1 <1>   0.1400 
 14 C        4.8570    -0.8950     0.0590 C.3   1 <1>   0.1400 
 15 C        3.8400    -4.2210    -0.2610 C.3   1 <1>  -0.2400 
 16 C        5.9670    -1.5530     0.8730 C.3   1 <1>  -0.2400 
 17 H        1.4720    -3.1720     2.5670 H     1 <1>   0.1500 
 18 H       -0.6430    -4.3910     2.3930 H     1 <1>   0.1500 
 19 H       -3.3000    -3.6270     0.3050 H     1 <1>   0.0800 
 20 H       -2.6430    -4.9550     1.2300 H     1 <1>   0.0800 
 21 H       -2.4810    -4.9390    -0.5090 H     1 <1>   0.0800 
 22 H        4.4950    -2.7260    -1.6460 H     1 <1>   0.0800 
 23 H        2.7700    -2.8690    -1.5420 H     1 <1>   0.0800 
 24 H        4.6130     0.0580     0.4980 H     1 <1>   0.0800 
 25 H        5.1920    -0.7090    -0.9470 H     1 <1>   0.0800 
 26 H        4.7390    -4.2340     0.3270 H     1 <1>   0.0800 
 27 H        3.9050    -5.0030    -0.9960 H     1 <1>   0.0800 
 28 H        3.0000    -4.4270     0.3740 H     1 <1>   0.0800 
 29 H        5.6120    -1.7740     1.8640 H     1 <1>   0.0800 
 30 H        6.8020    -0.8810     0.9530 H     1 <1>   0.0800 
 31 H        6.3040    -2.4560     0.3980 H     1 <1>   0.0800 
@<TRIPOS>BOND
  1   1   2  1   
  2   2   3  ar  
  3   2   4  ar  
  4   3   5  1   
  5   3   6  ar  
  6   4   7  1   
  7   4   8  ar  
  8   6   9  ar  
  9   6  10  1   
 10   7  11  2   
 11   7  12  am  
 12   8   9  ar  
 13   8  17  1   
 14   9  18  1   
 15  10  19  1   
 16  10  20  1   
 17  10  21  1   
 18  12  13  1   
 19  12  14  1   
 20  13  15  1   
 21  13  22  1   
 22  13  23  1   
 23  14  16  1   
 24  14  24  1   
 25  14  25  1   
 26  15  26  1   
 27  15  27  1   
 28  15  28  1   
 29  16  29  1   
 30  16  30  1   
 31  16  31  1   
@<TRIPOS>SUBSTRUCTURE
  1 ****   4 GROUP 4 **** **** 0

# MOE 2024.06 (io_trps.svl 2023.06)
