@<TRIPOS>MOLECULE
NONAME
40 41 1 0 0 
SMALL
USER_CHARGES


@<TRIPOS>ATOM
  1 S        0.4860     0.3880    -0.6060 S.3   1 <1>  -0.2860 
  2 C       -1.1140    -0.1880    -0.0170 C.2   1 <1>   0.2420 
  3 C        0.6790     2.0850     0.1330 C.3   1 <1>   0.2110 
  4 N       -1.8990     0.4580     0.7520 N.2   1 <1>  -0.3380 
  5 N       -1.6130    -1.3650    -0.3390 N.pl3 1 <1>   0.3140 
  6 C        1.1420     3.0550    -0.9690 C.2   1 <1>   0.5690 
  7 C        1.5570     1.9780     1.3990 C.3   1 <1>  -0.1600 
  8 N       -2.9400    -0.3560     0.9200 N.2   1 <1>   0.0000 
  9 N       -2.7780    -1.4580     0.2690 N.2   1 <1>  -0.4180 
 10 C       -1.0470    -2.4180    -1.1940 C.3   1 <1>   0.0160 
 11 O        0.2970     3.7040    -1.5350 O.2   1 <1>  -0.5700 
 12 N        2.4390     3.2400    -1.3520 N.am  1 <1>  -0.5470 
 13 C        0.8680     1.2440     2.5590 C.3   1 <1>  -0.2400 
 14 C        3.6430     2.7770    -0.8080 C.ar  1 <1>   0.1170 
 15 C        4.3280     3.5750     0.1120 C.ar  1 <1>  -0.1430 
 16 C        4.1760     1.5380    -1.1780 C.ar  1 <1>  -0.1430 
 17 C        5.5020     3.1140     0.6840 C.ar  1 <1>  -0.1500 
 18 C        3.8190     4.9600     0.4970 C.3   1 <1>  -0.0970 
 19 C        5.3500     1.0970    -0.5920 C.ar  1 <1>  -0.1500 
 20 C        3.5340     0.6290    -2.2190 C.3   1 <1>  -0.0970 
 21 C        6.0100     1.8770     0.3390 C.ar  1 <1>  -0.1500 
 22 H       -0.3050     2.4010     0.4230 H     1 <1>   0.0800 
 23 H        1.8010     2.9700     1.7310 H     1 <1>   0.0800 
 24 H        2.4760     1.4710     1.1670 H     1 <1>   0.0800 
 25 H       -0.8690    -2.0190    -2.1750 H     1 <1>   0.0800 
 26 H       -1.7410    -3.2360    -1.2570 H     1 <1>   0.0800 
 27 H       -0.1220    -2.7610    -0.7670 H     1 <1>   0.0800 
 28 H        2.5310     3.9270    -2.0990 H     1 <1>   0.3700 
 29 H       -0.0690     1.7140     2.8030 H     1 <1>   0.0800 
 30 H        1.4980     1.2660     3.4310 H     1 <1>   0.0800 
 31 H        0.6820     0.2150     2.3070 H     1 <1>   0.0800 
 32 H        6.0330     3.7160     1.4000 H     1 <1>   0.1500 
 33 H        2.7990     4.9120     0.8320 H     1 <1>   0.0800 
 34 H        3.8700     5.6150    -0.3540 H     1 <1>   0.0800 
 35 H        4.4120     5.3850     1.2870 H     1 <1>   0.0800 
 36 H        5.7630     0.1400    -0.8620 H     1 <1>   0.1500 
 37 H        2.7270     1.1110    -2.7410 H     1 <1>   0.0800 
 38 H        3.1540    -0.2560    -1.7420 H     1 <1>   0.0800 
 39 H        4.2680     0.3360    -2.9470 H     1 <1>   0.0800 
 40 H        6.9210     1.5230     0.7890 H     1 <1>   0.1500 
@<TRIPOS>BOND
  1   1   2  1   
  2   1   3  1   
  3   2   4  2   
  4   2   5  1   
  5   3   6  1   
  6   3   7  1   
  7   3  22  1   
  8   4   8  1   
  9   5   9  1   
 10   5  10  1   
 11   6  11  2   
 12   6  12  am  
 13   7  13  1   
 14   7  23  1   
 15   7  24  1   
 16   8   9  2   
 17  10  25  1   
 18  10  26  1   
 19  10  27  1   
 20  12  14  1   
 21  12  28  1   
 22  13  29  1   
 23  13  30  1   
 24  13  31  1   
 25  14  15  ar  
 26  14  16  ar  
 27  15  17  ar  
 28  15  18  1   
 29  16  19  ar  
 30  16  20  1   
 31  17  21  ar  
 32  17  32  1   
 33  18  33  1   
 34  18  34  1   
 35  18  35  1   
 36  19  21  ar  
 37  19  36  1   
 38  20  37  1   
 39  20  38  1   
 40  20  39  1   
 41  21  40  1   
@<TRIPOS>SUBSTRUCTURE
  1 ****   3 GROUP 4 **** **** 0

# MOE 2024.06 (io_trps.svl 2023.06)
