@<TRIPOS>MOLECULE
NONAME
41 43 1 0 0 
SMALL
USER_CHARGES


@<TRIPOS>ATOM
  1 N       -3.0730     0.8260    -0.0250 N.4   1 <1>  -0.9590 
  2 C       -3.6540     1.9880     0.7660 C.3   1 <1>   0.4230 
  3 C       -3.8340    -0.4540     0.1170 C.3   1 <1>   0.2630 
  4 C       -1.6360     0.5120     0.2740 C.3   1 <1>   0.2630 
  5 C       -5.1110     2.4100     0.3070 C.3   1 <1>   0.0000 
  6 C       -2.6430     3.1530     0.7130 C.3   1 <1>  -0.2400 
  7 C       -5.3160     2.2880    -1.2320 C.3   1 <1>  -0.1600 
  8 C       -5.4470     3.8880     0.6830 C.3   1 <1>  -0.1600 
  9 C       -6.1810     1.5410     1.0350 C.3   1 <1>  -0.1600 
 10 C       -6.7510     2.6700    -1.6410 C.3   1 <1>  -0.0800 
 11 C       -6.8770     4.2890     0.2780 C.3   1 <1>  -0.0800 
 12 C       -7.6120     1.9150     0.6080 C.3   1 <1>  -0.0800 
 13 C       -7.0280     4.1280    -1.2430 C.3   1 <1>  -0.1600 
 14 C       -7.7500     1.7500    -0.9160 C.3   1 <1>  -0.1600 
 15 C       -7.8850     3.3770     0.9910 C.3   1 <1>  -0.1600 
 16 H       -3.1300     1.1160    -1.0120 H     1 <1>   0.4500 
 17 H       -3.7240     1.6910     1.8000 H     1 <1>   0.0800 
 18 H       -3.9690    -0.6970     1.1590 H     1 <1>   0.0800 
 19 H       -3.3010    -1.2610    -0.3590 H     1 <1>   0.0800 
 20 H       -4.7990    -0.3750    -0.3530 H     1 <1>   0.0800 
 21 H       -1.5050     0.3240     1.3270 H     1 <1>   0.0800 
 22 H       -0.9990     1.3320    -0.0160 H     1 <1>   0.0800 
 23 H       -1.3210    -0.3620    -0.2750 H     1 <1>   0.0800 
 24 H       -2.5300     3.5180    -0.2920 H     1 <1>   0.0800 
 25 H       -1.6840     2.8860     1.1120 H     1 <1>   0.0800 
 26 H       -2.9690     3.9670     1.3330 H     1 <1>   0.0800 
 27 H       -5.1450     1.2860    -1.5740 H     1 <1>   0.0800 
 28 H       -4.6240     2.9330    -1.7460 H     1 <1>   0.0800 
 29 H       -4.7840     4.5700     0.1820 H     1 <1>   0.0800 
 30 H       -5.3350     4.0360     1.7440 H     1 <1>   0.0800 
 31 H       -6.0920     1.6730     2.1000 H     1 <1>   0.0800 
 32 H       -6.0640     0.4970     0.8400 H     1 <1>   0.0800 
 33 H       -6.8680     2.5610    -2.7070 H     1 <1>   0.0800 
 34 H       -7.0620     5.3140     0.5530 H     1 <1>   0.0800 
 35 H       -8.3220     1.2760     1.1080 H     1 <1>   0.0800 
 36 H       -6.3450     4.7860    -1.7530 H     1 <1>   0.0800 
 37 H       -8.0250     4.4050    -1.5410 H     1 <1>   0.0800 
 38 H       -7.5780     0.7250    -1.1940 H     1 <1>   0.0800 
 39 H       -8.7540     2.0010    -1.2150 H     1 <1>   0.0800 
 40 H       -8.8870     3.6480     0.7070 H     1 <1>   0.0800 
 41 H       -7.8050     3.5010     2.0570 H     1 <1>   0.0800 
@<TRIPOS>BOND
  1   1   2  1   
  2   1   3  1   
  3   1   4  1   
  4   1  16  1   
  5   2   5  1   
  6   2   6  1   
  7   2  17  1   
  8   3  18  1   
  9   3  19  1   
 10   3  20  1   
 11   4  21  1   
 12   4  22  1   
 13   4  23  1   
 14   5   7  1   
 15   5   8  1   
 16   5   9  1   
 17   6  24  1   
 18   6  25  1   
 19   6  26  1   
 20   7  10  1   
 21   7  27  1   
 22   7  28  1   
 23   8  11  1   
 24   8  29  1   
 25   8  30  1   
 26   9  12  1   
 27   9  31  1   
 28   9  32  1   
 29  10  13  1   
 30  10  14  1   
 31  10  33  1   
 32  11  13  1   
 33  11  15  1   
 34  11  34  1   
 35  12  14  1   
 36  12  15  1   
 37  12  35  1   
 38  13  36  1   
 39  13  37  1   
 40  14  38  1   
 41  14  39  1   
 42  15  40  1   
 43  15  41  1   
@<TRIPOS>SUBSTRUCTURE
  1 ****   5 GROUP 4 **** **** 0

# MOE 2024.06 (io_trps.svl 2023.06)
