@<TRIPOS>MOLECULE
NONAME
45 47 1 0 0 
SMALL
USER_CHARGES


@<TRIPOS>ATOM
  1 O       -0.6320    -0.4660     1.4780 O.2   1 <1>  -0.5700 
  2 C       -1.1570    -1.2380     0.7150 C.2   1 <1>   0.5690 
  3 N       -0.5260    -2.1700    -0.0670 N.am  1 <1>  -0.2370 
  4 C       -2.6610    -1.2760     0.5260 C.3   1 <1>  -0.0190 
  5 C        0.8690    -2.4050    -0.0890 C.ar  1 <1>   0.1170 
  6 C       -1.4510    -2.8440    -0.8200 C.2   1 <1>   0.5690 
  7 C       -2.8480    -2.3220    -0.5870 C.3   1 <1>  -0.0990 
  8 C       -3.2430     0.1060     0.1810 C.3   1 <1>  -0.0170 
  9 C        1.7710    -1.3470    -0.1690 C.ar  1 <1>  -0.1500 
 10 C        1.3770    -3.7000    -0.0310 C.ar  1 <1>  -0.1500 
 11 O       -1.2370    -3.7450    -1.5890 O.2   1 <1>  -0.5700 
 12 C       -4.7490     0.0360    -0.0230 C.ar  1 <1>  -0.1430 
 13 C        3.1350    -1.5750    -0.1900 C.ar  1 <1>  -0.1500 
 14 C        2.7410    -3.9320    -0.0520 C.ar  1 <1>  -0.1500 
 15 C       -5.5920    -0.0900     1.0710 C.ar  1 <1>  -0.1500 
 16 C       -5.2950     0.0970    -1.2960 C.ar  1 <1>  -0.1500 
 17 C        3.6220    -2.8680    -0.1320 C.ar  1 <1>  -0.1500 
 18 C       -6.9640    -0.1640     0.8980 C.ar  1 <1>  -0.1500 
 19 C       -6.6650     0.0230    -1.4710 C.ar  1 <1>  -0.1500 
 20 C       -7.5100    -0.1100    -0.3820 C.ar  1 <1>   0.0820 
 21 O       -8.8390    -0.1780    -0.6520 O.3   1 <1>  -0.3620 
 22 C       -9.8220    -0.3950     0.3360 C.3   1 <1>   0.2000 
 23 C       -9.8540    -1.8860     0.6820 C.3   1 <1>  -0.2400 
 24 C      -11.1550     0.0610    -0.2510 C.3   1 <1>  -0.2400 
 25 H       -3.1000    -1.6360     1.4390 H     1 <1>   0.0800 
 26 H       -3.2170    -1.8920    -1.5000 H     1 <1>   0.0800 
 27 H       -3.4990    -3.1180    -0.2750 H     1 <1>   0.0800 
 28 H       -2.7680     0.4950    -0.7030 H     1 <1>   0.0800 
 29 H       -3.0310     0.7920     0.9850 H     1 <1>   0.0800 
 30 H        1.4060    -0.3360    -0.2100 H     1 <1>   0.1500 
 31 H        0.7020    -4.5350     0.0270 H     1 <1>   0.1500 
 32 H        3.8190    -0.7450    -0.2500 H     1 <1>   0.1500 
 33 H        3.1160    -4.9390    -0.0090 H     1 <1>   0.1500 
 34 H       -5.1840    -0.1300     2.0660 H     1 <1>   0.1500 
 35 H       -4.6610     0.2030    -2.1590 H     1 <1>   0.1500 
 36 H        4.6840    -3.0470    -0.1480 H     1 <1>   0.1500 
 37 H       -7.5850    -0.2610     1.7660 H     1 <1>   0.1500 
 38 H       -7.0910     0.0690    -2.4570 H     1 <1>   0.1500 
 39 H       -9.5920     0.2080     1.1970 H     1 <1>   0.0800 
 40 H      -10.0770    -2.4660    -0.1950 H     1 <1>   0.0800 
 41 H      -10.6150    -2.0740     1.4190 H     1 <1>   0.0800 
 42 H       -8.9110    -2.2050     1.0840 H     1 <1>   0.0800 
 43 H      -11.3880    -0.5060    -1.1350 H     1 <1>   0.0800 
 44 H      -11.1050     1.1050    -0.5020 H     1 <1>   0.0800 
 45 H      -11.9420    -0.0800     0.4670 H     1 <1>   0.0800 
@<TRIPOS>BOND
  1   1   2  2   
  2   2   3  am  
  3   2   4  1   
  4   3   5  1   
  5   3   6  am  
  6   4   7  1   
  7   4   8  1   
  8   4  25  1   
  9   5   9  ar  
 10   5  10  ar  
 11   6   7  1   
 12   6  11  2   
 13   7  26  1   
 14   7  27  1   
 15   8  12  1   
 16   8  28  1   
 17   8  29  1   
 18   9  13  ar  
 19   9  30  1   
 20  10  14  ar  
 21  10  31  1   
 22  12  15  ar  
 23  12  16  ar  
 24  13  17  ar  
 25  13  32  1   
 26  14  17  ar  
 27  14  33  1   
 28  15  18  ar  
 29  15  34  1   
 30  16  19  ar  
 31  16  35  1   
 32  17  36  1   
 33  18  20  ar  
 34  18  37  1   
 35  19  20  ar  
 36  19  38  1   
 37  20  21  1   
 38  21  22  1   
 39  22  23  1   
 40  22  24  1   
 41  22  39  1   
 42  23  40  1   
 43  23  41  1   
 44  23  42  1   
 45  24  43  1   
 46  24  44  1   
 47  24  45  1   
@<TRIPOS>SUBSTRUCTURE
  1 ****   4 GROUP 4 **** **** 0

# MOE 2024.06 (io_trps.svl 2023.06)
