@<TRIPOS>MOLECULE
NONAME
43 45 1 0 0 
SMALL
USER_CHARGES


@<TRIPOS>ATOM
  1 O        0.4800     0.7020     0.8890 O.co2 1 <1>  -0.9000 
  2 C        0.1120     1.6550     0.1910 C.2   1 <1>   0.9060 
  3 O        0.5830     1.8530    -0.9290 O.co2 1 <1>  -0.9000 
  4 C       -1.0090     2.5230     0.7410 C.3   1 <1>  -0.1860 
  5 C       -2.5950     1.8530     0.6470 C.3   1 <1>  -0.0190 
  6 C       -1.0980     4.0460     0.0840 C.3   1 <1>   0.0580 
  7 C       -2.8400     0.4520     0.0580 C.2   1 <1>   0.5690 
  8 C       -3.5360     3.0130    -0.0790 C.3   1 <1>   0.0580 
  9 C       -2.2010     5.1050    -0.4400 C.2   1 <1>  -0.2880 
 10 C       -2.2710     3.4150     0.0340 C.3   1 <1>  -0.1600 
 11 O       -3.9730     0.1590    -0.2550 O.2   1 <1>  -0.5700 
 12 N       -1.8470    -0.4640    -0.0340 N.am  1 <1>  -0.7300 
 13 C       -3.4770     4.5650    -0.5250 C.2   1 <1>  -0.2880 
 14 C       -1.9470    -1.8190    -0.6100 C.3   1 <1>   0.1400 
 15 C       -2.0720    -2.8320     0.5280 C.3   1 <1>  -0.0170 
 16 C       -2.2130    -4.2690     0.0230 C.ar  1 <1>  -0.1430 
 17 C       -3.2700    -4.7100    -0.7800 C.ar  1 <1>   0.0830 
 18 C       -1.2260    -5.1790     0.3780 C.ar  1 <1>  -0.1500 
 19 O       -4.2820    -3.9140    -1.1970 O.3   1 <1>  -0.3630 
 20 C       -3.3100    -6.0250    -1.2180 C.ar  1 <1>  -0.1500 
 21 C       -1.2770    -6.4940    -0.0540 C.ar  1 <1>  -0.1500 
 22 C       -5.1270    -3.3170    -0.2380 C.3   1 <1>   0.0400 
 23 C       -2.3200    -6.9190    -0.8560 C.ar  1 <1>  -0.1500 
 24 H       -0.7590     2.6290     1.7850 H     1 <1>   0.0800 
 25 H       -2.9410     1.7470     1.6640 H     1 <1>   0.0800 
 26 H       -0.4140     4.0180    -0.7520 H     1 <1>   0.0800 
 27 H       -3.8730     2.5400    -0.9920 H     1 <1>   0.0800 
 28 H       -1.8720     6.1030    -0.6770 H     1 <1>   0.1500 
 29 H       -2.0410     3.0520    -1.0500 H     1 <1>   0.0800 
 30 H       -2.5250     3.8490     1.1430 H     1 <1>   0.0800 
 31 H       -0.8890    -0.1940     0.2760 H     1 <1>   0.3700 
 32 H       -4.3890     5.0390    -0.8440 H     1 <1>   0.1500 
 33 H       -2.8010    -1.8700    -1.2630 H     1 <1>   0.0800 
 34 H       -1.0640    -2.0210    -1.1920 H     1 <1>   0.0800 
 35 H       -2.9160    -2.5820     1.1420 H     1 <1>   0.0800 
 36 H       -1.1950    -2.7440     1.1430 H     1 <1>   0.0800 
 37 H       -0.4000    -4.8680     0.9940 H     1 <1>   0.1500 
 38 H       -4.1230    -6.3400    -1.8460 H     1 <1>   0.1500 
 39 H       -0.5030    -7.1840     0.2330 H     1 <1>   0.1500 
 40 H       -4.7990    -2.3080    -0.0640 H     1 <1>   0.0800 
 41 H       -6.1260    -3.3030    -0.6350 H     1 <1>   0.0800 
 42 H       -5.1000    -3.8890     0.6730 H     1 <1>   0.0800 
 43 H       -2.3610    -7.9380    -1.1970 H     1 <1>   0.1500 
@<TRIPOS>BOND
  1   1   2  ar  
  2   2   3  ar  
  3   2   4  1   
  4   4   5  1   
  5   4   6  1   
  6   4  24  1   
  7   5   7  1   
  8   5   8  1   
  9   5  25  1   
 10   6   9  1   
 11   6  10  1   
 12   6  26  1   
 13   7  11  2   
 14   7  12  am  
 15   8  10  1   
 16   8  13  1   
 17   8  27  1   
 18   9  13  2   
 19   9  28  1   
 20  10  29  1   
 21  10  30  1   
 22  12  14  1   
 23  12  31  1   
 24  13  32  1   
 25  14  15  1   
 26  14  33  1   
 27  14  34  1   
 28  15  16  1   
 29  15  35  1   
 30  15  36  1   
 31  16  17  ar  
 32  16  18  ar  
 33  17  19  1   
 34  17  20  ar  
 35  18  21  ar  
 36  18  37  1   
 37  19  22  1   
 38  20  23  ar  
 39  20  38  1   
 40  21  23  ar  
 41  21  39  1   
 42  22  40  1   
 43  22  41  1   
 44  22  42  1   
 45  23  43  1   
@<TRIPOS>SUBSTRUCTURE
  1 ****  12 GROUP 4 **** **** 0

# MOE 2024.06 (io_trps.svl 2023.06)
