@<TRIPOS>MOLECULE
NONAME
63 66 1 0 0 
SMALL
USER_CHARGES


@<TRIPOS>ATOM
  1 O       -0.5200     0.3280     0.1010 O.2   1 <1>  -0.5700 
  2 C        0.3980    -0.4570     0.0740 C.2   1 <1>   0.5690 
  3 N        1.7010    -0.0040     0.0410 N.am  1 <1>  -0.6600 
  4 C        0.0410    -1.9440     0.1120 C.3   1 <1>   0.1810 
  5 C        1.9920     1.4390    -0.2470 C.3   1 <1>   0.1400 
  6 C        2.9110    -0.8780     0.1690 C.3   1 <1>   0.1400 
  7 O        0.7870    -2.6840    -0.8450 O.3   1 <1>  -0.3620 
  8 C        3.0270     2.0090     0.7340 C.3   1 <1>   0.3430 
  9 C        3.9570    -0.2650     1.1220 C.3   1 <1>   0.3430 
 10 C        0.7280    -4.0360    -0.8850 C.ar  1 <1>   0.0820 
 11 N        4.2750     1.1640     0.7830 N.4   1 <1>  -0.9590 
 12 C       -0.0970    -4.8060    -0.0990 C.ar  1 <1>  -0.1500 
 13 C        1.5860    -4.6580    -1.8010 C.ar  1 <1>  -0.1500 
 14 C        5.2950     1.7450     1.6990 C.3   1 <1>   0.4860 
 15 C       -0.0850    -6.2120    -0.1850 C.ar  1 <1>   0.0000 
 16 C        1.6170    -6.0200    -1.9050 C.ar  1 <1>  -0.1500 
 17 C        5.6900     3.1050     1.1600 C.ar  1 <1>  -0.1440 
 18 C        0.7910    -6.8320    -1.1030 C.ar  1 <1>   0.0000 
 19 C       -0.9150    -7.0270     0.6120 C.ar  1 <1>  -0.1500 
 20 C        6.4030     3.2040    -0.0250 C.ar  1 <1>  -0.1500 
 21 C        5.3210     4.2630     1.8310 C.ar  1 <1>  -0.1500 
 22 C        0.8040    -8.2390    -1.1840 C.ar  1 <1>  -0.1500 
 23 C       -0.8810    -8.3910     0.5120 C.ar  1 <1>  -0.1500 
 24 C        6.7240     4.4450    -0.5470 C.ar  1 <1>   0.0820 
 25 C        5.6410     5.5070     1.3120 C.ar  1 <1>  -0.1500 
 26 C       -0.0110    -9.0040    -0.3960 C.ar  1 <1>  -0.1500 
 27 O        7.3870     4.4960    -1.7280 O.3   1 <1>  -0.3630 
 28 C        6.3370     5.6130     0.1120 C.ar  1 <1>   0.0820 
 29 C        8.7740     4.2360    -1.7140 C.3   1 <1>   0.1200 
 30 O        6.6620     6.8100    -0.4530 O.3   1 <1>  -0.3630 
 31 C        9.5280     5.4770    -1.2380 C.3   1 <1>  -0.2400 
 32 C        6.3640     8.0370     0.1750 C.3   1 <1>   0.0400 
 33 H       -1.0030    -2.0670    -0.1140 H     1 <1>   0.0800 
 34 H        0.2500    -2.3340     1.0900 H     1 <1>   0.0800 
 35 H        1.0940     2.0300    -0.1810 H     1 <1>   0.0800 
 36 H        2.3580     1.5300    -1.2550 H     1 <1>   0.0800 
 37 H        3.3440    -1.0230    -0.8060 H     1 <1>   0.0800 
 38 H        2.6400    -1.8460     0.5510 H     1 <1>   0.0800 
 39 H        2.5790     2.0590     1.7130 H     1 <1>   0.0800 
 40 H        3.2740     3.0150     0.4320 H     1 <1>   0.0800 
 41 H        4.8540    -0.8600     1.0840 H     1 <1>   0.0800 
 42 H        3.5690    -0.3180     2.1260 H     1 <1>   0.0800 
 43 H        4.6800     1.1960    -0.1620 H     1 <1>   0.4500 
 44 H       -0.7800    -4.3690     0.6040 H     1 <1>   0.1500 
 45 H        2.2120    -4.0410    -2.4190 H     1 <1>   0.1500 
 46 H        6.1660     1.1110     1.7390 H     1 <1>   0.0800 
 47 H        4.8930     1.8420     2.6940 H     1 <1>   0.0800 
 48 H        2.2750    -6.4970    -2.6090 H     1 <1>   0.1500 
 49 H       -1.5840    -6.5540     1.3080 H     1 <1>   0.1500 
 50 H        6.7180     2.3310    -0.5690 H     1 <1>   0.1500 
 51 H        4.7800     4.2160     2.7610 H     1 <1>   0.1500 
 52 H        1.4730    -8.7060    -1.8840 H     1 <1>   0.1500 
 53 H       -1.5170    -9.0070     1.1240 H     1 <1>   0.1500 
 54 H        5.3380     6.3840     1.8540 H     1 <1>   0.1500 
 55 H        0.0040   -10.0780    -0.4630 H     1 <1>   0.1500 
 56 H        9.0630     3.9930    -2.7220 H     1 <1>   0.0800 
 57 H        8.9710     3.3920    -1.0770 H     1 <1>   0.0800 
 58 H        9.2740     6.3200    -1.8560 H     1 <1>   0.0800 
 59 H       10.5870     5.3080    -1.3050 H     1 <1>   0.0800 
 60 H        9.2830     5.6980    -0.2150 H     1 <1>   0.0800 
 61 H        6.7350     8.8280    -0.4510 H     1 <1>   0.0800 
 62 H        6.8530     8.0690     1.1320 H     1 <1>   0.0800 
 63 H        5.2970     8.1260     0.2790 H     1 <1>   0.0800 
@<TRIPOS>BOND
  1   1   2  2   
  2   2   3  am  
  3   2   4  1   
  4   3   5  1   
  5   3   6  1   
  6   4   7  1   
  7   4  33  1   
  8   4  34  1   
  9   5   8  1   
 10   5  35  1   
 11   5  36  1   
 12   6   9  1   
 13   6  37  1   
 14   6  38  1   
 15   7  10  1   
 16   8  11  1   
 17   8  39  1   
 18   8  40  1   
 19   9  11  1   
 20   9  41  1   
 21   9  42  1   
 22  10  12  ar  
 23  10  13  ar  
 24  11  14  1   
 25  11  43  1   
 26  12  15  ar  
 27  12  44  1   
 28  13  16  ar  
 29  13  45  1   
 30  14  17  1   
 31  14  46  1   
 32  14  47  1   
 33  15  18  ar  
 34  15  19  ar  
 35  16  18  ar  
 36  16  48  1   
 37  17  20  ar  
 38  17  21  ar  
 39  18  22  ar  
 40  19  23  ar  
 41  19  49  1   
 42  20  24  ar  
 43  20  50  1   
 44  21  25  ar  
 45  21  51  1   
 46  22  26  ar  
 47  22  52  1   
 48  23  26  ar  
 49  23  53  1   
 50  24  27  1   
 51  24  28  ar  
 52  25  28  ar  
 53  25  54  1   
 54  26  55  1   
 55  27  29  1   
 56  28  30  1   
 57  29  31  1   
 58  29  56  1   
 59  29  57  1   
 60  30  32  1   
 61  31  58  1   
 62  31  59  1   
 63  31  60  1   
 64  32  61  1   
 65  32  62  1   
 66  32  63  1   
@<TRIPOS>SUBSTRUCTURE
  1 ****   6 GROUP 4 **** **** 0

# MOE 2024.06 (io_trps.svl 2023.06)
