@<TRIPOS>MOLECULE
NONAME
39 40 1 0 0 
SMALL
USER_CHARGES


@<TRIPOS>ATOM
  1 O        0.3400    -0.2320    -0.6980 O.2   1 <1>  -0.5700 
  2 C        0.8380    -1.3120    -0.4380 C.2   1 <1>   0.5440 
  3 N        0.0110    -2.4040    -0.3030 N.am  1 <1>  -0.6600 
  4 C        2.2740    -1.4180    -0.2650 C.ar  1 <1>   0.0860 
  5 C       -1.4550    -2.3050    -0.4770 C.3   1 <1>   0.1400 
  6 C        0.3770    -3.6630     0.3830 C.3   1 <1>   0.1400 
  7 C        3.0250    -2.3930    -0.9260 C.ar  1 <1>  -0.1500 
  8 C        2.9600    -0.5390     0.5720 C.ar  1 <1>  -0.1500 
  9 C       -1.9950    -3.6660    -0.0520 C.3   1 <1>  -0.1600 
 10 C       -0.9430    -4.2160     0.9060 C.3   1 <1>  -0.1600 
 11 C        4.3920    -2.5000    -0.7480 C.ar  1 <1>  -0.1500 
 12 C        4.3260    -0.6390     0.7560 C.ar  1 <1>  -0.1500 
 13 C        5.0540    -1.6200     0.1030 C.ar  1 <1>   0.0830 
 14 O        6.3850    -1.6540     0.3380 O.3   1 <1>  -0.3630 
 15 C        7.2290    -2.5840    -0.3000 C.3   1 <1>   0.1200 
 16 C        8.6610    -2.3350     0.1730 C.3   1 <1>  -0.1600 
 17 C        9.6430    -3.3140    -0.4830 C.3   1 <1>  -0.1600 
 18 C       11.0750    -3.0590    -0.0050 C.3   1 <1>  -0.2400 
 19 H       -1.7010    -2.0760    -1.4990 H     1 <1>   0.0800 
 20 H       -1.8330    -1.5280     0.1670 H     1 <1>   0.0800 
 21 H        1.0760    -3.4860     1.1830 H     1 <1>   0.0800 
 22 H        0.8060    -4.3430    -0.3340 H     1 <1>   0.0800 
 23 H        2.5200    -3.0680    -1.5940 H     1 <1>   0.1500 
 24 H        2.4040     0.2320     1.0780 H     1 <1>   0.1500 
 25 H       -2.0680    -4.2980    -0.9200 H     1 <1>   0.0800 
 26 H       -2.9660    -3.5840     0.4050 H     1 <1>   0.0800 
 27 H       -1.1140    -3.8310     1.8960 H     1 <1>   0.0800 
 28 H       -0.9410    -5.2910     0.9430 H     1 <1>   0.0800 
 29 H        4.9250    -3.2670    -1.2770 H     1 <1>   0.1500 
 30 H        4.8400     0.0460     1.4070 H     1 <1>   0.1500 
 31 H        7.1500    -2.4400    -1.3640 H     1 <1>   0.0800 
 32 H        6.9070    -3.5750    -0.0320 H     1 <1>   0.0800 
 33 H        8.7010    -2.4500     1.2430 H     1 <1>   0.0800 
 34 H        8.9410    -1.3260    -0.0760 H     1 <1>   0.0800 
 35 H        9.6040    -3.2050    -1.5540 H     1 <1>   0.0800 
 36 H        9.3650    -4.3260    -0.2390 H     1 <1>   0.0800 
 37 H       11.3830    -2.0590    -0.2580 H     1 <1>   0.0800 
 38 H       11.7490    -3.7530    -0.4740 H     1 <1>   0.0800 
 39 H       11.1440    -3.1830     1.0610 H     1 <1>   0.0800 
@<TRIPOS>BOND
  1   1   2  2   
  2   2   3  am  
  3   2   4  1   
  4   3   5  1   
  5   3   6  1   
  6   4   7  ar  
  7   4   8  ar  
  8   5   9  1   
  9   5  19  1   
 10   5  20  1   
 11   6  10  1   
 12   6  21  1   
 13   6  22  1   
 14   7  11  ar  
 15   7  23  1   
 16   8  12  ar  
 17   8  24  1   
 18   9  10  1   
 19   9  25  1   
 20   9  26  1   
 21  10  27  1   
 22  10  28  1   
 23  11  13  ar  
 24  11  29  1   
 25  12  13  ar  
 26  12  30  1   
 27  13  14  1   
 28  14  15  1   
 29  15  16  1   
 30  15  31  1   
 31  15  32  1   
 32  16  17  1   
 33  16  33  1   
 34  16  34  1   
 35  17  18  1   
 36  17  35  1   
 37  17  36  1   
 38  18  37  1   
 39  18  38  1   
 40  18  39  1   
@<TRIPOS>SUBSTRUCTURE
  1 ****   7 GROUP 4 **** **** 0

# MOE 2024.06 (io_trps.svl 2023.06)
