@<TRIPOS>MOLECULE
NONAME
30 30 1 0 0 
SMALL
USER_CHARGES


@<TRIPOS>ATOM
  1 BR      -0.4770    -0.8190     1.0020 Br    1 <1>  -0.1110 
  2 C        1.3460    -1.3600     0.6930 C.ar  1 <1>   0.1110 
  3 C        1.6830    -2.6910     0.8500 C.ar  1 <1>  -0.1500 
  4 C        2.2730    -0.4050     0.3220 C.ar  1 <1>  -0.1500 
  5 C        2.9950    -3.0710     0.6270 C.ar  1 <1>  -0.1500 
  6 C        3.5800    -0.8030     0.1020 C.ar  1 <1>  -0.1500 
  7 C        3.9590    -2.1370     0.2540 C.ar  1 <1>   0.1170 
  8 N        5.2700    -2.5780     0.0240 N.am  1 <1>  -0.5470 
  9 C        6.4590    -1.9170     0.1180 C.2   1 <1>   0.6900 
 10 O        6.5280    -0.7930     0.5730 O.2   1 <1>  -0.5700 
 11 N        7.5630    -2.5820    -0.3110 N.am  1 <1>  -0.7300 
 12 C        8.9620    -2.1430    -0.2990 C.3   1 <1>   0.3000 
 13 C        9.7820    -3.2980    -0.8690 C.3   1 <1>  -0.2400 
 14 C        9.4110    -1.8610     1.1350 C.3   1 <1>  -0.2400 
 15 C        9.1280    -0.9110    -1.1910 C.3   1 <1>  -0.2400 
 16 H        0.9350    -3.4070     1.1410 H     1 <1>   0.1500 
 17 H        1.9800     0.6230     0.2090 H     1 <1>   0.1500 
 18 H        3.2720    -4.1020     0.7490 H     1 <1>   0.1500 
 19 H        4.3100    -0.0700    -0.1910 H     1 <1>   0.1500 
 20 H        5.3720    -3.5750    -0.1170 H     1 <1>   0.3700 
 21 H        7.4240    -3.4310    -0.8480 H     1 <1>   0.3700 
 22 H        9.4810    -3.5170    -1.8780 H     1 <1>   0.0800 
 23 H        9.6670    -4.1790    -0.2630 H     1 <1>   0.0800 
 24 H       10.8250    -3.0370    -0.8830 H     1 <1>   0.0800 
 25 H        9.2410    -2.7190     1.7590 H     1 <1>   0.0800 
 26 H        8.8770    -1.0220     1.5440 H     1 <1>   0.0800 
 27 H       10.4590    -1.6240     1.1560 H     1 <1>   0.0800 
 28 H        8.7690    -1.1120    -2.1840 H     1 <1>   0.0800 
 29 H       10.1640    -0.6340    -1.2500 H     1 <1>   0.0800 
 30 H        8.5860    -0.0750    -0.7870 H     1 <1>   0.0800 
@<TRIPOS>BOND
  1   1   2  1   
  2   2   3  ar  
  3   2   4  ar  
  4   3   5  ar  
  5   3  16  1   
  6   4   6  ar  
  7   4  17  1   
  8   5   7  ar  
  9   5  18  1   
 10   6   7  ar  
 11   6  19  1   
 12   7   8  1   
 13   8   9  am  
 14   8  20  1   
 15   9  10  2   
 16   9  11  am  
 17  11  12  1   
 18  11  21  1   
 19  12  13  1   
 20  12  14  1   
 21  12  15  1   
 22  13  22  1   
 23  13  23  1   
 24  13  24  1   
 25  14  25  1   
 26  14  26  1   
 27  14  27  1   
 28  15  28  1   
 29  15  29  1   
 30  15  30  1   
@<TRIPOS>SUBSTRUCTURE
  1 ****   8 GROUP 4 **** **** 0

# MOE 2024.06 (io_trps.svl 2023.06)
