@<TRIPOS>MOLECULE
NONAME
41 44 1 0 0 
SMALL
USER_CHARGES


@<TRIPOS>ATOM
  1 S       -0.0150     0.1380     1.0170 S.o2  1 <1>   1.3330 
  2 O        0.2480     1.4980     1.4290 O.2   1 <1>  -0.6500 
  3 O        0.4820    -0.9510     1.8220 O.2   1 <1>  -0.6500 
  4 N       -1.6900    -0.0220     0.7940 N.am  1 <1>  -0.8490 
  5 C        0.6830    -0.0300    -0.6160 C.3   1 <1>  -0.1350 
  6 C       -2.1320    -1.2100     0.0420 C.3   1 <1>   0.4560 
  7 C       -2.3190     1.2160     0.2780 C.3   1 <1>   0.1960 
  8 C       -3.6440    -1.2090    -0.0390 C.2   1 <1>  -0.3320 
  9 C       -1.7130    -2.5690     0.6400 C.3   1 <1>  -0.1600 
 10 C       -3.8500     1.2090     0.3950 C.3   1 <1>   0.0960 
 11 N       -4.3930    -0.0750    -0.0590 N.pl3 1 <1>   0.0480 
 12 C       -4.4470    -2.2930    -0.0610 C.2   1 <1>  -0.1810 
 13 C       -2.4080    -3.7570    -0.0700 C.3   1 <1>  -0.1600 
 14 C       -5.7160    -0.4480    -0.1160 C.ar  1 <1>  -0.1520 
 15 C       -5.7810    -1.8390    -0.1280 C.ar  1 <1>   0.0000 
 16 C       -3.9450    -3.7170     0.0450 C.3   1 <1>   0.0210 
 17 C       -6.8850     0.3170    -0.1470 C.ar  1 <1>  -0.1500 
 18 C       -7.0250    -2.4760    -0.1800 C.ar  1 <1>  -0.1500 
 19 C       -8.1010    -0.3240    -0.1980 C.ar  1 <1>  -0.1500 
 20 C       -8.1780    -1.7240    -0.2170 C.ar  1 <1>  -0.1440 
 21 C       -9.5420    -2.3850    -0.2740 C.3   1 <1>  -0.0970 
 22 H        0.2540     0.6880    -1.2860 H     1 <1>   0.0800 
 23 H        0.5200    -1.0170    -1.0000 H     1 <1>   0.0800 
 24 H        1.7410     0.1400    -0.5700 H     1 <1>   0.0800 
 25 H       -1.7630    -1.1470    -0.9670 H     1 <1>   0.0800 
 26 H       -2.0440     1.3610    -0.7530 H     1 <1>   0.0800 
 27 H       -1.9680     2.0690     0.8330 H     1 <1>   0.0800 
 28 H       -1.9660    -2.5810     1.6860 H     1 <1>   0.0800 
 29 H       -0.6540    -2.7090     0.5410 H     1 <1>   0.0800 
 30 H       -4.2750     2.0030    -0.1890 H     1 <1>   0.0800 
 31 H       -4.1290     1.3460     1.4240 H     1 <1>   0.0800 
 32 H       -2.0480    -4.6850     0.3390 H     1 <1>   0.0800 
 33 H       -2.1430    -3.7360    -1.1130 H     1 <1>   0.0800 
 34 H       -4.3910    -4.3240    -0.7230 H     1 <1>   0.0800 
 35 H       -4.2440    -4.1070     1.0020 H     1 <1>   0.0800 
 36 H       -6.8280     1.3890    -0.1320 H     1 <1>   0.1500 
 37 H       -7.0520    -3.5490    -0.1890 H     1 <1>   0.1500 
 38 H       -9.0100     0.2500    -0.2250 H     1 <1>   0.1500 
 39 H       -9.4480    -3.4560    -0.2840 H     1 <1>   0.0800 
 40 H      -10.0600    -2.0780    -1.1650 H     1 <1>   0.0800 
 41 H      -10.1230    -2.0990     0.5840 H     1 <1>   0.0800 
@<TRIPOS>BOND
  1   1   2  2   
  2   1   3  2   
  3   1   4  am  
  4   1   5  1   
  5   4   6  1   
  6   4   7  1   
  7   5  22  1   
  8   5  23  1   
  9   5  24  1   
 10   6   8  1   
 11   6   9  1   
 12   6  25  1   
 13   7  10  1   
 14   7  26  1   
 15   7  27  1   
 16   8  11  1   
 17   8  12  2   
 18   9  13  1   
 19   9  28  1   
 20   9  29  1   
 21  10  11  1   
 22  10  30  1   
 23  10  31  1   
 24  11  14  1   
 25  12  15  1   
 26  12  16  1   
 27  13  16  1   
 28  13  32  1   
 29  13  33  1   
 30  14  15  ar  
 31  14  17  ar  
 32  15  18  ar  
 33  16  34  1   
 34  16  35  1   
 35  17  19  ar  
 36  17  36  1   
 37  18  20  ar  
 38  18  37  1   
 39  19  20  ar  
 40  19  38  1   
 41  20  21  1   
 42  21  39  1   
 43  21  40  1   
 44  21  41  1   
@<TRIPOS>SUBSTRUCTURE
  1 ****   8 GROUP 4 **** **** 0

# MOE 2024.06 (io_trps.svl 2023.06)
