@<TRIPOS>MOLECULE
NONAME
50 51 1 0 0 
SMALL
USER_CHARGES


@<TRIPOS>ATOM
  1 O        0.4430    -3.2310    -1.8150 O.2   1 <1>  -0.5700 
  2 C        0.3260    -2.6330    -0.7780 C.2   1 <1>   0.6590 
  3 O       -0.7260    -1.8780    -0.4990 O.3   1 <1>  -0.4300 
  4 C        1.4050    -2.6990     0.2990 C.3   1 <1>  -0.0190 
  5 C       -1.7880    -1.7310    -1.4150 C.3   1 <1>   0.1200 
  6 C        2.6680    -1.9390    -0.1480 C.3   1 <1>  -0.1600 
  7 C        1.7550    -4.1580     0.6510 C.3   1 <1>  -0.1600 
  8 C       -2.8250    -0.8030    -0.7910 C.3   1 <1>  -0.2400 
  9 C        3.8100    -2.0760     0.8580 C.3   1 <1>   0.3430 
 10 C        2.9120    -4.2490     1.6430 C.3   1 <1>   0.3430 
 11 N        4.0880    -3.5210     1.0960 N.4   1 <1>  -0.9590 
 12 C        5.3040    -3.7210     1.9310 C.3   1 <1>   0.4860 
 13 C        6.4980    -3.1820     1.1630 C.ar  1 <1>  -0.1430 
 14 C        7.0120    -3.8110     0.0270 C.ar  1 <1>  -0.1430 
 15 C        7.0690    -2.0060     1.6230 C.ar  1 <1>  -0.1500 
 16 C        8.0710    -3.2190    -0.6640 C.ar  1 <1>  -0.1430 
 17 C        6.4450    -5.1450    -0.4690 C.3   1 <1>  -0.0970 
 18 C        8.1320    -1.4360     0.9560 C.ar  1 <1>  -0.1500 
 19 C        8.6380    -2.0340    -0.1910 C.ar  1 <1>   0.0830 
 20 C        8.6350    -3.8570    -1.9390 C.3   1 <1>  -0.0970 
 21 O        9.6860    -1.5020    -0.8740 O.3   1 <1>  -0.3630 
 22 C       10.3960    -0.3720    -0.4160 C.3   1 <1>   0.0400 
 23 H        1.0140    -2.2220     1.1820 H     1 <1>   0.0800 
 24 H       -2.2080    -2.7040    -1.6110 H     1 <1>   0.0800 
 25 H       -1.3970    -1.3160    -2.3290 H     1 <1>   0.0800 
 26 H        2.4320    -0.8950    -0.2700 H     1 <1>   0.0800 
 27 H        2.9970    -2.3040    -1.1060 H     1 <1>   0.0800 
 28 H        2.0150    -4.7010    -0.2420 H     1 <1>   0.0800 
 29 H        0.8900    -4.6390     1.0740 H     1 <1>   0.0800 
 30 H       -3.2000    -1.2260     0.1240 H     1 <1>   0.0800 
 31 H       -3.6480    -0.6740    -1.4700 H     1 <1>   0.0800 
 32 H       -2.3920     0.1610    -0.5930 H     1 <1>   0.0800 
 33 H        3.5400    -1.5950     1.7840 H     1 <1>   0.0800 
 34 H        4.6880    -1.5880     0.4630 H     1 <1>   0.0800 
 35 H        3.1600    -5.2860     1.8090 H     1 <1>   0.0800 
 36 H        2.6170    -3.8140     2.5850 H     1 <1>   0.0800 
 37 H        4.3240    -3.9180     0.1770 H     1 <1>   0.4500 
 38 H        5.4540    -4.7680     2.1350 H     1 <1>   0.0800 
 39 H        5.2030    -3.2030     2.8700 H     1 <1>   0.0800 
 40 H        6.6970    -1.5160     2.5070 H     1 <1>   0.1500 
 41 H        5.8680    -5.6600     0.2740 H     1 <1>   0.0800 
 42 H        7.2490    -5.8080    -0.7370 H     1 <1>   0.0800 
 43 H        5.8340    -4.9860    -1.3390 H     1 <1>   0.0800 
 44 H        8.5530    -0.5270     1.3420 H     1 <1>   0.1500 
 45 H        7.8570    -4.2850    -2.5420 H     1 <1>   0.0800 
 46 H        9.3410    -4.6240    -1.6770 H     1 <1>   0.0800 
 47 H        9.1380    -3.1360    -2.5570 H     1 <1>   0.0800 
 48 H       11.1990    -0.1810    -1.1040 H     1 <1>   0.0800 
 49 H       10.7950    -0.5820     0.5610 H     1 <1>   0.0800 
 50 H        9.7300     0.4730    -0.3900 H     1 <1>   0.0800 
@<TRIPOS>BOND
  1   1   2  2   
  2   2   3  1   
  3   2   4  1   
  4   3   5  1   
  5   4   6  1   
  6   4   7  1   
  7   4  23  1   
  8   5   8  1   
  9   5  24  1   
 10   5  25  1   
 11   6   9  1   
 12   6  26  1   
 13   6  27  1   
 14   7  10  1   
 15   7  28  1   
 16   7  29  1   
 17   8  30  1   
 18   8  31  1   
 19   8  32  1   
 20   9  11  1   
 21   9  33  1   
 22   9  34  1   
 23  10  11  1   
 24  10  35  1   
 25  10  36  1   
 26  11  12  1   
 27  11  37  1   
 28  12  13  1   
 29  12  38  1   
 30  12  39  1   
 31  13  14  ar  
 32  13  15  ar  
 33  14  16  ar  
 34  14  17  1   
 35  15  18  ar  
 36  15  40  1   
 37  16  19  ar  
 38  16  20  1   
 39  17  41  1   
 40  17  42  1   
 41  17  43  1   
 42  18  19  ar  
 43  18  44  1   
 44  19  21  1   
 45  20  45  1   
 46  20  46  1   
 47  20  47  1   
 48  21  22  1   
 49  22  48  1   
 50  22  49  1   
 51  22  50  1   
@<TRIPOS>SUBSTRUCTURE
  1 ****   9 GROUP 4 **** **** 0

# MOE 2024.06 (io_trps.svl 2023.06)
