@<TRIPOS>MOLECULE
NONAME
43 44 1 0 0 
SMALL
USER_CHARGES


@<TRIPOS>ATOM
  1 O       -6.1620     0.6610     1.6270 O.2   1 <1>  -0.5700 
  2 C       -5.9870     0.0310     0.6100 C.2   1 <1>   0.5690 
  3 N       -6.7490    -1.0400     0.2300 N.am  1 <1>  -0.5470 
  4 C       -4.8430     0.5130    -0.2970 C.3   1 <1>   0.4040 
  5 C       -7.8630    -1.6540     0.8330 C.ar  1 <1>   0.1170 
  6 N       -4.4510     1.9450     0.0030 N.4   1 <1>  -0.9590 
  7 C       -8.4970    -2.6760     0.1390 C.ar  1 <1>   0.0830 
  8 C       -8.3940    -1.3270     2.0820 C.ar  1 <1>  -0.1500 
  9 C       -5.0480     2.9350    -0.9410 C.3   1 <1>   0.3430 
 10 C       -2.9770     2.0900     0.1440 C.3   1 <1>   0.3430 
 11 O       -8.1740    -3.1690    -1.0700 O.3   1 <1>  -0.3630 
 12 C       -9.5820    -3.3310     0.6370 C.ar  1 <1>   0.0830 
 13 C       -9.5040    -1.9950     2.5920 C.ar  1 <1>  -0.1500 
 14 C       -6.5730     2.9730    -0.8100 C.3   1 <1>  -0.1600 
 15 C       -2.6380     3.3560     0.9340 C.3   1 <1>  -0.1600 
 16 C       -9.1210    -4.2040    -1.3490 C.3   1 <1>   0.4000 
 17 O       -9.9970    -4.2640    -0.2260 O.3   1 <1>  -0.3620 
 18 C      -10.1150    -3.0120     1.8700 C.ar  1 <1>  -0.1500 
 19 C       -7.1660     4.1040    -1.6590 C.3   1 <1>  -0.2400 
 20 C       -1.1300     3.4520     1.1920 C.3   1 <1>  -0.2400 
 21 H       -6.5260    -1.5030    -0.6550 H     1 <1>   0.3700 
 22 H       -5.1400     0.4210    -1.3270 H     1 <1>   0.0800 
 23 H       -4.0010    -0.1360    -0.1280 H     1 <1>   0.0800 
 24 H       -4.8740     2.1160     0.9380 H     1 <1>   0.4500 
 25 H       -7.9520    -0.5490     2.6760 H     1 <1>   0.1500 
 26 H       -4.7730     2.6970    -1.9560 H     1 <1>   0.0800 
 27 H       -4.6690     3.9190    -0.7180 H     1 <1>   0.0800 
 28 H       -2.5090     2.1240    -0.8270 H     1 <1>   0.0800 
 29 H       -2.5810     1.2420     0.6800 H     1 <1>   0.0800 
 30 H       -9.8940    -1.7220     3.5580 H     1 <1>   0.1500 
 31 H       -6.8470     3.1380     0.2180 H     1 <1>   0.0800 
 32 H       -7.0060     2.0460    -1.1390 H     1 <1>   0.0800 
 33 H       -3.1470     3.3390     1.8830 H     1 <1>   0.0800 
 34 H       -2.9430     4.2330     0.3920 H     1 <1>   0.0800 
 35 H       -8.6100    -5.1440    -1.4570 H     1 <1>   0.0800 
 36 H       -9.6840    -3.9530    -2.2310 H     1 <1>   0.0800 
 37 H      -10.9730    -3.5400     2.2470 H     1 <1>   0.1500 
 38 H       -6.7870     5.0600    -1.3410 H     1 <1>   0.0800 
 39 H       -8.2380     4.1170    -1.5530 H     1 <1>   0.0800 
 40 H       -6.9340     3.9660    -2.7010 H     1 <1>   0.0800 
 41 H       -0.7830     2.6070     1.7630 H     1 <1>   0.0800 
 42 H       -0.9090     4.3460     1.7510 H     1 <1>   0.0800 
 43 H       -0.5830     3.4930     0.2660 H     1 <1>   0.0800 
@<TRIPOS>BOND
  1   1   2  2   
  2   2   3  am  
  3   2   4  1   
  4   3   5  1   
  5   3  21  1   
  6   4   6  1   
  7   4  22  1   
  8   4  23  1   
  9   5   7  ar  
 10   5   8  ar  
 11   6   9  1   
 12   6  10  1   
 13   6  24  1   
 14   7  11  1   
 15   7  12  ar  
 16   8  13  ar  
 17   8  25  1   
 18   9  14  1   
 19   9  26  1   
 20   9  27  1   
 21  10  15  1   
 22  10  28  1   
 23  10  29  1   
 24  11  16  1   
 25  12  17  1   
 26  12  18  ar  
 27  13  18  ar  
 28  13  30  1   
 29  14  19  1   
 30  14  31  1   
 31  14  32  1   
 32  15  20  1   
 33  15  33  1   
 34  15  34  1   
 35  16  17  1   
 36  16  35  1   
 37  16  36  1   
 38  18  37  1   
 39  19  38  1   
 40  19  39  1   
 41  19  40  1   
 42  20  41  1   
 43  20  42  1   
 44  20  43  1   
@<TRIPOS>SUBSTRUCTURE
  1 ****   3 GROUP 4 **** **** 0

# MOE 2024.06 (io_trps.svl 2023.06)
