@<TRIPOS>MOLECULE
NONAME
48 50 1 0 0 
SMALL
USER_CHARGES


@<TRIPOS>ATOM
  1 O       -3.8740     2.0040    -2.1680 O.2   1 <1>  -0.5700 
  2 C       -4.0810     2.4520    -1.0660 C.2   1 <1>   0.4230 
  3 C       -5.4200     2.6500    -0.5450 C.ar  1 <1>   0.0860 
  4 C       -2.8450     2.7660    -0.2190 C.3   1 <1>   0.1250 
  5 C       -5.7090     3.3920     0.6080 C.ar  1 <1>  -0.1500 
  6 C       -6.5110     2.0790    -1.2080 C.ar  1 <1>  -0.1500 
  7 C       -2.6050     4.2710    -0.1240 C.ar  1 <1>  -0.1430 
  8 C       -1.6240     2.0440    -0.8440 C.3   1 <1>   0.3430 
  9 C       -7.0010     3.5430     1.0760 C.ar  1 <1>  -0.1500 
 10 C       -7.8040     2.2240    -0.7460 C.ar  1 <1>  -0.1500 
 11 C       -2.3830     4.8720     1.1080 C.ar  1 <1>  -0.1500 
 12 C       -2.5850     5.0520    -1.2730 C.ar  1 <1>  -0.1500 
 13 N       -0.2830     2.1920    -0.1560 N.4   1 <1>  -0.9590 
 14 C       -8.0640     2.9540     0.4010 C.ar  1 <1>   0.0830 
 15 C       -2.1300     6.2300     1.1880 C.ar  1 <1>  -0.1500 
 16 C       -2.3340     6.4090    -1.1910 C.ar  1 <1>  -0.1500 
 17 C       -0.3040     1.8630     1.3110 C.3   1 <1>   0.3430 
 18 C        0.3570     3.5420    -0.3860 C.3   1 <1>   0.3430 
 19 O       -9.3530     3.0510     0.7900 O.3   1 <1>  -0.3630 
 20 C       -2.1030     6.9980     0.0390 C.ar  1 <1>  -0.1500 
 21 C        1.0880     2.0430     1.9470 C.3   1 <1>   0.1200 
 22 C        1.7140     3.6510     0.3360 C.3   1 <1>   0.1200 
 23 C       -9.7400     3.8000     1.9210 C.3   1 <1>   0.0400 
 24 O        1.5740     3.3280     1.6900 O.3   1 <1>  -0.5600 
 25 H       -3.0210     2.3570     0.7570 H     1 <1>   0.0800 
 26 H       -4.9260     3.8770     1.1580 H     1 <1>   0.1500 
 27 H       -6.3440     1.5080    -2.1060 H     1 <1>   0.1500 
 28 H       -1.5280     2.3880    -1.8610 H     1 <1>   0.0800 
 29 H       -1.8680     0.9950    -0.9000 H     1 <1>   0.0800 
 30 H       -7.1680     4.1230     1.9640 H     1 <1>   0.1500 
 31 H       -8.6270     1.7730    -1.2730 H     1 <1>   0.1500 
 32 H       -2.4030     4.3020     2.0210 H     1 <1>   0.1500 
 33 H       -2.7690     4.6190    -2.2440 H     1 <1>   0.1500 
 34 H        0.3500     1.5120    -0.5980 H     1 <1>   0.4500 
 35 H       -1.9570     6.6950     2.1440 H     1 <1>   0.1500 
 36 H       -2.3240     7.0120    -2.0840 H     1 <1>   0.1500 
 37 H       -0.6340     0.8470     1.4590 H     1 <1>   0.0800 
 38 H       -0.9910     2.5160     1.8230 H     1 <1>   0.0800 
 39 H       -0.2720     4.3280    -0.0090 H     1 <1>   0.0800 
 40 H        0.4960     3.7120    -1.4400 H     1 <1>   0.0800 
 41 H       -1.9100     8.0570     0.1020 H     1 <1>   0.1500 
 42 H        1.7900     1.3220     1.5640 H     1 <1>   0.0800 
 43 H        1.0270     1.9260     3.0150 H     1 <1>   0.0800 
 44 H        2.0800     4.6620     0.2780 H     1 <1>   0.0800 
 45 H        2.4450     2.9960    -0.1050 H     1 <1>   0.0800 
 46 H      -10.8090     3.7340     2.0150 H     1 <1>   0.0800 
 47 H       -9.4490     4.8260     1.7760 H     1 <1>   0.0800 
 48 H       -9.2700     3.3840     2.7940 H     1 <1>   0.0800 
@<TRIPOS>BOND
  1   1   2  2   
  2   2   3  1   
  3   2   4  1   
  4   3   5  ar  
  5   3   6  ar  
  6   4   7  1   
  7   4   8  1   
  8   4  25  1   
  9   5   9  ar  
 10   5  26  1   
 11   6  10  ar  
 12   6  27  1   
 13   7  11  ar  
 14   7  12  ar  
 15   8  13  1   
 16   8  28  1   
 17   8  29  1   
 18   9  14  ar  
 19   9  30  1   
 20  10  14  ar  
 21  10  31  1   
 22  11  15  ar  
 23  11  32  1   
 24  12  16  ar  
 25  12  33  1   
 26  13  17  1   
 27  13  18  1   
 28  13  34  1   
 29  14  19  1   
 30  15  20  ar  
 31  15  35  1   
 32  16  20  ar  
 33  16  36  1   
 34  17  21  1   
 35  17  37  1   
 36  17  38  1   
 37  18  22  1   
 38  18  39  1   
 39  18  40  1   
 40  19  23  1   
 41  20  41  1   
 42  21  24  1   
 43  21  42  1   
 44  21  43  1   
 45  22  24  1   
 46  22  44  1   
 47  22  45  1   
 48  23  46  1   
 49  23  47  1   
 50  23  48  1   
@<TRIPOS>SUBSTRUCTURE
  1 ****   4 GROUP 4 **** **** 0

# MOE 2024.06 (io_trps.svl 2023.06)
