@<TRIPOS>MOLECULE
NONAME
44 45 1 0 0 
SMALL
USER_CHARGES


@<TRIPOS>ATOM
  1 O        0.8170    -1.0950     0.3690 O.2   1 <1>  -0.5700 
  2 C        0.3910    -2.1770     0.7260 C.2   1 <1>   0.5440 
  3 N        1.3010    -3.0650     1.2550 N.am  1 <1>  -0.6600 
  4 C       -0.9990    -2.5420     0.5240 C.ar  1 <1>   0.0860 
  5 C        1.5050    -4.3730     0.5730 C.3   1 <1>   0.1400 
  6 C        2.5480    -2.5300     1.8730 C.3   1 <1>   0.1400 
  7 C       -1.7150    -2.0630    -0.5700 C.ar  1 <1>  -0.1500 
  8 C       -1.6710    -3.3890     1.4040 C.ar  1 <1>  -0.1500 
  9 C        2.5980    -4.2290    -0.5090 C.3   1 <1>   0.3430 
 10 C        3.6280    -2.3560     0.7900 C.3   1 <1>   0.3430 
 11 C       -3.0310    -2.4170    -0.8020 C.ar  1 <1>   0.0820 
 12 C       -2.9860    -3.7590     1.1910 C.ar  1 <1>  -0.1500 
 13 N        3.8770    -3.6380     0.0300 N.4   1 <1>  -0.9590 
 14 O       -3.5860    -1.8710    -1.9180 O.3   1 <1>  -0.3620 
 15 C       -3.6860    -3.2900     0.0820 C.ar  1 <1>   0.0820 
 16 C        4.8660    -3.4420    -1.0510 C.3   1 <1>   0.4810 
 17 C       -4.9300    -1.4400    -1.9130 C.3   1 <1>   0.0400 
 18 O       -4.9690    -3.6720    -0.1660 O.3   1 <1>  -0.3630 
 19 C        6.2210    -3.3210    -0.3930 C.2   1 <1>  -0.2880 
 20 C       -5.6660    -4.5840     0.6550 C.3   1 <1>   0.0400 
 21 C        7.1540    -4.2790    -0.3710 C.2   1 <1>  -0.3000 
 22 H        0.5880    -4.6980     0.1100 H     1 <1>   0.0800 
 23 H        1.7910    -5.1170     1.2950 H     1 <1>   0.0800 
 24 H        2.8920    -3.1990     2.6430 H     1 <1>   0.0800 
 25 H        2.3450    -1.5760     2.3320 H     1 <1>   0.0800 
 26 H       -1.2350    -1.3920    -1.2600 H     1 <1>   0.1500 
 27 H       -1.1540    -3.7610     2.2720 H     1 <1>   0.1500 
 28 H        2.2110    -3.5910    -1.2880 H     1 <1>   0.0800 
 29 H        2.7940    -5.1960    -0.9430 H     1 <1>   0.0800 
 30 H        4.5390    -2.0150     1.2520 H     1 <1>   0.0800 
 31 H        3.2930    -1.5880     0.1100 H     1 <1>   0.0800 
 32 H       -3.4490    -4.4160     1.9030 H     1 <1>   0.1500 
 33 H        4.3040    -4.3090     0.6810 H     1 <1>   0.4500 
 34 H        4.6380    -2.5640    -1.6350 H     1 <1>   0.0800 
 35 H        4.8690    -4.3010    -1.7030 H     1 <1>   0.0800 
 36 H       -5.0490    -0.7070    -2.6890 H     1 <1>   0.0800 
 37 H       -5.1590    -1.0070    -0.9550 H     1 <1>   0.0800 
 38 H       -5.5660    -2.2840    -2.1110 H     1 <1>   0.0800 
 39 H        6.3840    -2.3600     0.0650 H     1 <1>   0.1500 
 40 H       -6.6430    -4.7320     0.2330 H     1 <1>   0.0800 
 41 H       -5.7540    -4.1690     1.6430 H     1 <1>   0.0800 
 42 H       -5.1320    -5.5180     0.6720 H     1 <1>   0.0800 
 43 H        8.1180    -4.1640     0.1010 H     1 <1>   0.1500 
 44 H        7.0550    -5.2550    -0.8170 H     1 <1>   0.1500 
@<TRIPOS>BOND
  1   1   2  2   
  2   2   3  am  
  3   2   4  1   
  4   3   5  1   
  5   3   6  1   
  6   4   7  ar  
  7   4   8  ar  
  8   5   9  1   
  9   5  22  1   
 10   5  23  1   
 11   6  10  1   
 12   6  24  1   
 13   6  25  1   
 14   7  11  ar  
 15   7  26  1   
 16   8  12  ar  
 17   8  27  1   
 18   9  13  1   
 19   9  28  1   
 20   9  29  1   
 21  10  13  1   
 22  10  30  1   
 23  10  31  1   
 24  11  14  1   
 25  11  15  ar  
 26  12  15  ar  
 27  12  32  1   
 28  13  16  1   
 29  13  33  1   
 30  14  17  1   
 31  15  18  1   
 32  16  19  1   
 33  16  34  1   
 34  16  35  1   
 35  17  36  1   
 36  17  37  1   
 37  17  38  1   
 38  18  20  1   
 39  19  21  2   
 40  19  39  1   
 41  20  40  1   
 42  20  41  1   
 43  20  42  1   
 44  21  43  1   
 45  21  44  1   
@<TRIPOS>SUBSTRUCTURE
  1 ****   2 GROUP 4 **** **** 0

# MOE 2024.06 (io_trps.svl 2023.06)
