@<TRIPOS>MOLECULE
Structure1896
42 43 1 0 0 
SMALL
USER_CHARGES


@<TRIPOS>ATOM
  1 O       -1.1070     1.0490     1.3150 O.2   1 <1>  -0.5700 
  2 C       -0.9610     1.5490     0.2180 C.2   1 <1>   0.7800 
  3 O        0.2330     1.9420    -0.2230 O.3   1 <1>  -0.4300 
  4 N       -1.9860     1.7580    -0.6300 N.am  1 <1>  -0.7300 
  5 C        1.4670     1.8370     0.4530 C.3   1 <1>   0.2800 
  6 C       -3.3590     1.1510    -0.5520 C.3   1 <1>   0.1140 
  7 C        2.4990     2.4270    -0.5080 C.3   1 <1>  -0.2400 
  8 C        1.4400     2.6700     1.7390 C.3   1 <1>  -0.2400 
  9 C        1.8040     0.3640     0.7140 C.3   1 <1>  -0.2400 
 10 C       -3.8130     0.6660    -1.9440 C.2   1 <1>   0.9060 
 11 C       -4.3080     2.2070     0.0400 C.3   1 <1>   0.0210 
 12 O       -3.5740     1.3980    -2.9190 O.co2 1 <1>  -0.9000 
 13 O       -4.3260    -0.4520    -2.0830 O.co2 1 <1>  -0.9000 
 14 C       -5.5930     1.6550     0.6470 C.2   1 <1>  -0.1810 
 15 C       -6.3860     2.3640     1.5810 C.ar  1 <1>   0.0000 
 16 C       -6.1940     0.4610     0.4320 C.2   1 <1>  -0.3020 
 17 C       -7.4610     1.5370     1.8970 C.ar  1 <1>  -0.1520 
 18 C       -6.2870     3.6210     2.1880 C.ar  1 <1>  -0.1500 
 19 N       -7.3290     0.3740     1.1800 N.pl3 1 <1>   0.0330 
 20 C       -8.4420     1.9390     2.8080 C.ar  1 <1>  -0.1500 
 21 C       -7.2530     4.0110     3.0860 C.ar  1 <1>   0.0820 
 22 C       -8.3330     3.1760     3.4000 C.ar  1 <1>  -0.1500 
 23 O       -7.1630     5.2180     3.6800 O.3   1 <1>  -0.5330 
 24 H       -1.7730     2.0480    -1.5900 H     1 <1>   0.3700 
 25 H       -3.3260     0.2990     0.1020 H     1 <1>   0.0800 
 26 H        3.4820     2.3880    -0.0740 H     1 <1>   0.0800 
 27 H        2.2620     3.4530    -0.7240 H     1 <1>   0.0800 
 28 H        2.5110     1.8700    -1.4280 H     1 <1>   0.0800 
 29 H        1.1270     3.6760     1.5250 H     1 <1>   0.0800 
 30 H        2.4200     2.7020     2.1780 H     1 <1>   0.0800 
 31 H        0.7730     2.2410     2.4640 H     1 <1>   0.0800 
 32 H        1.7380    -0.2010    -0.1980 H     1 <1>   0.0800 
 33 H        1.1380    -0.0630     1.4410 H     1 <1>   0.0800 
 34 H        2.8040     0.2780     1.0990 H     1 <1>   0.0800 
 35 H       -4.5590     2.9250    -0.7210 H     1 <1>   0.0800 
 36 H       -3.7830     2.7200     0.8250 H     1 <1>   0.0800 
 37 H       -5.8840    -0.3390    -0.2200 H     1 <1>   0.1500 
 38 H       -5.4620     4.2640     1.9500 H     1 <1>   0.1500 
 39 H       -7.9750    -0.4200     1.1950 H     1 <1>   0.2700 
 40 H       -9.2630     1.2820     3.0350 H     1 <1>   0.1500 
 41 H       -9.0750     3.5040     4.1040 H     1 <1>   0.1500 
 42 H       -7.8900     5.3760     4.3060 H     1 <1>   0.4500 
@<TRIPOS>BOND
  1   1   2  2   
  2   2   3  1   
  3   2   4  am  
  4   3   5  1   
  5   4   6  1   
  6   4  24  1   
  7   5   7  1   
  8   5   8  1   
  9   5   9  1   
 10   6  10  1   
 11   6  11  1   
 12   6  25  1   
 13   7  26  1   
 14   7  27  1   
 15   7  28  1   
 16   8  29  1   
 17   8  30  1   
 18   8  31  1   
 19   9  32  1   
 20   9  33  1   
 21   9  34  1   
 22  10  12  ar  
 23  10  13  ar  
 24  11  14  1   
 25  11  35  1   
 26  11  36  1   
 27  14  15  1   
 28  14  16  2   
 29  15  17  ar  
 30  15  18  ar  
 31  16  19  1   
 32  16  37  1   
 33  17  19  1   
 34  17  20  ar  
 35  18  21  ar  
 36  18  38  1   
 37  19  39  1   
 38  20  22  ar  
 39  20  40  1   
 40  21  22  ar  
 41  21  23  1   
 42  22  41  1   
 43  23  42  1   
@<TRIPOS>SUBSTRUCTURE
  1 ****  11 GROUP 4 **** **** 0

# MOE 2024.06 (io_trps.svl 2023.06)
