@<TRIPOS>MOLECULE
NONAME
47 49 1 0 0 
SMALL
USER_CHARGES


@<TRIPOS>ATOM
  1 S        0.3920    -0.5750     0.6090 S.o2  1 <1>   1.4470 
  2 O        0.2010    -1.1390     1.9240 O.2   1 <1>  -0.6500 
  3 O        1.6930    -0.5460    -0.0150 O.2   1 <1>  -0.6500 
  4 N       -0.5510    -1.5040    -0.4870 N.am  1 <1>  -0.7570 
  5 C       -0.3950     1.0550     0.4820 C.ar  1 <1>  -0.0090 
  6 C       -1.9240    -1.6380    -0.4360 C.ar  1 <1>   0.1990 
  7 C        0.0860     2.0240    -0.3920 C.ar  1 <1>  -0.1500 
  8 C       -1.5240     1.3630     1.2350 C.ar  1 <1>  -0.1500 
  9 C       -2.5820    -2.0220     0.7270 C.ar  1 <1>  -0.1500 
 10 C       -2.6870    -1.3740    -1.5680 C.ar  1 <1>  -0.1500 
 11 C       -0.5350     3.2560    -0.5110 C.ar  1 <1>  -0.1500 
 12 C       -2.1520     2.5920     1.1210 C.ar  1 <1>  -0.1500 
 13 C       -3.9610    -2.1010     0.7660 C.ar  1 <1>  -0.1500 
 14 C       -4.0650    -1.4550    -1.5260 C.ar  1 <1>  -0.1500 
 15 C       -1.6570     3.5400     0.2460 C.ar  1 <1>  -0.1500 
 16 C       -4.7380    -1.8010    -0.3530 C.ar  1 <1>   0.0860 
 17 C       -6.1830    -1.8500    -0.2920 C.2   1 <1>   0.5440 
 18 O       -6.7240    -2.8910     0.0350 O.2   1 <1>  -0.5700 
 19 N       -6.9620    -0.7460    -0.5820 N.am  1 <1>  -0.6600 
 20 C       -8.4480    -0.8340    -0.6570 C.3   1 <1>   0.1400 
 21 C       -6.4330     0.6450    -0.6610 C.3   1 <1>   0.1400 
 22 C       -9.0710     0.0020     0.4640 C.3   1 <1>  -0.1600 
 23 C       -7.0430     1.4940     0.4580 C.3   1 <1>  -0.1600 
 24 C       -8.5790     1.4570     0.4270 C.3   1 <1>  -0.0800 
 25 C       -9.1630     2.2560     1.5970 C.3   1 <1>  -0.2400 
 26 H       -0.1000    -1.4950    -1.3950 H     1 <1>   0.4200 
 27 H        0.9600     1.8160    -0.9860 H     1 <1>   0.1500 
 28 H       -1.9170     0.6310     1.9210 H     1 <1>   0.1500 
 29 H       -2.0120    -2.2680     1.6050 H     1 <1>   0.1500 
 30 H       -2.1980    -1.0980    -2.4840 H     1 <1>   0.1500 
 31 H       -0.1440     3.9930    -1.1920 H     1 <1>   0.1500 
 32 H       -3.0230     2.8090     1.7150 H     1 <1>   0.1500 
 33 H       -4.4590    -2.4020     1.6720 H     1 <1>   0.1500 
 34 H       -4.6440    -1.2470    -2.4090 H     1 <1>   0.1500 
 35 H       -2.1400     4.4980     0.1560 H     1 <1>   0.1500 
 36 H       -8.7760    -1.8560    -0.5720 H     1 <1>   0.0800 
 37 H       -8.7710    -0.4630    -1.6140 H     1 <1>   0.0800 
 38 H       -6.6910     1.0630    -1.6190 H     1 <1>   0.0800 
 39 H       -5.3620     0.6620    -0.5670 H     1 <1>   0.0800 
 40 H       -8.8170    -0.4510     1.4070 H     1 <1>   0.0800 
 41 H      -10.1420    -0.0240     0.3660 H     1 <1>   0.0800 
 42 H       -6.7030     2.5090     0.3550 H     1 <1>   0.0800 
 43 H       -6.6870     1.1220     1.4040 H     1 <1>   0.0800 
 44 H       -8.9140     1.9080    -0.4940 H     1 <1>   0.0800 
 45 H       -8.8510     1.8340     2.5370 H     1 <1>   0.0800 
 46 H      -10.2380     2.2440     1.5570 H     1 <1>   0.0800 
 47 H       -8.8330     3.2790     1.5540 H     1 <1>   0.0800 
@<TRIPOS>BOND
  1   1   2  2   
  2   1   3  2   
  3   1   4  am  
  4   1   5  1   
  5   4   6  1   
  6   4  26  1   
  7   5   7  ar  
  8   5   8  ar  
  9   6   9  ar  
 10   6  10  ar  
 11   7  11  ar  
 12   7  27  1   
 13   8  12  ar  
 14   8  28  1   
 15   9  13  ar  
 16   9  29  1   
 17  10  14  ar  
 18  10  30  1   
 19  11  15  ar  
 20  11  31  1   
 21  12  15  ar  
 22  12  32  1   
 23  13  16  ar  
 24  13  33  1   
 25  14  16  ar  
 26  14  34  1   
 27  15  35  1   
 28  16  17  1   
 29  17  18  2   
 30  17  19  am  
 31  19  20  1   
 32  19  21  1   
 33  20  22  1   
 34  20  36  1   
 35  20  37  1   
 36  21  23  1   
 37  21  38  1   
 38  21  39  1   
 39  22  24  1   
 40  22  40  1   
 41  22  41  1   
 42  23  24  1   
 43  23  42  1   
 44  23  43  1   
 45  24  25  1   
 46  24  44  1   
 47  25  45  1   
 48  25  46  1   
 49  25  47  1   
@<TRIPOS>SUBSTRUCTURE
  1 ****  16 GROUP 4 **** **** 0

# MOE 2024.06 (io_trps.svl 2023.06)
