@<TRIPOS>MOLECULE
NONAME
40 41 1 0 0 
SMALL
USER_CHARGES


@<TRIPOS>ATOM
  1 S       -0.2040    -0.6840     1.2820 S.o2  1 <1>   1.4470 
  2 O       -0.0270     0.7260     1.5520 O.2   1 <1>  -0.6500 
  3 O       -0.5620    -1.5590     2.3800 O.2   1 <1>  -0.6500 
  4 N       -1.4330    -0.8500     0.1230 N.am  1 <1>  -0.8490 
  5 C        1.2890    -1.3310     0.4550 C.ar  1 <1>  -0.0090 
  6 C       -1.7080    -2.2620    -0.1630 C.3   1 <1>   0.1960 
  7 C       -2.6360    -0.1020     0.5090 C.3   1 <1>   0.1960 
  8 C        1.8180    -0.7820    -0.7160 C.ar  1 <1>  -0.1440 
  9 C        1.9340    -2.4330     1.0040 C.ar  1 <1>  -0.1500 
 10 C       -2.6100    -2.4710    -1.3850 C.3   1 <1>  -0.1600 
 11 C       -3.4210     0.3180    -0.7370 C.3   1 <1>  -0.1600 
 12 C        2.9450    -1.3420    -1.2950 C.ar  1 <1>  -0.1500 
 13 C        1.1890     0.4310    -1.3940 C.3   1 <1>  -0.0970 
 14 C        3.0740    -3.0110     0.4470 C.ar  1 <1>   0.0860 
 15 C       -4.0890    -2.1740    -1.1010 C.3   1 <1>  -0.1600 
 16 C       -4.4700    -0.6930    -1.2290 C.3   1 <1>  -0.1600 
 17 C        3.5600    -2.4380    -0.7240 C.ar  1 <1>  -0.1500 
 18 C        3.7320    -4.1610     1.0470 C.2   1 <1>   0.5440 
 19 O        4.4540    -4.8880     0.4020 O.2   1 <1>  -0.5700 
 20 N        3.5870    -4.4760     2.3550 N.am  1 <1>  -0.8000 
 21 H       -2.1440    -2.7370     0.7020 H     1 <1>   0.0800 
 22 H       -0.7770    -2.7620    -0.3680 H     1 <1>   0.0800 
 23 H       -2.3500     0.8060     1.0130 H     1 <1>   0.0800 
 24 H       -3.2460    -0.6700     1.1920 H     1 <1>   0.0800 
 25 H        1.5290    -2.8670     1.9010 H     1 <1>   0.1500 
 26 H       -2.5360    -3.5100    -1.6560 H     1 <1>   0.0800 
 27 H       -2.2490    -1.8990    -2.2210 H     1 <1>   0.0800 
 28 H       -2.7240     0.5360    -1.5280 H     1 <1>   0.0800 
 29 H       -3.9350     1.2370    -0.5170 H     1 <1>   0.0800 
 30 H        3.3560    -0.9280    -2.2000 H     1 <1>   0.1500 
 31 H        1.1400     1.2600    -0.7110 H     1 <1>   0.0800 
 32 H        0.1960     0.1990    -1.7340 H     1 <1>   0.0800 
 33 H        1.7670     0.7420    -2.2450 H     1 <1>   0.0800 
 34 H       -4.3400    -2.5250    -0.1140 H     1 <1>   0.0800 
 35 H       -4.6970    -2.7320    -1.7930 H     1 <1>   0.0800 
 36 H       -4.6780    -0.4760    -2.2630 H     1 <1>   0.0800 
 37 H       -5.3870    -0.5370    -0.6860 H     1 <1>   0.0800 
 38 H        4.4340    -2.8620    -1.1890 H     1 <1>   0.1500 
 39 H        4.1010    -5.2790     2.7190 H     1 <1>   0.3700 
 40 H        3.1060    -3.8930     3.0370 H     1 <1>   0.3700 
@<TRIPOS>BOND
  1   1   2  2   
  2   1   3  2   
  3   1   4  am  
  4   1   5  1   
  5   4   6  1   
  6   4   7  1   
  7   5   8  ar  
  8   5   9  ar  
  9   6  10  1   
 10   6  21  1   
 11   6  22  1   
 12   7  11  1   
 13   7  23  1   
 14   7  24  1   
 15   8  12  ar  
 16   8  13  1   
 17   9  14  ar  
 18   9  25  1   
 19  10  15  1   
 20  10  26  1   
 21  10  27  1   
 22  11  16  1   
 23  11  28  1   
 24  11  29  1   
 25  12  17  ar  
 26  12  30  1   
 27  13  31  1   
 28  13  32  1   
 29  13  33  1   
 30  14  17  ar  
 31  14  18  1   
 32  15  16  1   
 33  15  34  1   
 34  15  35  1   
 35  16  36  1   
 36  16  37  1   
 37  17  38  1   
 38  18  19  2   
 39  18  20  am  
 40  20  39  1   
 41  20  40  1   
@<TRIPOS>SUBSTRUCTURE
  1 ****   5 GROUP 4 **** **** 0

# MOE 2024.06 (io_trps.svl 2023.06)
