@<TRIPOS>MOLECULE
NONAME
43 44 1 0 0 
SMALL
USER_CHARGES


@<TRIPOS>ATOM
  1 O        0.6130    -1.3830     0.5550 O.2   1 <1>  -0.5700 
  2 C        0.1840    -2.2200    -0.2180 C.2   1 <1>   0.5440 
  3 N        1.1090    -2.8470    -1.0220 N.am  1 <1>  -0.6600 
  4 C       -1.2230    -2.5840    -0.2320 C.ar  1 <1>   0.0860 
  5 C        2.3330    -2.0950    -1.4220 C.3   1 <1>   0.1400 
  6 C        1.3530    -4.3030    -0.8270 C.3   1 <1>   0.1400 
  7 C       -2.0440    -2.3350     0.8700 C.ar  1 <1>  -0.1500 
  8 C       -1.8150    -3.1970    -1.3390 C.ar  1 <1>  -0.1500 
  9 C        3.4300    -2.2820    -0.3580 C.3   1 <1>   0.3430 
 10 C        2.4680    -4.5120     0.2220 C.3   1 <1>   0.3430 
 11 C       -3.3800    -2.6910     0.8810 C.ar  1 <1>  -0.1500 
 12 C       -3.1490    -3.5580    -1.3370 C.ar  1 <1>  -0.1500 
 13 N        3.7240    -3.7380    -0.1000 N.4   1 <1>  -0.9590 
 14 C       -3.9430    -3.3120    -0.2300 C.ar  1 <1>   0.0830 
 15 C        4.7470    -3.8830     0.9570 C.3   1 <1>   0.4810 
 16 O       -5.2370    -3.6960    -0.3060 O.3   1 <1>  -0.3630 
 17 C        5.3030    -5.2840     0.8500 C.2   1 <1>  -0.2880 
 18 C       -6.1480    -3.4560     0.7410 C.3   1 <1>   0.1200 
 19 C        6.4900    -5.6030     0.3250 C.2   1 <1>  -0.3000 
 20 C       -7.5100    -3.9950     0.3150 C.3   1 <1>  -0.2400 
 21 H        2.0990    -1.0470    -1.5130 H     1 <1>   0.0800 
 22 H        2.6770    -2.4400    -2.3820 H     1 <1>   0.0800 
 23 H        1.6350    -4.7520    -1.7640 H     1 <1>   0.0800 
 24 H        0.4520    -4.7870    -0.4880 H     1 <1>   0.0800 
 25 H       -1.6220    -1.8490     1.7340 H     1 <1>   0.1500 
 26 H       -1.2260    -3.3880    -2.2190 H     1 <1>   0.1500 
 27 H        3.0900    -1.8120     0.5520 H     1 <1>   0.0800 
 28 H        4.3250    -1.7740    -0.6790 H     1 <1>   0.0800 
 29 H        2.6920    -5.5640     0.2900 H     1 <1>   0.0800 
 30 H        2.0880    -4.1930     1.1790 H     1 <1>   0.0800 
 31 H       -3.9660    -2.4770     1.7550 H     1 <1>   0.1500 
 32 H       -3.5920    -4.0300    -2.1960 H     1 <1>   0.1500 
 33 H        4.1390    -4.1440    -0.9490 H     1 <1>   0.4500 
 34 H        4.3270    -3.7050     1.9350 H     1 <1>   0.0800 
 35 H        5.5450    -3.1760     0.7900 H     1 <1>   0.0800 
 36 H        4.6430    -6.0330     1.2550 H     1 <1>   0.1500 
 37 H       -6.1960    -2.3950     0.9150 H     1 <1>   0.0800 
 38 H       -5.7960    -3.9640     1.6230 H     1 <1>   0.0800 
 39 H        6.8680    -6.6120     0.2660 H     1 <1>   0.1500 
 40 H        7.1970    -4.9010    -0.0870 H     1 <1>   0.1500 
 41 H       -7.8430    -3.4930    -0.5750 H     1 <1>   0.0800 
 42 H       -8.2300    -3.8270     1.0950 H     1 <1>   0.0800 
 43 H       -7.4460    -5.0530     0.1280 H     1 <1>   0.0800 
@<TRIPOS>BOND
  1   1   2  2   
  2   2   3  am  
  3   2   4  1   
  4   3   5  1   
  5   3   6  1   
  6   4   7  ar  
  7   4   8  ar  
  8   5   9  1   
  9   5  21  1   
 10   5  22  1   
 11   6  10  1   
 12   6  23  1   
 13   6  24  1   
 14   7  11  ar  
 15   7  25  1   
 16   8  12  ar  
 17   8  26  1   
 18   9  13  1   
 19   9  27  1   
 20   9  28  1   
 21  10  13  1   
 22  10  29  1   
 23  10  30  1   
 24  11  14  ar  
 25  11  31  1   
 26  12  14  ar  
 27  12  32  1   
 28  13  15  1   
 29  13  33  1   
 30  14  16  1   
 31  15  17  1   
 32  15  34  1   
 33  15  35  1   
 34  16  18  1   
 35  17  19  2   
 36  17  36  1   
 37  18  20  1   
 38  18  37  1   
 39  18  38  1   
 40  19  39  1   
 41  19  40  1   
 42  20  41  1   
 43  20  42  1   
 44  20  43  1   
@<TRIPOS>SUBSTRUCTURE
  1 ****   2 GROUP 4 **** **** 0

# MOE 2024.06 (io_trps.svl 2023.06)
