@<TRIPOS>MOLECULE
NONAME
45 47 1 0 0 
SMALL
USER_CHARGES


@<TRIPOS>ATOM
  1 CL      -0.3360    -2.2470     2.7540 Cl    1 <1>  -0.1770 
  2 C       -1.3290    -1.8520     1.3620 C.ar  1 <1>   0.1770 
  3 C       -0.9750    -2.2990     0.0810 C.ar  1 <1>   0.1000 
  4 C       -2.4610    -1.0910     1.5800 C.ar  1 <1>  -0.1500 
  5 N        0.1570    -3.0710    -0.2070 N.pl3 1 <1>  -0.8380 
  6 C       -1.8100    -1.9470    -0.9720 C.ar  1 <1>  -0.1500 
  7 C       -3.2760    -0.7550     0.5120 C.ar  1 <1>  -0.1500 
  8 C        0.1380    -4.4780     0.2980 C.3   1 <1>   0.2090 
  9 C        1.4750    -2.3780    -0.0710 C.3   1 <1>   0.2090 
 10 C       -2.9470    -1.1850    -0.7630 C.ar  1 <1>  -0.1500 
 11 C        1.2910    -5.3020    -0.3140 C.3   1 <1>   0.3430 
 12 C        2.6130    -3.2260    -0.6760 C.3   1 <1>   0.3430 
 13 N        2.6300    -4.6360    -0.1340 N.4   1 <1>  -0.9590 
 14 C        3.7390    -5.4380    -0.7150 C.3   1 <1>   0.4860 
 15 C        5.0520    -4.7880    -0.3250 C.ar  1 <1>  -0.1430 
 16 C        5.4370    -4.7510     1.0080 C.ar  1 <1>  -0.1500 
 17 C        5.8740    -4.2140    -1.2870 C.ar  1 <1>  -0.1500 
 18 C        6.6170    -4.1310     1.3660 C.ar  1 <1>   0.0830 
 19 C        7.0630    -3.6000    -0.9240 C.ar  1 <1>  -0.1500 
 20 O        6.9620    -4.0880     2.6620 O.3   1 <1>  -0.5330 
 21 C        7.4460    -3.5500     0.4120 C.ar  1 <1>   0.0830 
 22 O        8.5950    -2.9640     0.8540 O.3   1 <1>  -0.3630 
 23 C        9.5400    -2.4350    -0.0520 C.3   1 <1>   0.0400 
 24 H       -2.7040    -0.7650     2.5750 H     1 <1>   0.1500 
 25 H       -1.5620    -2.2760    -1.9650 H     1 <1>   0.1500 
 26 H       -4.1610    -0.1630     0.6710 H     1 <1>   0.1500 
 27 H       -0.8030    -4.9320     0.0380 H     1 <1>   0.0800 
 28 H        0.2210    -4.4850     1.3700 H     1 <1>   0.0800 
 29 H        1.6860    -2.1850     0.9660 H     1 <1>   0.0800 
 30 H        1.4290    -1.4290    -0.5790 H     1 <1>   0.0800 
 31 H       -3.5800    -0.9240    -1.5950 H     1 <1>   0.1500 
 32 H        1.0880    -5.4270    -1.3640 H     1 <1>   0.0800 
 33 H        1.3000    -6.2790     0.1420 H     1 <1>   0.0800 
 34 H        3.5530    -2.7400    -0.4710 H     1 <1>   0.0800 
 35 H        2.4790    -3.2510    -1.7450 H     1 <1>   0.0800 
 36 H        2.8180    -4.5540     0.8740 H     1 <1>   0.4500 
 37 H        3.6500    -5.4780    -1.7880 H     1 <1>   0.0800 
 38 H        3.7140    -6.4440    -0.3290 H     1 <1>   0.0800 
 39 H        4.8450    -5.1970     1.7880 H     1 <1>   0.1500 
 40 H        5.6030    -4.2380    -2.3290 H     1 <1>   0.1500 
 41 H        7.6770    -3.1680    -1.6930 H     1 <1>   0.1500 
 42 H        7.8260    -3.6350     2.7560 H     1 <1>   0.4500 
 43 H        9.0850    -1.6320    -0.6040 H     1 <1>   0.0800 
 44 H        9.8710    -3.2190    -0.7100 H     1 <1>   0.0800 
 45 H       10.3730    -2.0600     0.5150 H     1 <1>   0.0800 
@<TRIPOS>BOND
  1   1   2  1   
  2   2   3  ar  
  3   2   4  ar  
  4   3   5  1   
  5   3   6  ar  
  6   4   7  ar  
  7   4  24  1   
  8   5   8  1   
  9   5   9  1   
 10   6  10  ar  
 11   6  25  1   
 12   7  10  ar  
 13   7  26  1   
 14   8  11  1   
 15   8  27  1   
 16   8  28  1   
 17   9  12  1   
 18   9  29  1   
 19   9  30  1   
 20  10  31  1   
 21  11  13  1   
 22  11  32  1   
 23  11  33  1   
 24  12  13  1   
 25  12  34  1   
 26  12  35  1   
 27  13  14  1   
 28  13  36  1   
 29  14  15  1   
 30  14  37  1   
 31  14  38  1   
 32  15  16  ar  
 33  15  17  ar  
 34  16  18  ar  
 35  16  39  1   
 36  17  19  ar  
 37  17  40  1   
 38  18  20  1   
 39  18  21  ar  
 40  19  21  ar  
 41  19  41  1   
 42  20  42  1   
 43  21  22  1   
 44  22  23  1   
 45  23  43  1   
 46  23  44  1   
 47  23  45  1   
@<TRIPOS>SUBSTRUCTURE
  1 ****  12 GROUP 4 **** **** 0

# MOE 2024.06 (io_trps.svl 2023.06)
