@<TRIPOS>MOLECULE
NONAME
33 34 1 0 0 
SMALL
USER_CHARGES


@<TRIPOS>ATOM
  1 CL       0.2280     0.5120     1.9160 Cl    1 <1>  -0.1770 
  2 C        1.3480     1.5520     1.0700 C.ar  1 <1>   0.1770 
  3 C        1.1190     2.9150     1.0010 C.ar  1 <1>   0.1600 
  4 C        2.4610     1.0070     0.4660 C.ar  1 <1>  -0.1500 
  5 N        1.9170     3.7770     0.3830 N.ar  1 <1>  -0.6200 
  6 C        3.2950     1.8940    -0.1790 C.ar  1 <1>  -0.1500 
  7 C        2.9970     3.2590    -0.1870 C.ar  1 <1>   0.4270 
  8 N        3.8010     4.1800    -0.8150 N.am  1 <1>  -0.5470 
  9 C        5.1380     4.2340    -1.0090 C.2   1 <1>   0.6900 
 10 O        5.5710     5.0330    -1.8110 O.2   1 <1>  -0.5700 
 11 N        5.9660     3.4390    -0.2900 N.am  1 <1>  -0.7300 
 12 C        7.4320     3.4280    -0.3890 C.3   1 <1>   0.2200 
 13 C        7.9030     1.9800    -0.5610 C.3   1 <1>  -0.1600 
 14 C        8.0190     4.0570     0.8790 C.3   1 <1>  -0.1600 
 15 C        9.4360     1.8920    -0.5620 C.3   1 <1>  -0.1600 
 16 C        9.5530     3.9720     0.8810 C.3   1 <1>  -0.1600 
 17 C       10.0290     2.5240     0.7050 C.3   1 <1>  -0.1600 
 18 H        0.2380     3.3090     1.4770 H     1 <1>   0.1500 
 19 H        2.6520    -0.0510     0.5000 H     1 <1>   0.1500 
 20 H        4.1700     1.5360    -0.6900 H     1 <1>   0.1500 
 21 H        3.3170     5.0140    -1.1330 H     1 <1>   0.3700 
 22 H        5.5800     2.9650     0.5220 H     1 <1>   0.3700 
 23 H        7.7450     4.0030    -1.2460 H     1 <1>   0.0800 
 24 H        7.5250     1.5930    -1.4910 H     1 <1>   0.0800 
 25 H        7.5190     1.3770     0.2430 H     1 <1>   0.0800 
 26 H        7.6400     3.5460     1.7460 H     1 <1>   0.0800 
 27 H        7.7210     5.0900     0.9310 H     1 <1>   0.0800 
 28 H        9.8210     2.4030    -1.4280 H     1 <1>   0.0800 
 29 H        9.7390     0.8610    -0.6270 H     1 <1>   0.0800 
 30 H        9.9350     4.3690     1.8060 H     1 <1>   0.0800 
 31 H        9.9430     4.5750     0.0790 H     1 <1>   0.0800 
 32 H       11.1040     2.5030     0.6480 H     1 <1>   0.0800 
 33 H        9.7350     1.9450     1.5640 H     1 <1>   0.0800 
@<TRIPOS>BOND
  1   1   2  1   
  2   2   3  ar  
  3   2   4  ar  
  4   3   5  ar  
  5   3  18  1   
  6   4   6  ar  
  7   4  19  1   
  8   5   7  ar  
  9   6   7  ar  
 10   6  20  1   
 11   7   8  1   
 12   8   9  am  
 13   8  21  1   
 14   9  10  2   
 15   9  11  am  
 16  11  12  1   
 17  11  22  1   
 18  12  13  1   
 19  12  14  1   
 20  12  23  1   
 21  13  15  1   
 22  13  24  1   
 23  13  25  1   
 24  14  16  1   
 25  14  26  1   
 26  14  27  1   
 27  15  17  1   
 28  15  28  1   
 29  15  29  1   
 30  16  17  1   
 31  16  30  1   
 32  16  31  1   
 33  17  32  1   
 34  17  33  1   
@<TRIPOS>SUBSTRUCTURE
  1 ****  11 GROUP 4 **** **** 0

# MOE 2024.06 (io_trps.svl 2023.06)
