@<TRIPOS>MOLECULE
NONAME
46 47 1 0 0 
SMALL
USER_CHARGES


@<TRIPOS>ATOM
  1 CL       2.6830    -0.5500     3.0300 Cl    1 <1>  -0.1770 
  2 C        3.2970    -0.1300     1.4450 C.ar  1 <1>   0.1770 
  3 C        3.2270     1.1780     0.9900 C.ar  1 <1>   0.0830 
  4 C        3.8400    -1.1370     0.6670 C.ar  1 <1>  -0.1500 
  5 O        2.6730     2.1340     1.7810 O.3   1 <1>  -0.3630 
  6 C        3.7410     1.4710    -0.2770 C.ar  1 <1>   0.0830 
  7 C        4.3330    -0.8490    -0.6000 C.ar  1 <1>  -0.1440 
  8 C        1.4250     2.6400     1.3640 C.3   1 <1>   0.0400 
  9 O        3.7410     2.7230    -0.7900 O.3   1 <1>  -0.3630 
 10 C        4.2760     0.4610    -1.0610 C.ar  1 <1>  -0.1500 
 11 C        4.9410    -1.9450    -1.4720 C.3   1 <1>   0.5020 
 12 C        4.6070     3.6480    -0.1750 C.3   1 <1>   0.1200 
 13 N        3.8970    -2.9640    -1.6920 N.am  1 <1>  -0.7300 
 14 C        6.2000    -2.5180    -0.8170 C.2   1 <1>  -0.1240 
 15 C        4.5440     4.9520    -0.9650 C.3   1 <1>  -0.2400 
 16 C        3.9420    -4.1980    -1.1660 C.2   1 <1>   0.6900 
 17 C        6.2010    -3.8120    -0.3880 C.2   1 <1>  -0.0290 
 18 C        7.2430    -1.5420    -0.7380 C.2   1 <1>   0.7060 
 19 O        2.9870    -4.9360    -1.2360 O.2   1 <1>  -0.5700 
 20 N        5.0760    -4.5960    -0.5390 N.am  1 <1>  -0.5390 
 21 C        7.3650    -4.5450     0.2610 C.3   1 <1>  -0.1020 
 22 O        7.3360    -0.6110    -1.5160 O.2   1 <1>  -0.5700 
 23 O        8.1440    -1.6400     0.2430 O.3   1 <1>  -0.4300 
 24 C        9.1720    -0.6870     0.4020 C.3   1 <1>   0.1200 
 25 C       10.0110    -1.0970     1.6080 C.3   1 <1>  -0.2400 
 26 H        3.8720    -2.1400     1.0570 H     1 <1>   0.1500 
 27 H        1.0850     3.3450     2.1000 H     1 <1>   0.0800 
 28 H        0.7280     1.8240     1.2860 H     1 <1>   0.0800 
 29 H        1.5380     3.1290     0.4130 H     1 <1>   0.0800 
 30 H        4.6590     0.7180    -2.0330 H     1 <1>   0.1500 
 31 H        5.2030    -1.5390    -2.4350 H     1 <1>   0.0800 
 32 H        5.6030     3.2400    -0.1870 H     1 <1>   0.0800 
 33 H        4.2900     3.8020     0.8410 H     1 <1>   0.0800 
 34 H        2.9940    -2.6350    -2.0230 H     1 <1>   0.3700 
 35 H        4.8570     4.7850    -1.9800 H     1 <1>   0.0800 
 36 H        5.1970     5.6790    -0.5180 H     1 <1>   0.0800 
 37 H        3.5410     5.3400    -0.9560 H     1 <1>   0.0800 
 38 H        5.0360    -5.5550    -0.1950 H     1 <1>   0.3700 
 39 H        7.4300    -5.5490    -0.1200 H     1 <1>   0.0800 
 40 H        7.2210    -4.5880     1.3260 H     1 <1>   0.0800 
 41 H        8.3050    -4.0690     0.0580 H     1 <1>   0.0800 
 42 H        8.7210     0.2790     0.5550 H     1 <1>   0.0800 
 43 H        9.7670    -0.6710    -0.4960 H     1 <1>   0.0800 
 44 H        9.4010    -1.1190     2.4930 H     1 <1>   0.0800 
 45 H       10.8030    -0.3850     1.7560 H     1 <1>   0.0800 
 46 H       10.4480    -2.0660     1.4450 H     1 <1>   0.0800 
@<TRIPOS>BOND
  1   1   2  1   
  2   2   3  ar  
  3   2   4  ar  
  4   3   5  1   
  5   3   6  ar  
  6   4   7  ar  
  7   4  26  1   
  8   5   8  1   
  9   6   9  1   
 10   6  10  ar  
 11   7  10  ar  
 12   7  11  1   
 13   8  27  1   
 14   8  28  1   
 15   8  29  1   
 16   9  12  1   
 17  10  30  1   
 18  11  13  1   
 19  11  14  1   
 20  11  31  1   
 21  12  15  1   
 22  12  32  1   
 23  12  33  1   
 24  13  16  am  
 25  13  34  1   
 26  14  17  2   
 27  14  18  1   
 28  15  35  1   
 29  15  36  1   
 30  15  37  1   
 31  16  19  2   
 32  16  20  am  
 33  17  20  1   
 34  17  21  1   
 35  18  22  2   
 36  18  23  1   
 37  20  38  1   
 38  21  39  1   
 39  21  40  1   
 40  21  41  1   
 41  23  24  1   
 42  24  25  1   
 43  24  42  1   
 44  24  43  1   
 45  25  44  1   
 46  25  45  1   
 47  25  46  1   
@<TRIPOS>SUBSTRUCTURE
  1 ****   7 GROUP 4 **** **** 0

# MOE 2024.06 (io_trps.svl 2023.06)
