@<TRIPOS>MOLECULE
NONAME
35 36 1 0 0 
SMALL
USER_CHARGES


@<TRIPOS>ATOM
  1 S       -0.1170     0.0070    -1.5390 S.o2  1 <1>   1.3330 
  2 O        0.5240    -1.2830    -1.5630 O.2   1 <1>  -0.6500 
  3 O       -1.0220     0.3990    -2.5890 O.2   1 <1>  -0.6500 
  4 N        1.1100     1.1960    -1.6040 N.am  1 <1>  -0.7040 
  5 C       -0.9030     0.3070     0.0470 C.3   1 <1>  -0.0550 
  6 C        2.3340     1.1500    -1.0300 C.2   1 <1>   0.5240 
  7 C       -2.1060    -0.6110     0.3200 C.3   1 <1>  -0.1600 
  8 S        2.6420     0.0860     0.3490 S.3   1 <1>  -0.0800 
  9 N        3.3370     1.8570    -1.3870 N.2   1 <1>  -0.5650 
 10 C       -2.7350    -0.3150     1.6860 C.3   1 <1>  -0.1600 
 11 C        4.2900     0.6650     0.4110 C.ar  1 <1>   0.0400 
 12 C        4.4480     1.5980    -0.5970 C.ar  1 <1>   0.2270 
 13 C       -3.9300    -1.2350     1.9490 C.3   1 <1>  -0.2400 
 14 C        5.2970     0.2990     1.2810 C.ar  1 <1>  -0.1500 
 15 C        5.6910     2.1990    -0.7370 C.ar  1 <1>  -0.1500 
 16 C        6.5330     0.9060     1.1320 C.ar  1 <1>   0.0820 
 17 C        6.7260     1.8560     0.1200 C.ar  1 <1>  -0.1500 
 18 O        7.5020     0.5280     2.0020 O.3   1 <1>  -0.3630 
 19 C        8.7990     1.0770     1.9400 C.3   1 <1>   0.0400 
 20 H        1.0450     1.7350    -2.4590 H     1 <1>   0.4200 
 21 H       -1.2340     1.3270     0.0840 H     1 <1>   0.0800 
 22 H       -0.1850     0.1680     0.8310 H     1 <1>   0.0800 
 23 H       -1.7810    -1.6380     0.2860 H     1 <1>   0.0800 
 24 H       -2.8410    -0.4710    -0.4560 H     1 <1>   0.0800 
 25 H       -3.0650     0.7100     1.7210 H     1 <1>   0.0800 
 26 H       -2.0030    -0.4580     2.4640 H     1 <1>   0.0800 
 27 H       -4.6870    -1.0940     1.1970 H     1 <1>   0.0800 
 28 H       -4.3600    -1.0150     2.9100 H     1 <1>   0.0800 
 29 H       -3.6210    -2.2660     1.9410 H     1 <1>   0.0800 
 30 H        5.1330    -0.4320     2.0510 H     1 <1>   0.1500 
 31 H        5.8310     2.9260    -1.5160 H     1 <1>   0.1500 
 32 H        7.6770     2.3370    -0.0110 H     1 <1>   0.1500 
 33 H        9.3890     0.6290     2.7200 H     1 <1>   0.0800 
 34 H        8.7370     2.1400     2.0950 H     1 <1>   0.0800 
 35 H        9.2300     0.8500     0.9810 H     1 <1>   0.0800 
@<TRIPOS>BOND
  1   1   2  2   
  2   1   3  2   
  3   1   4  am  
  4   1   5  1   
  5   4   6  1   
  6   4  20  1   
  7   5   7  1   
  8   5  21  1   
  9   5  22  1   
 10   6   8  1   
 11   6   9  2   
 12   7  10  1   
 13   7  23  1   
 14   7  24  1   
 15   8  11  1   
 16   9  12  1   
 17  10  13  1   
 18  10  25  1   
 19  10  26  1   
 20  11  12  ar  
 21  11  14  ar  
 22  12  15  ar  
 23  13  27  1   
 24  13  28  1   
 25  13  29  1   
 26  14  16  ar  
 27  14  30  1   
 28  15  17  ar  
 29  15  31  1   
 30  16  17  ar  
 31  16  18  1   
 32  17  32  1   
 33  18  19  1   
 34  19  33  1   
 35  19  34  1   
 36  19  35  1   
@<TRIPOS>SUBSTRUCTURE
  1 ****   8 GROUP 4 **** **** 0

# MOE 2024.06 (io_trps.svl 2023.06)
