@<TRIPOS>MOLECULE
NONAME
44 49 1 0 0 
SMALL
USER_CHARGES


@<TRIPOS>ATOM
  1 O       -0.1770     0.5390     0.5720 O.2   1 <1>  -0.5700 
  2 C        0.7020     1.3480     0.3900 C.2   1 <1>   0.5690 
  3 N        0.5530     2.5770    -0.2180 N.am  1 <1>  -0.4770 
  4 C        2.1080     1.1160     0.8960 C.3   1 <1>  -0.0190 
  5 C       -0.6280     3.3700    -0.2960 C.ar  1 <1>   0.1170 
  6 C        1.8930     3.2190    -0.3810 C.3   1 <1>   0.2200 
  7 C        2.8800     2.1400     0.0800 C.3   1 <1>   0.4180 
  8 C        2.8480    -0.1960     0.5160 C.3   1 <1>  -0.1860 
  9 C       -0.5430     4.7670    -0.2760 C.ar  1 <1>  -0.1440 
 10 C       -1.8980     2.8020    -0.3650 C.ar  1 <1>  -0.1500 
 11 C        1.8550     4.5330     0.4020 C.3   1 <1>  -0.0800 
 12 O        3.2490     1.3580    -1.0130 O.3   1 <1>  -0.5600 
 13 C        4.2530     2.3490     0.6790 C.2   1 <1>  -0.2880 
 14 C        3.4800    -0.9680     1.6440 C.2   1 <1>   0.9060 
 15 C        3.9560     0.3490    -0.3800 C.3   1 <1>   0.3380 
 16 C       -1.6850     5.5510    -0.2850 C.ar  1 <1>  -0.1500 
 17 C        0.8370     5.3970    -0.3010 C.3   1 <1>   0.3440 
 18 C       -3.0370     3.5870    -0.3810 C.ar  1 <1>  -0.1500 
 19 C        3.0310     5.4950     0.4520 C.3   1 <1>  -0.1600 
 20 C        4.9140     1.2300     0.4030 C.2   1 <1>  -0.2880 
 21 O        4.2040    -1.9220     1.3430 O.co2 1 <1>  -0.9000 
 22 O        3.2810    -0.6320     2.8160 O.co2 1 <1>  -0.9000 
 23 C       -2.9390     4.9670    -0.3350 C.ar  1 <1>  -0.1430 
 24 O        0.9710     6.6310     0.3190 O.3   1 <1>  -0.5600 
 25 C        2.3270     6.8540     0.5850 C.3   1 <1>   0.1200 
 26 C       -4.1880     5.8280    -0.3400 C.3   1 <1>  -0.0970 
 27 H        2.1530     1.3520     1.9430 H     1 <1>   0.0800 
 28 H        2.0720     3.4190    -1.4230 H     1 <1>   0.0800 
 29 H        2.2130    -0.8590    -0.0390 H     1 <1>   0.0800 
 30 H       -2.0050     1.7350    -0.4050 H     1 <1>   0.1500 
 31 H        1.5180     4.3400     1.4080 H     1 <1>   0.0800 
 32 H        4.5290     3.2220     1.2350 H     1 <1>   0.1500 
 33 H        4.3950    -0.3330    -1.0880 H     1 <1>   0.0800 
 34 H       -1.5900     6.6230    -0.2570 H     1 <1>   0.1500 
 35 H        1.1200     5.5380    -1.3320 H     1 <1>   0.0800 
 36 H       -4.0020     3.1140    -0.4250 H     1 <1>   0.1500 
 37 H        3.6010     5.4640    -0.4610 H     1 <1>   0.0800 
 38 H        3.6800     5.3140     1.2890 H     1 <1>   0.0800 
 39 H        5.8990     0.8760     0.6500 H     1 <1>   0.1500 
 40 H        2.7050     7.5720    -0.1220 H     1 <1>   0.0800 
 41 H        2.4050     7.2460     1.5850 H     1 <1>   0.0800 
 42 H       -3.9850     6.7810    -0.7940 H     1 <1>   0.0800 
 43 H       -4.5220     5.9880     0.6690 H     1 <1>   0.0800 
 44 H       -4.9730     5.3470    -0.8950 H     1 <1>   0.0800 
@<TRIPOS>BOND
  1   1   2  2   
  2   2   3  am  
  3   2   4  1   
  4   3   5  1   
  5   3   6  1   
  6   4   7  1   
  7   4   8  1   
  8   4  27  1   
  9   5   9  ar  
 10   5  10  ar  
 11   6   7  1   
 12   6  11  1   
 13   6  28  1   
 14   7  12  1   
 15   7  13  1   
 16   8  14  1   
 17   8  15  1   
 18   8  29  1   
 19   9  16  ar  
 20   9  17  1   
 21  10  18  ar  
 22  10  30  1   
 23  11  17  1   
 24  11  19  1   
 25  11  31  1   
 26  12  15  1   
 27  13  20  2   
 28  13  32  1   
 29  14  21  ar  
 30  14  22  ar  
 31  15  20  1   
 32  15  33  1   
 33  16  23  ar  
 34  16  34  1   
 35  17  24  1   
 36  17  35  1   
 37  18  23  ar  
 38  18  36  1   
 39  19  25  1   
 40  19  37  1   
 41  19  38  1   
 42  20  39  1   
 43  23  26  1   
 44  24  25  1   
 45  25  40  1   
 46  25  41  1   
 47  26  42  1   
 48  26  43  1   
 49  26  44  1   
@<TRIPOS>SUBSTRUCTURE
  1 ****   3 GROUP 4 **** **** 0

# MOE 2024.06 (io_trps.svl 2023.06)
