@<TRIPOS>MOLECULE
NONAME
44 45 1 0 0 
SMALL
USER_CHARGES


@<TRIPOS>ATOM
  1 O        0.4510     0.1330    -0.3470 O.3   1 <1>  -0.3630 
  2 C        1.5230     0.8940    -0.0210 C.ar  1 <1>   0.0830 
  3 C       -0.5070     0.5680    -1.2870 C.3   1 <1>   0.0400 
  4 C        1.8080     2.1250    -0.6040 C.ar  1 <1>  -0.1500 
  5 C        2.3680     0.3930     0.9540 C.ar  1 <1>  -0.1500 
  6 C        2.9300     2.8350    -0.2130 C.ar  1 <1>  -0.1500 
  7 C        3.4890     1.1010     1.3480 C.ar  1 <1>  -0.1500 
  8 C        3.7780     2.3250     0.7610 C.ar  1 <1>  -0.1430 
  9 C        5.0150     3.0880     1.1710 C.3   1 <1>   0.4860 
 10 N        6.1040     2.6050     0.2990 N.4   1 <1>  -0.9060 
 11 C        7.4270     3.1890     0.5740 C.3   1 <1>   0.4230 
 12 C        7.4530     4.6640     0.1540 C.3   1 <1>  -0.1600 
 13 C        8.4720     2.3850    -0.2030 C.3   1 <1>  -0.1600 
 14 C        8.8550     5.2630     0.3380 C.3   1 <1>  -0.1600 
 15 C        9.8780     2.9770    -0.0240 C.3   1 <1>  -0.1600 
 16 C        9.9260     4.4640    -0.4260 C.3   1 <1>  -0.0800 
 17 C       11.3110     5.0870    -0.1710 C.3   1 <1>  -0.1600 
 18 C       12.4250     4.4680    -1.0250 C.3   1 <1>  -0.2400 
 19 H       -1.2670    -0.1890    -1.3620 H     1 <1>   0.0800 
 20 H       -0.0280     0.6990    -2.2410 H     1 <1>   0.0800 
 21 H       -0.9430     1.4890    -0.9420 H     1 <1>   0.0800 
 22 H        1.1660     2.5400    -1.3590 H     1 <1>   0.1500 
 23 H        2.1340    -0.5570     1.4020 H     1 <1>   0.1500 
 24 H        3.1240     3.7880    -0.6770 H     1 <1>   0.1500 
 25 H        4.1190     0.6830     2.1140 H     1 <1>   0.1500 
 26 H        5.2420     2.8940     2.2070 H     1 <1>   0.0800 
 27 H        4.8570     4.1460     1.0380 H     1 <1>   0.0800 
 28 H        5.8400     2.7800    -0.6750 H     1 <1>   0.4500 
 29 H        6.1460     1.5850     0.3950 H     1 <1>   0.4500 
 30 H        7.6510     3.1160     1.6270 H     1 <1>   0.0800 
 31 H        6.7650     5.2380     0.7480 H     1 <1>   0.0800 
 32 H        7.1760     4.7570    -0.8820 H     1 <1>   0.0800 
 33 H        8.2340     2.3880    -1.2530 H     1 <1>   0.0800 
 34 H        8.4850     1.3660     0.1440 H     1 <1>   0.0800 
 35 H        9.1030     5.2820     1.3860 H     1 <1>   0.0800 
 36 H        8.8530     6.2820    -0.0120 H     1 <1>   0.0800 
 37 H       10.5650     2.4130    -0.6290 H     1 <1>   0.0800 
 38 H       10.1880     2.8730     1.0030 H     1 <1>   0.0800 
 39 H        9.7150     4.5410    -1.4810 H     1 <1>   0.0800 
 40 H       11.5720     4.9940     0.8700 H     1 <1>   0.0800 
 41 H       11.2670     6.1390    -0.3990 H     1 <1>   0.0800 
 42 H       12.6090     3.4460    -0.7460 H     1 <1>   0.0800 
 43 H       13.3390     5.0190    -0.8830 H     1 <1>   0.0800 
 44 H       12.1690     4.5060    -2.0690 H     1 <1>   0.0800 
@<TRIPOS>BOND
  1   1   2  1   
  2   1   3  1   
  3   2   4  ar  
  4   2   5  ar  
  5   3  19  1   
  6   3  20  1   
  7   3  21  1   
  8   4   6  ar  
  9   4  22  1   
 10   5   7  ar  
 11   5  23  1   
 12   6   8  ar  
 13   6  24  1   
 14   7   8  ar  
 15   7  25  1   
 16   8   9  1   
 17   9  10  1   
 18   9  26  1   
 19   9  27  1   
 20  10  11  1   
 21  10  28  1   
 22  10  29  1   
 23  11  12  1   
 24  11  13  1   
 25  11  30  1   
 26  12  14  1   
 27  12  31  1   
 28  12  32  1   
 29  13  15  1   
 30  13  33  1   
 31  13  34  1   
 32  14  16  1   
 33  14  35  1   
 34  14  36  1   
 35  15  16  1   
 36  15  37  1   
 37  15  38  1   
 38  16  17  1   
 39  16  39  1   
 40  17  18  1   
 41  17  40  1   
 42  17  41  1   
 43  18  42  1   
 44  18  43  1   
 45  18  44  1   
@<TRIPOS>SUBSTRUCTURE
  1 ****  10 GROUP 4 **** **** 0

# MOE 2024.06 (io_trps.svl 2023.06)
