@<TRIPOS>MOLECULE
NONAME
48 51 1 0 0 
SMALL
USER_CHARGES


@<TRIPOS>ATOM
  1 S       -0.7450     0.5210    -3.1070 S.3   1 <1>  -0.0800 
  2 C       -0.2240     1.2170    -1.5730 C.2   1 <1>   0.3250 
  3 C        0.7890     0.9060    -3.8180 C.2   1 <1>  -0.1100 
  4 N        0.9800     1.6770    -1.6360 N.2   1 <1>  -0.5650 
  5 C       -1.1300     1.2140    -0.4430 C.ar  1 <1>   0.0530 
  6 C        1.5470     1.5070    -2.8900 C.2   1 <1>   0.0460 
  7 C       -0.8370     1.9780     0.6890 C.ar  1 <1>  -0.1500 
  8 C       -2.3100     0.4660    -0.4110 C.ar  1 <1>  -0.1500 
  9 C        2.9740     2.0050    -3.0720 C.3   1 <1>   0.5240 
 10 C       -1.6720     1.9970     1.7900 C.ar  1 <1>  -0.1500 
 11 C       -3.1480     0.4830     0.6890 C.ar  1 <1>  -0.1500 
 12 N        3.7510     1.6160    -1.8650 N.4   1 <1>  -0.9590 
 13 C       -2.8360     1.2490     1.7970 C.ar  1 <1>  -0.1430 
 14 C        5.0200     2.4040    -1.6870 C.3   1 <1>   0.3430 
 15 C        3.9910     0.1300    -1.7920 C.3   1 <1>   0.3430 
 16 C       -3.7560     1.2660     3.0050 C.3   1 <1>  -0.0970 
 17 C        5.7930     1.9910    -0.4180 C.3   1 <1>   0.2090 
 18 C        4.7640    -0.2750    -0.5210 C.3   1 <1>   0.2090 
 19 N        6.0220     0.5160    -0.3740 N.pl3 1 <1>  -0.8380 
 20 C        6.8230     0.1040     0.6680 C.ar  1 <1>   0.4100 
 21 N        6.3450     0.3090     1.8880 N.ar  1 <1>  -0.6200 
 22 C        8.0540    -0.4890     0.4070 C.ar  1 <1>  -0.1500 
 23 C        7.1240    -0.0930     2.8800 C.ar  1 <1>   0.1600 
 24 C        8.8510    -0.9010     1.4490 C.ar  1 <1>  -0.1500 
 25 C        8.3610    -0.6920     2.7220 C.ar  1 <1>  -0.1500 
 26 H        0.9400     0.6370    -4.8500 H     1 <1>   0.1500 
 27 H        0.0590     2.5710     0.7070 H     1 <1>   0.1500 
 28 H       -2.5900    -0.1460    -1.2480 H     1 <1>   0.1500 
 29 H        2.9500     3.0790    -3.1570 H     1 <1>   0.0800 
 30 H        3.4120     1.5920    -3.9660 H     1 <1>   0.0800 
 31 H       -1.4130     2.5980     2.6450 H     1 <1>   0.1500 
 32 H       -4.0490    -0.1060     0.6790 H     1 <1>   0.1500 
 33 H        3.1040     1.8330    -1.0870 H     1 <1>   0.4500 
 34 H        4.7950     3.4560    -1.6300 H     1 <1>   0.0800 
 35 H        5.6650     2.2470    -2.5350 H     1 <1>   0.0800 
 36 H        4.5640    -0.1890    -2.6470 H     1 <1>   0.0800 
 37 H        3.0490    -0.3940    -1.8060 H     1 <1>   0.0800 
 38 H       -3.6840     2.2070     3.5200 H     1 <1>   0.0800 
 39 H       -3.4830     0.4770     3.6820 H     1 <1>   0.0800 
 40 H       -4.7780     1.1250     2.7010 H     1 <1>   0.0800 
 41 H        5.2430     2.2970     0.4560 H     1 <1>   0.0800 
 42 H        6.7440     2.4960    -0.3980 H     1 <1>   0.0800 
 43 H        5.0090    -1.3230    -0.5700 H     1 <1>   0.0800 
 44 H        4.1410    -0.1270     0.3460 H     1 <1>   0.0800 
 45 H        8.3650    -0.6180    -0.6110 H     1 <1>   0.1500 
 46 H        6.7540     0.0640     3.8800 H     1 <1>   0.1500 
 47 H        9.8090    -1.3640     1.2830 H     1 <1>   0.1500 
 48 H        8.9330    -0.9890     3.5820 H     1 <1>   0.1500 
@<TRIPOS>BOND
  1   1   2  1   
  2   1   3  1   
  3   2   4  2   
  4   2   5  1   
  5   3   6  2   
  6   3  26  1   
  7   4   6  1   
  8   5   7  ar  
  9   5   8  ar  
 10   6   9  1   
 11   7  10  ar  
 12   7  27  1   
 13   8  11  ar  
 14   8  28  1   
 15   9  12  1   
 16   9  29  1   
 17   9  30  1   
 18  10  13  ar  
 19  10  31  1   
 20  11  13  ar  
 21  11  32  1   
 22  12  14  1   
 23  12  15  1   
 24  12  33  1   
 25  13  16  1   
 26  14  17  1   
 27  14  34  1   
 28  14  35  1   
 29  15  18  1   
 30  15  36  1   
 31  15  37  1   
 32  16  38  1   
 33  16  39  1   
 34  16  40  1   
 35  17  19  1   
 36  17  41  1   
 37  17  42  1   
 38  18  19  1   
 39  18  43  1   
 40  18  44  1   
 41  19  20  1   
 42  20  21  ar  
 43  20  22  ar  
 44  21  23  ar  
 45  22  24  ar  
 46  22  45  1   
 47  23  25  ar  
 48  23  46  1   
 49  24  25  ar  
 50  24  47  1   
 51  25  48  1   
@<TRIPOS>SUBSTRUCTURE
  1 ****  12 GROUP 4 **** **** 0

# MOE 2024.06 (io_trps.svl 2023.06)
