@<TRIPOS>MOLECULE
NONAME
46 49 1 0 0 
SMALL
USER_CHARGES


@<TRIPOS>ATOM
  1 O        0.2760     1.0860     0.0160 O.2   1 <1>  -0.5700 
  2 C       -0.4470     2.0390     0.1850 C.2   1 <1>   0.5690 
  3 N        0.1740     3.2360     0.3740 N.am  1 <1>  -0.7300 
  4 C       -1.9870     1.8310     0.1750 C.3   1 <1>   0.0610 
  5 C       -0.3060     4.6220     0.6110 C.3   1 <1>   0.0600 
  6 C       -2.3370     0.3350    -0.0660 C.3   1 <1>  -0.1600 
  7 C       -2.6570     2.6350    -0.9680 C.3   1 <1>  -0.1600 
  8 C       -2.6180     2.2220     1.5360 C.3   1 <1>  -0.1600 
  9 C       -3.8610     0.0580    -0.0880 C.3   1 <1>   0.1430 
 10 C       -4.1800     2.4180    -0.9740 C.3   1 <1>  -0.0800 
 11 C       -4.1410     2.0060     1.5180 C.3   1 <1>  -0.0800 
 12 C       -4.2070    -1.4290    -0.3290 C.ar  1 <1>  -0.1440 
 13 C       -4.4760     0.9270    -1.2090 C.3   1 <1>  -0.1600 
 14 C       -4.4370     0.5170     1.2700 C.3   1 <1>  -0.1600 
 15 C       -4.7620     2.8450     0.3860 C.3   1 <1>  -0.1600 
 16 C       -3.2390    -2.4150    -0.5060 C.ar  1 <1>  -0.1500 
 17 C       -5.5400    -1.8260    -0.3740 C.ar  1 <1>  -0.1500 
 18 C       -3.5910    -3.7360    -0.7200 C.ar  1 <1>  -0.1500 
 19 C       -5.8950    -3.1470    -0.5870 C.ar  1 <1>  -0.1500 
 20 C       -4.9210    -4.1120    -0.7630 C.ar  1 <1>  -0.1440 
 21 C       -5.3050    -5.5620    -0.9950 C.3   1 <1>  -0.0970 
 22 H        1.1930     3.1480     0.3440 H     1 <1>   0.3700 
 23 H       -1.3760     4.6800     0.6360 H     1 <1>   0.0800 
 24 H        0.0530     5.2640    -0.1750 H     1 <1>   0.0800 
 25 H        0.0780     4.9770     1.5520 H     1 <1>   0.0800 
 26 H       -1.8820    -0.2560     0.7100 H     1 <1>   0.0800 
 27 H       -1.9090     0.0270    -1.0050 H     1 <1>   0.0800 
 28 H       -2.2450     2.3240    -1.9120 H     1 <1>   0.0800 
 29 H       -2.4610     3.6840    -0.8690 H     1 <1>   0.0800 
 30 H       -2.4200     3.2470     1.7740 H     1 <1>   0.0800 
 31 H       -2.1780     1.6250     2.3170 H     1 <1>   0.0800 
 32 H       -4.6260     3.0020    -1.7610 H     1 <1>   0.0800 
 33 H       -4.5600     2.3040     2.4650 H     1 <1>   0.0800 
 34 H       -5.5400     0.7870    -1.2490 H     1 <1>   0.0800 
 35 H       -4.0750     0.6190    -2.1590 H     1 <1>   0.0800 
 36 H       -4.0090    -0.0780     2.0580 H     1 <1>   0.0800 
 37 H       -5.5010     0.3660     1.2960 H     1 <1>   0.0800 
 38 H       -5.8300     2.7110     0.3810 H     1 <1>   0.0800 
 39 H       -4.5660     3.8890     0.5560 H     1 <1>   0.0800 
 40 H       -2.1910    -2.1840    -0.4830 H     1 <1>   0.1500 
 41 H       -6.3260    -1.1060    -0.2420 H     1 <1>   0.1500 
 42 H       -2.8180    -4.4720    -0.8510 H     1 <1>   0.1500 
 43 H       -6.9350    -3.4180    -0.6140 H     1 <1>   0.1500 
 44 H       -4.5680    -6.0510    -1.6060 H     1 <1>   0.0800 
 45 H       -6.2550    -5.6240    -1.4950 H     1 <1>   0.0800 
 46 H       -5.3730    -6.0750    -0.0530 H     1 <1>   0.0800 
@<TRIPOS>BOND
  1   1   2  2   
  2   2   3  am  
  3   2   4  1   
  4   3   5  1   
  5   3  22  1   
  6   4   6  1   
  7   4   7  1   
  8   4   8  1   
  9   5  23  1   
 10   5  24  1   
 11   5  25  1   
 12   6   9  1   
 13   6  26  1   
 14   6  27  1   
 15   7  10  1   
 16   7  28  1   
 17   7  29  1   
 18   8  11  1   
 19   8  30  1   
 20   8  31  1   
 21   9  12  1   
 22   9  13  1   
 23   9  14  1   
 24  10  13  1   
 25  10  15  1   
 26  10  32  1   
 27  11  14  1   
 28  11  15  1   
 29  11  33  1   
 30  12  16  ar  
 31  12  17  ar  
 32  13  34  1   
 33  13  35  1   
 34  14  36  1   
 35  14  37  1   
 36  15  38  1   
 37  15  39  1   
 38  16  18  ar  
 39  16  40  1   
 40  17  19  ar  
 41  17  41  1   
 42  18  20  ar  
 43  18  42  1   
 44  19  20  ar  
 45  19  43  1   
 46  20  21  1   
 47  21  44  1   
 48  21  45  1   
 49  21  46  1   
@<TRIPOS>SUBSTRUCTURE
  1 ****   9 GROUP 4 **** **** 0

# MOE 2024.06 (io_trps.svl 2023.06)
