@<TRIPOS>MOLECULE
NONAME
42 43 1 0 0 
SMALL
USER_CHARGES


@<TRIPOS>ATOM
  1 O        4.2460    -4.3800     0.1240 O.3   1 <1>  -0.3630 
  2 C        2.8910    -4.3010     0.1370 C.ar  1 <1>   0.0830 
  3 C        5.0420    -3.2600    -0.1990 C.3   1 <1>   0.2640 
  4 C        2.1720    -3.1520    -0.1840 C.ar  1 <1>  -0.1500 
  5 C        2.2090    -5.4520     0.4970 C.ar  1 <1>  -0.1500 
  6 C        6.5080    -3.6560    -0.1320 C.ar  1 <1>  -0.1440 
  7 C        0.7880    -3.1630    -0.1440 C.ar  1 <1>  -0.1500 
  8 C        0.8270    -5.4640     0.5380 C.ar  1 <1>  -0.1500 
  9 C        7.3540    -3.0780     0.8040 C.ar  1 <1>  -0.1500 
 10 C        7.0150    -4.5980    -1.0140 C.ar  1 <1>  -0.1500 
 11 C        0.1070    -4.3230     0.2190 C.ar  1 <1>   0.0830 
 12 C        8.6910    -3.4340     0.8520 C.ar  1 <1>  -0.1500 
 13 C        8.3520    -4.9550    -0.9660 C.ar  1 <1>  -0.1500 
 14 O       -1.2460    -4.4220     0.2850 O.3   1 <1>  -0.3630 
 15 C        9.1910    -4.3720    -0.0340 C.ar  1 <1>  -0.1500 
 16 C       -2.0750    -3.3270    -0.0160 C.3   1 <1>   0.1200 
 17 C       -3.5200    -3.7980     0.1620 C.3   1 <1>   0.3430 
 18 N       -4.5040    -2.7120    -0.1320 N.4   1 <1>  -0.9060 
 19 C       -5.9010    -3.1680     0.0400 C.3   1 <1>   0.3430 
 20 C       -6.8220    -2.0010    -0.2800 C.3   1 <1>  -0.2400 
 21 H        4.8240    -2.4770     0.5050 H     1 <1>   0.0800 
 22 H        4.7920    -2.9410    -1.1960 H     1 <1>   0.0800 
 23 H        2.6710    -2.2450    -0.4680 H     1 <1>   0.1500 
 24 H        2.7700    -6.3360     0.7440 H     1 <1>   0.1500 
 25 H        0.2680    -2.2600    -0.3980 H     1 <1>   0.1500 
 26 H        0.3060    -6.3610     0.8180 H     1 <1>   0.1500 
 27 H        6.9770    -2.3500     1.5000 H     1 <1>   0.1500 
 28 H        6.3650    -5.0600    -1.7370 H     1 <1>   0.1500 
 29 H        9.3420    -2.9820     1.5800 H     1 <1>   0.1500 
 30 H        8.7370    -5.6880    -1.6540 H     1 <1>   0.1500 
 31 H       10.2300    -4.6490     0.0040 H     1 <1>   0.1500 
 32 H       -1.8840    -3.0350    -1.0340 H     1 <1>   0.0800 
 33 H       -1.8380    -2.5320     0.6690 H     1 <1>   0.0800 
 34 H       -3.6480    -4.1360     1.1780 H     1 <1>   0.0800 
 35 H       -3.6940    -4.6330    -0.4990 H     1 <1>   0.0800 
 36 H       -4.3840    -2.3770    -1.0970 H     1 <1>   0.4500 
 37 H       -4.3410    -1.9080     0.4880 H     1 <1>   0.4500 
 38 H       -6.0650    -3.4950     1.0560 H     1 <1>   0.0800 
 39 H       -6.1100    -3.9920    -0.6240 H     1 <1>   0.0800 
 40 H       -6.6500    -1.1770     0.3900 H     1 <1>   0.0800 
 41 H       -7.8440    -2.3150    -0.1590 H     1 <1>   0.0800 
 42 H       -6.6960    -1.6760    -1.2980 H     1 <1>   0.0800 
@<TRIPOS>BOND
  1   1   2  1   
  2   1   3  1   
  3   2   4  ar  
  4   2   5  ar  
  5   3   6  1   
  6   3  21  1   
  7   3  22  1   
  8   4   7  ar  
  9   4  23  1   
 10   5   8  ar  
 11   5  24  1   
 12   6   9  ar  
 13   6  10  ar  
 14   7  11  ar  
 15   7  25  1   
 16   8  11  ar  
 17   8  26  1   
 18   9  12  ar  
 19   9  27  1   
 20  10  13  ar  
 21  10  28  1   
 22  11  14  1   
 23  12  15  ar  
 24  12  29  1   
 25  13  15  ar  
 26  13  30  1   
 27  14  16  1   
 28  15  31  1   
 29  16  17  1   
 30  16  32  1   
 31  16  33  1   
 32  17  18  1   
 33  17  34  1   
 34  17  35  1   
 35  18  19  1   
 36  18  36  1   
 37  18  37  1   
 38  19  20  1   
 39  19  38  1   
 40  19  39  1   
 41  20  40  1   
 42  20  41  1   
 43  20  42  1   
@<TRIPOS>SUBSTRUCTURE
  1 ****   4 GROUP 4 **** **** 0

# MOE 2024.06 (io_trps.svl 2023.06)
