@<TRIPOS>MOLECULE
NONAME
42 43 1 0 0 
SMALL
USER_CHARGES


@<TRIPOS>ATOM
  1 O        2.1690    -1.2410     0.0480 O.2   1 <1>  -0.5700 
  2 C        1.5080    -2.1660    -0.3860 C.2   1 <1>   0.5440 
  3 N        1.9150    -2.7190    -1.5690 N.am  1 <1>  -0.7300 
  4 C        0.3890    -2.7140     0.3620 C.ar  1 <1>   0.0860 
  5 C        2.7220    -2.0380    -2.6130 C.3   1 <1>   0.1400 
  6 C       -0.6220    -3.4560    -0.2550 C.ar  1 <1>  -0.1500 
  7 C        0.2910    -2.5240     1.7410 C.ar  1 <1>  -0.1500 
  8 C        4.1280    -2.6490    -2.7170 C.3   1 <1>  -0.1600 
  9 C       -1.6690    -4.0030     0.4680 C.ar  1 <1>  -0.1430 
 10 C       -0.7490    -3.0660     2.4720 C.ar  1 <1>  -0.1500 
 11 C        5.1550    -2.0510    -1.7460 C.3   1 <1>   0.3430 
 12 C       -1.7270    -3.8080     1.8360 C.ar  1 <1>  -0.1500 
 13 C       -2.7550    -4.8090    -0.2220 C.3   1 <1>  -0.0970 
 14 N        4.7350    -2.2180    -0.3370 N.4   1 <1>  -0.9590 
 15 C        5.4690    -1.3090     0.6010 C.3   1 <1>   0.3430 
 16 C        4.7660    -3.6360     0.1510 C.3   1 <1>   0.3430 
 17 C        4.9910    -1.5100     2.0520 C.3   1 <1>   0.1200 
 18 C        4.3300    -3.7270     1.6260 C.3   1 <1>   0.1200 
 19 O        5.0920    -2.8590     2.4140 O.3   1 <1>  -0.5600 
 20 H        1.3850    -3.5270    -1.9110 H     1 <1>   0.3700 
 21 H        2.7820    -0.9810    -2.4090 H     1 <1>   0.0800 
 22 H        2.2140    -2.1550    -3.5570 H     1 <1>   0.0800 
 23 H       -0.5990    -3.6040    -1.3180 H     1 <1>   0.1500 
 24 H        1.0400    -1.9420     2.2510 H     1 <1>   0.1500 
 25 H        4.4910    -2.4420    -3.7080 H     1 <1>   0.0800 
 26 H        4.0840    -3.7200    -2.6280 H     1 <1>   0.0800 
 27 H       -0.8030    -2.9090     3.5360 H     1 <1>   0.1500 
 28 H        5.2550    -1.0000    -1.9620 H     1 <1>   0.0800 
 29 H        6.1160    -2.5150    -1.8990 H     1 <1>   0.0800 
 30 H       -2.5340    -4.2280     2.4110 H     1 <1>   0.1500 
 31 H       -2.7420    -4.6460    -1.2850 H     1 <1>   0.0800 
 32 H       -3.7220    -4.5220     0.1520 H     1 <1>   0.0800 
 33 H       -2.6080    -5.8570    -0.0320 H     1 <1>   0.0800 
 34 H        3.7390    -1.9130    -0.2910 H     1 <1>   0.4500 
 35 H        5.3080    -0.2820     0.3170 H     1 <1>   0.0800 
 36 H        6.5270    -1.5090     0.5570 H     1 <1>   0.0800 
 37 H        5.7640    -4.0320     0.0620 H     1 <1>   0.0800 
 38 H        4.1090    -4.2430    -0.4480 H     1 <1>   0.0800 
 39 H        3.9680    -1.1930     2.1670 H     1 <1>   0.0800 
 40 H        5.6040    -0.9420     2.7280 H     1 <1>   0.0800 
 41 H        4.4820    -4.7250     1.9970 H     1 <1>   0.0800 
 42 H        3.2900    -3.4740     1.7370 H     1 <1>   0.0800 
@<TRIPOS>BOND
  1   1   2  2   
  2   2   3  am  
  3   2   4  1   
  4   3   5  1   
  5   3  20  1   
  6   4   6  ar  
  7   4   7  ar  
  8   5   8  1   
  9   5  21  1   
 10   5  22  1   
 11   6   9  ar  
 12   6  23  1   
 13   7  10  ar  
 14   7  24  1   
 15   8  11  1   
 16   8  25  1   
 17   8  26  1   
 18   9  12  ar  
 19   9  13  1   
 20  10  12  ar  
 21  10  27  1   
 22  11  14  1   
 23  11  28  1   
 24  11  29  1   
 25  12  30  1   
 26  13  31  1   
 27  13  32  1   
 28  13  33  1   
 29  14  15  1   
 30  14  16  1   
 31  14  34  1   
 32  15  17  1   
 33  15  35  1   
 34  15  36  1   
 35  16  18  1   
 36  16  37  1   
 37  16  38  1   
 38  17  19  1   
 39  17  39  1   
 40  17  40  1   
 41  18  19  1   
 42  18  41  1   
 43  18  42  1   
@<TRIPOS>SUBSTRUCTURE
  1 ****   2 GROUP 4 **** **** 0

# MOE 2024.06 (io_trps.svl 2023.06)
