@<TRIPOS>MOLECULE
NONAME
48 51 1 0 0 
SMALL
USER_CHARGES


@<TRIPOS>ATOM
  1 O       -0.7060     1.2530    -3.1080 O.2   1 <1>  -0.5700 
  2 C       -0.3910     1.9000    -2.1350 C.2   1 <1>   0.5690 
  3 N       -1.2780     2.1190    -1.1070 N.am  1 <1>  -0.6600 
  4 C        1.0170     2.4920    -2.1250 C.3   1 <1>   0.1810 
  5 C       -2.6540     1.5290    -1.1180 C.3   1 <1>   0.1400 
  6 C       -0.9960     2.9260     0.1270 C.3   1 <1>   0.1400 
  7 O        1.7560     2.0730    -0.9870 O.3   1 <1>  -0.3620 
  8 C       -3.7300     2.6000    -0.8700 C.3   1 <1>   0.2090 
  9 C       -2.0890     3.9780     0.3780 C.3   1 <1>   0.2090 
 10 C        2.9820     2.5870    -0.7200 C.ar  1 <1>   0.0820 
 11 N       -3.4540     3.3670     0.3790 N.pl3 1 <1>  -0.8380 
 12 C        3.5510     2.2320     0.4950 C.ar  1 <1>  -0.1500 
 13 C        3.6720     3.4360    -1.5870 C.ar  1 <1>  -0.1500 
 14 C       -4.4960     4.1270     0.8720 C.ar  1 <1>   0.4100 
 15 C        4.7950     2.7310     0.8330 C.ar  1 <1>  -0.1440 
 16 C        4.9190     3.9290    -1.2360 C.ar  1 <1>  -0.1500 
 17 N       -4.4340     5.4410     0.6880 N.ar  1 <1>  -0.6200 
 18 C       -5.5550     3.4960     1.5200 C.ar  1 <1>  -0.1500 
 19 C        5.4690     3.5680    -0.0200 C.ar  1 <1>  -0.1440 
 20 C        5.5860     2.4750     2.0910 C.3   1 <1>  -0.0170 
 21 C       -5.4540     6.1380     1.1590 C.ar  1 <1>   0.1600 
 22 C       -6.6100     4.2330     2.0050 C.ar  1 <1>  -0.1500 
 23 C        6.7990     3.9830     0.5570 C.3   1 <1>  -0.0170 
 24 C        6.9790     3.0370     1.7570 C.3   1 <1>  -0.1600 
 25 C       -6.5480     5.5980     1.8130 C.ar  1 <1>  -0.1500 
 26 H        0.9490     3.5640    -2.1140 H     1 <1>   0.0800 
 27 H        1.5460     2.1680    -3.0020 H     1 <1>   0.0800 
 28 H       -2.7190     0.7820    -0.3460 H     1 <1>   0.0800 
 29 H       -2.8520     1.0460    -2.0590 H     1 <1>   0.0800 
 30 H       -0.0500     3.4290     0.0560 H     1 <1>   0.0800 
 31 H       -0.9520     2.2630     0.9730 H     1 <1>   0.0800 
 32 H       -4.6930     2.1260    -0.8000 H     1 <1>   0.0800 
 33 H       -3.7530     3.2790    -1.7050 H     1 <1>   0.0800 
 34 H       -2.0390     4.7340    -0.3880 H     1 <1>   0.0800 
 35 H       -1.9150     4.4570     1.3260 H     1 <1>   0.0800 
 36 H        3.0220     1.5750     1.1600 H     1 <1>   0.1500 
 37 H        3.2630     3.7200    -2.5370 H     1 <1>   0.1500 
 38 H        5.4560     4.5830    -1.9010 H     1 <1>   0.1500 
 39 H       -5.5260     2.4300     1.6360 H     1 <1>   0.1500 
 40 H        5.6290     1.4250     2.3240 H     1 <1>   0.0800 
 41 H        5.1430     3.0150     2.9090 H     1 <1>   0.0800 
 42 H       -5.4160     7.2040     1.0160 H     1 <1>   0.1500 
 43 H       -7.4400     3.7710     2.5100 H     1 <1>   0.1500 
 44 H        6.7440     5.0070     0.8840 H     1 <1>   0.0800 
 45 H        7.5940     3.8690    -0.1590 H     1 <1>   0.0800 
 46 H        7.6190     2.2240     1.4620 H     1 <1>   0.0800 
 47 H        7.4200     3.5400     2.6000 H     1 <1>   0.0800 
 48 H       -7.3370     6.2360     2.1660 H     1 <1>   0.1500 
@<TRIPOS>BOND
  1   1   2  2   
  2   2   3  am  
  3   2   4  1   
  4   3   5  1   
  5   3   6  1   
  6   4   7  1   
  7   4  26  1   
  8   4  27  1   
  9   5   8  1   
 10   5  28  1   
 11   5  29  1   
 12   6   9  1   
 13   6  30  1   
 14   6  31  1   
 15   7  10  1   
 16   8  11  1   
 17   8  32  1   
 18   8  33  1   
 19   9  11  1   
 20   9  34  1   
 21   9  35  1   
 22  10  12  ar  
 23  10  13  ar  
 24  11  14  1   
 25  12  15  ar  
 26  12  36  1   
 27  13  16  ar  
 28  13  37  1   
 29  14  17  ar  
 30  14  18  ar  
 31  15  19  ar  
 32  15  20  1   
 33  16  19  ar  
 34  16  38  1   
 35  17  21  ar  
 36  18  22  ar  
 37  18  39  1   
 38  19  23  1   
 39  20  24  1   
 40  20  40  1   
 41  20  41  1   
 42  21  25  ar  
 43  21  42  1   
 44  22  25  ar  
 45  22  43  1   
 46  23  24  1   
 47  23  44  1   
 48  23  45  1   
 49  24  46  1   
 50  24  47  1   
 51  25  48  1   
@<TRIPOS>SUBSTRUCTURE
  1 ****   6 GROUP 4 **** **** 0

# MOE 2024.06 (io_trps.svl 2023.06)
