@<TRIPOS>MOLECULE
NONAME
37 38 1 0 0 
SMALL
USER_CHARGES


@<TRIPOS>ATOM
  1 F       -1.6330     1.3890     1.7210 F     1 <1>  -0.1900 
  2 C       -0.9620     2.2110     0.9590 C.ar  1 <1>   0.1900 
  3 C       -1.4340     2.4670    -0.3160 C.ar  1 <1>  -0.1440 
  4 C        0.1860     2.7980     1.4650 C.ar  1 <1>  -0.1500 
  5 C       -0.7000     3.3570    -1.0790 C.ar  1 <1>   0.1900 
  6 C       -2.6830     1.8020    -0.8500 C.3   1 <1>   0.4860 
  7 C        0.8980     3.6830     0.6680 C.ar  1 <1>  -0.1500 
  8 F       -1.1180     3.6410    -2.2820 F     1 <1>  -0.1900 
  9 C        0.4530     3.9670    -0.6150 C.ar  1 <1>  -0.1500 
 10 N       -3.8820     2.3150    -0.1220 N.4   1 <1>  -0.9590 
 11 C       -5.1410     1.5500    -0.3980 C.3   1 <1>   0.4230 
 12 C       -4.0380     3.7800    -0.3800 C.3   1 <1>   0.3430 
 13 C       -6.2770     2.1270     0.4680 C.3   1 <1>  -0.1600 
 14 C       -4.9380     0.0440    -0.1190 C.3   1 <1>  -0.1600 
 15 C       -5.1310     4.3600     0.5130 C.3   1 <1>  -0.1600 
 16 C       -6.4600     3.6380     0.2910 C.3   1 <1>  -0.1600 
 17 C       -6.2030    -0.8140    -0.2950 C.3   1 <1>  -0.2400 
 18 H        0.5180     2.5670     2.4630 H     1 <1>   0.1500 
 19 H       -2.5790     0.7400    -0.7020 H     1 <1>   0.0800 
 20 H       -2.7830     1.9880    -1.9080 H     1 <1>   0.0800 
 21 H        1.7950     4.1480     1.0440 H     1 <1>   0.1500 
 22 H        0.9940     4.6520    -1.2460 H     1 <1>   0.1500 
 23 H       -3.6840     2.1990     0.8800 H     1 <1>   0.4500 
 24 H       -5.4100     1.6750    -1.4360 H     1 <1>   0.0800 
 25 H       -4.2950     3.9430    -1.4140 H     1 <1>   0.0800 
 26 H       -3.1130     4.2960    -0.1780 H     1 <1>   0.0800 
 27 H       -6.0870     1.9060     1.5040 H     1 <1>   0.0800 
 28 H       -7.2070     1.6550     0.2060 H     1 <1>   0.0800 
 29 H       -4.5710    -0.0950     0.8840 H     1 <1>   0.0800 
 30 H       -4.2150    -0.3580    -0.8040 H     1 <1>   0.0800 
 31 H       -5.2510     5.4060     0.2890 H     1 <1>   0.0800 
 32 H       -4.8330     4.2830     1.5450 H     1 <1>   0.0800 
 33 H       -7.1960     4.0030     0.9880 H     1 <1>   0.0800 
 34 H       -6.8210     3.8440    -0.7040 H     1 <1>   0.0800 
 35 H       -6.9300    -0.6050     0.4700 H     1 <1>   0.0800 
 36 H       -5.9480    -1.8570    -0.2210 H     1 <1>   0.0800 
 37 H       -6.6510    -0.6470    -1.2590 H     1 <1>   0.0800 
@<TRIPOS>BOND
  1   1   2  1   
  2   2   3  ar  
  3   2   4  ar  
  4   3   5  ar  
  5   3   6  1   
  6   4   7  ar  
  7   4  18  1   
  8   5   8  1   
  9   5   9  ar  
 10   6  10  1   
 11   6  19  1   
 12   6  20  1   
 13   7   9  ar  
 14   7  21  1   
 15   9  22  1   
 16  10  11  1   
 17  10  12  1   
 18  10  23  1   
 19  11  13  1   
 20  11  14  1   
 21  11  24  1   
 22  12  15  1   
 23  12  25  1   
 24  12  26  1   
 25  13  16  1   
 26  13  27  1   
 27  13  28  1   
 28  14  17  1   
 29  14  29  1   
 30  14  30  1   
 31  15  16  1   
 32  15  31  1   
 33  15  32  1   
 34  16  33  1   
 35  16  34  1   
 36  17  35  1   
 37  17  36  1   
 38  17  37  1   
@<TRIPOS>SUBSTRUCTURE
  1 ****  10 GROUP 4 **** **** 0

# MOE 2024.06 (io_trps.svl 2023.06)
