@<TRIPOS>MOLECULE
NONAME
40 41 1 0 0 
SMALL
USER_CHARGES


@<TRIPOS>ATOM
  1 F        1.8000    -0.8030    -2.2950 F     1 <1>  -0.1900 
  2 C        2.5540    -1.1960    -1.2990 C.ar  1 <1>   0.1900 
  3 C        2.5260    -2.5160    -0.8800 C.ar  1 <1>   0.1900 
  4 C        3.3730    -0.2730    -0.6790 C.ar  1 <1>  -0.1500 
  5 F        1.7460    -3.3870    -1.4750 F     1 <1>  -0.1900 
  6 C        3.3170    -2.9390     0.1730 C.ar  1 <1>  -0.1500 
  7 C        4.1820    -0.6850     0.3760 C.ar  1 <1>   0.1000 
  8 C        4.1410    -2.0140     0.7960 C.ar  1 <1>  -0.1500 
  9 N        5.0200     0.2140     1.0200 N.pl3 1 <1>  -0.8690 
 10 C        6.0440     0.9220     0.2370 C.3   1 <1>   0.2890 
 11 C        7.3850     0.2150     0.4630 C.3   1 <1>  -0.1600 
 12 C        6.0430     2.3730     0.7070 C.3   1 <1>  -0.2400 
 13 C        8.5140     0.7650    -0.4200 C.3   1 <1>  -0.0170 
 14 C        9.7830    -0.0470    -0.2130 C.ar  1 <1>  -0.1430 
 15 C       10.6860     0.3080     0.7770 C.ar  1 <1>  -0.1500 
 16 C       10.0470    -1.1510    -1.0090 C.ar  1 <1>  -0.1500 
 17 C       11.8400    -0.4320     0.9660 C.ar  1 <1>  -0.1500 
 18 C       11.2000    -1.8930    -0.8220 C.ar  1 <1>  -0.1500 
 19 C       12.1070    -1.5340     0.1710 C.ar  1 <1>   0.0830 
 20 O       13.2600    -2.2040     0.4210 O.3   1 <1>  -0.3630 
 21 C       13.6360    -3.3270    -0.3440 C.3   1 <1>   0.0400 
 22 H        3.3790     0.7500    -1.0010 H     1 <1>   0.1500 
 23 H        3.2850    -3.9650     0.4930 H     1 <1>   0.1500 
 24 H        4.7630    -2.3240     1.6160 H     1 <1>   0.1500 
 25 H        5.4170    -0.1340     1.8980 H     1 <1>   0.4000 
 26 H        5.7910     0.8840    -0.8100 H     1 <1>   0.0800 
 27 H        7.2620    -0.8290     0.2350 H     1 <1>   0.0800 
 28 H        7.6730     0.3010     1.4960 H     1 <1>   0.0800 
 29 H        6.3410     2.4370     1.7380 H     1 <1>   0.0800 
 30 H        5.0560     2.7860     0.6010 H     1 <1>   0.0800 
 31 H        6.7160     2.9630     0.1140 H     1 <1>   0.0800 
 32 H        8.7130     1.7940    -0.1790 H     1 <1>   0.0800 
 33 H        8.2250     0.7190    -1.4550 H     1 <1>   0.0800 
 34 H       10.4970     1.1610     1.4050 H     1 <1>   0.1500 
 35 H        9.3530    -1.4380    -1.7790 H     1 <1>   0.1500 
 36 H       12.5420    -0.1580     1.7320 H     1 <1>   0.1500 
 37 H       11.3750    -2.7410    -1.4550 H     1 <1>   0.1500 
 38 H       14.5790    -3.6830     0.0280 H     1 <1>   0.0800 
 39 H       13.7360    -3.0300    -1.3730 H     1 <1>   0.0800 
 40 H       12.8870    -4.0910    -0.2320 H     1 <1>   0.0800 
@<TRIPOS>BOND
  1   1   2  1   
  2   2   3  ar  
  3   2   4  ar  
  4   3   5  1   
  5   3   6  ar  
  6   4   7  ar  
  7   4  22  1   
  8   6   8  ar  
  9   6  23  1   
 10   7   8  ar  
 11   7   9  1   
 12   8  24  1   
 13   9  10  1   
 14   9  25  1   
 15  10  11  1   
 16  10  12  1   
 17  10  26  1   
 18  11  13  1   
 19  11  27  1   
 20  11  28  1   
 21  12  29  1   
 22  12  30  1   
 23  12  31  1   
 24  13  14  1   
 25  13  32  1   
 26  13  33  1   
 27  14  15  ar  
 28  14  16  ar  
 29  15  17  ar  
 30  15  34  1   
 31  16  18  ar  
 32  16  35  1   
 33  17  19  ar  
 34  17  36  1   
 35  18  19  ar  
 36  18  37  1   
 37  19  20  1   
 38  20  21  1   
 39  21  38  1   
 40  21  39  1   
 41  21  40  1   
@<TRIPOS>SUBSTRUCTURE
  1 ****  11 GROUP 4 **** **** 0

# MOE 2024.06 (io_trps.svl 2023.06)
