@<TRIPOS>MOLECULE
NONAME
47 49 1 0 0 
SMALL
USER_CHARGES


@<TRIPOS>ATOM
  1 O       -1.8410    -0.1690     1.1950 O.3   1 <1>  -0.3630 
  2 C       -2.4020     0.8740     0.5190 C.ar  1 <1>   0.0830 
  3 C       -0.5110    -0.1480     1.6650 C.3   1 <1>   0.0400 
  4 C       -1.8730     2.1630     0.3520 C.ar  1 <1>   0.0830 
  5 C       -3.6330     0.5820    -0.0440 C.ar  1 <1>  -0.1500 
  6 O       -0.6910     2.5620     0.8740 O.3   1 <1>  -0.5330 
  7 C       -2.5760     3.1200    -0.3780 C.ar  1 <1>   0.0830 
  8 C       -4.3480     1.5330    -0.7540 C.ar  1 <1>  -0.1430 
  9 O       -2.0010     4.3510    -0.5090 O.3   1 <1>  -0.3630 
 10 C       -3.8130     2.8010    -0.9290 C.ar  1 <1>  -0.1500 
 11 C       -5.7140     1.1850    -1.3110 C.3   1 <1>   0.4860 
 12 C       -2.4890     5.3050    -1.4290 C.3   1 <1>   0.0400 
 13 N       -6.6600     1.0510    -0.1720 N.4   1 <1>  -0.9590 
 14 C       -8.0050     0.5270    -0.6250 C.3   1 <1>   0.3430 
 15 C       -6.7860     2.3530     0.5950 C.3   1 <1>   0.3430 
 16 C       -9.0440     0.4720     0.5160 C.3   1 <1>   0.2090 
 17 C       -7.8250     2.2720     1.7310 C.3   1 <1>   0.2090 
 18 N       -9.1290     1.8050     1.1770 N.pl3 1 <1>  -0.8380 
 19 C      -10.0560     2.7120     0.7190 C.ar  1 <1>   0.7200 
 20 N      -11.2860     2.2530     0.5250 N.ar  1 <1>  -0.6200 
 21 N       -9.6210     3.9470     0.4740 N.ar  1 <1>  -0.6200 
 22 C      -12.1690     3.1270     0.1040 C.ar  1 <1>   0.1600 
 23 C      -10.5260     4.7990     0.0530 C.ar  1 <1>   0.1600 
 24 C      -11.8350     4.4350    -0.1490 C.ar  1 <1>  -0.1500 
 25 H       -0.2750    -1.1220     2.0530 H     1 <1>   0.0800 
 26 H       -0.4280     0.5860     2.4470 H     1 <1>   0.0800 
 27 H        0.1460     0.0900     0.8470 H     1 <1>   0.0800 
 28 H       -4.0130    -0.4160     0.0910 H     1 <1>   0.1500 
 29 H       -0.5330     3.4970     0.6280 H     1 <1>   0.4500 
 30 H       -4.3620     3.5360    -1.4870 H     1 <1>   0.1500 
 31 H       -5.6500     0.2570    -1.8560 H     1 <1>   0.0800 
 32 H       -6.0490     1.9570    -1.9850 H     1 <1>   0.0800 
 33 H       -1.8200     6.1460    -1.4250 H     1 <1>   0.0800 
 34 H       -3.4700     5.6220    -1.1220 H     1 <1>   0.0800 
 35 H       -2.5120     4.8660    -2.4110 H     1 <1>   0.0800 
 36 H       -6.2480     0.3700     0.4780 H     1 <1>   0.4500 
 37 H       -7.8950    -0.4580    -1.0460 H     1 <1>   0.0800 
 38 H       -8.4000     1.1720    -1.3930 H     1 <1>   0.0800 
 39 H       -7.0940     3.1400    -0.0740 H     1 <1>   0.0800 
 40 H       -5.8320     2.6290     1.0130 H     1 <1>   0.0800 
 41 H       -8.7610    -0.2710     1.2420 H     1 <1>   0.0800 
 42 H      -10.0000     0.1810     0.1150 H     1 <1>   0.0800 
 43 H       -7.9370     3.2380     2.1950 H     1 <1>   0.0800 
 44 H       -7.4900     1.5880     2.4920 H     1 <1>   0.0800 
 45 H      -13.1820     2.7920    -0.0440 H     1 <1>   0.1500 
 46 H      -10.2200     5.8150    -0.1370 H     1 <1>   0.1500 
 47 H      -12.5680     5.1420    -0.4900 H     1 <1>   0.1500 
@<TRIPOS>BOND
  1   1   2  1   
  2   1   3  1   
  3   2   4  ar  
  4   2   5  ar  
  5   3  25  1   
  6   3  26  1   
  7   3  27  1   
  8   4   6  1   
  9   4   7  ar  
 10   5   8  ar  
 11   5  28  1   
 12   6  29  1   
 13   7   9  1   
 14   7  10  ar  
 15   8  10  ar  
 16   8  11  1   
 17   9  12  1   
 18  10  30  1   
 19  11  13  1   
 20  11  31  1   
 21  11  32  1   
 22  12  33  1   
 23  12  34  1   
 24  12  35  1   
 25  13  14  1   
 26  13  15  1   
 27  13  36  1   
 28  14  16  1   
 29  14  37  1   
 30  14  38  1   
 31  15  17  1   
 32  15  39  1   
 33  15  40  1   
 34  16  18  1   
 35  16  41  1   
 36  16  42  1   
 37  17  18  1   
 38  17  43  1   
 39  17  44  1   
 40  18  19  1   
 41  19  20  ar  
 42  19  21  ar  
 43  20  22  ar  
 44  21  23  ar  
 45  22  24  ar  
 46  22  45  1   
 47  23  24  ar  
 48  23  46  1   
 49  24  47  1   
@<TRIPOS>SUBSTRUCTURE
  1 ****  15 GROUP 4 **** **** 0

# MOE 2024.06 (io_trps.svl 2023.06)
