@<TRIPOS>MOLECULE
NONAME
43 44 1 0 0 
SMALL
USER_CHARGES


@<TRIPOS>ATOM
  1 O       -0.9510    -0.0160    -0.3550 O.3   1 <1>  -0.3630 
  2 C       -2.1090     0.6680    -0.1730 C.ar  1 <1>   0.0830 
  3 C       -0.6810    -1.2020     0.3570 C.3   1 <1>   0.0400 
  4 C       -2.2680     1.8340    -0.9040 C.ar  1 <1>  -0.1500 
  5 C       -3.1210     0.2640     0.6930 C.ar  1 <1>  -0.1500 
  6 C       -3.4180     2.5920    -0.7760 C.ar  1 <1>  -0.1500 
  7 C       -4.2710     1.0240     0.8180 C.ar  1 <1>  -0.1500 
  8 C       -4.4260     2.1920     0.0870 C.ar  1 <1>  -0.1430 
  9 C       -5.6910     3.0240     0.2280 C.3   1 <1>  -0.0170 
 10 C       -6.7560     2.5450    -0.7690 C.3   1 <1>  -0.1600 
 11 C       -8.0910     3.2840    -0.6250 C.3   1 <1>   0.2890 
 12 N       -9.0680     2.6320    -1.5070 N.pl3 1 <1>  -0.8690 
 13 C       -8.0150     4.7490    -1.0430 C.3   1 <1>  -0.2400 
 14 C      -10.0050     1.7800    -0.9380 C.ar  1 <1>   0.1000 
 15 C      -10.9040     2.2350     0.0190 C.ar  1 <1>  -0.1500 
 16 C      -10.0590     0.4480    -1.3260 C.ar  1 <1>  -0.1500 
 17 C      -11.8310     1.3810     0.5920 C.ar  1 <1>  -0.1430 
 18 C      -10.9820    -0.4120    -0.7600 C.ar  1 <1>  -0.1500 
 19 C      -11.8650     0.0530     0.1990 C.ar  1 <1>  -0.1500 
 20 C      -12.8090     1.8840     1.6380 C.3   1 <1>  -0.0970 
 21 H        0.2880    -1.5580     0.0570 H     1 <1>   0.0800 
 22 H       -1.4310    -1.9340     0.1120 H     1 <1>   0.0800 
 23 H       -0.6820    -0.9850     1.4100 H     1 <1>   0.0800 
 24 H       -1.4840     2.1420    -1.5710 H     1 <1>   0.1500 
 25 H       -3.0330    -0.6340     1.2730 H     1 <1>   0.1500 
 26 H       -3.5230     3.4940    -1.3530 H     1 <1>   0.1500 
 27 H       -5.0480     0.7020     1.4880 H     1 <1>   0.1500 
 28 H       -5.4530     4.0580     0.0550 H     1 <1>   0.0800 
 29 H       -6.0660     2.9370     1.2330 H     1 <1>   0.0800 
 30 H       -6.9270     1.4970    -0.5950 H     1 <1>   0.0800 
 31 H       -6.3800     2.6630    -1.7700 H     1 <1>   0.0800 
 32 H       -8.4280     3.2180     0.3970 H     1 <1>   0.0800 
 33 H       -8.6050     2.2430    -2.3320 H     1 <1>   0.4000 
 34 H       -7.6370     4.8360    -2.0450 H     1 <1>   0.0800 
 35 H       -7.3760     5.3000    -0.3790 H     1 <1>   0.0800 
 36 H       -8.9970     5.1860    -0.9990 H     1 <1>   0.0800 
 37 H      -10.8710     3.2710     0.3000 H     1 <1>   0.1500 
 38 H       -9.3760     0.0870    -2.0710 H     1 <1>   0.1500 
 39 H      -11.0150    -1.4430    -1.0650 H     1 <1>   0.1500 
 40 H      -12.5800    -0.6210     0.6370 H     1 <1>   0.1500 
 41 H      -12.6720     2.9340     1.8190 H     1 <1>   0.0800 
 42 H      -12.6610     1.3530     2.5620 H     1 <1>   0.0800 
 43 H      -13.8180     1.7230     1.3020 H     1 <1>   0.0800 
@<TRIPOS>BOND
  1   1   2  1   
  2   1   3  1   
  3   2   4  ar  
  4   2   5  ar  
  5   3  21  1   
  6   3  22  1   
  7   3  23  1   
  8   4   6  ar  
  9   4  24  1   
 10   5   7  ar  
 11   5  25  1   
 12   6   8  ar  
 13   6  26  1   
 14   7   8  ar  
 15   7  27  1   
 16   8   9  1   
 17   9  10  1   
 18   9  28  1   
 19   9  29  1   
 20  10  11  1   
 21  10  30  1   
 22  10  31  1   
 23  11  12  1   
 24  11  13  1   
 25  11  32  1   
 26  12  14  1   
 27  12  33  1   
 28  13  34  1   
 29  13  35  1   
 30  13  36  1   
 31  14  15  ar  
 32  14  16  ar  
 33  15  17  ar  
 34  15  37  1   
 35  16  18  ar  
 36  16  38  1   
 37  17  19  ar  
 38  17  20  1   
 39  18  19  ar  
 40  18  39  1   
 41  19  40  1   
 42  20  41  1   
 43  20  42  1   
 44  20  43  1   
@<TRIPOS>SUBSTRUCTURE
  1 ****  10 GROUP 4 **** **** 0

# MOE 2024.06 (io_trps.svl 2023.06)
