@<TRIPOS>MOLECULE
NONAME
47 49 1 0 0 
SMALL
USER_CHARGES


@<TRIPOS>ATOM
  1 O       -0.0560    -0.7720     0.3220 O.2   1 <1>  -0.5700 
  2 C       -0.3130    -1.9470     0.2660 C.2   1 <1>   0.5690 
  3 N        0.5880    -2.9460     0.0730 N.am  1 <1>  -0.4200 
  4 C       -1.7140    -2.5050     0.4190 C.3   1 <1>  -0.0190 
  5 C       -0.0080    -4.1670     0.0810 C.2   1 <1>   0.5690 
  6 C        2.0380    -2.7400    -0.1460 C.3   1 <1>   0.1400 
  7 C       -1.5040    -4.0390     0.2880 C.3   1 <1>  -0.0190 
  8 C       -2.7060    -1.8610    -0.5700 C.3   1 <1>  -0.0220 
  9 O        0.5630    -5.2210    -0.0400 O.2   1 <1>  -0.5700 
 10 C        2.8150    -3.0480     1.1330 C.3   1 <1>  -0.0990 
 11 C       -2.3060    -4.7490    -0.8200 C.3   1 <1>  -0.0220 
 12 C       -3.8550    -2.8010    -0.8750 C.2   1 <1>  -0.2880 
 13 C        4.2940    -3.0540     0.8330 C.2   1 <1>   0.5690 
 14 C       -3.6730    -4.1170    -0.9890 C.2   1 <1>  -0.2880 
 15 O        4.8890    -2.0080     0.8940 O.2   1 <1>  -0.5700 
 16 N        4.8570    -4.2470     0.4860 N.am  1 <1>  -0.5470 
 17 C        6.1630    -4.6330     0.1260 C.ar  1 <1>   0.1170 
 18 C        6.3640    -5.9590    -0.2730 C.ar  1 <1>   0.0830 
 19 C        7.2520    -3.7690     0.1510 C.ar  1 <1>  -0.1500 
 20 O        5.2700    -6.7800    -0.2820 O.3   1 <1>  -0.3630 
 21 C        7.6350    -6.3900    -0.6380 C.ar  1 <1>  -0.1500 
 22 C        8.5170    -4.1980    -0.2150 C.ar  1 <1>  -0.1430 
 23 C        5.3680    -8.1270    -0.6900 C.3   1 <1>   0.0400 
 24 C        8.7040    -5.5110    -0.6080 C.ar  1 <1>  -0.1500 
 25 C        9.6910    -3.2350    -0.1800 C.3   1 <1>  -0.0970 
 26 H       -2.0500    -2.2930     1.4180 H     1 <1>   0.0800 
 27 H        2.2230    -1.7230    -0.4500 H     1 <1>   0.0800 
 28 H        2.3640    -3.3920    -0.9400 H     1 <1>   0.0800 
 29 H       -1.7520    -4.4960     1.2280 H     1 <1>   0.0800 
 30 H       -2.2120    -1.6160    -1.4940 H     1 <1>   0.0800 
 31 H       -3.0780    -0.9450    -0.1440 H     1 <1>   0.0800 
 32 H        2.5320    -4.0070     1.5260 H     1 <1>   0.0800 
 33 H        2.6120    -2.2940     1.8720 H     1 <1>   0.0800 
 34 H       -2.4080    -5.7900    -0.5660 H     1 <1>   0.0800 
 35 H       -1.7850    -4.6900    -1.7610 H     1 <1>   0.0800 
 36 H       -4.8060    -2.3110    -1.0120 H     1 <1>   0.1500 
 37 H       -4.4600    -4.8140    -1.2290 H     1 <1>   0.1500 
 38 H        4.2190    -5.0460     0.4430 H     1 <1>   0.3700 
 39 H        7.1170    -2.7500     0.4600 H     1 <1>   0.1500 
 40 H        7.8180    -7.4010    -0.9470 H     1 <1>   0.1500 
 41 H        4.3900    -8.5680    -0.6270 H     1 <1>   0.0800 
 42 H        6.0450    -8.6440    -0.0320 H     1 <1>   0.0800 
 43 H        5.7180    -8.1600    -1.7070 H     1 <1>   0.0800 
 44 H        9.6840    -5.8550    -0.8910 H     1 <1>   0.1500 
 45 H        9.3500    -2.2210    -0.2880 H     1 <1>   0.0800 
 46 H       10.3760    -3.4500    -0.9800 H     1 <1>   0.0800 
 47 H       10.2090    -3.3280     0.7580 H     1 <1>   0.0800 
@<TRIPOS>BOND
  1   1   2  2   
  2   2   3  am  
  3   2   4  1   
  4   3   5  am  
  5   3   6  1   
  6   4   7  1   
  7   4   8  1   
  8   4  26  1   
  9   5   7  1   
 10   5   9  2   
 11   6  10  1   
 12   6  27  1   
 13   6  28  1   
 14   7  11  1   
 15   7  29  1   
 16   8  12  1   
 17   8  30  1   
 18   8  31  1   
 19  10  13  1   
 20  10  32  1   
 21  10  33  1   
 22  11  14  1   
 23  11  34  1   
 24  11  35  1   
 25  12  14  2   
 26  12  36  1   
 27  13  15  2   
 28  13  16  am  
 29  14  37  1   
 30  16  17  1   
 31  16  38  1   
 32  17  18  ar  
 33  17  19  ar  
 34  18  20  1   
 35  18  21  ar  
 36  19  22  ar  
 37  19  39  1   
 38  20  23  1   
 39  21  24  ar  
 40  21  40  1   
 41  22  24  ar  
 42  22  25  1   
 43  23  41  1   
 44  23  42  1   
 45  23  43  1   
 46  24  44  1   
 47  25  45  1   
 48  25  46  1   
 49  25  47  1   
@<TRIPOS>SUBSTRUCTURE
  1 ****   6 GROUP 4 **** **** 0

# MOE 2024.06 (io_trps.svl 2023.06)
