@<TRIPOS>MOLECULE
NONAME
48 49 1 0 0 
SMALL
USER_CHARGES


@<TRIPOS>ATOM
  1 O       -0.2760     1.1680    -2.5360 O.2   1 <1>  -0.5700 
  2 C       -0.0570     1.6740    -1.4620 C.2   1 <1>   0.5690 
  3 N       -0.9210     1.5620    -0.4270 N.am  1 <1>  -0.7300 
  4 C        1.2310     2.4680    -1.2700 C.3   1 <1>  -0.0190 
  5 C       -2.2640     0.9870    -0.5150 C.3   1 <1>   0.3640 
  6 C        2.1780     1.7800    -0.2680 C.3   1 <1>  -0.1600 
  7 C        0.9530     3.9230    -0.8400 C.3   1 <1>  -0.1600 
  8 C       -3.2390     2.0140     0.0710 C.ar  1 <1>  -0.1440 
  9 C       -2.2600    -0.3640     0.1990 C.3   1 <1>  -0.2400 
 10 C        3.4610     2.5890    -0.0640 C.3   1 <1>   0.1400 
 11 C        2.2530     4.7020    -0.6230 C.3   1 <1>   0.1400 
 12 C       -3.9120     2.9140    -0.7550 C.ar  1 <1>  -0.1430 
 13 C       -3.4510     2.0830     1.4440 C.ar  1 <1>  -0.1500 
 14 N        3.1070     3.9730     0.3560 N.am  1 <1>  -0.6600 
 15 C       -4.7850     3.8380    -0.2010 C.ar  1 <1>  -0.1500 
 16 C       -3.7160     2.9280    -2.2670 C.3   1 <1>  -0.0970 
 17 C       -4.3220     3.0100     1.9860 C.ar  1 <1>  -0.1500 
 18 C        3.5030     4.5690     1.5270 C.2   1 <1>   0.5690 
 19 C       -4.9980     3.8920     1.1640 C.ar  1 <1>  -0.1430 
 20 O        3.1890     5.6990     1.8150 O.2   1 <1>  -0.5700 
 21 C        4.3610     3.8220     2.5220 C.3   1 <1>  -0.1790 
 22 C       -5.9550     4.9120     1.7530 C.3   1 <1>  -0.0970 
 23 H       -0.7650     2.0980     0.4260 H     1 <1>   0.3700 
 24 H        1.7280     2.4990    -2.2240 H     1 <1>   0.0800 
 25 H       -2.5080     0.7990    -1.5460 H     1 <1>   0.0800 
 26 H        2.4300     0.8000    -0.6320 H     1 <1>   0.0800 
 27 H        1.6890     1.6610     0.6830 H     1 <1>   0.0800 
 28 H        0.3880     3.9460     0.0750 H     1 <1>   0.0800 
 29 H        0.3680     4.4160    -1.5970 H     1 <1>   0.0800 
 30 H       -1.8650    -0.2850     1.1940 H     1 <1>   0.0800 
 31 H       -1.6580    -1.0580    -0.3590 H     1 <1>   0.0800 
 32 H       -3.2620    -0.7490     0.2470 H     1 <1>   0.0800 
 33 H        4.0120     2.6370    -0.9880 H     1 <1>   0.0800 
 34 H        4.0810     2.1010     0.6650 H     1 <1>   0.0800 
 35 H        2.0230     5.6930    -0.2680 H     1 <1>   0.0800 
 36 H        2.7880     4.7980    -1.5520 H     1 <1>   0.0800 
 37 H       -2.9410     1.4190     2.1160 H     1 <1>   0.1500 
 38 H       -5.3050     4.5300    -0.8390 H     1 <1>   0.1500 
 39 H       -4.2030     3.7760    -2.7130 H     1 <1>   0.0800 
 40 H       -2.6690     2.9840    -2.5080 H     1 <1>   0.0800 
 41 H       -4.1290     2.0360    -2.7010 H     1 <1>   0.0800 
 42 H       -4.4710     3.0410     3.0500 H     1 <1>   0.1500 
 43 H        5.2980     3.5580     2.0690 H     1 <1>   0.0800 
 44 H        3.8490     2.9400     2.8550 H     1 <1>   0.0800 
 45 H        4.5560     4.4480     3.3730 H     1 <1>   0.0800 
 46 H       -5.4260     5.8220     1.9700 H     1 <1>   0.0800 
 47 H       -6.3920     4.5380     2.6620 H     1 <1>   0.0800 
 48 H       -6.7490     5.1260     1.0600 H     1 <1>   0.0800 
@<TRIPOS>BOND
  1   1   2  2   
  2   2   3  am  
  3   2   4  1   
  4   3   5  1   
  5   3  23  1   
  6   4   6  1   
  7   4   7  1   
  8   4  24  1   
  9   5   8  1   
 10   5   9  1   
 11   5  25  1   
 12   6  10  1   
 13   6  26  1   
 14   6  27  1   
 15   7  11  1   
 16   7  28  1   
 17   7  29  1   
 18   8  12  ar  
 19   8  13  ar  
 20   9  30  1   
 21   9  31  1   
 22   9  32  1   
 23  10  14  1   
 24  10  33  1   
 25  10  34  1   
 26  11  14  1   
 27  11  35  1   
 28  11  36  1   
 29  12  15  ar  
 30  12  16  1   
 31  13  17  ar  
 32  13  37  1   
 33  14  18  am  
 34  15  19  ar  
 35  15  38  1   
 36  16  39  1   
 37  16  40  1   
 38  16  41  1   
 39  17  19  ar  
 40  17  42  1   
 41  18  20  2   
 42  18  21  1   
 43  19  22  1   
 44  21  43  1   
 45  21  44  1   
 46  21  45  1   
 47  22  46  1   
 48  22  47  1   
 49  22  48  1   
@<TRIPOS>SUBSTRUCTURE
  1 ****   3 GROUP 4 **** **** 0

# MOE 2024.06 (io_trps.svl 2023.06)
