@<TRIPOS>MOLECULE
NONAME
41 42 1 0 0 
SMALL
USER_CHARGES


@<TRIPOS>ATOM
  1 S        1.0220    -0.5240     0.3280 S.3   1 <1>  -0.2860 
  2 C       -0.7650    -0.6720     0.4220 C.2   1 <1>   0.2420 
  3 C        1.5250    -0.5560     2.1190 C.3   1 <1>   0.1310 
  4 N       -1.4090    -0.7940     1.5270 N.2   1 <1>  -0.3380 
  5 N       -1.5460    -0.6640    -0.6570 N.pl3 1 <1>   0.0480 
  6 C        3.0380    -0.5290     2.2670 C.2   1 <1>   0.5690 
  7 N       -2.6980    -0.8700     1.1840 N.2   1 <1>  -0.3380 
  8 C       -2.7660    -0.7880    -0.1080 C.2   1 <1>   0.0060 
  9 C       -1.1430    -0.5380    -2.0730 C.3   1 <1>   0.0160 
 10 O        3.5170    -0.0530     3.2680 O.2   1 <1>  -0.5700 
 11 N        3.8220    -1.0460     1.2880 N.am  1 <1>  -0.7300 
 12 C       -4.0630    -0.8340    -0.9170 C.3   1 <1>   0.1000 
 13 C        5.2900    -1.0050     1.2760 C.3   1 <1>   0.2840 
 14 C       -5.2460    -0.2540    -0.1300 C.3   1 <1>  -0.2400 
 15 C       -4.3700    -2.2760    -1.3350 C.3   1 <1>  -0.2400 
 16 C        5.7470    -1.0760    -0.1690 C.ar  1 <1>  -0.1440 
 17 C        6.1890    -2.2740    -0.7110 C.ar  1 <1>  -0.1500 
 18 C        5.7180     0.0600    -0.9630 C.ar  1 <1>  -0.1500 
 19 C        6.6010    -2.3340    -2.0320 C.ar  1 <1>  -0.1500 
 20 C        6.1300     0.0020    -2.2830 C.ar  1 <1>  -0.1500 
 21 C        6.5720    -1.1950    -2.8180 C.ar  1 <1>  -0.1500 
 22 H        1.1220    -1.4530     2.5500 H     1 <1>   0.0800 
 23 H        1.0850     0.3040     2.5880 H     1 <1>   0.0800 
 24 H       -1.0910     0.5030    -2.3340 H     1 <1>   0.0800 
 25 H       -1.8580    -1.0340    -2.7030 H     1 <1>   0.0800 
 26 H       -0.1790    -0.9900    -2.2160 H     1 <1>   0.0800 
 27 H        3.3980    -1.3640     0.4130 H     1 <1>   0.3700 
 28 H       -3.9410    -0.2340    -1.8010 H     1 <1>   0.0800 
 29 H        5.6760    -1.8380     1.8380 H     1 <1>   0.0800 
 30 H        5.6360    -0.0940     1.7350 H     1 <1>   0.0800 
 31 H       -5.4370    -0.8420     0.7510 H     1 <1>   0.0800 
 32 H       -6.1330    -0.2410    -0.7360 H     1 <1>   0.0800 
 33 H       -5.0230     0.7530     0.1780 H     1 <1>   0.0800 
 34 H       -4.5010    -2.8920    -0.4620 H     1 <1>   0.0800 
 35 H       -3.5610    -2.6800    -1.9160 H     1 <1>   0.0800 
 36 H       -5.2690    -2.3140    -1.9230 H     1 <1>   0.0800 
 37 H        6.2150    -3.1660    -0.1090 H     1 <1>   0.1500 
 38 H        5.3720     0.9940    -0.5540 H     1 <1>   0.1500 
 39 H        6.9450    -3.2650    -2.4470 H     1 <1>   0.1500 
 40 H        6.1070     0.8880    -2.8940 H     1 <1>   0.1500 
 41 H        6.8940    -1.2410    -3.8440 H     1 <1>   0.1500 
@<TRIPOS>BOND
  1   1   2  1   
  2   1   3  1   
  3   2   4  2   
  4   2   5  1   
  5   3   6  1   
  6   3  22  1   
  7   3  23  1   
  8   4   7  1   
  9   5   8  1   
 10   5   9  1   
 11   6  10  2   
 12   6  11  am  
 13   7   8  2   
 14   8  12  1   
 15   9  24  1   
 16   9  25  1   
 17   9  26  1   
 18  11  13  1   
 19  11  27  1   
 20  12  14  1   
 21  12  15  1   
 22  12  28  1   
 23  13  16  1   
 24  13  29  1   
 25  13  30  1   
 26  14  31  1   
 27  14  32  1   
 28  14  33  1   
 29  15  34  1   
 30  15  35  1   
 31  15  36  1   
 32  16  17  ar  
 33  16  18  ar  
 34  17  19  ar  
 35  17  37  1   
 36  18  20  ar  
 37  18  38  1   
 38  19  21  ar  
 39  19  39  1   
 40  20  21  ar  
 41  20  40  1   
 42  21  41  1   
@<TRIPOS>SUBSTRUCTURE
  1 ****   1 GROUP 4 **** **** 0

# MOE 2024.06 (io_trps.svl 2023.06)
