@<TRIPOS>MOLECULE
NONAME
48 49 1 0 0 
SMALL
USER_CHARGES


@<TRIPOS>ATOM
  1 O      -10.1110     0.8360     0.0120 O.3   1 <1>  -0.5600 
  2 C      -11.2610     1.5490     0.3490 C.3   1 <1>   0.2640 
  3 C       -8.9110     1.4610     0.3460 C.3   1 <1>   0.1200 
  4 C      -12.4690     0.6970     0.0010 C.ar  1 <1>  -0.1440 
  5 C       -7.7600     0.5210    -0.0430 C.3   1 <1>   0.2000 
  6 C      -12.8010     0.4690    -1.3270 C.ar  1 <1>  -0.1500 
  7 C      -13.2530     0.1410     1.0010 C.ar  1 <1>  -0.1500 
  8 O       -8.0670    -0.7360     0.4590 O.3   1 <1>  -0.6800 
  9 C       -6.4060     0.9830     0.5300 C.3   1 <1>   0.3430 
 10 C      -13.9040    -0.3010    -1.6510 C.ar  1 <1>  -0.1500 
 11 C      -14.3570    -0.6290     0.6770 C.ar  1 <1>  -0.1500 
 12 N       -5.1440     0.3260     0.0000 N.4   1 <1>  -0.9590 
 13 C      -14.6840    -0.8490    -0.6490 C.ar  1 <1>  -0.1500 
 14 C       -4.5600     0.8450    -1.2700 C.3   1 <1>   0.4230 
 15 C       -5.1270    -1.1670     0.0630 C.3   1 <1>   0.4230 
 16 C       -3.1650     0.2070    -1.4870 C.3   1 <1>  -0.1600 
 17 C       -4.4420     2.3690    -1.2130 C.3   1 <1>  -0.2400 
 18 C       -3.6600    -1.5760     0.2890 C.3   1 <1>  -0.1600 
 19 C       -5.6750    -1.8520    -1.2030 C.3   1 <1>  -0.2400 
 20 C       -2.6210    -0.5790    -0.2760 C.3   1 <1>  -0.1600 
 21 H      -11.2790     2.4680    -0.2110 H     1 <1>   0.0800 
 22 H      -11.2430     1.7650     1.4030 H     1 <1>   0.0800 
 23 H       -8.9030     1.6490     1.4070 H     1 <1>   0.0800 
 24 H       -8.8420     2.3930    -0.1900 H     1 <1>   0.0800 
 25 H       -7.7150     0.4640    -1.1160 H     1 <1>   0.0800 
 26 H      -12.1960     0.8880    -2.1120 H     1 <1>   0.1500 
 27 H      -13.0100     0.3010     2.0360 H     1 <1>   0.1500 
 28 H       -9.0390    -0.8680     0.3270 H     1 <1>   0.4000 
 29 H       -6.4540     0.8240     1.5950 H     1 <1>   0.0800 
 30 H       -6.3310     2.0460     0.3850 H     1 <1>   0.0800 
 31 H      -14.1550    -0.4730    -2.6830 H     1 <1>   0.1500 
 32 H      -14.9620    -1.0580     1.4580 H     1 <1>   0.1500 
 33 H       -4.4230     0.5730     0.6850 H     1 <1>   0.4500 
 34 H      -15.5420    -1.4480    -0.9000 H     1 <1>   0.1500 
 35 H       -5.1990     0.5790    -2.0980 H     1 <1>   0.0800 
 36 H       -5.7180    -1.4950     0.9050 H     1 <1>   0.0800 
 37 H       -2.4440     0.9560    -1.7680 H     1 <1>   0.0800 
 38 H       -3.2270    -0.4570    -2.3310 H     1 <1>   0.0800 
 39 H       -3.8830     2.6840    -0.3500 H     1 <1>   0.0800 
 40 H       -5.4090     2.8380    -1.2180 H     1 <1>   0.0800 
 41 H       -3.9270     2.7220    -2.0890 H     1 <1>   0.0800 
 42 H       -3.4930    -2.5480    -0.1440 H     1 <1>   0.0800 
 43 H       -3.4930    -1.6920     1.3460 H     1 <1>   0.0800 
 44 H       -4.9980    -1.7960    -2.0320 H     1 <1>   0.0800 
 45 H       -6.6240    -1.4600    -1.5060 H     1 <1>   0.0800 
 46 H       -5.8210    -2.8960    -0.9870 H     1 <1>   0.0800 
 47 H       -2.3490     0.1220     0.4960 H     1 <1>   0.0800 
 48 H       -1.7230    -1.1070    -0.5520 H     1 <1>   0.0800 
@<TRIPOS>BOND
  1   1   2  1   
  2   1   3  1   
  3   2   4  1   
  4   2  21  1   
  5   2  22  1   
  6   3   5  1   
  7   3  23  1   
  8   3  24  1   
  9   4   6  ar  
 10   4   7  ar  
 11   5   8  1   
 12   5   9  1   
 13   5  25  1   
 14   6  10  ar  
 15   6  26  1   
 16   7  11  ar  
 17   7  27  1   
 18   8  28  1   
 19   9  12  1   
 20   9  29  1   
 21   9  30  1   
 22  10  13  ar  
 23  10  31  1   
 24  11  13  ar  
 25  11  32  1   
 26  12  14  1   
 27  12  15  1   
 28  12  33  1   
 29  13  34  1   
 30  14  16  1   
 31  14  17  1   
 32  14  35  1   
 33  15  18  1   
 34  15  19  1   
 35  15  36  1   
 36  16  20  1   
 37  16  37  1   
 38  16  38  1   
 39  17  39  1   
 40  17  40  1   
 41  17  41  1   
 42  18  20  1   
 43  18  42  1   
 44  18  43  1   
 45  19  44  1   
 46  19  45  1   
 47  19  46  1   
 48  20  47  1   
 49  20  48  1   
@<TRIPOS>SUBSTRUCTURE
  1 ****   5 GROUP 4 **** **** 0

# MOE 2024.06 (io_trps.svl 2023.06)
