@<TRIPOS>MOLECULE
NONAME
41 42 1 0 0 
SMALL
USER_CHARGES


@<TRIPOS>ATOM
  1 O        0.4360    -0.4840     2.3170 O.2   1 <1>  -0.5700 
  2 C        1.0630    -0.7920     1.3280 C.2   1 <1>   0.6900 
  3 N        0.6700    -1.7250     0.4120 N.am  1 <1>  -0.4200 
  4 N        2.2570    -0.2600     1.0070 N.am  1 <1>  -0.7300 
  5 C        1.6410    -1.8660    -0.5350 C.2   1 <1>   0.5690 
  6 C       -0.5830    -2.5110     0.4900 C.3   1 <1>   0.1400 
  7 C        2.8000    -0.9060    -0.1940 C.3   1 <1>   0.3610 
  8 O        1.6040    -2.6150    -1.4830 O.2   1 <1>  -0.5700 
  9 C       -1.7880    -1.6270     0.1740 C.3   1 <1>   0.1200 
 10 C        4.0940    -1.6330     0.1780 C.3   1 <1>  -0.2400 
 11 C        3.0340     0.1620    -1.2640 C.3   1 <1>  -0.2400 
 12 O       -2.9330    -2.4190     0.2070 O.3   1 <1>  -0.5600 
 13 C       -4.1110    -1.7140    -0.0330 C.3   1 <1>   0.1200 
 14 C       -5.2780    -2.6920     0.0310 C.3   1 <1>   0.1200 
 15 O       -6.4720    -1.9820    -0.2200 O.3   1 <1>  -0.3630 
 16 C       -7.6740    -2.6100    -0.2220 C.ar  1 <1>   0.0820 
 17 C       -8.7880    -1.8250    -0.4780 C.ar  1 <1>  -0.1500 
 18 C       -7.8370    -3.9730     0.0150 C.ar  1 <1>  -0.1500 
 19 C      -10.0520    -2.3860    -0.4980 C.ar  1 <1>  -0.1500 
 20 C       -9.1030    -4.5320    -0.0050 C.ar  1 <1>  -0.1500 
 21 C      -10.2100    -3.7410    -0.2620 C.ar  1 <1>  -0.1500 
 22 H        2.8130     0.2910     1.6590 H     1 <1>   0.3700 
 23 H       -0.6820    -2.9110     1.4840 H     1 <1>   0.0800 
 24 H       -0.5390    -3.3230    -0.2140 H     1 <1>   0.0800 
 25 H       -1.6940    -1.2020    -0.8100 H     1 <1>   0.0800 
 26 H       -1.8860    -0.8500     0.9140 H     1 <1>   0.0800 
 27 H        3.9110    -2.3470     0.9620 H     1 <1>   0.0800 
 28 H        4.8440    -0.9340     0.5000 H     1 <1>   0.0800 
 29 H        4.4680    -2.1650    -0.6790 H     1 <1>   0.0800 
 30 H        2.1180     0.6860    -1.4750 H     1 <1>   0.0800 
 31 H        3.3710    -0.3040    -2.1720 H     1 <1>   0.0800 
 32 H        3.7790     0.8660    -0.9410 H     1 <1>   0.0800 
 33 H       -4.0540    -1.2670    -1.0110 H     1 <1>   0.0800 
 34 H       -4.2200    -0.9560     0.7240 H     1 <1>   0.0800 
 35 H       -5.3440    -3.1290     1.0120 H     1 <1>   0.0800 
 36 H       -5.1700    -3.4510    -0.7230 H     1 <1>   0.0800 
 37 H       -8.6570    -0.7740    -0.6610 H     1 <1>   0.1500 
 38 H       -6.9980    -4.6100     0.2170 H     1 <1>   0.1500 
 39 H      -10.9110    -1.7700    -0.6980 H     1 <1>   0.1500 
 40 H       -9.2290    -5.5850     0.1780 H     1 <1>   0.1500 
 41 H      -11.1930    -4.1790    -0.2770 H     1 <1>   0.1500 
@<TRIPOS>BOND
  1   1   2  2   
  2   2   3  am  
  3   2   4  am  
  4   3   5  am  
  5   3   6  1   
  6   4   7  1   
  7   4  22  1   
  8   5   7  1   
  9   5   8  2   
 10   6   9  1   
 11   6  23  1   
 12   6  24  1   
 13   7  10  1   
 14   7  11  1   
 15   9  12  1   
 16   9  25  1   
 17   9  26  1   
 18  10  27  1   
 19  10  28  1   
 20  10  29  1   
 21  11  30  1   
 22  11  31  1   
 23  11  32  1   
 24  12  13  1   
 25  13  14  1   
 26  13  33  1   
 27  13  34  1   
 28  14  15  1   
 29  14  35  1   
 30  14  36  1   
 31  15  16  1   
 32  16  17  ar  
 33  16  18  ar  
 34  17  19  ar  
 35  17  37  1   
 36  18  20  ar  
 37  18  38  1   
 38  19  21  ar  
 39  19  39  1   
 40  20  21  ar  
 41  20  40  1   
 42  21  41  1   
@<TRIPOS>SUBSTRUCTURE
  1 ****  12 GROUP 4 **** **** 0

# MOE 2024.06 (io_trps.svl 2023.06)
