@<TRIPOS>MOLECULE
NONAME
32 34 1 0 0 
SMALL
USER_CHARGES


@<TRIPOS>ATOM
  1 S       -0.4740     0.3410     1.1920 S.3   1 <1>  -0.0800 
  2 C       -1.7880     0.8830     0.1410 C.2   1 <1>   0.0410 
  3 C        0.7510     0.9180     0.0780 C.2   1 <1>  -0.1100 
  4 C       -3.1540     0.6700     0.5500 C.2   1 <1>   0.5150 
  5 C       -1.2500     1.4550    -0.9650 C.2   1 <1>  -0.1500 
  6 C        0.1770     1.4760    -1.0020 C.2   1 <1>  -0.1500 
  7 N       -3.5400     0.1050     1.6450 N.2   1 <1>  -0.4100 
  8 N       -4.1840     1.0640    -0.2220 N.2   1 <1>  -0.5650 
  9 O       -4.8130     0.1370     1.5790 O.3   1 <1>  -0.0190 
 10 C       -5.2100     0.7040     0.4740 C.2   1 <1>   0.3930 
 11 C       -6.6380     0.8310     0.2140 C.2   1 <1>   0.7150 
 12 O       -7.0610     1.3470    -0.8060 O.2   1 <1>  -0.5700 
 13 N       -7.5640     0.3590     1.1130 N.am  1 <1>  -0.7300 
 14 C       -9.0440     0.4550     0.9530 C.3   1 <1>   0.1400 
 15 C       -9.5760    -0.5320    -0.0970 C.3   1 <1>   0.2000 
 16 O      -10.9620    -0.5660    -0.0280 O.3   1 <1>  -0.5600 
 17 C       -9.1670    -1.9860     0.1100 C.3   1 <1>  -0.1600 
 18 C      -11.4390    -1.7240    -0.6330 C.3   1 <1>   0.1200 
 19 C      -10.3240    -2.7600    -0.5010 C.3   1 <1>  -0.1600 
 20 H        1.7820     0.7770     0.3540 H     1 <1>   0.1500 
 21 H       -1.8300     1.8710    -1.7710 H     1 <1>   0.1500 
 22 H        0.7040     1.9070    -1.8360 H     1 <1>   0.1500 
 23 H       -7.2400    -0.1040     1.9650 H     1 <1>   0.3700 
 24 H       -9.3040     1.4550     0.6490 H     1 <1>   0.0800 
 25 H       -9.5130     0.2510     1.8990 H     1 <1>   0.0800 
 26 H       -9.3100    -0.2010    -1.0880 H     1 <1>   0.0800 
 27 H       -9.0950    -2.1990     1.1620 H     1 <1>   0.0800 
 28 H       -8.2270    -2.2030    -0.3650 H     1 <1>   0.0800 
 29 H      -11.6460    -1.5020    -1.6660 H     1 <1>   0.0800 
 30 H      -12.3410    -2.0270    -0.1310 H     1 <1>   0.0800 
 31 H      -10.6290    -3.5780     0.1280 H     1 <1>   0.0800 
 32 H      -10.0680    -3.1420    -1.4740 H     1 <1>   0.0800 
@<TRIPOS>BOND
  1   1   2  1   
  2   1   3  1   
  3   2   4  1   
  4   2   5  2   
  5   3   6  2   
  6   3  20  1   
  7   4   7  2   
  8   4   8  1   
  9   5   6  1   
 10   5  21  1   
 11   6  22  1   
 12   7   9  1   
 13   8  10  2   
 14   9  10  1   
 15  10  11  1   
 16  11  12  2   
 17  11  13  am  
 18  13  14  1   
 19  13  23  1   
 20  14  15  1   
 21  14  24  1   
 22  14  25  1   
 23  15  16  1   
 24  15  17  1   
 25  15  26  1   
 26  16  18  1   
 27  17  19  1   
 28  17  27  1   
 29  17  28  1   
 30  18  19  1   
 31  18  29  1   
 32  18  30  1   
 33  19  31  1   
 34  19  32  1   
@<TRIPOS>SUBSTRUCTURE
  1 ****  10 GROUP 4 **** **** 0

# MOE 2024.06 (io_trps.svl 2023.06)
