@<TRIPOS>MOLECULE
NONAME
40 42 1 0 0 
SMALL
USER_CHARGES


@<TRIPOS>ATOM
  1 S       -0.8010     0.7720     1.6140 S.3   1 <1>  -0.3710 
  2 C       -1.8810    -0.4460     0.8670 C.2   1 <1>   0.6510 
  3 C       -1.6170     2.3980     1.2860 C.3   1 <1>  -0.0100 
  4 N       -2.9390     0.0030     0.3030 N.2   1 <1>  -0.6290 
  5 N       -1.5090    -1.7740     0.9510 N.am  1 <1>  -0.4200 
  6 C       -3.8040    -0.8970    -0.2760 C.ar  1 <1>   0.1790 
  7 C       -2.3640    -2.7170     0.4210 C.2   1 <1>   0.5440 
  8 C       -0.2310    -2.2350     1.5820 C.3   1 <1>   0.1400 
  9 C       -3.5590    -2.2740    -0.2400 C.ar  1 <1>   0.0860 
 10 C       -4.9500    -0.4210    -0.9070 C.ar  1 <1>  -0.1500 
 11 O       -2.1020    -3.9060     0.5200 O.2   1 <1>  -0.5700 
 12 C        0.8480    -2.5690     0.5310 C.3   1 <1>  -0.0800 
 13 C       -4.4790    -3.1380    -0.8430 C.ar  1 <1>  -0.1500 
 14 C       -5.8470    -1.2860    -1.4970 C.ar  1 <1>  -0.1500 
 15 C        2.0980    -3.1310     1.2340 C.3   1 <1>  -0.1600 
 16 C        1.2280    -1.3580    -0.3430 C.3   1 <1>  -0.1600 
 17 C       -5.6100    -2.6520    -1.4650 C.ar  1 <1>  -0.1500 
 18 C        3.2020    -3.4850     0.2290 C.3   1 <1>  -0.1600 
 19 C        2.3340    -1.7100    -1.3470 C.3   1 <1>  -0.1600 
 20 C        3.5700    -2.2740    -0.6380 C.3   1 <1>  -0.1600 
 21 H       -1.6990     2.5180     0.2200 H     1 <1>   0.0800 
 22 H       -1.0040     3.1690     1.7150 H     1 <1>   0.0800 
 23 H       -2.5900     2.3780     1.7440 H     1 <1>   0.0800 
 24 H       -0.4370    -3.1210     2.1580 H     1 <1>   0.0800 
 25 H        0.1490    -1.5080     2.2740 H     1 <1>   0.0800 
 26 H       -5.1230     0.6400    -0.9250 H     1 <1>   0.1500 
 27 H        0.4610    -3.3440    -0.1090 H     1 <1>   0.0800 
 28 H       -4.2920    -4.1980    -0.8160 H     1 <1>   0.1500 
 29 H       -6.7300    -0.9060    -1.9830 H     1 <1>   0.1500 
 30 H        1.8340    -4.0140     1.7900 H     1 <1>   0.0800 
 31 H        2.4780    -2.4020     1.9300 H     1 <1>   0.0800 
 32 H        1.5690    -0.5530     0.2850 H     1 <1>   0.0800 
 33 H        0.3680    -1.0110    -0.8890 H     1 <1>   0.0800 
 34 H       -6.3100    -3.3290    -1.9250 H     1 <1>   0.1500 
 35 H        2.8620    -4.2860    -0.4050 H     1 <1>   0.0800 
 36 H        4.0750    -3.8290     0.7570 H     1 <1>   0.0800 
 37 H        2.6080    -0.8310    -1.9040 H     1 <1>   0.0800 
 38 H        1.9600    -2.4400    -2.0460 H     1 <1>   0.0800 
 39 H        4.3050    -2.5640    -1.3690 H     1 <1>   0.0800 
 40 H        4.0050    -1.5100    -0.0170 H     1 <1>   0.0800 
@<TRIPOS>BOND
  1   1   2  1   
  2   1   3  1   
  3   2   4  2   
  4   2   5  1   
  5   3  21  1   
  6   3  22  1   
  7   3  23  1   
  8   4   6  1   
  9   5   7  am  
 10   5   8  1   
 11   6   9  ar  
 12   6  10  ar  
 13   7   9  1   
 14   7  11  2   
 15   8  12  1   
 16   8  24  1   
 17   8  25  1   
 18   9  13  ar  
 19  10  14  ar  
 20  10  26  1   
 21  12  15  1   
 22  12  16  1   
 23  12  27  1   
 24  13  17  ar  
 25  13  28  1   
 26  14  17  ar  
 27  14  29  1   
 28  15  18  1   
 29  15  30  1   
 30  15  31  1   
 31  16  19  1   
 32  16  32  1   
 33  16  33  1   
 34  17  34  1   
 35  18  20  1   
 36  18  35  1   
 37  18  36  1   
 38  19  20  1   
 39  19  37  1   
 40  19  38  1   
 41  20  39  1   
 42  20  40  1   
@<TRIPOS>SUBSTRUCTURE
  1 ****   5 GROUP 4 **** **** 0

# MOE 2024.06 (io_trps.svl 2023.06)
