@<TRIPOS>MOLECULE
NONAME
39 40 1 0 0 
SMALL
USER_CHARGES


@<TRIPOS>ATOM
  1 O        0.9210     3.5990    -2.6100 O.2   1 <1>  -0.5700 
  2 C        0.2140     3.0890    -1.7730 C.2   1 <1>   0.5690 
  3 N        0.6910     2.1780    -0.8860 N.am  1 <1>  -0.7300 
  4 C       -1.2570     3.4880    -1.7220 C.3   1 <1>   0.1810 
  5 C        2.0730     1.6850    -0.7980 C.3   1 <1>   0.2200 
  6 O       -1.9510     2.8020    -0.6850 O.3   1 <1>  -0.3630 
  7 C        2.0590     0.1660    -0.9100 C.3   1 <1>  -0.1600 
  8 C        2.5910     1.9280     0.6140 C.3   1 <1>  -0.1600 
  9 C       -3.2730     3.0150    -0.4690 C.ar  1 <1>   0.0820 
 10 C        1.6950    -0.3520     0.4870 C.3   1 <1>  -0.1600 
 11 C        2.0360     0.7800     1.4650 C.3   1 <1>  -0.1600 
 12 C       -3.8600     2.3010     0.5620 C.ar  1 <1>  -0.1500 
 13 C       -4.0500     3.8930    -1.2160 C.ar  1 <1>  -0.1500 
 14 C       -5.2050     2.4490     0.8610 C.ar  1 <1>  -0.1440 
 15 C       -5.3930     4.0440    -0.9220 C.ar  1 <1>  -0.1500 
 16 C       -5.9800     3.3290     0.1120 C.ar  1 <1>  -0.1440 
 17 C       -5.8010     1.6410     2.0060 C.3   1 <1>  -0.0970 
 18 C       -7.4610     3.5270     0.4010 C.3   1 <1>  -0.0970 
 19 H        0.0410     1.7840    -0.2030 H     1 <1>   0.3700 
 20 H       -1.7200     3.2440    -2.6590 H     1 <1>   0.0800 
 21 H       -1.3280     4.5430    -1.5370 H     1 <1>   0.0800 
 22 H        2.6920     2.1490    -1.5490 H     1 <1>   0.0800 
 23 H        3.0530    -0.1650    -1.1560 H     1 <1>   0.0800 
 24 H        1.3830    -0.1790    -1.6720 H     1 <1>   0.0800 
 25 H        2.3110     2.8980     0.9880 H     1 <1>   0.0800 
 26 H        3.6640     1.8640     0.5970 H     1 <1>   0.0800 
 27 H        2.2410    -1.2510     0.7170 H     1 <1>   0.0800 
 28 H        0.6400    -0.5650     0.5330 H     1 <1>   0.0800 
 29 H        1.1420     1.1010     1.9740 H     1 <1>   0.0800 
 30 H        2.7570     0.4630     2.1990 H     1 <1>   0.0800 
 31 H       -3.2470     1.6270     1.1300 H     1 <1>   0.1500 
 32 H       -3.6370     4.4650    -2.0240 H     1 <1>   0.1500 
 33 H       -5.9840     4.7270    -1.5070 H     1 <1>   0.1500 
 34 H       -5.0550     1.0180     2.4670 H     1 <1>   0.0800 
 35 H       -6.5880     1.0080     1.6390 H     1 <1>   0.0800 
 36 H       -6.1990     2.3010     2.7550 H     1 <1>   0.0800 
 37 H       -7.9860     2.5950     0.2890 H     1 <1>   0.0800 
 38 H       -7.8950     4.2410    -0.2750 H     1 <1>   0.0800 
 39 H       -7.5960     3.8880     1.4040 H     1 <1>   0.0800 
@<TRIPOS>BOND
  1   1   2  2   
  2   2   3  am  
  3   2   4  1   
  4   3   5  1   
  5   3  19  1   
  6   4   6  1   
  7   4  20  1   
  8   4  21  1   
  9   5   7  1   
 10   5   8  1   
 11   5  22  1   
 12   6   9  1   
 13   7  10  1   
 14   7  23  1   
 15   7  24  1   
 16   8  11  1   
 17   8  25  1   
 18   8  26  1   
 19   9  12  ar  
 20   9  13  ar  
 21  10  11  1   
 22  10  27  1   
 23  10  28  1   
 24  11  29  1   
 25  11  30  1   
 26  12  14  ar  
 27  12  31  1   
 28  13  15  ar  
 29  13  32  1   
 30  14  16  ar  
 31  14  17  1   
 32  15  16  ar  
 33  15  33  1   
 34  16  18  1   
 35  17  34  1   
 36  17  35  1   
 37  17  36  1   
 38  18  37  1   
 39  18  38  1   
 40  18  39  1   
@<TRIPOS>SUBSTRUCTURE
  1 ****   6 GROUP 4 **** **** 0

# MOE 2024.06 (io_trps.svl 2023.06)
