@<TRIPOS>MOLECULE
NONAME
26 27 1 0 0 
SMALL
USER_CHARGES


@<TRIPOS>ATOM
  1 F        0.4850    -0.3870     0.0460 F     1 <1>  -0.3400 
  2 C        1.5420    -0.5310     0.8490 C.3   1 <1>   1.0200 
  3 F        1.2370     0.1630     1.9460 F     1 <1>  -0.3400 
  4 F        1.5470    -1.8120     1.2180 F     1 <1>  -0.3400 
  5 C        2.8830    -0.0380     0.1600 C.3   1 <1>   0.8600 
  6 O        3.1980    -0.8690    -0.9640 O.3   1 <1>  -0.3630 
  7 O        3.9810    -0.1710     1.0710 O.3   1 <1>  -0.3630 
  8 N        2.8350     1.3600    -0.3320 N.am  1 <1>  -0.7300 
  9 C        4.3350    -1.5080    -0.6620 C.ar  1 <1>   0.0830 
 10 C        4.8020    -1.0920     0.5520 C.ar  1 <1>   0.0830 
 11 C        3.8630     2.0450    -0.8760 C.2   1 <1>   0.7800 
 12 C        5.0040    -2.4590    -1.4060 C.ar  1 <1>  -0.1500 
 13 C        5.9650    -1.6030     1.0920 C.ar  1 <1>  -0.1500 
 14 O        4.9950     1.6290    -0.9220 O.2   1 <1>  -0.5700 
 15 O        3.6230     3.2490    -1.3940 O.3   1 <1>  -0.4300 
 16 C        6.1750    -2.9880    -0.8780 C.ar  1 <1>  -0.1500 
 17 C        6.6520    -2.5640     0.3600 C.ar  1 <1>  -0.1500 
 18 C        2.3850     3.9260    -1.3260 C.3   1 <1>   0.0400 
 19 H        1.9000     1.6980    -0.5190 H     1 <1>   0.3700 
 20 H        4.6250    -2.7710    -2.3620 H     1 <1>   0.1500 
 21 H        6.3200    -1.2590     2.0460 H     1 <1>   0.1500 
 22 H        6.7220    -3.7310    -1.4340 H     1 <1>   0.1500 
 23 H        7.5630    -2.9810     0.7520 H     1 <1>   0.1500 
 24 H        2.5120     4.8970    -1.7720 H     1 <1>   0.0800 
 25 H        2.1000     4.0370    -0.2940 H     1 <1>   0.0800 
 26 H        1.6460     3.3700    -1.8760 H     1 <1>   0.0800 
@<TRIPOS>BOND
  1   1   2  1   
  2   2   3  1   
  3   2   4  1   
  4   2   5  1   
  5   5   6  1   
  6   5   7  1   
  7   5   8  1   
  8   6   9  1   
  9   7  10  1   
 10   8  11  am  
 11   8  19  1   
 12   9  10  ar  
 13   9  12  ar  
 14  10  13  ar  
 15  11  14  2   
 16  11  15  1   
 17  12  16  ar  
 18  12  20  1   
 19  13  17  ar  
 20  13  21  1   
 21  15  18  1   
 22  16  17  ar  
 23  16  22  1   
 24  17  23  1   
 25  18  24  1   
 26  18  25  1   
 27  18  26  1   
@<TRIPOS>SUBSTRUCTURE
  1 ****   5 GROUP 4 **** **** 0

# MOE 2024.06 (io_trps.svl 2023.06)
