@<TRIPOS>MOLECULE
NONAME
35 35 1 0 0 
SMALL
USER_CHARGES


@<TRIPOS>ATOM
  1 O        0.8640     0.6660    -1.9910 O.2   1 <1>  -0.5700 
  2 C        1.5910     0.9240    -1.0530 C.2   1 <1>   0.7800 
  3 O        2.7190     0.2220    -0.9500 O.3   1 <1>  -0.4300 
  4 N        1.2680     1.8610    -0.1300 N.am  1 <1>  -0.7300 
  5 C        3.4210    -0.1440     0.2170 C.3   1 <1>   0.2800 
  6 C        0.1110     2.7750    -0.2170 C.3   1 <1>   0.2200 
  7 C        2.4710    -0.8210     1.2120 C.3   1 <1>  -0.2400 
  8 C        4.4650    -1.1560    -0.2560 C.3   1 <1>  -0.2400 
  9 C        4.1350     1.0640     0.8280 C.3   1 <1>  -0.2400 
 10 C        0.2610     3.9080     0.8080 C.3   1 <1>  -0.1860 
 11 C       -1.1890     1.9810     0.0200 C.3   1 <1>  -0.0220 
 12 C        1.6070     4.5940     0.6750 C.2   1 <1>   0.9060 
 13 C       -0.9140     4.9030     0.7000 C.3   1 <1>  -0.0220 
 14 C       -2.3740     2.8840     0.3400 C.2   1 <1>  -0.2880 
 15 O        1.6910     5.7120     0.1590 O.co2 1 <1>  -0.9000 
 16 O        2.6020     3.9870     1.0910 O.co2 1 <1>  -0.9000 
 17 C       -2.2510     4.1810     0.6320 C.2   1 <1>  -0.2880 
 18 H        2.0560     2.3110     0.3720 H     1 <1>   0.3700 
 19 H        0.0860     3.2100    -1.2030 H     1 <1>   0.0800 
 20 H        3.0280    -1.2090     2.0440 H     1 <1>   0.0800 
 21 H        1.9510    -1.6340     0.7380 H     1 <1>   0.0800 
 22 H        1.7540    -0.1200     1.5980 H     1 <1>   0.0800 
 23 H        5.1300    -0.6950    -0.9650 H     1 <1>   0.0800 
 24 H        3.9830    -1.9960    -0.7230 H     1 <1>   0.0800 
 25 H        5.0460    -1.5140     0.5740 H     1 <1>   0.0800 
 26 H        4.8980     0.7410     1.5110 H     1 <1>   0.0800 
 27 H        3.4530     1.6700     1.3930 H     1 <1>   0.0800 
 28 H        4.5910     1.6650     0.0620 H     1 <1>   0.0800 
 29 H        0.2310     3.4740     1.7890 H     1 <1>   0.0800 
 30 H       -1.4110     1.4120    -0.8650 H     1 <1>   0.0800 
 31 H       -1.0500     1.3010     0.8400 H     1 <1>   0.0800 
 32 H       -0.8900     5.5580     1.5530 H     1 <1>   0.0800 
 33 H       -0.8060     5.5090    -0.1830 H     1 <1>   0.0800 
 34 H       -3.3210     2.3730     0.3060 H     1 <1>   0.1500 
 35 H       -3.0900     4.8220     0.8390 H     1 <1>   0.1500 
@<TRIPOS>BOND
  1   1   2  2   
  2   2   3  1   
  3   2   4  am  
  4   3   5  1   
  5   4   6  1   
  6   4  18  1   
  7   5   7  1   
  8   5   8  1   
  9   5   9  1   
 10   6  10  1   
 11   6  11  1   
 12   6  19  1   
 13   7  20  1   
 14   7  21  1   
 15   7  22  1   
 16   8  23  1   
 17   8  24  1   
 18   8  25  1   
 19   9  26  1   
 20   9  27  1   
 21   9  28  1   
 22  10  12  1   
 23  10  13  1   
 24  10  29  1   
 25  11  14  1   
 26  11  30  1   
 27  11  31  1   
 28  12  15  ar  
 29  12  16  ar  
 30  13  17  1   
 31  13  32  1   
 32  13  33  1   
 33  14  17  2   
 34  14  34  1   
 35  17  35  1   
@<TRIPOS>SUBSTRUCTURE
  1 ****   4 GROUP 4 **** **** 0

# MOE 2024.06 (io_trps.svl 2023.06)
