@<TRIPOS>MOLECULE
NONAME
46 47 1 0 0 
SMALL
USER_CHARGES


@<TRIPOS>ATOM
  1 S       -0.8530     0.2240     0.0670 S.o2  1 <1>   1.3330 
  2 O       -1.4270     1.5250     0.3290 O.2   1 <1>  -0.6500 
  3 O        0.0710     0.0520    -1.0320 O.2   1 <1>  -0.6500 
  4 N       -2.1360    -0.8540    -0.1840 N.am  1 <1>  -0.8490 
  5 C       -0.1080    -0.3780     1.5900 C.3   1 <1>  -0.0550 
  6 C       -3.2020    -0.2300    -0.9930 C.3   1 <1>   0.1960 
  7 C       -1.7100    -2.1160    -0.7960 C.3   1 <1>   0.1960 
  8 C        1.0980     0.4450     2.0770 C.3   1 <1>  -0.2400 
  9 C       -4.3110    -1.2220    -1.4010 C.3   1 <1>  -0.0190 
 10 C       -2.8370    -3.1590    -0.7040 C.3   1 <1>  -0.1600 
 11 C       -5.6740    -0.5550    -1.3030 C.2   1 <1>   0.5690 
 12 C       -4.2430    -2.5410    -0.6050 C.3   1 <1>  -0.1600 
 13 O       -6.3040    -0.3660    -2.3140 O.2   1 <1>  -0.5700 
 14 N       -6.1490    -0.1900    -0.0830 N.am  1 <1>  -0.7300 
 15 C       -7.4400     0.4980     0.1510 C.3   1 <1>   0.1400 
 16 C       -8.5050    -0.5190     0.5590 C.3   1 <1>  -0.0170 
 17 C       -9.8260     0.1840     0.8260 C.ar  1 <1>  -0.1440 
 18 C      -10.6660     0.5040    -0.2290 C.ar  1 <1>  -0.1500 
 19 C      -10.2000     0.5180     2.1190 C.ar  1 <1>  -0.1500 
 20 C      -11.8680     1.1490     0.0050 C.ar  1 <1>  -0.1500 
 21 C      -11.4020     1.1630     2.3540 C.ar  1 <1>  -0.1500 
 22 C      -12.2370     1.4790     1.2970 C.ar  1 <1>  -0.1500 
 23 H        0.2080    -1.3920     1.4490 H     1 <1>   0.0800 
 24 H       -0.8560    -0.3760     2.3600 H     1 <1>   0.0800 
 25 H       -2.7760     0.2040    -1.8840 H     1 <1>   0.0800 
 26 H       -3.6290     0.5780    -0.4210 H     1 <1>   0.0800 
 27 H       -0.8330    -2.4990    -0.3020 H     1 <1>   0.0800 
 28 H       -1.4540    -1.9420    -1.8300 H     1 <1>   0.0800 
 29 H        1.8740     0.4400     1.3310 H     1 <1>   0.0800 
 30 H        1.4890     0.0310     2.9890 H     1 <1>   0.0800 
 31 H        0.8010     1.4640     2.2560 H     1 <1>   0.0800 
 32 H       -4.1570    -1.4620    -2.4380 H     1 <1>   0.0800 
 33 H       -2.6690    -3.7860     0.1540 H     1 <1>   0.0800 
 34 H       -2.7790    -3.7910    -1.5730 H     1 <1>   0.0800 
 35 H       -4.9830    -3.2360    -0.9640 H     1 <1>   0.0800 
 36 H       -4.4540    -2.3370     0.4300 H     1 <1>   0.0800 
 37 H       -5.5830    -0.3760     0.7480 H     1 <1>   0.3700 
 38 H       -7.7520     1.0010    -0.7500 H     1 <1>   0.0800 
 39 H       -7.3190     1.2380     0.9230 H     1 <1>   0.0800 
 40 H       -8.1880    -1.0440     1.4420 H     1 <1>   0.0800 
 41 H       -8.6360    -1.2340    -0.2340 H     1 <1>   0.0800 
 42 H      -10.3860     0.2510    -1.2370 H     1 <1>   0.1500 
 43 H       -9.5590     0.2770     2.9490 H     1 <1>   0.1500 
 44 H      -12.5150     1.3940    -0.8190 H     1 <1>   0.1500 
 45 H      -11.6880     1.4190     3.3590 H     1 <1>   0.1500 
 46 H      -13.1710     1.9810     1.4790 H     1 <1>   0.1500 
@<TRIPOS>BOND
  1   1   2  2   
  2   1   3  2   
  3   1   4  am  
  4   1   5  1   
  5   4   6  1   
  6   4   7  1   
  7   5   8  1   
  8   5  23  1   
  9   5  24  1   
 10   6   9  1   
 11   6  25  1   
 12   6  26  1   
 13   7  10  1   
 14   7  27  1   
 15   7  28  1   
 16   8  29  1   
 17   8  30  1   
 18   8  31  1   
 19   9  11  1   
 20   9  12  1   
 21   9  32  1   
 22  10  12  1   
 23  10  33  1   
 24  10  34  1   
 25  11  13  2   
 26  11  14  am  
 27  12  35  1   
 28  12  36  1   
 29  14  15  1   
 30  14  37  1   
 31  15  16  1   
 32  15  38  1   
 33  15  39  1   
 34  16  17  1   
 35  16  40  1   
 36  16  41  1   
 37  17  18  ar  
 38  17  19  ar  
 39  18  20  ar  
 40  18  42  1   
 41  19  21  ar  
 42  19  43  1   
 43  20  22  ar  
 44  20  44  1   
 45  21  22  ar  
 46  21  45  1   
 47  22  46  1   
@<TRIPOS>SUBSTRUCTURE
  1 ****  14 GROUP 4 **** **** 0

# MOE 2024.06 (io_trps.svl 2023.06)
