@<TRIPOS>MOLECULE
NONAME
43 43 1 0 0 
SMALL
USER_CHARGES


@<TRIPOS>ATOM
  1 O        0.0440    -0.1950    -0.4950 O.2   1 <1>  -0.5700 
  2 C        0.1160     0.9100     0.0040 C.2   1 <1>   0.6900 
  3 N        1.2980     1.5680     0.1440 N.am  1 <1>  -0.5470 
  4 N       -0.9940     1.5490     0.4380 N.am  1 <1>  -0.7300 
  5 C        2.6350     1.2290    -0.1380 C.ar  1 <1>   0.1170 
  6 C       -2.3810     1.0790     0.4170 C.3   1 <1>   0.5000 
  7 C        3.5860     2.2560    -0.1360 C.ar  1 <1>   0.0830 
  8 C        3.0530    -0.0690    -0.4040 C.ar  1 <1>  -0.1500 
  9 C       -3.1240     2.1710     1.1210 C.1   1 <1>  -0.2000 
 10 C       -2.4800    -0.2630     1.1920 C.3   1 <1>  -0.1600 
 11 C       -2.8390     1.0010    -1.0600 C.3   1 <1>  -0.1600 
 12 O        3.1390     3.5210     0.1420 O.3   1 <1>  -0.3630 
 13 C        4.9210     1.9710    -0.4050 C.ar  1 <1>  -0.1500 
 14 C        4.3800    -0.3560    -0.6720 C.ar  1 <1>   0.0830 
 15 C       -3.7080     3.0460     1.6770 C.1   1 <1>  -0.1770 
 16 C       -3.8210    -0.5910     1.8820 C.3   1 <1>  -0.2400 
 17 C       -4.3080     0.6140    -1.3100 C.3   1 <1>  -0.2400 
 18 C        4.0140     4.6270     0.1020 C.3   1 <1>   0.0400 
 19 C        5.3180     0.6720    -0.6730 C.ar  1 <1>  -0.1500 
 20 O        4.6880    -1.6560    -0.9200 O.3   1 <1>  -0.3620 
 21 C        6.0040    -2.0480    -1.2380 C.3   1 <1>   0.0400 
 22 H        1.2090     2.5480     0.4010 H     1 <1>   0.3700 
 23 H       -0.9010     2.4260     0.9390 H     1 <1>   0.3700 
 24 H        2.3500    -0.8800    -0.4040 H     1 <1>   0.1500 
 25 H       -1.7270    -0.2670     1.9600 H     1 <1>   0.0800 
 26 H       -2.2410    -1.0630     0.5140 H     1 <1>   0.0800 
 27 H       -2.2230     0.2890    -1.5800 H     1 <1>   0.0800 
 28 H       -2.6690     1.9620    -1.5120 H     1 <1>   0.0800 
 29 H        5.6690     2.7400    -0.4110 H     1 <1>   0.1500 
 30 H       -4.2430     3.8340     2.1780 H     1 <1>   0.1770 
 31 H       -4.0190     0.1060     2.6780 H     1 <1>   0.0800 
 32 H       -3.7730    -1.5770     2.3100 H     1 <1>   0.0800 
 33 H       -4.6420    -0.5630     1.1920 H     1 <1>   0.0800 
 34 H       -4.4780    -0.4130    -1.0440 H     1 <1>   0.0800 
 35 H       -4.5370     0.7260    -2.3550 H     1 <1>   0.0800 
 36 H       -4.9750     1.2440    -0.7480 H     1 <1>   0.0800 
 37 H        3.4460     5.5130     0.3240 H     1 <1>   0.0800 
 38 H        4.4360     4.7030    -0.8850 H     1 <1>   0.0800 
 39 H        4.7830     4.4930     0.8420 H     1 <1>   0.0800 
 40 H        6.3540     0.4810    -0.8780 H     1 <1>   0.1500 
 41 H        6.0020    -3.1100    -1.4060 H     1 <1>   0.0800 
 42 H        6.6490    -1.8100    -0.4120 H     1 <1>   0.0800 
 43 H        6.3130    -1.5370    -2.1330 H     1 <1>   0.0800 
@<TRIPOS>BOND
  1   1   2  2   
  2   2   3  am  
  3   2   4  am  
  4   3   5  1   
  5   3  22  1   
  6   4   6  1   
  7   4  23  1   
  8   5   7  ar  
  9   5   8  ar  
 10   6   9  1   
 11   6  10  1   
 12   6  11  1   
 13   7  12  1   
 14   7  13  ar  
 15   8  14  ar  
 16   8  24  1   
 17   9  15  3   
 18  10  16  1   
 19  10  25  1   
 20  10  26  1   
 21  11  17  1   
 22  11  27  1   
 23  11  28  1   
 24  12  18  1   
 25  13  19  ar  
 26  13  29  1   
 27  14  19  ar  
 28  14  20  1   
 29  15  30  1   
 30  16  31  1   
 31  16  32  1   
 32  16  33  1   
 33  17  34  1   
 34  17  35  1   
 35  17  36  1   
 36  18  37  1   
 37  18  38  1   
 38  18  39  1   
 39  19  40  1   
 40  20  21  1   
 41  21  41  1   
 42  21  42  1   
 43  21  43  1   
@<TRIPOS>SUBSTRUCTURE
  1 ****   3 GROUP 4 **** **** 0

# MOE 2024.06 (io_trps.svl 2023.06)
