@<TRIPOS>MOLECULE
NONAME
50 52 1 0 0 
SMALL
USER_CHARGES


@<TRIPOS>ATOM
  1 S        0.7440    -0.2300     0.7340 S.o2  1 <1>   1.3330 
  2 O        0.6650    -0.9330     1.9960 O.2   1 <1>  -0.6500 
  3 O        1.2760     1.1140     0.7000 O.2   1 <1>  -0.6500 
  4 N        1.6800    -1.1840    -0.3060 N.am  1 <1>  -0.8490 
  5 C       -0.8620    -0.2270    -0.0670 C.3   1 <1>  -0.0550 
  6 C        3.0850    -0.7270    -0.3580 C.3   1 <1>   0.1960 
  7 C        1.5520    -2.6210    -0.0550 C.3   1 <1>   0.1960 
  8 C       -1.9280     0.5890     0.6840 C.3   1 <1>  -0.1600 
  9 C        4.0780    -1.8070    -0.8270 C.3   1 <1>  -0.0190 
 10 C        2.1620    -3.4170    -1.2210 C.3   1 <1>  -0.1600 
 11 C       -3.2740     0.5530    -0.0450 C.3   1 <1>  -0.2400 
 12 C        5.3410    -1.1250    -1.3600 C.2   1 <1>   0.5690 
 13 C        3.4030    -2.7490    -1.8440 C.3   1 <1>  -0.1600 
 14 O        5.3480    -0.8320    -2.5320 O.2   1 <1>  -0.5700 
 15 N        6.4010    -0.8310    -0.5190 N.am  1 <1>  -0.4770 
 16 C        7.5320    -0.0550    -0.8270 C.ar  1 <1>   0.1170 
 17 C        6.4350    -1.1110     0.9470 C.3   1 <1>   0.2200 
 18 C        8.1560     0.4030     0.3140 C.ar  1 <1>  -0.1440 
 19 C        8.0680     0.2740    -2.0660 C.ar  1 <1>  -0.1500 
 20 C        7.4140    -0.0750     1.5330 C.3   1 <1>  -0.0170 
 21 C        6.9530    -2.5380     1.1720 C.3   1 <1>  -0.2400 
 22 C        9.2950     1.1830     0.2600 C.ar  1 <1>  -0.1500 
 23 C        9.2090     1.0550    -2.1370 C.ar  1 <1>  -0.1500 
 24 C        9.8230     1.5100    -0.9790 C.ar  1 <1>  -0.1500 
 25 H       -1.2070    -1.2370    -0.1650 H     1 <1>   0.0800 
 26 H       -0.7510     0.1760    -1.0550 H     1 <1>   0.0800 
 27 H        3.3930    -0.3780     0.6140 H     1 <1>   0.0800 
 28 H        3.1310     0.1150    -1.0300 H     1 <1>   0.0800 
 29 H        0.5150    -2.8910     0.0540 H     1 <1>   0.0800 
 30 H        2.0550    -2.8670     0.8660 H     1 <1>   0.0800 
 31 H       -1.5960     1.6100     0.7750 H     1 <1>   0.0800 
 32 H       -2.0470     0.1900     1.6780 H     1 <1>   0.0800 
 33 H        4.3380    -2.4090     0.0180 H     1 <1>   0.0800 
 34 H        1.4160    -3.5490    -1.9850 H     1 <1>   0.0800 
 35 H        2.4210    -4.3960    -0.8590 H     1 <1>   0.0800 
 36 H       -3.1800     0.9680    -1.0340 H     1 <1>   0.0800 
 37 H       -4.0010     1.1320     0.4980 H     1 <1>   0.0800 
 38 H       -3.6360    -0.4580    -0.1250 H     1 <1>   0.0800 
 39 H        4.0980    -3.4940    -2.1900 H     1 <1>   0.0800 
 40 H        3.0930    -2.1670    -2.6970 H     1 <1>   0.0800 
 41 H        5.4640    -0.9830     1.3910 H     1 <1>   0.0800 
 42 H        7.6030    -0.0770    -2.9690 H     1 <1>   0.1500 
 43 H        8.0750    -0.5000     2.2660 H     1 <1>   0.0800 
 44 H        6.8700     0.7420     1.9710 H     1 <1>   0.0800 
 45 H        7.9420    -2.6430     0.7620 H     1 <1>   0.0800 
 46 H        6.9970    -2.7510     2.2250 H     1 <1>   0.0800 
 47 H        6.3110    -3.2630     0.7090 H     1 <1>   0.0800 
 48 H        9.7650     1.5320     1.1620 H     1 <1>   0.1500 
 49 H        9.6210     1.3100    -3.0980 H     1 <1>   0.1500 
 50 H       10.7090     2.1170    -1.0430 H     1 <1>   0.1500 
@<TRIPOS>BOND
  1   1   2  2   
  2   1   3  2   
  3   1   4  am  
  4   1   5  1   
  5   4   6  1   
  6   4   7  1   
  7   5   8  1   
  8   5  25  1   
  9   5  26  1   
 10   6   9  1   
 11   6  27  1   
 12   6  28  1   
 13   7  10  1   
 14   7  29  1   
 15   7  30  1   
 16   8  11  1   
 17   8  31  1   
 18   8  32  1   
 19   9  12  1   
 20   9  13  1   
 21   9  33  1   
 22  10  13  1   
 23  10  34  1   
 24  10  35  1   
 25  11  36  1   
 26  11  37  1   
 27  11  38  1   
 28  12  14  2   
 29  12  15  am  
 30  13  39  1   
 31  13  40  1   
 32  15  16  1   
 33  15  17  1   
 34  16  18  ar  
 35  16  19  ar  
 36  17  20  1   
 37  17  21  1   
 38  17  41  1   
 39  18  20  1   
 40  18  22  ar  
 41  19  23  ar  
 42  19  42  1   
 43  20  43  1   
 44  20  44  1   
 45  21  45  1   
 46  21  46  1   
 47  21  47  1   
 48  22  24  ar  
 49  22  48  1   
 50  23  24  ar  
 51  23  49  1   
 52  24  50  1   
@<TRIPOS>SUBSTRUCTURE
  1 ****   6 GROUP 4 **** **** 0

# MOE 2024.06 (io_trps.svl 2023.06)
