@<TRIPOS>MOLECULE
NONAME
34 34 1 0 0 
SMALL
USER_CHARGES


@<TRIPOS>ATOM
  1 F       -1.5620     0.3190     0.1190 F     1 <1>  -0.1900 
  2 C       -1.8650    -0.9280    -0.1410 C.ar  1 <1>   0.1900 
  3 C       -0.9600    -1.9390     0.1320 C.ar  1 <1>   0.1900 
  4 C       -3.0980    -1.2120    -0.6950 C.ar  1 <1>  -0.1500 
  5 F        0.2090    -1.6630     0.6590 F     1 <1>  -0.1900 
  6 C       -1.2690    -3.2570    -0.1490 C.ar  1 <1>  -0.1500 
  7 C       -3.4300    -2.5350    -0.9690 C.ar  1 <1>   0.1000 
  8 C       -2.5060    -3.5460    -0.7050 C.ar  1 <1>  -0.1500 
  9 N       -4.6640    -2.8420    -1.5260 N.pl3 1 <1>  -0.8690 
 10 C       -5.8950    -3.0930    -0.6450 C.3   1 <1>   0.6690 
 11 N       -6.8650    -2.5010    -1.6110 N.am  1 <1>  -0.7300 
 12 C       -5.9010    -2.3950     0.7840 C.3   1 <1>   1.0200 
 13 C       -6.0880    -4.6370    -0.3400 C.3   1 <1>   1.0200 
 14 C       -8.1990    -2.3830    -1.5290 C.2   1 <1>   0.7800 
 15 F       -5.7840    -1.0720     0.6940 F     1 <1>  -0.3400 
 16 F       -4.9060    -2.7800     1.5790 F     1 <1>  -0.3400 
 17 F       -7.0040    -2.5810     1.4990 F     1 <1>  -0.3400 
 18 F       -7.1420    -4.9840     0.3880 F     1 <1>  -0.3400 
 19 F       -5.0440    -5.1800     0.2780 F     1 <1>  -0.3400 
 20 F       -6.2010    -5.3330    -1.4710 F     1 <1>  -0.3400 
 21 O       -8.8060    -1.6820    -2.3040 O.2   1 <1>  -0.5700 
 22 O       -8.8230    -3.0530    -0.5760 O.3   1 <1>  -0.4300 
 23 C      -10.2210    -2.9700    -0.4240 C.3   1 <1>   0.1200 
 24 C      -10.6140    -3.8390     0.7660 C.3   1 <1>  -0.2400 
 25 H       -3.7840    -0.4140    -0.9120 H     1 <1>   0.1500 
 26 H       -0.5560    -4.0340     0.0640 H     1 <1>   0.1500 
 27 H       -2.7500    -4.5690    -0.9310 H     1 <1>   0.1500 
 28 H       -4.6040    -3.5990    -2.2210 H     1 <1>   0.4000 
 29 H       -6.4030    -1.9060    -2.2970 H     1 <1>   0.3700 
 30 H      -10.6860    -3.3210    -1.3310 H     1 <1>   0.0800 
 31 H      -10.4870    -1.9400    -0.2550 H     1 <1>   0.0800 
 32 H      -10.3320    -4.8610     0.5890 H     1 <1>   0.0800 
 33 H      -11.6790    -3.7980     0.9100 H     1 <1>   0.0800 
 34 H      -10.1340    -3.4830     1.6600 H     1 <1>   0.0800 
@<TRIPOS>BOND
  1   1   2  1   
  2   2   3  ar  
  3   2   4  ar  
  4   3   5  1   
  5   3   6  ar  
  6   4   7  ar  
  7   4  25  1   
  8   6   8  ar  
  9   6  26  1   
 10   7   8  ar  
 11   7   9  1   
 12   8  27  1   
 13   9  10  1   
 14   9  28  1   
 15  10  11  1   
 16  10  12  1   
 17  10  13  1   
 18  11  14  am  
 19  11  29  1   
 20  12  15  1   
 21  12  16  1   
 22  12  17  1   
 23  13  18  1   
 24  13  19  1   
 25  13  20  1   
 26  14  21  2   
 27  14  22  1   
 28  22  23  1   
 29  23  24  1   
 30  23  30  1   
 31  23  31  1   
 32  24  32  1   
 33  24  33  1   
 34  24  34  1   
@<TRIPOS>SUBSTRUCTURE
  1 ****  10 GROUP 4 **** **** 0

# MOE 2024.06 (io_trps.svl 2023.06)
