@<TRIPOS>MOLECULE
NONAME
33 35 1 0 0 
SMALL
USER_CHARGES


@<TRIPOS>ATOM
  1 O       -0.4260    -0.4440    -1.3780 O.2   1 <1>  -0.5700 
  2 C       -0.9040    -1.2410    -0.5850 C.2   1 <1>   0.5440 
  3 N       -0.0930    -2.1360     0.0820 N.am  1 <1>  -0.4200 
  4 C       -2.3160    -1.2750    -0.3200 C.ar  1 <1>   0.0860 
  5 C       -0.6640    -3.0200     0.9690 C.2   1 <1>   0.4500 
  6 C        1.3810    -2.1500    -0.1500 C.3   1 <1>   0.2200 
  7 C       -2.7770    -2.2200     0.6030 C.ar  1 <1>   0.1790 
  8 C       -3.2410    -0.4220    -0.9310 C.ar  1 <1>  -0.1500 
  9 N       -1.9120    -3.0880     1.2370 N.2   1 <1>  -0.6290 
 10 C        1.8300    -3.4990    -0.7350 C.3   1 <1>  -0.1600 
 11 C        2.1420    -1.8160     1.1440 C.3   1 <1>  -0.1600 
 12 C       -4.1360    -2.2900     0.8910 C.ar  1 <1>  -0.1500 
 13 C       -4.5860    -0.5030    -0.6360 C.ar  1 <1>  -0.1500 
 14 C        3.3490    -3.5190    -0.9660 C.3   1 <1>  -0.1600 
 15 C        3.6600    -1.8390     0.9090 C.3   1 <1>  -0.1600 
 16 C       -5.0370    -1.4420     0.2800 C.ar  1 <1>  -0.1500 
 17 C        4.1110    -3.1840     0.3240 C.3   1 <1>  -0.1600 
 18 H        0.0050    -3.6980     1.4660 H     1 <1>   0.0600 
 19 H        1.6370    -1.3920    -0.8710 H     1 <1>   0.0800 
 20 H       -2.8870     0.3060    -1.6420 H     1 <1>   0.1500 
 21 H        1.3290    -3.6640    -1.6730 H     1 <1>   0.0800 
 22 H        1.5770    -4.3010    -0.0650 H     1 <1>   0.0800 
 23 H        1.9050    -2.5280     1.9130 H     1 <1>   0.0800 
 24 H        1.8530    -0.8360     1.4830 H     1 <1>   0.0800 
 25 H       -4.4720    -3.0220     1.6020 H     1 <1>   0.1500 
 26 H       -5.2880     0.1600    -1.1130 H     1 <1>   0.1500 
 27 H        3.6040    -2.8000    -1.7260 H     1 <1>   0.0800 
 28 H        3.6480    -4.4910    -1.3200 H     1 <1>   0.0800 
 29 H        4.1720    -1.6600     1.8390 H     1 <1>   0.0800 
 30 H        3.9280    -1.0470     0.2300 H     1 <1>   0.0800 
 31 H       -6.0860    -1.5060     0.5120 H     1 <1>   0.1500 
 32 H        5.1680    -3.1500     0.1180 H     1 <1>   0.0800 
 33 H        3.9450    -3.9630     1.0490 H     1 <1>   0.0800 
@<TRIPOS>BOND
  1   1   2  2   
  2   2   3  am  
  3   2   4  1   
  4   3   5  1   
  5   3   6  1   
  6   4   7  ar  
  7   4   8  ar  
  8   5   9  2   
  9   5  18  1   
 10   6  10  1   
 11   6  11  1   
 12   6  19  1   
 13   7   9  1   
 14   7  12  ar  
 15   8  13  ar  
 16   8  20  1   
 17  10  14  1   
 18  10  21  1   
 19  10  22  1   
 20  11  15  1   
 21  11  23  1   
 22  11  24  1   
 23  12  16  ar  
 24  12  25  1   
 25  13  16  ar  
 26  13  26  1   
 27  14  17  1   
 28  14  27  1   
 29  14  28  1   
 30  15  17  1   
 31  15  29  1   
 32  15  30  1   
 33  16  31  1   
 34  17  32  1   
 35  17  33  1   
@<TRIPOS>SUBSTRUCTURE
  1 ****   3 GROUP 4 **** **** 0

# MOE 2024.06 (io_trps.svl 2023.06)
