@<TRIPOS>MOLECULE
NONAME
33 34 1 0 0 
SMALL
USER_CHARGES


@<TRIPOS>ATOM
  1 O        0.8390    -0.6790    -2.0560 O.2   1 <1>  -0.5700 
  2 C        1.2340    -1.3150    -1.1100 C.2   1 <1>   0.5690 
  3 N        0.5670    -2.2870    -0.4260 N.am  1 <1>  -0.0850 
  4 C        2.5940    -1.0860    -0.4850 C.3   1 <1>  -0.0990 
  5 O       -0.6660    -2.8170    -0.8340 O.3   1 <1>  -0.3160 
  6 C        1.2710    -2.7510     0.6450 C.2   1 <1>   0.5690 
  7 C        2.6190    -2.0640     0.7110 C.3   1 <1>  -0.0990 
  8 C       -1.7220    -2.1060    -0.2300 C.3   1 <1>   0.1200 
  9 O        0.9140    -3.5600     1.4660 O.2   1 <1>  -0.5700 
 10 C       -3.0390    -2.7180    -0.7020 C.3   1 <1>  -0.1600 
 11 C       -4.2280    -1.9890    -0.0790 C.3   1 <1>   0.1200 
 12 O       -5.4100    -2.5940    -0.5480 O.3   1 <1>  -0.3630 
 13 C       -6.6320    -2.1520    -0.1590 C.ar  1 <1>   0.0820 
 14 C       -6.8300    -1.0870     0.7160 C.ar  1 <1>  -0.1500 
 15 C       -7.7300    -2.8190    -0.6800 C.ar  1 <1>  -0.1500 
 16 C       -8.1150    -0.7020     1.0590 C.ar  1 <1>  -0.1500 
 17 C       -9.0140    -2.4330    -0.3360 C.ar  1 <1>  -0.1500 
 18 C       -9.2070    -1.3740     0.5340 C.ar  1 <1>  -0.1500 
 19 H        2.6810    -0.0640    -0.1630 H     1 <1>   0.0800 
 20 H        3.3660    -1.3130    -1.1980 H     1 <1>   0.0800 
 21 H        2.7200    -1.5440     1.6460 H     1 <1>   0.0800 
 22 H        3.4040    -2.7920     0.6090 H     1 <1>   0.0800 
 23 H       -1.6530    -1.0740    -0.5290 H     1 <1>   0.0800 
 24 H       -1.6230    -2.1930     0.8400 H     1 <1>   0.0800 
 25 H       -3.0710    -3.7540    -0.4130 H     1 <1>   0.0800 
 26 H       -3.1000    -2.6420    -1.7730 H     1 <1>   0.0800 
 27 H       -4.2390    -0.9540    -0.3750 H     1 <1>   0.0800 
 28 H       -4.2090    -2.0730     0.9940 H     1 <1>   0.0800 
 29 H       -6.0040    -0.5480     1.1370 H     1 <1>   0.1500 
 30 H       -7.5700    -3.6400    -1.3550 H     1 <1>   0.1500 
 31 H       -8.2690     0.1210     1.7350 H     1 <1>   0.1500 
 32 H       -9.8600    -2.9570    -0.7450 H     1 <1>   0.1500 
 33 H      -10.2050    -1.0730     0.8030 H     1 <1>   0.1500 
@<TRIPOS>BOND
  1   1   2  2   
  2   2   3  am  
  3   2   4  1   
  4   3   5  1   
  5   3   6  am  
  6   4   7  1   
  7   4  19  1   
  8   4  20  1   
  9   5   8  1   
 10   6   7  1   
 11   6   9  2   
 12   7  21  1   
 13   7  22  1   
 14   8  10  1   
 15   8  23  1   
 16   8  24  1   
 17  10  11  1   
 18  10  25  1   
 19  10  26  1   
 20  11  12  1   
 21  11  27  1   
 22  11  28  1   
 23  12  13  1   
 24  13  14  ar  
 25  13  15  ar  
 26  14  16  ar  
 27  14  29  1   
 28  15  17  ar  
 29  15  30  1   
 30  16  18  ar  
 31  16  31  1   
 32  17  18  ar  
 33  17  32  1   
 34  18  33  1   
@<TRIPOS>SUBSTRUCTURE
  1 ****  10 GROUP 4 **** **** 0

# MOE 2024.06 (io_trps.svl 2023.06)
