@<TRIPOS>MOLECULE
NONAME
41 43 1 0 0 
SMALL
USER_CHARGES


@<TRIPOS>ATOM
  1 CL      -0.3640    -1.7620     2.5350 Cl    1 <1>  -0.1770 
  2 C       -1.4090    -1.7190     1.1250 C.ar  1 <1>   0.1770 
  3 C       -1.0450    -2.3810    -0.0550 C.ar  1 <1>   0.1000 
  4 C       -2.5920    -1.0120     1.2280 C.ar  1 <1>  -0.1500 
  5 N        0.1370    -3.1130    -0.2240 N.pl3 1 <1>  -0.8380 
  6 C       -1.9240    -2.3030    -1.1290 C.ar  1 <1>  -0.1500 
  7 C       -3.4480    -0.9510     0.1420 C.ar  1 <1>  -0.1500 
  8 C        0.2330    -4.3920     0.5430 C.3   1 <1>   0.2090 
  9 C        1.4000    -2.3140    -0.2690 C.3   1 <1>   0.2090 
 10 C       -3.1110    -1.5970    -1.0350 C.ar  1 <1>  -0.1500 
 11 C        1.4370    -5.2340     0.0720 C.3   1 <1>   0.3430 
 12 C        2.5890    -3.1810    -0.7300 C.3   1 <1>   0.3430 
 13 N        2.7230    -4.4490     0.0800 N.4   1 <1>  -0.9590 
 14 C        3.8850    -5.2640    -0.3610 C.3   1 <1>   0.4860 
 15 C        5.1420    -4.4470    -0.1440 C.ar  1 <1>  -0.1430 
 16 C        5.5580    -4.1420     1.1430 C.ar  1 <1>  -0.1500 
 17 C        5.8800    -3.9830    -1.2260 C.ar  1 <1>  -0.1500 
 18 C        6.6840    -3.3670     1.3410 C.ar  1 <1>   0.0830 
 19 C        7.0140    -3.2120    -1.0210 C.ar  1 <1>  -0.1500 
 20 O        7.0500    -3.0750     2.5960 O.3   1 <1>  -0.5330 
 21 C        7.4180    -2.8990     0.2650 C.ar  1 <1>  -0.1500 
 22 H       -2.8410    -0.5150     2.1490 H     1 <1>   0.1500 
 23 H       -1.6690    -2.8010    -2.0460 H     1 <1>   0.1500 
 24 H       -4.3730    -0.4030     0.2130 H     1 <1>   0.1500 
 25 H       -0.6740    -4.9560     0.4020 H     1 <1>   0.0800 
 26 H        0.3300    -4.1840     1.5940 H     1 <1>   0.0800 
 27 H        1.6120    -1.9040     0.7030 H     1 <1>   0.0800 
 28 H        1.2730    -1.4910    -0.9520 H     1 <1>   0.0800 
 29 H       -3.7760    -1.5500    -1.8800 H     1 <1>   0.1500 
 30 H        1.2310    -5.5790    -0.9280 H     1 <1>   0.0800 
 31 H        1.5280    -6.0990     0.7090 H     1 <1>   0.0800 
 32 H        3.4920    -2.5980    -0.6550 H     1 <1>   0.0800 
 33 H        2.4400    -3.4280    -1.7680 H     1 <1>   0.0800 
 34 H        2.9160    -4.1540     1.0450 H     1 <1>   0.4500 
 35 H        3.7870    -5.5250    -1.4020 H     1 <1>   0.0800 
 36 H        3.9470    -6.1710     0.2180 H     1 <1>   0.0800 
 37 H        5.0290    -4.4940     2.0120 H     1 <1>   0.1500 
 38 H        5.5890    -4.2140    -2.2370 H     1 <1>   0.1500 
 39 H        7.5850    -2.8560    -1.8620 H     1 <1>   0.1500 
 40 H        7.8730    -2.5540     2.6500 H     1 <1>   0.4500 
 41 H        8.2970    -2.2990     0.4200 H     1 <1>   0.1500 
@<TRIPOS>BOND
  1   1   2  1   
  2   2   3  ar  
  3   2   4  ar  
  4   3   5  1   
  5   3   6  ar  
  6   4   7  ar  
  7   4  22  1   
  8   5   8  1   
  9   5   9  1   
 10   6  10  ar  
 11   6  23  1   
 12   7  10  ar  
 13   7  24  1   
 14   8  11  1   
 15   8  25  1   
 16   8  26  1   
 17   9  12  1   
 18   9  27  1   
 19   9  28  1   
 20  10  29  1   
 21  11  13  1   
 22  11  30  1   
 23  11  31  1   
 24  12  13  1   
 25  12  32  1   
 26  12  33  1   
 27  13  14  1   
 28  13  34  1   
 29  14  15  1   
 30  14  35  1   
 31  14  36  1   
 32  15  16  ar  
 33  15  17  ar  
 34  16  18  ar  
 35  16  37  1   
 36  17  19  ar  
 37  17  38  1   
 38  18  20  1   
 39  18  21  ar  
 40  19  21  ar  
 41  19  39  1   
 42  20  40  1   
 43  21  41  1   
@<TRIPOS>SUBSTRUCTURE
  1 ****  12 GROUP 4 **** **** 0

# MOE 2024.06 (io_trps.svl 2023.06)
