@<TRIPOS>MOLECULE
NONAME
37 37 1 0 0 
SMALL
USER_CHARGES


@<TRIPOS>ATOM
  1 O       -1.8890     0.7530    -1.3340 O.2   1 <1>  -0.5700 
  2 C       -1.9900     0.7230    -0.1310 C.2   1 <1>   0.5690 
  3 N       -2.9620     0.0140     0.5130 N.am  1 <1>  -0.5470 
  4 C       -1.0000     1.5160     0.7280 C.3   1 <1>  -0.0190 
  5 C       -4.0150    -0.7160    -0.0570 C.ar  1 <1>   0.1170 
  6 C       -1.2220     3.0290     0.5740 C.3   1 <1>  -0.2400 
  7 C        0.4580     1.1600     0.3940 C.3   1 <1>  -0.2400 
  8 C       -3.7980    -1.9910    -0.5900 C.ar  1 <1>  -0.1430 
  9 C       -5.3060    -0.1760    -0.0660 C.ar  1 <1>  -0.1430 
 10 C       -4.8630    -2.7060    -1.1120 C.ar  1 <1>  -0.1500 
 11 C       -2.4160    -2.6390    -0.6200 C.3   1 <1>  -0.0170 
 12 C       -6.3540    -0.9100    -0.5970 C.ar  1 <1>  -0.1500 
 13 C       -5.6100     1.2170     0.4800 C.3   1 <1>  -0.0170 
 14 C       -6.1370    -2.1710    -1.1160 C.ar  1 <1>  -0.1500 
 15 C       -2.0980    -3.3170     0.7150 C.3   1 <1>  -0.2400 
 16 C       -5.3820     2.2800    -0.5990 C.3   1 <1>  -0.2400 
 17 H       -2.9970     0.0980     1.5250 H     1 <1>   0.3700 
 18 H       -1.1680     1.2620     1.7590 H     1 <1>   0.0800 
 19 H       -1.0520     3.3260    -0.4470 H     1 <1>   0.0800 
 20 H       -2.2340     3.2850     0.8360 H     1 <1>   0.0800 
 21 H       -0.5510     3.5780     1.2100 H     1 <1>   0.0800 
 22 H        0.6800     1.4170    -0.6280 H     1 <1>   0.0800 
 23 H        0.6190     0.1030     0.5200 H     1 <1>   0.0800 
 24 H        1.1360     1.6900     1.0390 H     1 <1>   0.0800 
 25 H       -4.7060    -3.6890    -1.5210 H     1 <1>   0.1500 
 26 H       -1.6630    -1.9070    -0.8490 H     1 <1>   0.0800 
 27 H       -2.3790    -3.3730    -1.4050 H     1 <1>   0.0800 
 28 H       -7.3480    -0.5010    -0.6140 H     1 <1>   0.1500 
 29 H       -4.9960     1.4310     1.3360 H     1 <1>   0.0800 
 30 H       -6.6330     1.2620     0.8070 H     1 <1>   0.0800 
 31 H       -6.9560    -2.7350    -1.5260 H     1 <1>   0.1500 
 32 H       -2.0970    -2.5930     1.5090 H     1 <1>   0.0800 
 33 H       -1.1310    -3.7850     0.6710 H     1 <1>   0.0800 
 34 H       -2.8370    -4.0670     0.9330 H     1 <1>   0.0800 
 35 H       -4.3620     2.2550    -0.9390 H     1 <1>   0.0800 
 36 H       -5.5940     3.2590    -0.2100 H     1 <1>   0.0800 
 37 H       -6.0230     2.0930    -1.4420 H     1 <1>   0.0800 
@<TRIPOS>BOND
  1   1   2  2   
  2   2   3  am  
  3   2   4  1   
  4   3   5  1   
  5   3  17  1   
  6   4   6  1   
  7   4   7  1   
  8   4  18  1   
  9   5   8  ar  
 10   5   9  ar  
 11   6  19  1   
 12   6  20  1   
 13   6  21  1   
 14   7  22  1   
 15   7  23  1   
 16   7  24  1   
 17   8  10  ar  
 18   8  11  1   
 19   9  12  ar  
 20   9  13  1   
 21  10  14  ar  
 22  10  25  1   
 23  11  15  1   
 24  11  26  1   
 25  11  27  1   
 26  12  14  ar  
 27  12  28  1   
 28  13  16  1   
 29  13  29  1   
 30  13  30  1   
 31  14  31  1   
 32  15  32  1   
 33  15  33  1   
 34  15  34  1   
 35  16  35  1   
 36  16  36  1   
 37  16  37  1   
@<TRIPOS>SUBSTRUCTURE
  1 ****   5 GROUP 4 **** **** 0

# MOE 2024.06 (io_trps.svl 2023.06)
