@<TRIPOS>MOLECULE
NONAME
35 36 1 0 0 
SMALL
USER_CHARGES


@<TRIPOS>ATOM
  1 S        0.1930    -1.7670    -0.4730 S.3   1 <1>  -0.2860 
  2 C       -1.5020    -1.1810    -0.3720 C.2   1 <1>   0.2420 
  3 C        1.1620    -0.1840    -0.6130 C.3   1 <1>   0.1310 
  4 N       -1.8220     0.0630    -0.3780 N.2   1 <1>  -0.3380 
  5 N       -2.5480    -2.0020    -0.2800 N.pl3 1 <1>   0.0480 
  6 C        2.6610    -0.4430    -0.6030 C.2   1 <1>   0.5690 
  7 N       -3.1550     0.0940    -0.2840 N.2   1 <1>  -0.3380 
  8 C       -3.5660    -1.1300    -0.2260 C.2   1 <1>   0.0060 
  9 C       -2.5650    -3.4810    -0.2490 C.3   1 <1>   0.0960 
 10 O        3.3830     0.4070    -1.0610 O.2   1 <1>  -0.5700 
 11 N        3.1230    -1.6180    -0.0720 N.am  1 <1>  -0.5470 
 12 C       -5.0260    -1.5220    -0.1110 C.3   1 <1>  -0.0600 
 13 C       -2.4310    -3.9940     1.1890 C.3   1 <1>  -0.2400 
 14 C        4.4180    -2.1500     0.1000 C.ar  1 <1>   0.1170 
 15 C        4.5660    -3.4800     0.5060 C.ar  1 <1>   0.1900 
 16 C        5.5870    -1.4140    -0.1060 C.ar  1 <1>  -0.1500 
 17 F        3.4900    -4.1980     0.7160 F     1 <1>  -0.1900 
 18 C        5.7920    -4.0850     0.7010 C.ar  1 <1>  -0.1500 
 19 C        6.8340    -1.9910     0.0800 C.ar  1 <1>  -0.1500 
 20 C        6.9140    -3.3130     0.4790 C.ar  1 <1>   0.1900 
 21 F        8.0920    -3.8510     0.6520 F     1 <1>  -0.1900 
 22 H        0.8840     0.4360     0.2190 H     1 <1>   0.0800 
 23 H        0.8670     0.2890    -1.5310 H     1 <1>   0.0800 
 24 H       -1.7520    -3.8520    -0.8490 H     1 <1>   0.0800 
 25 H       -3.4860    -3.8290    -0.6800 H     1 <1>   0.0800 
 26 H        2.3780    -2.2650     0.2010 H     1 <1>   0.3700 
 27 H       -5.3270    -2.0910    -0.9710 H     1 <1>   0.0800 
 28 H       -5.6360    -0.6380    -0.0540 H     1 <1>   0.0800 
 29 H       -5.1850    -2.1050     0.7780 H     1 <1>   0.0800 
 30 H       -1.4990    -3.6670     1.6180 H     1 <1>   0.0800 
 31 H       -2.4470    -5.0690     1.1940 H     1 <1>   0.0800 
 32 H       -3.2450    -3.6380     1.7950 H     1 <1>   0.0800 
 33 H        5.5350    -0.3850    -0.4120 H     1 <1>   0.1500 
 34 H        5.8710    -5.1100     1.0110 H     1 <1>   0.1500 
 35 H        7.7340    -1.4240    -0.0810 H     1 <1>   0.1500 
@<TRIPOS>BOND
  1   1   2  1   
  2   1   3  1   
  3   2   4  2   
  4   2   5  1   
  5   3   6  1   
  6   3  22  1   
  7   3  23  1   
  8   4   7  1   
  9   5   8  1   
 10   5   9  1   
 11   6  10  2   
 12   6  11  am  
 13   7   8  2   
 14   8  12  1   
 15   9  13  1   
 16   9  24  1   
 17   9  25  1   
 18  11  14  1   
 19  11  26  1   
 20  12  27  1   
 21  12  28  1   
 22  12  29  1   
 23  13  30  1   
 24  13  31  1   
 25  13  32  1   
 26  14  15  ar  
 27  14  16  ar  
 28  15  17  1   
 29  15  18  ar  
 30  16  19  ar  
 31  16  33  1   
 32  18  20  ar  
 33  18  34  1   
 34  19  20  ar  
 35  19  35  1   
 36  20  21  1   
@<TRIPOS>SUBSTRUCTURE
  1 ****   1 GROUP 4 **** **** 0

# MOE 2024.06 (io_trps.svl 2023.06)
