@<TRIPOS>MOLECULE
NONAME
41 42 1 0 0 
SMALL
USER_CHARGES


@<TRIPOS>ATOM
  1 O        0.3880    -1.4890     0.4680 O.3   1 <1>  -0.3630 
  2 C       -0.8840    -1.5090    -0.0120 C.ar  1 <1>   0.0830 
  3 C        1.4360    -0.8900    -0.2490 C.3   1 <1>   0.1200 
  4 C       -1.8480    -2.1700     0.7440 C.ar  1 <1>  -0.1440 
  5 C       -1.2510    -0.9020    -1.2110 C.ar  1 <1>  -0.1500 
  6 C        2.7130    -1.0800     0.5760 C.3   1 <1>   0.3430 
  7 C       -3.1580    -2.2170     0.2940 C.ar  1 <1>  -0.1500 
  8 C       -1.4840    -2.8430     2.0600 C.3   1 <1>  -0.0960 
  9 C       -2.5620    -0.9570    -1.6480 C.ar  1 <1>  -0.1500 
 10 N        3.9200    -0.4570    -0.0610 N.4   1 <1>  -0.9590 
 11 C       -3.5220    -1.6140    -0.8980 C.ar  1 <1>  -0.1430 
 12 C        4.3140    -1.1490    -1.3280 C.3   1 <1>   0.3430 
 13 C        5.0520    -0.4300     0.9120 C.3   1 <1>   0.3430 
 14 C       -4.9610    -1.6770    -1.3770 C.3   1 <1>  -0.0970 
 15 C        5.4790    -0.4040    -1.9820 C.3   1 <1>  -0.1600 
 16 C        6.2340     0.3320     0.3080 C.3   1 <1>  -0.1600 
 17 C        6.6750    -0.2730    -1.0310 C.3   1 <1>  -0.1600 
 18 H        1.2050     0.1540    -0.3660 H     1 <1>   0.0800 
 19 H        1.5060    -1.3820    -1.2020 H     1 <1>   0.0800 
 20 H       -0.5420    -0.3800    -1.8230 H     1 <1>   0.1500 
 21 H        2.8820    -2.1350     0.7160 H     1 <1>   0.0800 
 22 H        2.5500    -0.6330     1.5430 H     1 <1>   0.0800 
 23 H       -3.9050    -2.7290     0.8740 H     1 <1>   0.1500 
 24 H       -0.7460    -3.6060     1.8880 H     1 <1>   0.0800 
 25 H       -2.3460    -3.2990     2.5140 H     1 <1>   0.0800 
 26 H       -1.0830    -2.1170     2.7430 H     1 <1>   0.0800 
 27 H       -2.8350    -0.4870    -2.5770 H     1 <1>   0.1500 
 28 H        3.7070     0.5220    -0.2930 H     1 <1>   0.4500 
 29 H        3.4830    -1.1780    -2.0130 H     1 <1>   0.0800 
 30 H        4.6120    -2.1630    -1.1120 H     1 <1>   0.0800 
 31 H        5.3570    -1.4370     1.1470 H     1 <1>   0.0800 
 32 H        4.7450     0.0540     1.8260 H     1 <1>   0.0800 
 33 H       -5.6350    -1.6460    -0.5400 H     1 <1>   0.0800 
 34 H       -5.1230    -2.5910    -1.9200 H     1 <1>   0.0800 
 35 H       -5.1830    -0.8460    -2.0210 H     1 <1>   0.0800 
 36 H        5.1500     0.5720    -2.2950 H     1 <1>   0.0800 
 37 H        5.7860    -0.9370    -2.8650 H     1 <1>   0.0800 
 38 H        7.0590     0.3050     0.9990 H     1 <1>   0.0800 
 39 H        5.9640     1.3650     0.1740 H     1 <1>   0.0800 
 40 H        7.4350     0.3460    -1.4800 H     1 <1>   0.0800 
 41 H        7.1070    -1.2450    -0.8600 H     1 <1>   0.0800 
@<TRIPOS>BOND
  1   1   2  1   
  2   1   3  1   
  3   2   4  ar  
  4   2   5  ar  
  5   3   6  1   
  6   3  18  1   
  7   3  19  1   
  8   4   7  ar  
  9   4   8  1   
 10   5   9  ar  
 11   5  20  1   
 12   6  10  1   
 13   6  21  1   
 14   6  22  1   
 15   7  11  ar  
 16   7  23  1   
 17   8  24  1   
 18   8  25  1   
 19   8  26  1   
 20   9  11  ar  
 21   9  27  1   
 22  10  12  1   
 23  10  13  1   
 24  10  28  1   
 25  11  14  1   
 26  12  15  1   
 27  12  29  1   
 28  12  30  1   
 29  13  16  1   
 30  13  31  1   
 31  13  32  1   
 32  14  33  1   
 33  14  34  1   
 34  14  35  1   
 35  15  17  1   
 36  15  36  1   
 37  15  37  1   
 38  16  17  1   
 39  16  38  1   
 40  16  39  1   
 41  17  40  1   
 42  17  41  1   
@<TRIPOS>SUBSTRUCTURE
  1 ****   3 GROUP 4 **** **** 0

# MOE 2024.06 (io_trps.svl 2023.06)
