@<TRIPOS>MOLECULE
NONAME
53 54 1 0 0 
SMALL
USER_CHARGES


@<TRIPOS>ATOM
  1 S        0.8210     1.5840    -1.4960 S.o2  1 <1>   1.3330 
  2 O        2.2640     1.5690    -1.4570 O.2   1 <1>  -0.6500 
  3 O        0.0910     0.4440    -1.9900 O.2   1 <1>  -0.6500 
  4 N        0.2920     1.8860     0.1220 N.am  1 <1>  -0.6930 
  5 C        0.3080     3.0620    -2.3470 C.3   1 <1>  -0.1350 
  6 C       -1.0110     2.2810     0.4040 C.ar  1 <1>   0.1990 
  7 C        1.0220     1.1370     1.1930 C.3   1 <1>   0.2570 
  8 C       -1.2340     3.4530     1.1150 C.ar  1 <1>  -0.1500 
  9 C       -2.1090     1.5350    -0.0080 C.ar  1 <1>  -0.1500 
 10 C        1.5070     2.0050     2.3620 C.2   1 <1>   0.5690 
 11 C       -2.5200     3.8780     1.3960 C.ar  1 <1>  -0.1500 
 12 C       -3.3960     1.9590     0.2700 C.ar  1 <1>  -0.1500 
 13 O        1.0970     1.7680     3.4720 O.2   1 <1>  -0.5700 
 14 N        2.4000     3.0160     2.2000 N.am  1 <1>  -0.7300 
 15 C       -3.6100     3.1350     0.9720 C.ar  1 <1>  -0.1430 
 16 C        3.0370     3.4700     0.9420 C.3   1 <1>   0.1400 
 17 C       -5.0240     3.5990     1.2820 C.3   1 <1>  -0.0170 
 18 C        3.7420     4.8110     1.1480 C.3   1 <1>  -0.0220 
 19 C       -5.4900     3.0350     2.6260 C.3   1 <1>  -0.2400 
 20 C        4.3480     5.3810    -0.1350 C.2   1 <1>  -0.2760 
 21 C        4.3740     4.7630    -1.3240 C.2   1 <1>  -0.2880 
 22 C        4.9420     6.7730     0.0670 C.3   1 <1>  -0.0220 
 23 C        4.9580     5.3610    -2.5940 C.3   1 <1>  -0.0220 
 24 C        5.8460     7.1940    -1.1010 C.3   1 <1>  -0.1600 
 25 C        5.1930     6.8700    -2.4490 C.3   1 <1>  -0.1600 
 26 H        0.6090     3.0160    -3.3750 H     1 <1>   0.0800 
 27 H        0.7570     3.9240    -1.8950 H     1 <1>   0.0800 
 28 H       -0.7580     3.1640    -2.3050 H     1 <1>   0.0800 
 29 H        1.8760     0.6330     0.7800 H     1 <1>   0.0800 
 30 H        0.3670     0.3810     1.5870 H     1 <1>   0.0800 
 31 H       -0.3940     4.0330     1.4500 H     1 <1>   0.1500 
 32 H       -1.9590     0.6160    -0.5440 H     1 <1>   0.1500 
 33 H       -2.6700     4.7880     1.9500 H     1 <1>   0.1500 
 34 H       -4.2320     1.3660    -0.0570 H     1 <1>   0.1500 
 35 H        2.6840     3.4960     3.0560 H     1 <1>   0.3700 
 36 H        2.2840     3.5940     0.1860 H     1 <1>   0.0800 
 37 H        3.7460     2.7290     0.6100 H     1 <1>   0.0800 
 38 H       -5.6920     3.2750     0.5030 H     1 <1>   0.0800 
 39 H       -5.0560     4.6740     1.3110 H     1 <1>   0.0800 
 40 H        4.5240     4.6870     1.8760 H     1 <1>   0.0800 
 41 H        3.0250     5.5180     1.5290 H     1 <1>   0.0800 
 42 H       -5.4800     1.9590     2.6000 H     1 <1>   0.0800 
 43 H       -6.4900     3.3670     2.8410 H     1 <1>   0.0800 
 44 H       -4.8370     3.3660     3.4140 H     1 <1>   0.0800 
 45 H        3.9880     3.7720    -1.4990 H     1 <1>   0.1500 
 46 H        5.5230     6.7970     0.9720 H     1 <1>   0.0800 
 47 H        4.1370     7.4800     0.1700 H     1 <1>   0.0800 
 48 H        4.2880     5.1870    -3.4170 H     1 <1>   0.0800 
 49 H        5.8890     4.8660    -2.8110 H     1 <1>   0.0800 
 50 H        6.7810     6.6650    -1.0290 H     1 <1>   0.0800 
 51 H        6.0530     8.2480    -1.0340 H     1 <1>   0.0800 
 52 H        4.2480     7.3820    -2.5130 H     1 <1>   0.0800 
 53 H        5.8160     7.2170    -3.2550 H     1 <1>   0.0800 
@<TRIPOS>BOND
  1   1   2  2   
  2   1   3  2   
  3   1   4  am  
  4   1   5  1   
  5   4   6  1   
  6   4   7  1   
  7   5  26  1   
  8   5  27  1   
  9   5  28  1   
 10   6   8  ar  
 11   6   9  ar  
 12   7  10  1   
 13   7  29  1   
 14   7  30  1   
 15   8  11  ar  
 16   8  31  1   
 17   9  12  ar  
 18   9  32  1   
 19  10  13  2   
 20  10  14  am  
 21  11  15  ar  
 22  11  33  1   
 23  12  15  ar  
 24  12  34  1   
 25  14  16  1   
 26  14  35  1   
 27  15  17  1   
 28  16  18  1   
 29  16  36  1   
 30  16  37  1   
 31  17  19  1   
 32  17  38  1   
 33  17  39  1   
 34  18  20  1   
 35  18  40  1   
 36  18  41  1   
 37  19  42  1   
 38  19  43  1   
 39  19  44  1   
 40  20  21  2   
 41  20  22  1   
 42  21  23  1   
 43  21  45  1   
 44  22  24  1   
 45  22  46  1   
 46  22  47  1   
 47  23  25  1   
 48  23  48  1   
 49  23  49  1   
 50  24  25  1   
 51  24  50  1   
 52  24  51  1   
 53  25  52  1   
 54  25  53  1   
@<TRIPOS>SUBSTRUCTURE
  1 ****   4 GROUP 4 **** **** 0

# MOE 2024.06 (io_trps.svl 2023.06)
