@<TRIPOS>MOLECULE
NONAME
38 38 1 0 0 
SMALL
USER_CHARGES


@<TRIPOS>ATOM
  1 BR       0.0430     0.2780    -0.5060 Br    1 <1>  -0.1110 
  2 C       -1.7090     1.0500    -0.2970 C.ar  1 <1>   0.1110 
  3 C       -1.8120     2.3810     0.0600 C.ar  1 <1>  -0.1500 
  4 C       -2.8180     0.2520    -0.5100 C.ar  1 <1>  -0.1500 
  5 C       -3.0760     2.9270     0.2080 C.ar  1 <1>  -0.1500 
  6 C       -4.0770     0.8080    -0.3600 C.ar  1 <1>  -0.1500 
  7 C       -4.2090     2.1500     0.0010 C.ar  1 <1>   0.0830 
  8 O       -5.4040     2.7700     0.1680 O.3   1 <1>  -0.3630 
  9 C       -6.6200     2.0780    -0.0160 C.3   1 <1>   0.1200 
 10 C       -7.7620     3.0550     0.2470 C.3   1 <1>   0.1200 
 11 O       -8.9770     2.3870     0.0670 O.3   1 <1>  -0.5600 
 12 C      -10.0980     3.1760     0.2780 C.3   1 <1>   0.1200 
 13 C      -11.3260     2.2910     0.0410 C.3   1 <1>   0.3430 
 14 N      -12.6020     3.0470     0.2320 N.4   1 <1>  -0.9060 
 15 C      -13.8010     2.2340    -0.0160 C.3   1 <1>   0.4230 
 16 C      -14.9810     3.1890    -0.1360 C.3   1 <1>  -0.2400 
 17 C      -14.0050     1.2660     1.1460 C.3   1 <1>  -0.2400 
 18 H       -0.9280     2.9710     0.2180 H     1 <1>   0.1500 
 19 H       -2.6940    -0.7800    -0.7870 H     1 <1>   0.1500 
 20 H       -3.1910     3.9590     0.4850 H     1 <1>   0.1500 
 21 H       -4.9350     0.1840    -0.5260 H     1 <1>   0.1500 
 22 H       -6.6540     1.2620     0.6830 H     1 <1>   0.0800 
 23 H       -6.6560     1.7210    -1.0300 H     1 <1>   0.0800 
 24 H       -7.7090     3.8760    -0.4480 H     1 <1>   0.0800 
 25 H       -7.7090     3.4160     1.2600 H     1 <1>   0.0800 
 26 H      -10.0720     3.9950    -0.4200 H     1 <1>   0.0800 
 27 H      -10.0730     3.5380     1.2920 H     1 <1>   0.0800 
 28 H      -11.2860     1.4630     0.7290 H     1 <1>   0.0800 
 29 H      -11.2810     1.9030    -0.9630 H     1 <1>   0.0800 
 30 H      -12.6270     3.8500    -0.4070 H     1 <1>   0.4500 
 31 H      -12.6600     3.4160     1.1880 H     1 <1>   0.4500 
 32 H      -13.6940     1.6830    -0.9380 H     1 <1>   0.0800 
 33 H      -15.1220     3.7550     0.7680 H     1 <1>   0.0800 
 34 H      -15.8810     2.6270    -0.3170 H     1 <1>   0.0800 
 35 H      -14.8470     3.8600    -0.9650 H     1 <1>   0.0800 
 36 H      -14.0950     1.7890     2.0820 H     1 <1>   0.0800 
 37 H      -13.2020     0.5540     1.2080 H     1 <1>   0.0800 
 38 H      -14.9130     0.7080     0.9920 H     1 <1>   0.0800 
@<TRIPOS>BOND
  1   1   2  1   
  2   2   3  ar  
  3   2   4  ar  
  4   3   5  ar  
  5   3  18  1   
  6   4   6  ar  
  7   4  19  1   
  8   5   7  ar  
  9   5  20  1   
 10   6   7  ar  
 11   6  21  1   
 12   7   8  1   
 13   8   9  1   
 14   9  10  1   
 15   9  22  1   
 16   9  23  1   
 17  10  11  1   
 18  10  24  1   
 19  10  25  1   
 20  11  12  1   
 21  12  13  1   
 22  12  26  1   
 23  12  27  1   
 24  13  14  1   
 25  13  28  1   
 26  13  29  1   
 27  14  15  1   
 28  14  30  1   
 29  14  31  1   
 30  15  16  1   
 31  15  17  1   
 32  15  32  1   
 33  16  33  1   
 34  16  34  1   
 35  16  35  1   
 36  17  36  1   
 37  17  37  1   
 38  17  38  1   
@<TRIPOS>SUBSTRUCTURE
  1 ****   9 GROUP 4 **** **** 0

# MOE 2024.06 (io_trps.svl 2023.06)
