@<TRIPOS>MOLECULE
NONAME
30 30 1 0 0 
SMALL
USER_CHARGES


@<TRIPOS>ATOM
  1 O       -0.0620     0.3400     1.5930 O.2   1 <1>  -0.5700 
  2 C       -0.0890     1.1530     0.7000 C.2   1 <1>   0.5690 
  3 N        0.9970     1.5270    -0.0410 N.am  1 <1>  -0.5470 
  4 C       -1.4210     1.8190     0.3650 C.3   1 <1>   0.1810 
  5 C        2.3510     1.1510    -0.0320 C.ar  1 <1>   0.1170 
  6 O       -1.2900     2.7430    -0.6920 O.3   1 <1>  -0.5600 
  7 C        2.8780     0.1950     0.8310 C.ar  1 <1>  -0.1500 
  8 C        3.2100     1.7650    -0.9360 C.ar  1 <1>  -0.1500 
  9 C       -2.4810     3.3770    -1.0340 C.3   1 <1>   0.0400 
 10 C        4.2210    -0.1320     0.7900 C.ar  1 <1>  -0.1500 
 11 C        4.5540     1.4420    -0.9830 C.ar  1 <1>  -0.1500 
 12 C        5.0700     0.4860    -0.1140 C.ar  1 <1>   0.0830 
 13 O        6.3740     0.1050    -0.0880 O.3   1 <1>  -0.3630 
 14 C        7.3130     0.6770    -0.9670 C.3   1 <1>   0.1200 
 15 C        8.6710     0.0420    -0.6850 C.3   1 <1>  -0.2400 
 16 H        0.7380     2.2300    -0.7380 H     1 <1>   0.3700 
 17 H       -1.7820     2.3370     1.2350 H     1 <1>   0.0800 
 18 H       -2.1280     1.0610     0.0770 H     1 <1>   0.0800 
 19 H        2.2460    -0.3010     1.5430 H     1 <1>   0.1500 
 20 H        2.8230     2.5060    -1.6120 H     1 <1>   0.1500 
 21 H       -2.2800     4.0570    -1.8430 H     1 <1>   0.0800 
 22 H       -2.8510     3.9250    -0.1840 H     1 <1>   0.0800 
 23 H       -3.1990     2.6400    -1.3510 H     1 <1>   0.0800 
 24 H        4.6200    -0.8710     1.4610 H     1 <1>   0.1500 
 25 H        5.1800     1.9430    -1.6970 H     1 <1>   0.1500 
 26 H        7.3450     1.7380    -0.7900 H     1 <1>   0.0800 
 27 H        7.0010     0.4740    -1.9770 H     1 <1>   0.0800 
 28 H        8.9650     0.2360     0.3310 H     1 <1>   0.0800 
 29 H        9.4120     0.4590    -1.3430 H     1 <1>   0.0800 
 30 H        8.6240    -1.0200    -0.8490 H     1 <1>   0.0800 
@<TRIPOS>BOND
  1   1   2  2   
  2   2   3  am  
  3   2   4  1   
  4   3   5  1   
  5   3  16  1   
  6   4   6  1   
  7   4  17  1   
  8   4  18  1   
  9   5   7  ar  
 10   5   8  ar  
 11   6   9  1   
 12   7  10  ar  
 13   7  19  1   
 14   8  11  ar  
 15   8  20  1   
 16   9  21  1   
 17   9  22  1   
 18   9  23  1   
 19  10  12  ar  
 20  10  24  1   
 21  11  12  ar  
 22  11  25  1   
 23  12  13  1   
 24  13  14  1   
 25  14  15  1   
 26  14  26  1   
 27  14  27  1   
 28  15  28  1   
 29  15  29  1   
 30  15  30  1   
@<TRIPOS>SUBSTRUCTURE
  1 ****   5 GROUP 4 **** **** 0

# MOE 2024.06 (io_trps.svl 2023.06)
