@<TRIPOS>MOLECULE
NONAME
41 42 1 0 0 
SMALL
USER_CHARGES


@<TRIPOS>ATOM
  1 O       -4.9220     0.2760     1.9030 O.3   1 <1>  -0.6800 
  2 C       -5.1360     0.3260     0.5450 C.3   1 <1>   0.5670 
  3 C       -6.0330    -0.8820     0.2280 C.ar  1 <1>  -0.1440 
  4 C       -5.8230     1.6550     0.1770 C.ar  1 <1>  -0.1440 
  5 C       -3.7390     0.2910    -0.0880 C.3   1 <1>  -0.1600 
  6 C       -7.3870    -0.8140     0.5480 C.ar  1 <1>  -0.1500 
  7 C       -5.5580    -2.0530    -0.3580 C.ar  1 <1>  -0.1500 
  8 C       -5.9480     2.7180     1.0710 C.ar  1 <1>  -0.1500 
  9 C       -6.3250     1.8160    -1.1100 C.ar  1 <1>  -0.1500 
 10 C       -2.9530     1.5390     0.3140 C.3   1 <1>   0.3430 
 11 C       -8.2370    -1.8740     0.2910 C.ar  1 <1>  -0.1500 
 12 C       -6.4090    -3.1140    -0.6170 C.ar  1 <1>  -0.1500 
 13 C       -6.5480     3.9030     0.6840 C.ar  1 <1>  -0.1500 
 14 C       -6.9250     3.0010    -1.4980 C.ar  1 <1>  -0.1500 
 15 N       -1.5750     1.5190    -0.2610 N.4   1 <1>  -0.9590 
 16 C       -7.7490    -3.0260    -0.2930 C.ar  1 <1>  -0.1500 
 17 C       -7.0360     4.0470    -0.6020 C.ar  1 <1>  -0.1500 
 18 C       -0.6940     0.5320     0.4410 C.3   1 <1>   0.2630 
 19 C       -0.9780     2.8870    -0.1920 C.3   1 <1>   0.2630 
 20 H       -5.7490    -0.0560     2.3050 H     1 <1>   0.4000 
 21 H       -3.8440     0.2560    -1.1560 H     1 <1>   0.0800 
 22 H       -3.2300    -0.5920     0.2490 H     1 <1>   0.0800 
 23 H       -7.8000     0.0730     1.0000 H     1 <1>   0.1500 
 24 H       -4.5260    -2.1750    -0.6250 H     1 <1>   0.1500 
 25 H       -5.5840     2.6420     2.0810 H     1 <1>   0.1500 
 26 H       -6.2620     1.0120    -1.8250 H     1 <1>   0.1500 
 27 H       -2.9040     1.6040     1.3900 H     1 <1>   0.0800 
 28 H       -3.4790     2.4100    -0.0450 H     1 <1>   0.0800 
 29 H       -9.2810    -1.8000     0.5430 H     1 <1>   0.1500 
 30 H       -6.0280    -4.0130    -1.0700 H     1 <1>   0.1500 
 31 H       -6.6420     4.7150     1.3850 H     1 <1>   0.1500 
 32 H       -7.3120     3.1080    -2.4970 H     1 <1>   0.1500 
 33 H       -1.6500     1.2520    -1.2550 H     1 <1>   0.4500 
 34 H       -8.4100    -3.8520    -0.4950 H     1 <1>   0.1500 
 35 H       -7.5050     4.9680    -0.9020 H     1 <1>   0.1500 
 36 H       -0.6250     0.7730     1.4900 H     1 <1>   0.0800 
 37 H        0.2970     0.5470     0.0180 H     1 <1>   0.0800 
 38 H       -1.0910    -0.4650     0.3440 H     1 <1>   0.0800 
 39 H       -0.8920     3.2070     0.8340 H     1 <1>   0.0800 
 40 H       -1.5990     3.5930    -0.7210 H     1 <1>   0.0800 
 41 H        0.0030     2.8920    -0.6380 H     1 <1>   0.0800 
@<TRIPOS>BOND
  1   1   2  1   
  2   1  20  1   
  3   2   3  1   
  4   2   4  1   
  5   2   5  1   
  6   3   6  ar  
  7   3   7  ar  
  8   4   8  ar  
  9   4   9  ar  
 10   5  10  1   
 11   5  21  1   
 12   5  22  1   
 13   6  11  ar  
 14   6  23  1   
 15   7  12  ar  
 16   7  24  1   
 17   8  13  ar  
 18   8  25  1   
 19   9  14  ar  
 20   9  26  1   
 21  10  15  1   
 22  10  27  1   
 23  10  28  1   
 24  11  16  ar  
 25  11  29  1   
 26  12  16  ar  
 27  12  30  1   
 28  13  17  ar  
 29  13  31  1   
 30  14  17  ar  
 31  14  32  1   
 32  15  18  1   
 33  15  19  1   
 34  15  33  1   
 35  16  34  1   
 36  17  35  1   
 37  18  36  1   
 38  18  37  1   
 39  18  38  1   
 40  19  39  1   
 41  19  40  1   
 42  19  41  1   
@<TRIPOS>SUBSTRUCTURE
  1 ****   2 GROUP 4 **** **** 0

# MOE 2024.06 (io_trps.svl 2023.06)
