@<TRIPOS>MOLECULE
NONAME
45 48 1 0 0 
SMALL
USER_CHARGES


@<TRIPOS>ATOM
  1 N        1.1170     0.1960    -1.0040 N.ar  1 <1>  -0.6200 
  2 C        1.4930    -0.6440    -0.0420 C.ar  1 <1>   0.7200 
  3 C        0.4230    -0.3320    -1.9850 C.ar  1 <1>   0.1600 
  4 N        1.2840    -1.9540    -0.0070 N.ar  1 <1>  -0.6200 
  5 N        2.2130    -0.1100     1.0020 N.pl3 1 <1>  -0.8380 
  6 C        0.1240    -1.6720    -2.0290 C.ar  1 <1>  -0.1500 
  7 C        0.5870    -2.4540    -1.0000 C.ar  1 <1>   0.1600 
  8 C        3.4860    -0.7680     1.4000 C.3   1 <1>   0.2090 
  9 C        2.2040     1.3580     1.2510 C.3   1 <1>   0.2090 
 10 C        4.6660    -0.1020     0.6600 C.3   1 <1>   0.3430 
 11 C        3.3760     2.0170     0.4960 C.3   1 <1>   0.3430 
 12 N        4.7260     1.4070     0.8420 N.4   1 <1>  -0.9590 
 13 C        5.8440     2.0420     0.0610 C.3   1 <1>   0.4230 
 14 C        7.1850     1.3180     0.2930 C.3   1 <1>  -0.0170 
 15 C        5.9920     3.5190     0.4560 C.3   1 <1>  -0.1600 
 16 C        8.3760     2.0770    -0.2710 C.ar  1 <1>  -0.1430 
 17 C        7.0050     4.2150    -0.4590 C.3   1 <1>  -0.0170 
 18 C        8.2930     3.4230    -0.6090 C.ar  1 <1>  -0.1430 
 19 C        9.5750     1.4010    -0.4360 C.ar  1 <1>  -0.1500 
 20 C        9.4110     4.0710    -1.1110 C.ar  1 <1>  -0.1500 
 21 C       10.6860     2.0540    -0.9370 C.ar  1 <1>  -0.1500 
 22 C       10.6040     3.3910    -1.2750 C.ar  1 <1>  -0.1500 
 23 H        0.0820     0.3170    -2.7750 H     1 <1>   0.1500 
 24 H       -0.4490    -2.0920    -2.8360 H     1 <1>   0.1500 
 25 H        0.3810    -3.5110    -0.9920 H     1 <1>   0.1500 
 26 H        3.4650    -1.8180     1.1620 H     1 <1>   0.0800 
 27 H        3.6170    -0.6830     2.4650 H     1 <1>   0.0800 
 28 H        2.2900     1.5440     2.3070 H     1 <1>   0.0800 
 29 H        1.2710     1.7880     0.9260 H     1 <1>   0.0800 
 30 H        4.5660    -0.3310    -0.3880 H     1 <1>   0.0800 
 31 H        5.5790    -0.5530     1.0090 H     1 <1>   0.0800 
 32 H        3.3720     3.0690     0.7240 H     1 <1>   0.0800 
 33 H        3.1900     1.9070    -0.5600 H     1 <1>   0.0800 
 34 H        4.9000     1.5900     1.8370 H     1 <1>   0.4500 
 35 H        5.6150     1.9920    -0.9910 H     1 <1>   0.0800 
 36 H        7.1620     0.3540    -0.1810 H     1 <1>   0.0800 
 37 H        7.3520     1.1870     1.3470 H     1 <1>   0.0800 
 38 H        6.3400     3.5910     1.4720 H     1 <1>   0.0800 
 39 H        5.0670     4.0560     0.3690 H     1 <1>   0.0800 
 40 H        7.2290     5.1920    -0.0630 H     1 <1>   0.0800 
 41 H        6.5770     4.3500    -1.4380 H     1 <1>   0.0800 
 42 H        9.6590     0.3600    -0.1760 H     1 <1>   0.1500 
 43 H        9.3620     5.1120    -1.3800 H     1 <1>   0.1500 
 44 H       11.6150     1.5240    -1.0640 H     1 <1>   0.1500 
 45 H       11.4670     3.9020    -1.6650 H     1 <1>   0.1500 
@<TRIPOS>BOND
  1   1   2  ar  
  2   1   3  ar  
  3   2   4  ar  
  4   2   5  1   
  5   3   6  ar  
  6   3  23  1   
  7   4   7  ar  
  8   5   8  1   
  9   5   9  1   
 10   6   7  ar  
 11   6  24  1   
 12   7  25  1   
 13   8  10  1   
 14   8  26  1   
 15   8  27  1   
 16   9  11  1   
 17   9  28  1   
 18   9  29  1   
 19  10  12  1   
 20  10  30  1   
 21  10  31  1   
 22  11  12  1   
 23  11  32  1   
 24  11  33  1   
 25  12  13  1   
 26  12  34  1   
 27  13  14  1   
 28  13  15  1   
 29  13  35  1   
 30  14  16  1   
 31  14  36  1   
 32  14  37  1   
 33  15  17  1   
 34  15  38  1   
 35  15  39  1   
 36  16  18  ar  
 37  16  19  ar  
 38  17  18  1   
 39  17  40  1   
 40  17  41  1   
 41  18  20  ar  
 42  19  21  ar  
 43  19  42  1   
 44  20  22  ar  
 45  20  43  1   
 46  21  22  ar  
 47  21  44  1   
 48  22  45  1   
@<TRIPOS>SUBSTRUCTURE
  1 ****  12 GROUP 4 **** **** 0

# MOE 2024.06 (io_trps.svl 2023.06)
