@<TRIPOS>MOLECULE
ka-06692
26 25 1 0 0 
SMALL
USER_CHARGES


@<TRIPOS>ATOM
  1 O        0.0150    -1.7070     1.6150 O.2   1 <1>  -0.5700 
  2 C        0.0530    -2.0320     0.4450 C.2   1 <1>   0.6900 
  3 N       -1.0790    -2.2470    -0.2610 N.am  1 <1>  -0.7300 
  4 N        1.2280    -2.1930    -0.2010 N.am  1 <1>  -0.7300 
  5 C       -2.4410    -2.1220     0.2660 C.3   1 <1>   0.2200 
  6 C        2.5540    -2.0060     0.3940 C.3   1 <1>   0.2200 
  7 C       -3.1280    -3.4770     0.1350 C.3   1 <1>  -0.2400 
  8 C       -3.1670    -1.0510    -0.5400 C.3   1 <1>  -0.2400 
  9 C        3.2700    -0.9000    -0.3730 C.3   1 <1>  -0.2400 
 10 C        3.3100    -3.3260     0.3000 C.3   1 <1>  -0.2400 
 11 H       -1.0070    -2.5170    -1.2350 H     1 <1>   0.3700 
 12 H        1.2190    -2.4650    -1.1780 H     1 <1>   0.3700 
 13 H       -2.4100    -1.8330     1.3040 H     1 <1>   0.0800 
 14 H        2.4560    -1.7200     1.4300 H     1 <1>   0.0800 
 15 H       -3.1760    -3.7860    -0.8930 H     1 <1>   0.0800 
 16 H       -4.1280    -3.4170     0.5240 H     1 <1>   0.0800 
 17 H       -2.5900    -4.2130     0.7050 H     1 <1>   0.0800 
 18 H       -3.2160    -1.3190    -1.5800 H     1 <1>   0.0800 
 19 H       -2.6560    -0.1100    -0.4370 H     1 <1>   0.0800 
 20 H       -4.1690    -0.9320    -0.1680 H     1 <1>   0.0800 
 21 H        3.3850    -1.1630    -1.4090 H     1 <1>   0.0800 
 22 H        4.2440    -0.7340     0.0500 H     1 <1>   0.0800 
 23 H        2.7110     0.0160    -0.2970 H     1 <1>   0.0800 
 24 H        3.4260    -3.6300    -0.7240 H     1 <1>   0.0800 
 25 H        2.7790    -4.0880     0.8420 H     1 <1>   0.0800 
 26 H        4.2860    -3.2200     0.7390 H     1 <1>   0.0800 
@<TRIPOS>BOND
  1   1   2  2   
  2   2   3  am  
  3   2   4  am  
  4   3   5  1   
  5   3  11  1   
  6   4   6  1   
  7   4  12  1   
  8   5   7  1   
  9   5   8  1   
 10   5  13  1   
 11   6   9  1   
 12   6  10  1   
 13   6  14  1   
 14   7  15  1   
 15   7  16  1   
 16   7  17  1   
 17   8  18  1   
 18   8  19  1   
 19   8  20  1   
 20   9  21  1   
 21   9  22  1   
 22   9  23  1   
 23  10  24  1   
 24  10  25  1   
 25  10  26  1   
@<TRIPOS>SUBSTRUCTURE
  1 ****   2 GROUP 4 **** **** 0

# MOE 2024.06 (io_trps.svl 2023.06)
