@<TRIPOS>MOLECULE
NONAME
46 47 1 0 0 
SMALL
USER_CHARGES


@<TRIPOS>ATOM
  1 O        0.5040     0.3300    -0.0100 O.3   1 <1>  -0.3630 
  2 C       -0.7130     0.9180    -0.1480 C.ar  1 <1>   0.0830 
  3 C        1.7050     1.0500    -0.1360 C.3   1 <1>   0.1200 
  4 C       -1.8510     0.0830     0.0050 C.ar  1 <1>   0.0000 
  5 C       -0.8650     2.2590    -0.4250 C.ar  1 <1>  -0.1500 
  6 C        2.8580     0.0680     0.0820 C.3   1 <1>  -0.1600 
  7 C       -3.1360     0.6540    -0.1320 C.ar  1 <1>   0.0000 
  8 C       -1.7690    -1.2990     0.2880 C.ar  1 <1>  -0.1500 
  9 C       -2.1390     2.8160    -0.5580 C.ar  1 <1>  -0.1500 
 10 C        4.2260     0.7580    -0.0310 C.3   1 <1>  -0.1600 
 11 C       -3.2470     2.0290    -0.4140 C.ar  1 <1>  -0.1500 
 12 C       -4.2720    -0.1680     0.0180 C.ar  1 <1>  -0.1500 
 13 C       -2.8870    -2.0740     0.4290 C.ar  1 <1>  -0.1500 
 14 C        5.3560    -0.2520     0.1870 C.3   1 <1>   0.3430 
 15 C       -4.1550    -1.5020     0.2920 C.ar  1 <1>  -0.1500 
 16 N        6.6890     0.3820    -0.0270 N.4   1 <1>  -0.9590 
 17 C        7.7310    -0.6700    -0.1800 C.3   1 <1>   0.3430 
 18 C        7.0330     1.3470     1.0550 C.3   1 <1>   0.3430 
 19 C        8.9850    -0.0730    -0.8080 C.3   1 <1>  -0.2400 
 20 C        7.1420     2.7370     0.4440 C.3   1 <1>  -0.2400 
 21 H        1.7120     1.8280     0.6090 H     1 <1>   0.0800 
 22 H        1.7400     1.4760    -1.1250 H     1 <1>   0.0800 
 23 H       -0.0270     2.9180    -0.5460 H     1 <1>   0.1500 
 24 H        2.7820    -0.7140    -0.6550 H     1 <1>   0.0800 
 25 H        2.7510    -0.3710     1.0590 H     1 <1>   0.0800 
 26 H       -0.7960    -1.7430     0.3930 H     1 <1>   0.1500 
 27 H       -2.2350     3.8660    -0.7740 H     1 <1>   0.1500 
 28 H        4.2780     1.5390     0.7070 H     1 <1>   0.0800 
 29 H        4.3150     1.1940    -1.0110 H     1 <1>   0.0800 
 30 H       -4.2300     2.4530    -0.5160 H     1 <1>   0.1500 
 31 H       -5.2440     0.2790    -0.0880 H     1 <1>   0.1500 
 32 H       -2.8070    -3.1250     0.6450 H     1 <1>   0.1500 
 33 H        5.2290    -1.0620    -0.5140 H     1 <1>   0.0800 
 34 H        5.2950    -0.6620     1.1830 H     1 <1>   0.0800 
 35 H       -5.0260    -2.1240     0.4060 H     1 <1>   0.1500 
 36 H        6.6530     0.9070    -0.9100 H     1 <1>   0.4500 
 37 H        7.3630    -1.4530    -0.8250 H     1 <1>   0.0800 
 38 H        7.9650    -1.1070     0.7780 H     1 <1>   0.0800 
 39 H        7.9720     1.0790     1.5140 H     1 <1>   0.0800 
 40 H        6.2730     1.3420     1.8200 H     1 <1>   0.0800 
 41 H        8.7610     0.3760    -1.7590 H     1 <1>   0.0800 
 42 H        9.7020    -0.8580    -0.9740 H     1 <1>   0.0800 
 43 H        9.4430     0.6530    -0.1610 H     1 <1>   0.0800 
 44 H        7.9210     2.7720    -0.2970 H     1 <1>   0.0800 
 45 H        7.3910     3.4430     1.2170 H     1 <1>   0.0800 
 46 H        6.2100     3.0430     0.0050 H     1 <1>   0.0800 
@<TRIPOS>BOND
  1   1   2  1   
  2   1   3  1   
  3   2   4  ar  
  4   2   5  ar  
  5   3   6  1   
  6   3  21  1   
  7   3  22  1   
  8   4   7  ar  
  9   4   8  ar  
 10   5   9  ar  
 11   5  23  1   
 12   6  10  1   
 13   6  24  1   
 14   6  25  1   
 15   7  11  ar  
 16   7  12  ar  
 17   8  13  ar  
 18   8  26  1   
 19   9  11  ar  
 20   9  27  1   
 21  10  14  1   
 22  10  28  1   
 23  10  29  1   
 24  11  30  1   
 25  12  15  ar  
 26  12  31  1   
 27  13  15  ar  
 28  13  32  1   
 29  14  16  1   
 30  14  33  1   
 31  14  34  1   
 32  15  35  1   
 33  16  17  1   
 34  16  18  1   
 35  16  36  1   
 36  17  19  1   
 37  17  37  1   
 38  17  38  1   
 39  18  20  1   
 40  18  39  1   
 41  18  40  1   
 42  19  41  1   
 43  19  42  1   
 44  19  43  1   
 45  20  44  1   
 46  20  45  1   
 47  20  46  1   
@<TRIPOS>SUBSTRUCTURE
  1 ****   3 GROUP 4 **** **** 0

# MOE 2024.06 (io_trps.svl 2023.06)
