@<TRIPOS>MOLECULE
NONAME
37 37 1 0 0 
SMALL
USER_CHARGES


@<TRIPOS>ATOM
  1 O        0.2120     1.3350     1.5400 O.2   1 <1>  -0.5700 
  2 C        0.1890     1.8540     0.4500 C.2   1 <1>   0.5690 
  3 N        1.2720     1.8830    -0.3830 N.am  1 <1>  -0.5470 
  4 C       -1.0980     2.5290    -0.0320 C.3   1 <1>  -0.0190 
  5 C        2.5600     1.3760    -0.1580 C.ar  1 <1>   0.1170 
  6 C       -1.4150     3.7600     0.8520 C.3   1 <1>  -0.1600 
  7 C       -2.2410     1.4870    -0.0720 C.3   1 <1>  -0.1600 
  8 C        3.6340     2.2630    -0.0550 C.ar  1 <1>  -0.1440 
  9 C        2.7950     0.0000    -0.0660 C.ar  1 <1>  -0.1440 
 10 C       -2.0010     4.9460     0.0710 C.3   1 <1>  -0.2400 
 11 C       -3.5560     1.9960    -0.6720 C.3   1 <1>  -0.2400 
 12 C        4.9170     1.7780     0.1360 C.ar  1 <1>  -0.1500 
 13 C        3.4220     3.7710    -0.1350 C.3   1 <1>  -0.0970 
 14 C        4.0840    -0.4650     0.1300 C.ar  1 <1>  -0.1500 
 15 C        1.6650    -1.0160    -0.1760 C.3   1 <1>  -0.0970 
 16 C        5.1430     0.4170     0.2290 C.ar  1 <1>  -0.1500 
 17 H        1.1780     2.4420    -1.2260 H     1 <1>   0.3700 
 18 H       -0.9260     2.8670    -1.0380 H     1 <1>   0.0800 
 19 H       -0.5050     4.1010     1.3180 H     1 <1>   0.0800 
 20 H       -2.0810     3.4750     1.6480 H     1 <1>   0.0800 
 21 H       -2.4270     1.1250     0.9260 H     1 <1>   0.0800 
 22 H       -1.9090     0.6440    -0.6550 H     1 <1>   0.0800 
 23 H       -1.3090     5.2790    -0.6830 H     1 <1>   0.0800 
 24 H       -2.1860     5.7660     0.7430 H     1 <1>   0.0800 
 25 H       -2.9280     4.6880    -0.4040 H     1 <1>   0.0800 
 26 H       -4.0150     2.7200    -0.0220 H     1 <1>   0.0800 
 27 H       -4.2430     1.1770    -0.7890 H     1 <1>   0.0800 
 28 H       -3.3880     2.4410    -1.6370 H     1 <1>   0.0800 
 29 H        5.7490     2.4530     0.2180 H     1 <1>   0.1500 
 30 H        2.6960     4.0760     0.5970 H     1 <1>   0.0800 
 31 H        3.0730     4.0430    -1.1140 H     1 <1>   0.0800 
 32 H        4.3370     4.3000     0.0590 H     1 <1>   0.0800 
 33 H        4.2740    -1.5210     0.2080 H     1 <1>   0.1500 
 34 H        1.0070    -0.7620    -0.9870 H     1 <1>   0.0800 
 35 H        1.1010    -1.0300     0.7390 H     1 <1>   0.0800 
 36 H        2.0510    -2.0040    -0.3530 H     1 <1>   0.0800 
 37 H        6.1420     0.0460     0.3800 H     1 <1>   0.1500 
@<TRIPOS>BOND
  1   1   2  2   
  2   2   3  am  
  3   2   4  1   
  4   3   5  1   
  5   3  17  1   
  6   4   6  1   
  7   4   7  1   
  8   4  18  1   
  9   5   8  ar  
 10   5   9  ar  
 11   6  10  1   
 12   6  19  1   
 13   6  20  1   
 14   7  11  1   
 15   7  21  1   
 16   7  22  1   
 17   8  12  ar  
 18   8  13  1   
 19   9  14  ar  
 20   9  15  1   
 21  10  23  1   
 22  10  24  1   
 23  10  25  1   
 24  11  26  1   
 25  11  27  1   
 26  11  28  1   
 27  12  16  ar  
 28  12  29  1   
 29  13  30  1   
 30  13  31  1   
 31  13  32  1   
 32  14  16  ar  
 33  14  33  1   
 34  15  34  1   
 35  15  35  1   
 36  15  36  1   
 37  16  37  1   
@<TRIPOS>SUBSTRUCTURE
  1 ****   3 GROUP 4 **** **** 0

# MOE 2024.06 (io_trps.svl 2023.06)
