@<TRIPOS>MOLECULE
NONAME
37 39 1 0 0 
SMALL
USER_CHARGES


@<TRIPOS>ATOM
  1 O        0.1520     0.2250    -1.5190 O.2   1 <1>  -0.5700 
  2 C        0.0950     1.0260    -0.6080 C.2   1 <1>   0.6900 
  3 N        1.2110     1.5520    -0.0290 N.am  1 <1>  -0.5470 
  4 N       -1.1020     1.4470    -0.1360 N.am  1 <1>  -0.7300 
  5 C        2.5700     1.2370    -0.1790 C.ar  1 <1>   0.1170 
  6 C       -2.4130     1.0090    -0.6430 C.3   1 <1>   0.2200 
  7 C        3.5490     2.2370     0.0910 C.ar  1 <1>   0.0000 
  8 C        2.9750    -0.0270    -0.5450 C.ar  1 <1>  -0.1500 
  9 C       -3.2860     2.2380    -0.8630 C.3   1 <1>  -0.1600 
 10 C       -3.1400     0.2570     0.4640 C.3   1 <1>  -0.1600 
 11 C        4.9180     1.8910     0.0080 C.ar  1 <1>   0.0000 
 12 C        3.2330     3.5740     0.4320 C.ar  1 <1>  -0.1500 
 13 C        4.3260    -0.3570    -0.6440 C.ar  1 <1>  -0.1500 
 14 C       -3.8470     2.6050     0.5160 C.3   1 <1>  -0.1600 
 15 C       -3.7550     1.3320     1.3680 C.3   1 <1>  -0.1600 
 16 C        5.2770     0.5840    -0.3680 C.ar  1 <1>  -0.1500 
 17 C        5.8950     2.8650     0.2980 C.ar  1 <1>  -0.1500 
 18 C        4.2020     4.5010     0.7030 C.ar  1 <1>  -0.1500 
 19 C        5.5500     4.1420     0.6410 C.ar  1 <1>  -0.1500 
 20 H        1.0230     2.3570     0.5530 H     1 <1>   0.3700 
 21 H       -1.1510     1.9860     0.7230 H     1 <1>   0.3700 
 22 H       -2.3030     0.4190    -1.5380 H     1 <1>   0.0800 
 23 H        2.2500    -0.7920    -0.7560 H     1 <1>   0.1500 
 24 H       -4.1010     1.9620    -1.5090 H     1 <1>   0.0800 
 25 H       -2.7430     3.0450    -1.3230 H     1 <1>   0.0800 
 26 H       -2.4880    -0.4150     0.9950 H     1 <1>   0.0800 
 27 H       -3.9320    -0.3190     0.0180 H     1 <1>   0.0800 
 28 H        2.2050     3.8800     0.4730 H     1 <1>   0.1500 
 29 H        4.6000    -1.3550    -0.9370 H     1 <1>   0.1500 
 30 H       -4.8630     2.9520     0.4350 H     1 <1>   0.0800 
 31 H       -3.2500     3.3830     0.9600 H     1 <1>   0.0800 
 32 H       -3.1170     1.5070     2.2170 H     1 <1>   0.0800 
 33 H       -4.7250     1.0240     1.7210 H     1 <1>   0.0800 
 34 H        6.3200     0.3350    -0.4380 H     1 <1>   0.1500 
 35 H        6.9310     2.5830     0.2420 H     1 <1>   0.1500 
 36 H        3.9430     5.5130     0.9640 H     1 <1>   0.1500 
 37 H        6.3010     4.8800     0.8600 H     1 <1>   0.1500 
@<TRIPOS>BOND
  1   1   2  2   
  2   2   3  am  
  3   2   4  am  
  4   3   5  1   
  5   3  20  1   
  6   4   6  1   
  7   4  21  1   
  8   5   7  ar  
  9   5   8  ar  
 10   6   9  1   
 11   6  10  1   
 12   6  22  1   
 13   7  11  ar  
 14   7  12  ar  
 15   8  13  ar  
 16   8  23  1   
 17   9  14  1   
 18   9  24  1   
 19   9  25  1   
 20  10  15  1   
 21  10  26  1   
 22  10  27  1   
 23  11  16  ar  
 24  11  17  ar  
 25  12  18  ar  
 26  12  28  1   
 27  13  16  ar  
 28  13  29  1   
 29  14  15  1   
 30  14  30  1   
 31  14  31  1   
 32  15  32  1   
 33  15  33  1   
 34  16  34  1   
 35  17  19  ar  
 36  17  35  1   
 37  18  19  ar  
 38  18  36  1   
 39  19  37  1   
@<TRIPOS>SUBSTRUCTURE
  1 ****   3 GROUP 4 **** **** 0

# MOE 2024.06 (io_trps.svl 2023.06)
