@<TRIPOS>MOLECULE
NONAME
32 32 1 0 0 
SMALL
USER_CHARGES


@<TRIPOS>ATOM
  1 CL       0.0860    -0.8960     0.9150 Cl    1 <1>  -0.1770 
  2 C       -1.0290     0.3480     0.3830 C.ar  1 <1>   0.1770 
  3 C       -0.6980     1.7110     0.3620 C.ar  1 <1>   0.0820 
  4 C       -2.2810    -0.0890    -0.0040 C.ar  1 <1>  -0.1500 
  5 O        0.5190     2.2190     0.7130 O.3   1 <1>  -0.3630 
  6 C       -1.6670     2.6350    -0.0320 C.ar  1 <1>  -0.1440 
  7 C       -3.2160     0.8420    -0.4040 C.ar  1 <1>   0.1770 
  8 C        1.7170     1.5650     0.3710 C.3   1 <1>   0.1200 
  9 C       -2.9240     2.1930    -0.4180 C.ar  1 <1>  -0.1500 
 10 C       -1.3720     4.1300    -0.0470 C.3   1 <1>  -0.0960 
 11 CL      -4.8010     0.3040    -0.8970 Cl    1 <1>  -0.1770 
 12 C        2.8100     2.6300     0.2660 C.3   1 <1>   0.3430 
 13 N        4.1430     2.0240    -0.0410 N.4   1 <1>  -0.9060 
 14 C        5.2050     3.0720    -0.1390 C.3   1 <1>   0.3430 
 15 C        6.5800     2.4680    -0.4510 C.3   1 <1>   0.1200 
 16 O        7.4800     3.5120    -0.5280 O.3   1 <1>  -0.6800 
 17 H       -2.5290    -1.1350     0.0110 H     1 <1>   0.1500 
 18 H        1.5750     1.0610    -0.5700 H     1 <1>   0.0800 
 19 H        1.9480     0.8690     1.1560 H     1 <1>   0.0800 
 20 H       -3.6860     2.8850    -0.7310 H     1 <1>   0.1500 
 21 H       -1.0360     4.4480     0.9240 H     1 <1>   0.0800 
 22 H       -2.2510     4.6960    -0.2990 H     1 <1>   0.0800 
 23 H       -0.6080     4.3480    -0.7700 H     1 <1>   0.0800 
 24 H        2.8620     3.1620     1.2030 H     1 <1>   0.0800 
 25 H        2.5410     3.3280    -0.5100 H     1 <1>   0.0800 
 26 H        4.0920     1.5050    -0.9270 H     1 <1>   0.4500 
 27 H        4.3940     1.3530     0.6980 H     1 <1>   0.4500 
 28 H        5.2720     3.6110     0.7920 H     1 <1>   0.0800 
 29 H        4.9540     3.7720    -0.9200 H     1 <1>   0.0800 
 30 H        6.5800     1.9590    -1.4010 H     1 <1>   0.0800 
 31 H        6.9060     1.8060     0.3340 H     1 <1>   0.0800 
 32 H        8.3910     3.2010    -0.7260 H     1 <1>   0.4000 
@<TRIPOS>BOND
  1   1   2  1   
  2   2   3  ar  
  3   2   4  ar  
  4   3   5  1   
  5   3   6  ar  
  6   4   7  ar  
  7   4  17  1   
  8   5   8  1   
  9   6   9  ar  
 10   6  10  1   
 11   7   9  ar  
 12   7  11  1   
 13   8  12  1   
 14   8  18  1   
 15   8  19  1   
 16   9  20  1   
 17  10  21  1   
 18  10  22  1   
 19  10  23  1   
 20  12  13  1   
 21  12  24  1   
 22  12  25  1   
 23  13  14  1   
 24  13  26  1   
 25  13  27  1   
 26  14  15  1   
 27  14  28  1   
 28  14  29  1   
 29  15  16  1   
 30  15  30  1   
 31  15  31  1   
 32  16  32  1   
@<TRIPOS>SUBSTRUCTURE
  1 ****   5 GROUP 4 **** **** 0

# MOE 2024.06 (io_trps.svl 2023.06)
