@<TRIPOS>MOLECULE
NONAME
50 51 1 0 0 
SMALL
USER_CHARGES


@<TRIPOS>ATOM
  1 O        6.1870    -7.5760    -1.2550 O.2   1 <1>  -0.5700 
  2 C        6.2700    -6.7680    -0.3680 C.2   1 <1>   0.6590 
  3 O        7.3900    -6.5500     0.3030 O.3   1 <1>  -0.4300 
  4 C        5.0670    -5.9240     0.0440 C.3   1 <1>  -0.0190 
  5 C        8.5700    -7.2640     0.0130 C.3   1 <1>   0.1200 
  6 C        3.8790    -6.8150     0.4550 C.3   1 <1>  -0.1600 
  7 C        4.6520    -4.9710    -1.0930 C.3   1 <1>  -0.1600 
  8 C        9.6630    -6.7750     0.9580 C.3   1 <1>  -0.2400 
  9 C        2.6220    -6.0000     0.7480 C.3   1 <1>   0.3430 
 10 C        3.3740    -4.2020    -0.7610 C.3   1 <1>   0.3430 
 11 N        2.2800    -5.1650    -0.4440 N.4   1 <1>  -0.9590 
 12 C        0.9840    -4.4280    -0.2690 C.3   1 <1>   0.3430 
 13 C       -0.2340    -5.3560    -0.2420 C.3   1 <1>   0.1200 
 14 O       -1.3680    -4.5420    -0.0830 O.3   1 <1>  -0.3630 
 15 C       -2.6210    -5.0640     0.0080 C.ar  1 <1>   0.0820 
 16 C       -3.6740    -4.1790     0.2410 C.ar  1 <1>  -0.1440 
 17 C       -2.8720    -6.4300    -0.1210 C.ar  1 <1>  -0.1500 
 18 C       -4.9640    -4.6860     0.3430 C.ar  1 <1>  -0.1500 
 19 C       -3.3700    -2.6830     0.3760 C.3   1 <1>  -0.0170 
 20 C       -4.1620    -6.9140    -0.0160 C.ar  1 <1>  -0.1500 
 21 C       -5.2070    -6.0420     0.2160 C.ar  1 <1>  -0.1500 
 22 C       -4.5780    -1.7700     0.6190 C.3   1 <1>  -0.2400 
 23 H        5.3590    -5.3330     0.8950 H     1 <1>   0.0800 
 24 H        8.8370    -7.0820    -1.0140 H     1 <1>   0.0800 
 25 H        8.3780    -8.3150     0.1550 H     1 <1>   0.0800 
 26 H        4.1460    -7.3780     1.3340 H     1 <1>   0.0800 
 27 H        3.6640    -7.5270    -0.3240 H     1 <1>   0.0800 
 28 H        4.5040    -5.5270    -2.0040 H     1 <1>   0.0800 
 29 H        5.4470    -4.2690    -1.2760 H     1 <1>   0.0800 
 30 H        9.8390    -5.7250     0.8120 H     1 <1>   0.0800 
 31 H       10.5760    -7.3050     0.7590 H     1 <1>   0.0800 
 32 H        9.3800    -6.9560     1.9800 H     1 <1>   0.0800 
 33 H        2.7920    -5.3650     1.6030 H     1 <1>   0.0800 
 34 H        1.8110    -6.6710     0.9800 H     1 <1>   0.0800 
 35 H        3.0970    -3.5900    -1.6050 H     1 <1>   0.0800 
 36 H        3.5500    -3.5550     0.0840 H     1 <1>   0.0800 
 37 H        2.1940    -5.7950    -1.2550 H     1 <1>   0.4500 
 38 H        0.8540    -3.7370    -1.0860 H     1 <1>   0.0800 
 39 H        1.0100    -3.8630     0.6490 H     1 <1>   0.0800 
 40 H       -0.1960    -6.0330     0.5920 H     1 <1>   0.0800 
 41 H       -0.3330    -5.8880    -1.1720 H     1 <1>   0.0800 
 42 H       -2.0880    -7.1370    -0.3040 H     1 <1>   0.1500 
 43 H       -5.8050    -4.0420     0.5230 H     1 <1>   0.1500 
 44 H       -2.8780    -2.3560    -0.5240 H     1 <1>   0.0800 
 45 H       -2.6780    -2.5500     1.1890 H     1 <1>   0.0800 
 46 H       -4.3570    -7.9680    -0.1160 H     1 <1>   0.1500 
 47 H       -6.2130    -6.4170     0.2980 H     1 <1>   0.1500 
 48 H       -5.2750    -1.8450    -0.1960 H     1 <1>   0.0800 
 49 H       -4.2540    -0.7470     0.6950 H     1 <1>   0.0800 
 50 H       -5.0710    -2.0370     1.5370 H     1 <1>   0.0800 
@<TRIPOS>BOND
  1   1   2  2   
  2   2   3  1   
  3   2   4  1   
  4   3   5  1   
  5   4   6  1   
  6   4   7  1   
  7   4  23  1   
  8   5   8  1   
  9   5  24  1   
 10   5  25  1   
 11   6   9  1   
 12   6  26  1   
 13   6  27  1   
 14   7  10  1   
 15   7  28  1   
 16   7  29  1   
 17   8  30  1   
 18   8  31  1   
 19   8  32  1   
 20   9  11  1   
 21   9  33  1   
 22   9  34  1   
 23  10  11  1   
 24  10  35  1   
 25  10  36  1   
 26  11  12  1   
 27  11  37  1   
 28  12  13  1   
 29  12  38  1   
 30  12  39  1   
 31  13  14  1   
 32  13  40  1   
 33  13  41  1   
 34  14  15  1   
 35  15  16  ar  
 36  15  17  ar  
 37  16  18  ar  
 38  16  19  1   
 39  17  20  ar  
 40  17  42  1   
 41  18  21  ar  
 42  18  43  1   
 43  19  22  1   
 44  19  44  1   
 45  19  45  1   
 46  20  21  ar  
 47  20  46  1   
 48  21  47  1   
 49  22  48  1   
 50  22  49  1   
 51  22  50  1   
@<TRIPOS>SUBSTRUCTURE
  1 ****  12 GROUP 4 **** **** 0

# MOE 2024.06 (io_trps.svl 2023.06)
