@<TRIPOS>MOLECULE
NONAME
47 48 1 0 0 
SMALL
USER_CHARGES


@<TRIPOS>ATOM
  1 BR      -0.2470     0.3020     1.5460 Br    1 <1>  -0.1110 
  2 C       -1.7630    -0.4710     0.6500 C.ar  1 <1>   0.1110 
  3 C       -2.4990     0.3160    -0.2140 C.ar  1 <1>  -0.1500 
  4 C       -2.0770    -1.7940     0.8910 C.ar  1 <1>  -0.1500 
  5 C       -3.5900    -0.2440    -0.8560 C.ar  1 <1>  -0.1500 
  6 C       -3.1700    -2.3450     0.2450 C.ar  1 <1>  -0.1500 
  7 C       -3.9340    -1.5730    -0.6250 C.ar  1 <1>  -0.1430 
  8 C       -5.1410    -2.1750    -1.3210 C.3   1 <1>   0.4870 
  9 N       -6.2530    -2.2960    -0.3390 N.4   1 <1>  -0.9590 
 10 C       -7.3880    -3.0810    -0.9260 C.3   1 <1>   0.3430 
 11 C       -6.6970    -0.9560     0.1510 C.3   1 <1>   0.3430 
 12 C       -8.5260    -3.2810     0.0830 C.3   1 <1>  -0.0190 
 13 C       -7.7940    -1.1270     1.2040 C.3   1 <1>  -0.1600 
 14 C       -9.6710    -3.9950    -0.6290 C.2   1 <1>   0.5690 
 15 C       -8.9860    -1.9260     0.6580 C.3   1 <1>  -0.1600 
 16 O       -9.7730    -3.7900    -1.8160 O.2   1 <1>  -0.5700 
 17 N      -10.5330    -4.8280     0.0400 N.am  1 <1>  -0.6600 
 18 C      -10.4960    -5.1200     1.5000 C.3   1 <1>   0.1400 
 19 C      -11.6460    -5.4940    -0.6940 C.3   1 <1>   0.1400 
 20 C       -9.6810    -6.3870     1.7470 C.3   1 <1>  -0.2400 
 21 C      -12.8970    -4.6220    -0.6260 C.3   1 <1>  -0.2400 
 22 H       -2.2160     1.3420    -0.3800 H     1 <1>   0.1500 
 23 H       -1.4720    -2.3740     1.5670 H     1 <1>   0.1500 
 24 H       -4.1600     0.3670    -1.5360 H     1 <1>   0.1500 
 25 H       -3.4090    -3.3800     0.4270 H     1 <1>   0.1500 
 26 H       -4.8780    -3.1480    -1.7050 H     1 <1>   0.0800 
 27 H       -5.4390    -1.5520    -2.1490 H     1 <1>   0.0800 
 28 H       -5.8780    -2.8030     0.4710 H     1 <1>   0.4500 
 29 H       -7.0420    -4.0460    -1.2590 H     1 <1>   0.0800 
 30 H       -7.7790    -2.5580    -1.7850 H     1 <1>   0.0800 
 31 H       -7.0790    -0.3740    -0.6720 H     1 <1>   0.0800 
 32 H       -5.8650    -0.4250     0.5860 H     1 <1>   0.0800 
 33 H       -8.1570    -3.9070     0.8720 H     1 <1>   0.0800 
 34 H       -8.1340    -0.1540     1.5130 H     1 <1>   0.0800 
 35 H       -7.3860    -1.6140     2.0720 H     1 <1>   0.0800 
 36 H       -9.7110    -2.0810     1.4390 H     1 <1>   0.0800 
 37 H       -9.4710    -1.3580    -0.1200 H     1 <1>   0.0800 
 38 H      -11.5000    -5.2590     1.8660 H     1 <1>   0.0800 
 39 H      -10.0700    -4.2950     2.0420 H     1 <1>   0.0800 
 40 H      -11.8450    -6.4610    -0.2640 H     1 <1>   0.0800 
 41 H      -11.3690    -5.6460    -1.7240 H     1 <1>   0.0800 
 42 H      -10.1370    -7.2290     1.2570 H     1 <1>   0.0800 
 43 H       -9.6460    -6.5930     2.8020 H     1 <1>   0.0800 
 44 H       -8.6750    -6.2720     1.3890 H     1 <1>   0.0800 
 45 H      -13.2130    -4.4830     0.3920 H     1 <1>   0.0800 
 46 H      -13.6950    -5.0960    -1.1680 H     1 <1>   0.0800 
 47 H      -12.7040    -3.6650    -1.0770 H     1 <1>   0.0800 
@<TRIPOS>BOND
  1   1   2  1   
  2   2   3  ar  
  3   2   4  ar  
  4   3   5  ar  
  5   3  22  1   
  6   4   6  ar  
  7   4  23  1   
  8   5   7  ar  
  9   5  24  1   
 10   6   7  ar  
 11   6  25  1   
 12   7   8  1   
 13   8   9  1   
 14   8  26  1   
 15   8  27  1   
 16   9  10  1   
 17   9  11  1   
 18   9  28  1   
 19  10  12  1   
 20  10  29  1   
 21  10  30  1   
 22  11  13  1   
 23  11  31  1   
 24  11  32  1   
 25  12  14  1   
 26  12  15  1   
 27  12  33  1   
 28  13  15  1   
 29  13  34  1   
 30  13  35  1   
 31  14  16  2   
 32  14  17  am  
 33  15  36  1   
 34  15  37  1   
 35  17  18  1   
 36  17  19  1   
 37  18  20  1   
 38  18  38  1   
 39  18  39  1   
 40  19  21  1   
 41  19  40  1   
 42  19  41  1   
 43  20  42  1   
 44  20  43  1   
 45  20  44  1   
 46  21  45  1   
 47  21  46  1   
 48  21  47  1   
@<TRIPOS>SUBSTRUCTURE
  1 ****   9 GROUP 4 **** **** 0

# MOE 2024.06 (io_trps.svl 2023.06)
