@<TRIPOS>MOLECULE
NONAME
27 28 1 0 0 
SMALL
USER_CHARGES


@<TRIPOS>ATOM
  1 CL       0.2260     0.1640    -1.5340 Cl    1 <1>  -0.1770 
  2 C       -1.1430    -0.8500    -1.1340 C.ar  1 <1>   0.1770 
  3 C       -0.9470    -2.0920    -0.5340 C.ar  1 <1>   0.0830 
  4 C       -2.4140    -0.3940    -1.4270 C.ar  1 <1>  -0.1500 
  5 O        0.2920    -2.5490    -0.2510 O.3   1 <1>  -0.3630 
  6 C       -2.0410    -2.8940    -0.2390 C.ar  1 <1>  -0.1500 
  7 C       -3.4910    -1.2030    -1.1170 C.ar  1 <1>   0.1770 
  8 C        0.8760    -2.0710     0.9560 C.3   1 <1>   0.1810 
  9 C       -3.3200    -2.4460    -0.5290 C.ar  1 <1>  -0.1500 
 10 CL      -5.1060    -0.6460    -1.4760 Cl    1 <1>  -0.1770 
 11 C        2.3360    -2.4910     1.0700 C.2   1 <1>   0.5690 
 12 O        2.8690    -2.4210     2.1530 O.2   1 <1>  -0.5700 
 13 N        2.9900    -2.9200    -0.0430 N.am  1 <1>  -0.5790 
 14 C        4.3930    -3.3440    -0.1170 C.3   1 <1>   0.0490 
 15 C        5.1520    -3.0350    -1.3640 C.3   1 <1>  -0.2000 
 16 C        4.7440    -4.4460    -1.0610 C.3   1 <1>  -0.2000 
 17 H       -2.5630     0.5650    -1.8870 H     1 <1>   0.1500 
 18 H       -1.8880    -3.8590     0.2120 H     1 <1>   0.1500 
 19 H        0.3210    -2.4730     1.7820 H     1 <1>   0.0800 
 20 H        0.8170    -0.9980     0.9720 H     1 <1>   0.0800 
 21 H       -4.1800    -3.0520    -0.3050 H     1 <1>   0.1500 
 22 H        2.4600    -2.9740    -0.9160 H     1 <1>   0.3700 
 23 H        4.9070    -3.2880     0.8300 H     1 <1>   0.1000 
 24 H        6.1940    -2.7780    -1.2820 H     1 <1>   0.1000 
 25 H        4.6560    -2.5040    -2.1560 H     1 <1>   0.1000 
 26 H        3.9620    -4.9020    -1.6410 H     1 <1>   0.1000 
 27 H        5.5080    -5.1460    -0.7720 H     1 <1>   0.1000 
@<TRIPOS>BOND
  1   1   2  1   
  2   2   3  ar  
  3   2   4  ar  
  4   3   5  1   
  5   3   6  ar  
  6   4   7  ar  
  7   4  17  1   
  8   5   8  1   
  9   6   9  ar  
 10   6  18  1   
 11   7   9  ar  
 12   7  10  1   
 13   8  11  1   
 14   8  19  1   
 15   8  20  1   
 16   9  21  1   
 17  11  12  2   
 18  11  13  am  
 19  13  14  1   
 20  13  22  1   
 21  14  15  1   
 22  14  16  1   
 23  14  23  1   
 24  15  16  1   
 25  15  24  1   
 26  15  25  1   
 27  16  26  1   
 28  16  27  1   
@<TRIPOS>SUBSTRUCTURE
  1 ****   5 GROUP 4 **** **** 0

# MOE 2024.06 (io_trps.svl 2023.06)
