@<TRIPOS>MOLECULE
NONAME
41 43 1 0 0 
SMALL
USER_CHARGES


@<TRIPOS>ATOM
  1 S        0.7020     0.1320    -0.8910 S.3   1 <1>  -0.0800 
  2 C        1.6750    -1.2980    -0.7770 C.2   1 <1>   0.4420 
  3 C       -0.6420    -0.8990    -1.2360 C.2   1 <1>   0.1980 
  4 N        0.9930    -2.3650    -0.9850 N.2   1 <1>  -0.3380 
  5 N        3.0100    -1.1120    -0.4860 N.am  1 <1>  -0.4940 
  6 N       -0.3290    -2.1290    -1.2470 N.2   1 <1>  -0.3380 
  7 C       -1.9900    -0.2590    -1.4780 C.3   1 <1>  -0.0600 
  8 C        4.0000    -2.0420    -0.3380 C.2   1 <1>   0.5690 
  9 O        3.8210    -3.2260    -0.4610 O.2   1 <1>  -0.5700 
 10 C        5.3960    -1.5280    -0.0140 C.3   1 <1>  -0.0190 
 11 C        6.4660    -2.6270     0.1120 C.3   1 <1>   0.1400 
 12 C        5.4780    -0.7400     1.3080 C.3   1 <1>  -0.0990 
 13 N        7.3890    -2.0890     1.1310 N.am  1 <1>  -0.6600 
 14 C        6.8720    -1.0290     1.7840 C.2   1 <1>   0.5690 
 15 C        8.7820    -2.5600     1.2670 C.3   1 <1>   0.3640 
 16 O        7.4300    -0.3650     2.6210 O.2   1 <1>  -0.5700 
 17 C        9.5090    -2.3670    -0.0670 C.ar  1 <1>  -0.1440 
 18 C        8.7790    -3.9940     1.7990 C.3   1 <1>  -0.2400 
 19 C        9.9780    -1.0970    -0.3730 C.ar  1 <1>  -0.1500 
 20 C        9.7090    -3.3910    -0.9860 C.ar  1 <1>  -0.1500 
 21 C       10.6350    -0.8510    -1.5660 C.ar  1 <1>  -0.1500 
 22 C       10.3650    -3.1480    -2.1800 C.ar  1 <1>  -0.1500 
 23 C       10.8290    -1.8780    -2.4720 C.ar  1 <1>  -0.1500 
 24 H        3.2830    -0.1410    -0.3670 H     1 <1>   0.3700 
 25 H       -2.2940     0.2960    -0.6100 H     1 <1>   0.0800 
 26 H       -2.7220    -1.0200    -1.6790 H     1 <1>   0.0800 
 27 H       -1.9350     0.4030    -2.3230 H     1 <1>   0.0800 
 28 H        5.7070    -0.8850    -0.8170 H     1 <1>   0.0800 
 29 H        6.9630    -2.7920    -0.8280 H     1 <1>   0.0800 
 30 H        6.0510    -3.5530     0.4730 H     1 <1>   0.0800 
 31 H        4.7850    -1.1180     2.0380 H     1 <1>   0.0800 
 32 H        5.3360     0.3160     1.1660 H     1 <1>   0.0800 
 33 H        9.2800    -1.9470     2.0010 H     1 <1>   0.0800 
 34 H        8.2220    -4.6490     1.1560 H     1 <1>   0.0800 
 35 H        8.3400    -4.0100     2.7800 H     1 <1>   0.0800 
 36 H        9.7890    -4.3520     1.8740 H     1 <1>   0.0800 
 37 H        9.8270    -0.2890     0.3240 H     1 <1>   0.1500 
 38 H        9.3570    -4.3870    -0.7900 H     1 <1>   0.1500 
 39 H       10.9930     0.1380    -1.7880 H     1 <1>   0.1500 
 40 H       10.5160    -3.9480    -2.8840 H     1 <1>   0.1500 
 41 H       11.3400    -1.6890    -3.3990 H     1 <1>   0.1500 
@<TRIPOS>BOND
  1   1   2  1   
  2   1   3  1   
  3   2   4  2   
  4   2   5  1   
  5   3   6  2   
  6   3   7  1   
  7   4   6  1   
  8   5   8  am  
  9   5  24  1   
 10   7  25  1   
 11   7  26  1   
 12   7  27  1   
 13   8   9  2   
 14   8  10  1   
 15  10  11  1   
 16  10  12  1   
 17  10  28  1   
 18  11  13  1   
 19  11  29  1   
 20  11  30  1   
 21  12  14  1   
 22  12  31  1   
 23  12  32  1   
 24  13  14  am  
 25  13  15  1   
 26  14  16  2   
 27  15  17  1   
 28  15  18  1   
 29  15  33  1   
 30  17  19  ar  
 31  17  20  ar  
 32  18  34  1   
 33  18  35  1   
 34  18  36  1   
 35  19  21  ar  
 36  19  37  1   
 37  20  22  ar  
 38  20  38  1   
 39  21  23  ar  
 40  21  39  1   
 41  22  23  ar  
 42  22  40  1   
 43  23  41  1   
@<TRIPOS>SUBSTRUCTURE
  1 ****  10 GROUP 4 **** **** 0

# MOE 2024.06 (io_trps.svl 2023.06)
