@<TRIPOS>MOLECULE
NONAME
32 31 1 0 0 
SMALL
USER_CHARGES


@<TRIPOS>ATOM
  1 S        0.1140     0.5970    -0.0010 S.o2  1 <1>   1.0900 
  2 O        0.0850     1.3750     1.2170 O.2   1 <1>  -0.6500 
  3 O        0.2100     1.2580    -1.2820 O.2   1 <1>  -0.6500 
  4 C       -1.3340    -0.4610    -0.0240 C.3   1 <1>  -0.0550 
  5 C        1.4620    -0.5840     0.1220 C.3   1 <1>  -0.0550 
  6 C       -2.6540     0.3290    -0.1270 C.3   1 <1>  -0.1600 
  7 C        2.8480     0.0770     0.1600 C.3   1 <1>  -0.1600 
  8 C       -3.9390    -0.5270    -0.1510 C.3   1 <1>   0.0000 
  9 C        3.9630    -0.9690     0.2640 C.3   1 <1>  -0.2400 
 10 C       -4.0810    -1.3530     1.1360 C.3   1 <1>  -0.2400 
 11 C       -5.1440     0.4190    -0.2560 C.3   1 <1>  -0.2400 
 12 C       -3.9560    -1.4700    -1.3630 C.3   1 <1>  -0.2400 
 13 H       -1.3480    -1.0480     0.8730 H     1 <1>   0.0800 
 14 H       -1.2620    -1.1290    -0.8590 H     1 <1>   0.0800 
 15 H        1.4260    -1.2500    -0.7190 H     1 <1>   0.0800 
 16 H        1.3390    -1.1700     1.0130 H     1 <1>   0.0800 
 17 H       -2.6160     0.9300    -1.0200 H     1 <1>   0.0800 
 18 H       -2.7020     1.0110     0.7060 H     1 <1>   0.0800 
 19 H        2.9020     0.7450     1.0040 H     1 <1>   0.0800 
 20 H        2.9880     0.6640    -0.7330 H     1 <1>   0.0800 
 21 H        3.8550    -1.5500     1.1640 H     1 <1>   0.0800 
 22 H        4.9210    -0.4800     0.2900 H     1 <1>   0.0800 
 23 H        3.9420    -1.6310    -0.5840 H     1 <1>   0.0800 
 24 H       -4.0300    -0.7150     2.0010 H     1 <1>   0.0800 
 25 H       -3.3090    -2.0960     1.2120 H     1 <1>   0.0800 
 26 H       -5.0290    -1.8630     1.1500 H     1 <1>   0.0800 
 27 H       -5.0860     1.0080    -1.1550 H     1 <1>   0.0800 
 28 H       -5.1730     1.0890     0.5850 H     1 <1>   0.0800 
 29 H       -6.0650    -0.1370    -0.2760 H     1 <1>   0.0800 
 30 H       -4.9000    -1.9840    -1.4250 H     1 <1>   0.0800 
 31 H       -3.8160    -0.9160    -2.2740 H     1 <1>   0.0800 
 32 H       -3.1830    -2.2130    -1.2920 H     1 <1>   0.0800 
@<TRIPOS>BOND
  1   1   2  2   
  2   1   3  2   
  3   1   4  1   
  4   1   5  1   
  5   4   6  1   
  6   4  13  1   
  7   4  14  1   
  8   5   7  1   
  9   5  15  1   
 10   5  16  1   
 11   6   8  1   
 12   6  17  1   
 13   6  18  1   
 14   7   9  1   
 15   7  19  1   
 16   7  20  1   
 17   8  10  1   
 18   8  11  1   
 19   8  12  1   
 20   9  21  1   
 21   9  22  1   
 22   9  23  1   
 23  10  24  1   
 24  10  25  1   
 25  10  26  1   
 26  11  27  1   
 27  11  28  1   
 28  11  29  1   
 29  12  30  1   
 30  12  31  1   
 31  12  32  1   
@<TRIPOS>SUBSTRUCTURE
  1 ****   4 GROUP 4 **** **** 0

# MOE 2024.06 (io_trps.svl 2023.06)
