@<TRIPOS>MOLECULE
NONAME
42 43 1 0 0 
SMALL
USER_CHARGES


@<TRIPOS>ATOM
  1 CL       1.6030     1.5870    -2.8690 Cl    1 <1>  -0.1770 
  2 C        2.5140     1.8940    -1.4080 C.ar  1 <1>   0.1770 
  3 C        2.2930     3.0470    -0.6630 C.ar  1 <1>   0.0820 
  4 C        3.4530     0.9520    -1.0270 C.ar  1 <1>  -0.1500 
  5 O        1.3450     3.9280    -1.0700 O.3   1 <1>  -0.3630 
  6 C        3.0630     3.2570     0.4890 C.ar  1 <1>   0.0820 
  7 C        4.2020     1.1530     0.1230 C.ar  1 <1>  -0.1440 
  8 C        0.0350     3.6750    -0.6120 C.3   1 <1>   0.0400 
  9 O        2.9840     4.3450     1.3010 O.3   1 <1>  -0.3630 
 10 C        3.9930     2.3030     0.8720 C.ar  1 <1>  -0.1500 
 11 C        5.2430     0.1440     0.5540 C.3   1 <1>   0.4860 
 12 C        2.7120     5.6250     0.7690 C.3   1 <1>   0.0400 
 13 N        6.5270     0.5960    -0.0130 N.4   1 <1>  -0.9060 
 14 C        7.6920    -0.2250     0.3210 C.3   1 <1>   0.5660 
 15 C        8.9100     0.6000    -0.0500 C.ar  1 <1>  -0.1430 
 16 C        7.6300    -1.5550    -0.4250 C.3   1 <1>  -0.2400 
 17 C        9.2290     0.8940    -1.3710 C.ar  1 <1>  -0.1500 
 18 C        9.7220     1.0890     0.9650 C.ar  1 <1>  -0.1500 
 19 C       10.3370     1.6680    -1.6680 C.ar  1 <1>  -0.1500 
 20 C       10.8290     1.8640     0.6660 C.ar  1 <1>  -0.1500 
 21 C       11.1360     2.1540    -0.6500 C.ar  1 <1>  -0.1500 
 22 H        3.5750     0.0760    -1.6410 H     1 <1>   0.1500 
 23 H       -0.6070     4.4540    -0.9820 H     1 <1>   0.0800 
 24 H        0.0350     3.6760     0.4640 H     1 <1>   0.0800 
 25 H       -0.2920     2.7210    -0.9880 H     1 <1>   0.0800 
 26 H        4.5500     2.4890     1.7750 H     1 <1>   0.1500 
 27 H        4.9840    -0.8340     0.1810 H     1 <1>   0.0800 
 28 H        5.2950     0.1070     1.6300 H     1 <1>   0.0800 
 29 H        3.0620     6.3610     1.4710 H     1 <1>   0.0800 
 30 H        1.6510     5.7320     0.6360 H     1 <1>   0.0800 
 31 H        3.2260     5.7370    -0.1690 H     1 <1>   0.0800 
 32 H        6.7210     1.5510     0.3090 H     1 <1>   0.4500 
 33 H        6.4530     0.6680    -1.0310 H     1 <1>   0.4500 
 34 H        7.7160    -0.4130     1.3840 H     1 <1>   0.0800 
 35 H        7.5170    -1.4130    -1.4850 H     1 <1>   0.0800 
 36 H        6.8270    -2.1670    -0.0570 H     1 <1>   0.0800 
 37 H        8.5480    -2.0910    -0.2590 H     1 <1>   0.0800 
 38 H        8.6350     0.5310    -2.1910 H     1 <1>   0.1500 
 39 H        9.5120     0.8780     2.0000 H     1 <1>   0.1500 
 40 H       10.5850     1.8940    -2.6920 H     1 <1>   0.1500 
 41 H       11.4560     2.2410     1.4560 H     1 <1>   0.1500 
 42 H       11.9990     2.7560    -0.8820 H     1 <1>   0.1500 
@<TRIPOS>BOND
  1   1   2  1   
  2   2   3  ar  
  3   2   4  ar  
  4   3   5  1   
  5   3   6  ar  
  6   4   7  ar  
  7   4  22  1   
  8   5   8  1   
  9   6   9  1   
 10   6  10  ar  
 11   7  10  ar  
 12   7  11  1   
 13   8  23  1   
 14   8  24  1   
 15   8  25  1   
 16   9  12  1   
 17  10  26  1   
 18  11  13  1   
 19  11  27  1   
 20  11  28  1   
 21  12  29  1   
 22  12  30  1   
 23  12  31  1   
 24  13  14  1   
 25  13  32  1   
 26  13  33  1   
 27  14  15  1   
 28  14  16  1   
 29  14  34  1   
 30  15  17  ar  
 31  15  18  ar  
 32  16  35  1   
 33  16  36  1   
 34  16  37  1   
 35  17  19  ar  
 36  17  38  1   
 37  18  20  ar  
 38  18  39  1   
 39  19  21  ar  
 40  19  40  1   
 41  20  21  ar  
 42  20  41  1   
 43  21  42  1   
@<TRIPOS>SUBSTRUCTURE
  1 ****   7 GROUP 4 **** **** 0

# MOE 2024.06 (io_trps.svl 2023.06)
