@<TRIPOS>MOLECULE
NONAME
39 39 1 0 0 
SMALL
USER_CHARGES


@<TRIPOS>ATOM
  1 N        0.1100     0.2910    -0.2140 N.4   1 <1>  -0.9590 
  2 C        1.2150    -0.0810    -1.1540 C.3   1 <1>   0.4860 
  3 C       -1.1620    -0.4480    -0.5480 C.3   1 <1>   0.3430 
  4 C       -0.0390     1.7880    -0.1740 C.3   1 <1>   0.2630 
  5 C        2.5220     0.3680    -0.5330 C.ar  1 <1>  -0.1440 
  6 C       -2.2990    -0.2800     0.5040 C.3   1 <1>   0.3430 
  7 C        3.1240    -0.3390     0.5070 C.ar  1 <1>  -0.1440 
  8 C        3.1230     1.5230    -1.0180 C.ar  1 <1>  -0.1500 
  9 N       -3.5860    -0.9980     0.1650 N.4   1 <1>  -0.9590 
 10 C        4.3000     0.1440     1.0600 C.ar  1 <1>  -0.1500 
 11 C        2.5600    -1.6410     1.0660 C.3   1 <1>  -0.0970 
 12 C        4.2980     1.9910    -0.4600 C.ar  1 <1>  -0.1500 
 13 C       -4.6640    -0.6180     1.1410 C.3   1 <1>   0.2630 
 14 C       -3.4580    -2.4960     0.1520 C.3   1 <1>   0.2630 
 15 C        4.8840     1.3030     0.5830 C.ar  1 <1>  -0.1500 
 16 H        0.4880     0.0040     0.7050 H     1 <1>   0.4500 
 17 H        1.0770     0.3940    -2.1120 H     1 <1>   0.0800 
 18 H        1.2470    -1.1480    -1.3030 H     1 <1>   0.0800 
 19 H       -0.9370    -1.4980    -0.6360 H     1 <1>   0.0800 
 20 H       -1.5210    -0.1020    -1.5030 H     1 <1>   0.0800 
 21 H       -0.3310     2.1660    -1.1410 H     1 <1>   0.0800 
 22 H        0.8990     2.2480     0.1000 H     1 <1>   0.0800 
 23 H       -0.7770     2.0820     0.5530 H     1 <1>   0.0800 
 24 H       -2.5130     0.7720     0.6030 H     1 <1>   0.0800 
 25 H       -1.9450    -0.6360     1.4570 H     1 <1>   0.0800 
 26 H        2.6920     2.0770    -1.8350 H     1 <1>   0.1500 
 27 H       -3.9270    -0.6990    -0.7670 H     1 <1>   0.4500 
 28 H        4.7810    -0.3810     1.8680 H     1 <1>   0.1500 
 29 H        2.2190    -2.2860     0.2780 H     1 <1>   0.0800 
 30 H        1.7570    -1.4430     1.7510 H     1 <1>   0.0800 
 31 H        3.3250    -2.1760     1.6030 H     1 <1>   0.0800 
 32 H        4.7620     2.8880    -0.8370 H     1 <1>   0.1500 
 33 H       -4.3940    -0.9180     2.1410 H     1 <1>   0.0800 
 34 H       -5.5940    -1.1010     0.8810 H     1 <1>   0.0800 
 35 H       -4.8260     0.4480     1.1330 H     1 <1>   0.0800 
 36 H       -3.1360    -2.8570     1.1160 H     1 <1>   0.0800 
 37 H       -2.7480    -2.8150    -0.5930 H     1 <1>   0.0800 
 38 H       -4.4100    -2.9500    -0.0760 H     1 <1>   0.0800 
 39 H        5.8000     1.6640     1.0210 H     1 <1>   0.1500 
@<TRIPOS>BOND
  1   1   2  1   
  2   1   3  1   
  3   1   4  1   
  4   1  16  1   
  5   2   5  1   
  6   2  17  1   
  7   2  18  1   
  8   3   6  1   
  9   3  19  1   
 10   3  20  1   
 11   4  21  1   
 12   4  22  1   
 13   4  23  1   
 14   5   7  ar  
 15   5   8  ar  
 16   6   9  1   
 17   6  24  1   
 18   6  25  1   
 19   7  10  ar  
 20   7  11  1   
 21   8  12  ar  
 22   8  26  1   
 23   9  13  1   
 24   9  14  1   
 25   9  27  1   
 26  10  15  ar  
 27  10  28  1   
 28  11  29  1   
 29  11  30  1   
 30  11  31  1   
 31  12  15  ar  
 32  12  32  1   
 33  13  33  1   
 34  13  34  1   
 35  13  35  1   
 36  14  36  1   
 37  14  37  1   
 38  14  38  1   
 39  15  39  1   
@<TRIPOS>SUBSTRUCTURE
  1 ****   1 GROUP 4 **** **** 0

# MOE 2024.06 (io_trps.svl 2023.06)
