@<TRIPOS>MOLECULE
NONAME
54 57 1 0 0 
SMALL
USER_CHARGES


@<TRIPOS>ATOM
  1 S        0.1600     0.2730     0.2410 S.3   1 <1>  -0.3710 
  2 C       -1.5590    -0.1840     0.4240 C.2   1 <1>   0.6510 
  3 C        0.1920     2.0950     0.6380 C.3   1 <1>   0.1310 
  4 N       -2.3700     0.7460     0.7600 N.2   1 <1>  -0.6290 
  5 N       -1.8790    -1.5080     0.1870 N.am  1 <1>  -0.2370 
  6 C        1.5930     2.6820     0.5370 C.2   1 <1>   0.5690 
  7 C       -3.7010     0.4270     0.9090 C.ar  1 <1>   0.1790 
  8 C       -3.2040    -1.8770     0.3240 C.2   1 <1>   0.5440 
  9 C       -0.9000    -2.4550    -0.1790 C.ar  1 <1>   0.1170 
 10 O        1.7340     3.8480     0.8150 O.2   1 <1>  -0.5700 
 11 N        2.6260     1.8860     0.1420 N.am  1 <1>  -0.7300 
 12 C       -4.1660    -0.8770     0.7000 C.ar  1 <1>   0.0860 
 13 C       -4.5980     1.4260     1.2740 C.ar  1 <1>  -0.1500 
 14 O       -3.5450    -3.0320     0.1280 O.2   1 <1>  -0.5700 
 15 C       -0.2190    -3.1800     0.7920 C.ar  1 <1>  -0.1500 
 16 C       -0.5960    -2.6740    -1.5180 C.ar  1 <1>  -0.1500 
 17 C        4.0520     2.2420    -0.0230 C.3   1 <1>   0.2200 
 18 C       -5.5290    -1.1390     0.8670 C.ar  1 <1>  -0.1500 
 19 C       -5.9400     1.1500     1.4340 C.ar  1 <1>  -0.1500 
 20 C        0.7530    -4.0970     0.4340 C.ar  1 <1>  -0.1500 
 21 C        0.3760    -3.5910    -1.8780 C.ar  1 <1>  -0.1500 
 22 C        4.6610     2.5420     1.3530 C.3   1 <1>  -0.1600 
 23 C        4.1940     3.3640    -1.0650 C.3   1 <1>  -0.1600 
 24 C       -6.4080    -0.1390     1.2290 C.ar  1 <1>  -0.1500 
 25 C        1.0520    -4.3030    -0.9020 C.ar  1 <1>  -0.1500 
 26 C        6.1530     2.9150     1.3310 C.3   1 <1>  -0.1600 
 27 C        5.6300     3.4860    -1.6020 C.3   1 <1>  -0.1600 
 28 C        6.3940     4.3200     0.7600 C.3   1 <1>  -0.1600 
 29 C        6.5590     4.3820    -0.7660 C.3   1 <1>  -0.1600 
 30 H       -0.1840     2.2120     1.6370 H     1 <1>   0.0800 
 31 H       -0.4640     2.5860    -0.0570 H     1 <1>   0.0800 
 32 H        2.4040     0.9070    -0.0540 H     1 <1>   0.3700 
 33 H       -4.2260     2.4220     1.4300 H     1 <1>   0.1500 
 34 H       -0.4520    -3.0260     1.8300 H     1 <1>   0.1500 
 35 H       -1.1220    -2.1280    -2.2790 H     1 <1>   0.1500 
 36 H        4.5480     1.3700    -0.4150 H     1 <1>   0.0800 
 37 H       -5.8920    -2.1410     0.7080 H     1 <1>   0.1500 
 38 H       -6.6260     1.9310     1.7170 H     1 <1>   0.1500 
 39 H        1.2750    -4.6540     1.1930 H     1 <1>   0.1500 
 40 H        0.6050    -3.7540    -2.9170 H     1 <1>   0.1500 
 41 H        4.5450     1.6650     1.9640 H     1 <1>   0.0800 
 42 H        4.1100     3.3380     1.8230 H     1 <1>   0.0800 
 43 H        3.8650     4.3040    -0.6590 H     1 <1>   0.0800 
 44 H        3.5560     3.1240    -1.8960 H     1 <1>   0.0800 
 45 H       -7.4560    -0.3550     1.3540 H     1 <1>   0.1500 
 46 H        1.8070    -5.0180    -1.1810 H     1 <1>   0.1500 
 47 H        6.7270     2.1800     0.7940 H     1 <1>   0.0800 
 48 H        6.5010     2.9110     2.3500 H     1 <1>   0.0800 
 49 H        5.5900     3.8960    -2.5960 H     1 <1>   0.0800 
 50 H        6.0640     2.5060    -1.6900 H     1 <1>   0.0800 
 51 H        7.2900     4.7210     1.2020 H     1 <1>   0.0800 
 52 H        5.5880     4.9700     1.0580 H     1 <1>   0.0800 
 53 H        6.4110     5.4040    -1.0690 H     1 <1>   0.0800 
 54 H        7.5750     4.1270    -1.0150 H     1 <1>   0.0800 
@<TRIPOS>BOND
  1   1   2  1   
  2   1   3  1   
  3   2   4  2   
  4   2   5  1   
  5   3   6  1   
  6   3  30  1   
  7   3  31  1   
  8   4   7  1   
  9   5   8  am  
 10   5   9  1   
 11   6  10  2   
 12   6  11  am  
 13   7  12  ar  
 14   7  13  ar  
 15   8  12  1   
 16   8  14  2   
 17   9  15  ar  
 18   9  16  ar  
 19  11  17  1   
 20  11  32  1   
 21  12  18  ar  
 22  13  19  ar  
 23  13  33  1   
 24  15  20  ar  
 25  15  34  1   
 26  16  21  ar  
 27  16  35  1   
 28  17  22  1   
 29  17  23  1   
 30  17  36  1   
 31  18  24  ar  
 32  18  37  1   
 33  19  24  ar  
 34  19  38  1   
 35  20  25  ar  
 36  20  39  1   
 37  21  25  ar  
 38  21  40  1   
 39  22  26  1   
 40  22  41  1   
 41  22  42  1   
 42  23  27  1   
 43  23  43  1   
 44  23  44  1   
 45  24  45  1   
 46  25  46  1   
 47  26  28  1   
 48  26  47  1   
 49  26  48  1   
 50  27  29  1   
 51  27  49  1   
 52  27  50  1   
 53  28  29  1   
 54  28  51  1   
 55  28  52  1   
 56  29  53  1   
 57  29  54  1   
@<TRIPOS>SUBSTRUCTURE
  1 ****   1 GROUP 4 **** **** 0

# MOE 2024.06 (io_trps.svl 2023.06)
