@<TRIPOS>MOLECULE
NONAME
42 44 1 0 0 
SMALL
USER_CHARGES


@<TRIPOS>ATOM
  1 CL       0.5780    -0.2400    -0.7400 Cl    1 <1>  -0.1770 
  2 C        2.2320    -0.2470    -0.1750 C.ar  1 <1>   0.1770 
  3 C        3.2550     0.0220    -1.0670 C.ar  1 <1>  -0.1500 
  4 C        2.4940    -0.5210     1.1550 C.ar  1 <1>  -0.1500 
  5 C        4.5630     0.0150    -0.6160 C.ar  1 <1>  -0.1500 
  6 C        3.8050    -0.5250     1.5950 C.ar  1 <1>  -0.1500 
  7 C        4.8510    -0.2590     0.7190 C.ar  1 <1>   0.1000 
  8 N        6.1550    -0.2710     1.1990 N.pl3 1 <1>  -0.8380 
  9 C        7.0610    -1.3800     0.7670 C.3   1 <1>   0.2090 
 10 C        6.8490     1.0370     1.3880 C.3   1 <1>   0.2090 
 11 C        8.0140    -0.9590    -0.3690 C.3   1 <1>   0.1960 
 12 C        7.7940     1.3720     0.2170 C.3   1 <1>   0.1960 
 13 N        8.7490     0.2840    -0.0690 N.am  1 <1>  -0.8490 
 14 S        9.8120     0.6780    -1.3280 S.o2  1 <1>   1.5010 
 15 O        8.9870     1.1830    -2.4060 O.2   1 <1>  -0.6500 
 16 O       10.6360    -0.4900    -1.5530 O.2   1 <1>  -0.6500 
 17 C       10.8020     2.0100    -0.6290 C.2   1 <1>  -0.0630 
 18 C       11.5970     1.9240     0.5110 C.2   1 <1>   0.1080 
 19 C       10.9570     3.2970    -1.0280 C.2   1 <1>  -0.3020 
 20 N       12.1800     3.0450     0.7980 N.2   1 <1>  -0.7070 
 21 C       11.7920     0.6850     1.3600 C.3   1 <1>  -0.0590 
 22 N       11.7900     3.8950    -0.1600 N.pl3 1 <1>   0.3140 
 23 C       12.2620     5.2840    -0.1900 C.3   1 <1>   0.0160 
 24 H        3.0240     0.2320    -2.0950 H     1 <1>   0.1500 
 25 H        1.6830    -0.7270     1.8300 H     1 <1>   0.1500 
 26 H        5.3630     0.2240    -1.2990 H     1 <1>   0.1500 
 27 H        4.0360    -0.7350     2.6240 H     1 <1>   0.1500 
 28 H        6.4700    -2.2190     0.4440 H     1 <1>   0.0800 
 29 H        7.6450    -1.6980     1.6130 H     1 <1>   0.0800 
 30 H        7.4200     1.0000     2.3000 H     1 <1>   0.0800 
 31 H        6.1170     1.8190     1.4910 H     1 <1>   0.0800 
 32 H        7.4460    -0.8370    -1.2760 H     1 <1>   0.0800 
 33 H        8.7150    -1.7600    -0.5320 H     1 <1>   0.0800 
 34 H        8.3330     2.2700     0.4660 H     1 <1>   0.0800 
 35 H        7.1970     1.5800    -0.6550 H     1 <1>   0.0800 
 36 H       10.5220     3.7980    -1.8730 H     1 <1>   0.1500 
 37 H       12.1240    -0.1340     0.7480 H     1 <1>   0.0800 
 38 H       10.8680     0.4180     1.8390 H     1 <1>   0.0800 
 39 H       12.5330     0.8730     2.1160 H     1 <1>   0.0800 
 40 H       11.7560     5.8220    -0.9680 H     1 <1>   0.0800 
 41 H       13.3200     5.2860    -0.3710 H     1 <1>   0.0800 
 42 H       12.0600     5.7400     0.7610 H     1 <1>   0.0800 
@<TRIPOS>BOND
  1   1   2  1   
  2   2   3  ar  
  3   2   4  ar  
  4   3   5  ar  
  5   3  24  1   
  6   4   6  ar  
  7   4  25  1   
  8   5   7  ar  
  9   5  26  1   
 10   6   7  ar  
 11   6  27  1   
 12   7   8  1   
 13   8   9  1   
 14   8  10  1   
 15   9  11  1   
 16   9  28  1   
 17   9  29  1   
 18  10  12  1   
 19  10  30  1   
 20  10  31  1   
 21  11  13  1   
 22  11  32  1   
 23  11  33  1   
 24  12  13  1   
 25  12  34  1   
 26  12  35  1   
 27  13  14  am  
 28  14  15  2   
 29  14  16  2   
 30  14  17  1   
 31  17  18  1   
 32  17  19  2   
 33  18  20  2   
 34  18  21  1   
 35  19  22  1   
 36  19  36  1   
 37  20  22  1   
 38  21  37  1   
 39  21  38  1   
 40  21  39  1   
 41  22  23  1   
 42  23  40  1   
 43  23  41  1   
 44  23  42  1   
@<TRIPOS>SUBSTRUCTURE
  1 ****  12 GROUP 4 **** **** 0

# MOE 2024.06 (io_trps.svl 2023.06)
