@<TRIPOS>MOLECULE
NONAME
36 37 1 0 0 
SMALL
USER_CHARGES


@<TRIPOS>ATOM
  1 S       -0.1300     0.8230     0.9320 S.o2  1 <1>   1.4470 
  2 O       -0.1150     1.4550     2.2350 O.2   1 <1>  -0.6500 
  3 O       -1.1070    -0.2050     0.6620 O.2   1 <1>  -0.6500 
  4 N       -0.3780     2.0660    -0.1890 N.am  1 <1>  -0.8490 
  5 C        1.5250     0.2160     0.5030 C.ar  1 <1>  -0.0090 
  6 C       -1.7380     2.6240    -0.1050 C.3   1 <1>   0.3370 
  7 C        0.5200     3.1990    -0.0270 C.3   1 <1>   0.1960 
  8 C        1.8060    -0.2310    -0.7820 C.ar  1 <1>  -0.1500 
  9 C        2.5530     0.1880     1.4380 C.ar  1 <1>  -0.1500 
 10 C       -2.8900     1.7390    -0.6350 C.2   1 <1>   0.6590 
 11 C       -1.6270     3.9620    -0.8460 C.3   1 <1>  -0.1600 
 12 C       -0.1450     4.3350    -0.7930 C.3   1 <1>  -0.1600 
 13 C        3.0670    -0.6850    -1.1250 C.ar  1 <1>  -0.1500 
 14 C        3.8170    -0.2650     1.1020 C.ar  1 <1>  -0.1500 
 15 O       -3.0050     1.4350    -1.7990 O.2   1 <1>  -0.5700 
 16 O       -3.7780     1.3470     0.2760 O.3   1 <1>  -0.4300 
 17 C        4.0810    -0.7050    -0.1830 C.ar  1 <1>  -0.1430 
 18 C       -4.8260     0.4590    -0.0470 C.3   1 <1>   0.0400 
 19 C        5.4660    -1.2020    -0.5560 C.3   1 <1>  -0.0970 
 20 H       -1.9500     2.8400     0.9290 H     1 <1>   0.0800 
 21 H        1.5000     2.9750    -0.4170 H     1 <1>   0.0800 
 22 H        0.6030     3.4730     1.0130 H     1 <1>   0.0800 
 23 H        1.0230    -0.2210    -1.5230 H     1 <1>   0.1500 
 24 H        2.3630     0.5260     2.4440 H     1 <1>   0.1500 
 25 H       -2.2490     4.7050    -0.3800 H     1 <1>   0.0800 
 26 H       -1.9360     3.8460    -1.8710 H     1 <1>   0.0800 
 27 H        0.2600     4.3830    -1.7890 H     1 <1>   0.0800 
 28 H        0.0200     5.2770    -0.3020 H     1 <1>   0.0800 
 29 H        3.2540    -1.0240    -2.1300 H     1 <1>   0.1500 
 30 H        4.5940    -0.2740     1.8470 H     1 <1>   0.1500 
 31 H       -5.4080     0.2820     0.8390 H     1 <1>   0.0800 
 32 H       -4.3980    -0.4630    -0.4000 H     1 <1>   0.0800 
 33 H       -5.4370     0.9030    -0.8140 H     1 <1>   0.0800 
 34 H        5.4040    -1.9400    -1.3350 H     1 <1>   0.0800 
 35 H        5.9470    -1.6490     0.2960 H     1 <1>   0.0800 
 36 H        6.0670    -0.3810    -0.9020 H     1 <1>   0.0800 
@<TRIPOS>BOND
  1   1   2  2   
  2   1   3  2   
  3   1   4  am  
  4   1   5  1   
  5   4   6  1   
  6   4   7  1   
  7   5   8  ar  
  8   5   9  ar  
  9   6  10  1   
 10   6  11  1   
 11   6  20  1   
 12   7  12  1   
 13   7  21  1   
 14   7  22  1   
 15   8  13  ar  
 16   8  23  1   
 17   9  14  ar  
 18   9  24  1   
 19  10  15  2   
 20  10  16  1   
 21  11  12  1   
 22  11  25  1   
 23  11  26  1   
 24  12  27  1   
 25  12  28  1   
 26  13  17  ar  
 27  13  29  1   
 28  14  17  ar  
 29  14  30  1   
 30  16  18  1   
 31  17  19  1   
 32  18  31  1   
 33  18  32  1   
 34  18  33  1   
 35  19  34  1   
 36  19  35  1   
 37  19  36  1   
@<TRIPOS>SUBSTRUCTURE
  1 ****   1 GROUP 4 **** **** 0

# MOE 2024.06 (io_trps.svl 2023.06)
