@<TRIPOS>MOLECULE
NONAME
40 42 1 0 0 
SMALL
USER_CHARGES


@<TRIPOS>ATOM
  1 O       -0.5460    -1.3560    -0.8640 O.2   1 <1>  -0.5700 
  2 C       -0.4260    -2.4030    -0.2710 C.2   1 <1>   0.5690 
  3 N        0.6670    -3.2120    -0.4680 N.am  1 <1>  -0.6600 
  4 C       -1.5330    -2.7720     0.7100 C.3   1 <1>   0.0440 
  5 C        0.8990    -4.5420     0.1880 C.3   1 <1>   0.1400 
  6 C        1.7420    -2.8480    -1.4450 C.3   1 <1>   0.1400 
  7 C       -2.2970    -4.0410     0.3340 C.ar  1 <1>  -0.1440 
  8 C        2.3080    -4.6370     0.7980 C.3   1 <1>   0.2090 
  9 C        3.1400    -2.9480    -0.8120 C.3   1 <1>   0.2090 
 10 C       -2.6020    -4.9880     1.3010 C.ar  1 <1>  -0.1500 
 11 C       -2.6960    -4.2580    -0.9770 C.ar  1 <1>  -0.1500 
 12 N        3.3630    -4.2900    -0.2020 N.pl3 1 <1>  -0.8380 
 13 C       -3.2870    -6.1410     0.9600 C.ar  1 <1>  -0.1500 
 14 C       -3.3820    -5.4100    -1.3180 C.ar  1 <1>  -0.1500 
 15 C        4.6700    -4.6060     0.1110 C.ar  1 <1>   0.4100 
 16 C       -3.6770    -6.3540    -0.3500 C.ar  1 <1>  -0.1500 
 17 N        5.0330    -4.5140     1.3860 N.ar  1 <1>  -0.6200 
 18 C        5.5420    -4.9890    -0.9050 C.ar  1 <1>  -0.1500 
 19 C        6.2950    -4.8080     1.6490 C.ar  1 <1>   0.1600 
 20 C        6.8520    -5.2920    -0.6170 C.ar  1 <1>  -0.1500 
 21 C        7.2310    -5.1950     0.7060 C.ar  1 <1>  -0.1500 
 22 H       -2.2340    -1.9580     0.7550 H     1 <1>   0.0800 
 23 H       -1.0970    -2.8700     1.6860 H     1 <1>   0.0800 
 24 H        0.7860    -5.3170    -0.5490 H     1 <1>   0.0800 
 25 H        0.1810    -4.7220     0.9650 H     1 <1>   0.0800 
 26 H        1.5980    -1.8470    -1.8110 H     1 <1>   0.0800 
 27 H        1.6910    -3.5160    -2.2860 H     1 <1>   0.0800 
 28 H        2.4770    -5.6370     1.1580 H     1 <1>   0.0800 
 29 H        2.3800    -3.9660     1.6370 H     1 <1>   0.0800 
 30 H        3.2420    -2.1920    -0.0520 H     1 <1>   0.0800 
 31 H        3.8860    -2.7630    -1.5650 H     1 <1>   0.0800 
 32 H       -2.3100    -4.8350     2.3250 H     1 <1>   0.1500 
 33 H       -2.4750    -3.5300    -1.7390 H     1 <1>   0.1500 
 34 H       -3.5200    -6.8720     1.7140 H     1 <1>   0.1500 
 35 H       -3.6880    -5.5710    -2.3380 H     1 <1>   0.1500 
 36 H       -4.2100    -7.2490    -0.6160 H     1 <1>   0.1500 
 37 H        5.1670    -5.0470    -1.9080 H     1 <1>   0.1500 
 38 H        6.6020    -4.7370     2.6780 H     1 <1>   0.1500 
 39 H        7.5460    -5.5920    -1.3830 H     1 <1>   0.1500 
 40 H        8.2390    -5.4180     1.0030 H     1 <1>   0.1500 
@<TRIPOS>BOND
  1   1   2  2   
  2   2   3  am  
  3   2   4  1   
  4   3   5  1   
  5   3   6  1   
  6   4   7  1   
  7   4  22  1   
  8   4  23  1   
  9   5   8  1   
 10   5  24  1   
 11   5  25  1   
 12   6   9  1   
 13   6  26  1   
 14   6  27  1   
 15   7  10  ar  
 16   7  11  ar  
 17   8  12  1   
 18   8  28  1   
 19   8  29  1   
 20   9  12  1   
 21   9  30  1   
 22   9  31  1   
 23  10  13  ar  
 24  10  32  1   
 25  11  14  ar  
 26  11  33  1   
 27  12  15  1   
 28  13  16  ar  
 29  13  34  1   
 30  14  16  ar  
 31  14  35  1   
 32  15  17  ar  
 33  15  18  ar  
 34  16  36  1   
 35  17  19  ar  
 36  18  20  ar  
 37  18  37  1   
 38  19  21  ar  
 39  19  38  1   
 40  20  21  ar  
 41  20  39  1   
 42  21  40  1   
@<TRIPOS>SUBSTRUCTURE
  1 ****   5 GROUP 4 **** **** 0

# MOE 2024.06 (io_trps.svl 2023.06)
