@<TRIPOS>MOLECULE
NONAME
39 40 1 0 0 
SMALL
USER_CHARGES


@<TRIPOS>ATOM
  1 O        0.7080     2.8900     1.9100 O.2   1 <1>  -0.5700 
  2 C        0.3730     3.0610     0.7640 C.2   1 <1>   0.5690 
  3 N        1.2060     2.9090    -0.3100 N.am  1 <1>  -0.5470 
  4 C       -1.0560     3.4890     0.4920 C.3   1 <1>  -0.0990 
  5 C        2.5520     2.5140    -0.3950 C.ar  1 <1>   0.1170 
  6 C       -2.0460     2.3090     0.4560 C.3   1 <1>  -0.0800 
  7 C        3.2560     2.8040    -1.5590 C.ar  1 <1>  -0.1500 
  8 C        3.2130     1.8300     0.6210 C.ar  1 <1>  -0.1500 
  9 C       -1.7250     1.3170    -0.6800 C.3   1 <1>  -0.1600 
 10 C       -3.4860     2.8360     0.3170 C.3   1 <1>  -0.1600 
 11 C        4.5790     2.4280    -1.7010 C.ar  1 <1>  -0.1500 
 12 C        4.5370     1.4530     0.4850 C.ar  1 <1>  -0.1500 
 13 C       -2.7490     0.1750    -0.7370 C.3   1 <1>  -0.1600 
 14 C       -4.5050     1.6900     0.2630 C.3   1 <1>  -0.1600 
 15 C        5.2300     1.7520    -0.6840 C.ar  1 <1>   0.0830 
 16 C       -4.1780     0.7120    -0.8720 C.3   1 <1>  -0.1600 
 17 O        6.5300     1.4200    -0.9030 O.3   1 <1>  -0.3630 
 18 C        7.2840     0.7570     0.0880 C.3   1 <1>   0.0400 
 19 H        0.7810     3.1290    -1.2070 H     1 <1>   0.3700 
 20 H       -1.1010     4.0360    -0.4320 H     1 <1>   0.0800 
 21 H       -1.3440     4.1640     1.2780 H     1 <1>   0.0800 
 22 H       -1.9700     1.7830     1.3940 H     1 <1>   0.0800 
 23 H        2.7720     3.3310    -2.3600 H     1 <1>   0.1500 
 24 H        2.6940     1.5840     1.5290 H     1 <1>   0.1500 
 25 H       -0.7490     0.8890    -0.5310 H     1 <1>   0.0800 
 26 H       -1.7250     1.8330    -1.6240 H     1 <1>   0.0800 
 27 H       -3.5720     3.4230    -0.5810 H     1 <1>   0.0800 
 28 H       -3.7210     3.4730     1.1530 H     1 <1>   0.0800 
 29 H        5.1180     2.6570    -2.6020 H     1 <1>   0.1500 
 30 H        5.0060     0.9290     1.2960 H     1 <1>   0.1500 
 31 H       -2.6740    -0.4140     0.1610 H     1 <1>   0.0800 
 32 H       -2.5260    -0.4690    -1.5710 H     1 <1>   0.0800 
 33 H       -5.4930     2.0920     0.1180 H     1 <1>   0.0800 
 34 H       -4.4980     1.1620     1.2010 H     1 <1>   0.0800 
 35 H       -4.8750    -0.1080    -0.8530 H     1 <1>   0.0800 
 36 H       -4.2840     1.2140    -1.8180 H     1 <1>   0.0800 
 37 H        8.2770     0.6070    -0.2940 H     1 <1>   0.0800 
 38 H        6.8250    -0.1940     0.2970 H     1 <1>   0.0800 
 39 H        7.3190     1.3720     0.9690 H     1 <1>   0.0800 
@<TRIPOS>BOND
  1   1   2  2   
  2   2   3  am  
  3   2   4  1   
  4   3   5  1   
  5   3  19  1   
  6   4   6  1   
  7   4  20  1   
  8   4  21  1   
  9   5   7  ar  
 10   5   8  ar  
 11   6   9  1   
 12   6  10  1   
 13   6  22  1   
 14   7  11  ar  
 15   7  23  1   
 16   8  12  ar  
 17   8  24  1   
 18   9  13  1   
 19   9  25  1   
 20   9  26  1   
 21  10  14  1   
 22  10  27  1   
 23  10  28  1   
 24  11  15  ar  
 25  11  29  1   
 26  12  15  ar  
 27  12  30  1   
 28  13  16  1   
 29  13  31  1   
 30  13  32  1   
 31  14  16  1   
 32  14  33  1   
 33  14  34  1   
 34  15  17  1   
 35  16  35  1   
 36  16  36  1   
 37  17  18  1   
 38  18  37  1   
 39  18  38  1   
 40  18  39  1   
@<TRIPOS>SUBSTRUCTURE
  1 ****   3 GROUP 4 **** **** 0

# MOE 2024.06 (io_trps.svl 2023.06)
