@<TRIPOS>MOLECULE
NONAME
43 45 1 0 0 
SMALL
USER_CHARGES


@<TRIPOS>ATOM
  1 O       -2.1810    -4.8300     0.3540 O.3   1 <1>  -0.3630 
  2 C       -3.4250    -4.3130     0.1760 C.ar  1 <1>   0.0830 
  3 C       -1.0300    -4.0860     0.0410 C.3   1 <1>   0.1200 
  4 C       -3.6750    -3.0530    -0.3650 C.ar  1 <1>  -0.1500 
  5 C       -4.4890    -5.1100     0.5670 C.ar  1 <1>  -0.1500 
  6 C        0.1770    -4.9670     0.3770 C.3   1 <1>   0.3430 
  7 C       -4.9780    -2.6050    -0.5080 C.ar  1 <1>  -0.1500 
  8 C       -5.7890    -4.6610     0.4230 C.ar  1 <1>  -0.1500 
  9 N        1.4870    -4.2950     0.0950 N.4   1 <1>  -0.9590 
 10 C       -6.0430    -3.4090    -0.1130 C.ar  1 <1>   0.0830 
 11 C        2.6060    -5.2790     0.1600 C.3   1 <1>   0.4860 
 12 C        1.7830    -3.1540     1.0160 C.3   1 <1>   0.3430 
 13 O       -7.3480    -3.0450    -0.2180 O.3   1 <1>  -0.3630 
 14 C        3.9170    -4.5990    -0.1970 C.ar  1 <1>  -0.1430 
 15 C        2.9700    -2.3450     0.4880 C.3   1 <1>  -0.0160 
 16 C       -7.7170    -1.7940    -0.7530 C.3   1 <1>   0.0400 
 17 C        4.0940    -3.2290    -0.0330 C.ar  1 <1>  -0.1440 
 18 C        4.9610    -5.3700    -0.6890 C.ar  1 <1>  -0.1500 
 19 C        5.3090    -2.6480    -0.3590 C.ar  1 <1>  -0.1500 
 20 C        6.1710    -4.7840    -1.0140 C.ar  1 <1>  -0.1500 
 21 C        6.3450    -3.4230    -0.8480 C.ar  1 <1>  -0.1500 
 22 H       -1.0450    -3.1910     0.6370 H     1 <1>   0.0800 
 23 H       -1.0580    -3.8540    -1.0090 H     1 <1>   0.0800 
 24 H       -2.8810    -2.4070    -0.6820 H     1 <1>   0.1500 
 25 H       -4.3000    -6.0830     0.9830 H     1 <1>   0.1500 
 26 H        0.1030    -5.8670    -0.2120 H     1 <1>   0.0800 
 27 H        0.1280    -5.2410     1.4190 H     1 <1>   0.0800 
 28 H       -5.1460    -1.6310    -0.9270 H     1 <1>   0.1500 
 29 H       -6.6160    -5.2780     0.7260 H     1 <1>   0.1500 
 30 H        1.5010    -3.9350    -0.8690 H     1 <1>   0.4500 
 31 H        2.4270    -6.0870    -0.5310 H     1 <1>   0.0800 
 32 H        2.6810    -5.6910     1.1530 H     1 <1>   0.0800 
 33 H        2.0230    -3.5360     1.9960 H     1 <1>   0.0800 
 34 H        0.9270    -2.5050     1.1070 H     1 <1>   0.0800 
 35 H        3.3420    -1.7150     1.2780 H     1 <1>   0.0800 
 36 H        2.6360    -1.7020    -0.3070 H     1 <1>   0.0800 
 37 H       -8.7900    -1.7280    -0.7380 H     1 <1>   0.0800 
 38 H       -7.3610    -1.7280    -1.7660 H     1 <1>   0.0800 
 39 H       -7.2950    -1.0150    -0.1420 H     1 <1>   0.0800 
 40 H        4.8520    -6.4330    -0.8240 H     1 <1>   0.1500 
 41 H        5.4620    -1.5890    -0.2390 H     1 <1>   0.1500 
 42 H        6.9800    -5.3840    -1.3950 H     1 <1>   0.1500 
 43 H        7.2880    -2.9670    -1.1000 H     1 <1>   0.1500 
@<TRIPOS>BOND
  1   1   2  1   
  2   1   3  1   
  3   2   4  ar  
  4   2   5  ar  
  5   3   6  1   
  6   3  22  1   
  7   3  23  1   
  8   4   7  ar  
  9   4  24  1   
 10   5   8  ar  
 11   5  25  1   
 12   6   9  1   
 13   6  26  1   
 14   6  27  1   
 15   7  10  ar  
 16   7  28  1   
 17   8  10  ar  
 18   8  29  1   
 19   9  11  1   
 20   9  12  1   
 21   9  30  1   
 22  10  13  1   
 23  11  14  1   
 24  11  31  1   
 25  11  32  1   
 26  12  15  1   
 27  12  33  1   
 28  12  34  1   
 29  13  16  1   
 30  14  17  ar  
 31  14  18  ar  
 32  15  17  1   
 33  15  35  1   
 34  15  36  1   
 35  16  37  1   
 36  16  38  1   
 37  16  39  1   
 38  17  19  ar  
 39  18  20  ar  
 40  18  40  1   
 41  19  21  ar  
 42  19  41  1   
 43  20  21  ar  
 44  20  42  1   
 45  21  43  1   
@<TRIPOS>SUBSTRUCTURE
  1 ****   3 GROUP 4 **** **** 0

# MOE 2024.06 (io_trps.svl 2023.06)
