@<TRIPOS>MOLECULE
NONAME
37 38 1 0 0 
SMALL
USER_CHARGES


@<TRIPOS>ATOM
  1 BR       1.5430    -0.9450    -0.9270 Br    1 <1>  -0.1110 
  2 C        0.2490    -2.0750    -0.0540 C.ar  1 <1>   0.1110 
  3 C        0.2590    -2.2220     1.3210 C.ar  1 <1>   0.1900 
  4 C       -0.6890    -2.7310    -0.8310 C.ar  1 <1>  -0.1500 
  5 F        1.1480    -1.5950     2.0450 F     1 <1>  -0.1900 
  6 C       -0.6670    -3.0310     1.9500 C.ar  1 <1>  -0.1500 
  7 C       -1.6330    -3.5420    -0.2090 C.ar  1 <1>  -0.1440 
  8 C       -1.6130    -3.6920     1.1770 C.ar  1 <1>  -0.1500 
  9 C       -2.6860    -4.2580    -1.0350 C.3   1 <1>   0.4870 
 10 N       -3.9840    -3.5610    -0.8390 N.4   1 <1>  -0.9590 
 11 C       -5.1500    -4.3640    -1.2630 C.3   1 <1>   0.3430 
 12 C       -4.0180    -2.1940    -1.4000 C.3   1 <1>   0.3430 
 13 C       -5.8030    -4.9400    -0.0100 C.3   1 <1>  -0.1600 
 14 C       -4.4560    -1.2320    -0.2960 C.3   1 <1>  -0.1600 
 15 C       -6.6440    -3.9310     0.7970 C.3   1 <1>  -0.1600 
 16 C       -5.8480    -1.5060     0.3080 C.3   1 <1>  -0.1600 
 17 C       -5.9280    -2.6700     1.3220 C.3   1 <1>  -0.1600 
 18 H       -0.6630    -2.5980    -1.8990 H     1 <1>   0.1500 
 19 H       -0.6420    -3.1400     3.0210 H     1 <1>   0.1500 
 20 H       -2.3280    -4.3270     1.6750 H     1 <1>   0.1500 
 21 H       -2.7610    -5.2810    -0.7020 H     1 <1>   0.0800 
 22 H       -2.4130    -4.2560    -2.0780 H     1 <1>   0.0800 
 23 H       -4.0980    -3.4230     0.1730 H     1 <1>   0.4500 
 24 H       -4.8380    -5.1610    -1.9200 H     1 <1>   0.0800 
 25 H       -5.8670    -3.7510    -1.7860 H     1 <1>   0.0800 
 26 H       -4.7040    -2.1420    -2.2300 H     1 <1>   0.0800 
 27 H       -3.0400    -1.9050    -1.7500 H     1 <1>   0.0800 
 28 H       -5.0630    -5.3990     0.6220 H     1 <1>   0.0800 
 29 H       -6.4680    -5.7270    -0.3250 H     1 <1>   0.0800 
 30 H       -4.4760    -0.2470    -0.7300 H     1 <1>   0.0800 
 31 H       -3.7110    -1.2040     0.4820 H     1 <1>   0.0800 
 32 H       -7.0300    -4.4610     1.6540 H     1 <1>   0.0800 
 33 H       -7.5050    -3.6380     0.2200 H     1 <1>   0.0800 
 34 H       -6.5780    -1.6240    -0.4740 H     1 <1>   0.0800 
 35 H       -6.1300    -0.6110     0.8400 H     1 <1>   0.0800 
 36 H       -4.9670    -2.9060     1.7450 H     1 <1>   0.0800 
 37 H       -6.5240    -2.3120     2.1460 H     1 <1>   0.0800 
@<TRIPOS>BOND
  1   1   2  1   
  2   2   3  ar  
  3   2   4  ar  
  4   3   5  1   
  5   3   6  ar  
  6   4   7  ar  
  7   4  18  1   
  8   6   8  ar  
  9   6  19  1   
 10   7   8  ar  
 11   7   9  1   
 12   8  20  1   
 13   9  10  1   
 14   9  21  1   
 15   9  22  1   
 16  10  11  1   
 17  10  12  1   
 18  10  23  1   
 19  11  13  1   
 20  11  24  1   
 21  11  25  1   
 22  12  14  1   
 23  12  26  1   
 24  12  27  1   
 25  13  15  1   
 26  13  28  1   
 27  13  29  1   
 28  14  16  1   
 29  14  30  1   
 30  14  31  1   
 31  15  17  1   
 32  15  32  1   
 33  15  33  1   
 34  16  17  1   
 35  16  34  1   
 36  16  35  1   
 37  17  36  1   
 38  17  37  1   
@<TRIPOS>SUBSTRUCTURE
  1 ****   7 GROUP 4 **** **** 0

# MOE 2024.06 (io_trps.svl 2023.06)
