@<TRIPOS>MOLECULE
NONAME
45 47 1 0 0 
SMALL
USER_CHARGES


@<TRIPOS>ATOM
  1 O       -0.9700     1.4790    -1.1360 O.2   1 <1>  -0.5700 
  2 C       -0.4470     2.0970    -0.2280 C.2   1 <1>   0.5440 
  3 N       -1.2600     2.4790     0.8160 N.am  1 <1>  -0.6600 
  4 C        0.9540     2.4790    -0.2880 C.ar  1 <1>   0.0860 
  5 C       -1.4130     3.9250     1.1230 C.3   1 <1>   0.1400 
  6 C       -2.4960     1.6940     1.0910 C.3   1 <1>   0.1400 
  7 C        1.5990     2.6570    -1.5130 C.ar  1 <1>  -0.1500 
  8 C        1.7080     2.6890     0.8680 C.ar  1 <1>  -0.1500 
  9 C       -2.6020     4.5060     0.3270 C.3   1 <1>   0.3430 
 10 C       -3.6640     2.2620     0.2670 C.3   1 <1>   0.3430 
 11 C        2.9250     3.0440    -1.5830 C.ar  1 <1>  -0.1500 
 12 C        3.0340     3.0780     0.8060 C.ar  1 <1>  -0.1500 
 13 N       -3.8930     3.7390     0.5260 N.4   1 <1>  -0.9590 
 14 C        3.6440     3.2590    -0.4220 C.ar  1 <1>  -0.1500 
 15 C       -5.0150     4.2860    -0.3050 C.3   1 <1>   0.4230 
 16 C       -5.2260     5.7830     0.0010 C.3   1 <1>  -0.1600 
 17 C       -6.3140     3.5020    -0.0300 C.3   1 <1>  -0.1600 
 18 C       -6.4330     6.3650    -0.7480 C.3   1 <1>  -0.1600 
 19 C       -7.5180     4.0920    -0.7790 C.3   1 <1>  -0.1600 
 20 C       -7.7080     5.5740    -0.4480 C.3   1 <1>  -0.1600 
 21 H       -0.5160     4.4580     0.8580 H     1 <1>   0.0800 
 22 H       -1.5730     4.0560     2.1800 H     1 <1>   0.0800 
 23 H       -2.7240     1.7260     2.1420 H     1 <1>   0.0800 
 24 H       -2.3370     0.6620     0.8210 H     1 <1>   0.0800 
 25 H        1.0510     2.4840    -2.4240 H     1 <1>   0.1500 
 26 H        1.2520     2.5400     1.8310 H     1 <1>   0.1500 
 27 H       -2.3400     4.4960    -0.7190 H     1 <1>   0.0800 
 28 H       -2.7340     5.5330     0.6220 H     1 <1>   0.0800 
 29 H       -4.5500     1.7000     0.5050 H     1 <1>   0.0800 
 30 H       -3.4420     2.1060    -0.7770 H     1 <1>   0.0800 
 31 H        3.4000     3.1760    -2.5410 H     1 <1>   0.1500 
 32 H        3.5960     3.2350     1.7110 H     1 <1>   0.1500 
 33 H       -4.1730     3.8410     1.5080 H     1 <1>   0.4500 
 34 H        4.6760     3.5610    -0.4740 H     1 <1>   0.1500 
 35 H       -4.7700     4.1830    -1.3500 H     1 <1>   0.0800 
 36 H       -4.3690     6.3580    -0.2970 H     1 <1>   0.0800 
 37 H       -5.3830     5.9190     1.0570 H     1 <1>   0.0800 
 38 H       -6.5300     3.5150     1.0240 H     1 <1>   0.0800 
 39 H       -6.2190     2.4820    -0.3510 H     1 <1>   0.0800 
 40 H       -6.2460     6.3490    -1.8090 H     1 <1>   0.0800 
 41 H       -6.5770     7.3940    -0.4600 H     1 <1>   0.0800 
 42 H       -8.4110     3.5510    -0.5120 H     1 <1>   0.0800 
 43 H       -7.3770     3.9800    -1.8410 H     1 <1>   0.0800 
 44 H       -8.5230     5.9710    -1.0300 H     1 <1>   0.0800 
 45 H       -7.9680     5.6840     0.5920 H     1 <1>   0.0800 
@<TRIPOS>BOND
  1   1   2  2   
  2   2   3  am  
  3   2   4  1   
  4   3   5  1   
  5   3   6  1   
  6   4   7  ar  
  7   4   8  ar  
  8   5   9  1   
  9   5  21  1   
 10   5  22  1   
 11   6  10  1   
 12   6  23  1   
 13   6  24  1   
 14   7  11  ar  
 15   7  25  1   
 16   8  12  ar  
 17   8  26  1   
 18   9  13  1   
 19   9  27  1   
 20   9  28  1   
 21  10  13  1   
 22  10  29  1   
 23  10  30  1   
 24  11  14  ar  
 25  11  31  1   
 26  12  14  ar  
 27  12  32  1   
 28  13  15  1   
 29  13  33  1   
 30  14  34  1   
 31  15  16  1   
 32  15  17  1   
 33  15  35  1   
 34  16  18  1   
 35  16  36  1   
 36  16  37  1   
 37  17  19  1   
 38  17  38  1   
 39  17  39  1   
 40  18  20  1   
 41  18  40  1   
 42  18  41  1   
 43  19  20  1   
 44  19  42  1   
 45  19  43  1   
 46  20  44  1   
 47  20  45  1   
@<TRIPOS>SUBSTRUCTURE
  1 ****   9 GROUP 4 **** **** 0

# MOE 2024.06 (io_trps.svl 2023.06)
