@<TRIPOS>MOLECULE
NONAME
42 44 1 0 0 
SMALL
USER_CHARGES


@<TRIPOS>ATOM
  1 O        0.3210     1.7630     3.0540 O.2   1 <1>  -0.5700 
  2 C       -0.1060     1.6340     1.9320 C.2   1 <1>   0.5690 
  3 N        0.7020     1.3330     0.8890 N.am  1 <1>  -0.7300 
  4 C       -1.5950     1.8230     1.6890 C.3   1 <1>   0.0440 
  5 C        2.1580     1.1490     0.9380 C.3   1 <1>   0.3640 
  6 C       -2.0260     1.4400     0.2700 C.ar  1 <1>  -0.1440 
  7 C        2.8140     2.1100    -0.0570 C.ar  1 <1>  -0.1440 
  8 C        2.4440    -0.3300     0.6450 C.3   1 <1>  -0.1600 
  9 C       -1.9550     2.3320    -0.7980 C.ar  1 <1>  -0.1440 
 10 C       -2.4830     0.1480     0.0500 C.ar  1 <1>  -0.1500 
 11 C        3.7310     1.6740    -1.0110 C.ar  1 <1>  -0.1440 
 12 C        2.5020     3.4610     0.0110 C.ar  1 <1>  -0.1500 
 13 C        3.8900    -0.5470     0.1890 C.3   1 <1>  -0.1600 
 14 C       -2.3440     1.9140    -2.0610 C.ar  1 <1>  -0.1500 
 15 C       -1.4590     3.7620    -0.6260 C.3   1 <1>  -0.0970 
 16 C       -2.8680    -0.2600    -1.2130 C.ar  1 <1>  -0.1500 
 17 C        4.2940     2.5860    -1.8910 C.ar  1 <1>  -0.1500 
 18 C        4.1400     0.2110    -1.1180 C.3   1 <1>  -0.0170 
 19 C        3.0690     4.3670    -0.8680 C.ar  1 <1>  -0.1500 
 20 C       -2.7990     0.6250    -2.2710 C.ar  1 <1>  -0.1500 
 21 C        3.9640     3.9270    -1.8230 C.ar  1 <1>  -0.1500 
 22 H        0.2930     1.2720    -0.0480 H     1 <1>   0.3700 
 23 H       -1.8480     2.8440     1.8980 H     1 <1>   0.0800 
 24 H       -2.1250     1.2190     2.4030 H     1 <1>   0.0800 
 25 H        2.5240     1.3860     1.9230 H     1 <1>   0.0800 
 26 H        1.7850    -0.6780    -0.1320 H     1 <1>   0.0800 
 27 H        2.2510    -0.9030     1.5340 H     1 <1>   0.0800 
 28 H       -2.5390    -0.5540     0.8640 H     1 <1>   0.1500 
 29 H        1.8140     3.8140     0.7590 H     1 <1>   0.1500 
 30 H        4.0750    -1.5970     0.0400 H     1 <1>   0.0800 
 31 H        4.5660    -0.1900     0.9480 H     1 <1>   0.0800 
 32 H       -2.2960     2.5920    -2.8960 H     1 <1>   0.1500 
 33 H       -0.5040     3.7730    -0.1350 H     1 <1>   0.0800 
 34 H       -2.1620     4.3260    -0.0420 H     1 <1>   0.0800 
 35 H       -1.3450     4.2470    -1.5790 H     1 <1>   0.0800 
 36 H       -3.2210    -1.2640    -1.3720 H     1 <1>   0.1500 
 37 H        4.9960     2.2540    -2.6360 H     1 <1>   0.1500 
 38 H        5.1840     0.1420    -1.3700 H     1 <1>   0.0800 
 39 H        3.5760    -0.2460    -1.9120 H     1 <1>   0.0800 
 40 H        2.8150     5.4100    -0.8050 H     1 <1>   0.1500 
 41 H       -3.0980     0.3130    -3.2570 H     1 <1>   0.1500 
 42 H        4.4070     4.6260    -2.5110 H     1 <1>   0.1500 
@<TRIPOS>BOND
  1   1   2  2   
  2   2   3  am  
  3   2   4  1   
  4   3   5  1   
  5   3  22  1   
  6   4   6  1   
  7   4  23  1   
  8   4  24  1   
  9   5   7  1   
 10   5   8  1   
 11   5  25  1   
 12   6   9  ar  
 13   6  10  ar  
 14   7  11  ar  
 15   7  12  ar  
 16   8  13  1   
 17   8  26  1   
 18   8  27  1   
 19   9  14  ar  
 20   9  15  1   
 21  10  16  ar  
 22  10  28  1   
 23  11  17  ar  
 24  11  18  1   
 25  12  19  ar  
 26  12  29  1   
 27  13  18  1   
 28  13  30  1   
 29  13  31  1   
 30  14  20  ar  
 31  14  32  1   
 32  15  33  1   
 33  15  34  1   
 34  15  35  1   
 35  16  20  ar  
 36  16  36  1   
 37  17  21  ar  
 38  17  37  1   
 39  18  38  1   
 40  18  39  1   
 41  19  21  ar  
 42  19  40  1   
 43  20  41  1   
 44  21  42  1   
@<TRIPOS>SUBSTRUCTURE
  1 ****   3 GROUP 4 **** **** 0

# MOE 2024.06 (io_trps.svl 2023.06)
