@<TRIPOS>MOLECULE
NONAME
32 33 1 0 0 
SMALL
USER_CHARGES


@<TRIPOS>ATOM
  1 S       -0.2770    -0.0660     0.0970 S.o2  1 <1>   1.5760 
  2 O       -0.4240    -0.9030    -1.0680 O.2   1 <1>  -0.6500 
  3 O       -0.0890    -0.6260     1.4140 O.2   1 <1>  -0.6500 
  4 N        0.8850     1.1130    -0.1990 N.am  1 <1>  -0.8490 
  5 N       -1.6210     0.9020     0.1260 N.am  1 <1>  -0.9140 
  6 C        1.1050     1.9610     0.9770 C.3   1 <1>   0.1960 
  7 C        2.1370     0.5040    -0.6520 C.3   1 <1>   0.1960 
  8 C       -2.7930     0.1260     0.4500 C.3   1 <1>   0.3760 
  9 C        2.0680     3.1020     0.6350 C.3   1 <1>  -0.1600 
 10 C        3.1430     1.5900    -1.0490 C.3   1 <1>  -0.1600 
 11 C       -4.0250     0.9400     0.1040 C.2   1 <1>  -0.0400 
 12 C        3.4020     2.5660     0.1050 C.3   1 <1>  -0.1600 
 13 O       -4.2550     1.2390    -1.1620 O.3   1 <1>  -0.2800 
 14 C       -4.9940     1.4510     0.8940 C.2   1 <1>  -0.1500 
 15 C       -5.3690     1.9420    -1.2080 C.2   1 <1>  -0.0100 
 16 C       -5.8790     2.1100     0.0300 C.2   1 <1>  -0.1500 
 17 H       -1.7340     1.1700    -0.8480 H     1 <1>   0.4200 
 18 H        1.5070     1.3730     1.7860 H     1 <1>   0.0800 
 19 H        0.1680     2.3830     1.3020 H     1 <1>   0.0800 
 20 H        1.9470    -0.1200    -1.5100 H     1 <1>   0.0800 
 21 H        2.5480    -0.1130     0.1300 H     1 <1>   0.0800 
 22 H       -2.7890    -0.1150     1.4990 H     1 <1>   0.0800 
 23 H       -2.8170    -0.7900    -0.1180 H     1 <1>   0.0800 
 24 H        2.2390     3.6990     1.5120 H     1 <1>   0.0800 
 25 H        1.6070     3.7310    -0.1070 H     1 <1>   0.0800 
 26 H        2.7540     2.1260    -1.8980 H     1 <1>   0.0800 
 27 H        4.0670     1.1280    -1.3490 H     1 <1>   0.0800 
 28 H        3.9220     2.0540     0.8970 H     1 <1>   0.0800 
 29 H        4.0200     3.3800    -0.2320 H     1 <1>   0.0800 
 30 H       -5.0980     1.3900     1.9620 H     1 <1>   0.1500 
 31 H       -5.7270     2.2840    -2.1640 H     1 <1>   0.1500 
 32 H       -6.7700     2.6340     0.3270 H     1 <1>   0.1500 
@<TRIPOS>BOND
  1   1   2  2   
  2   1   3  2   
  3   1   4  am  
  4   1   5  am  
  5   4   6  1   
  6   4   7  1   
  7   5   8  1   
  8   5  17  1   
  9   6   9  1   
 10   6  18  1   
 11   6  19  1   
 12   7  10  1   
 13   7  20  1   
 14   7  21  1   
 15   8  11  1   
 16   8  22  1   
 17   8  23  1   
 18   9  12  1   
 19   9  24  1   
 20   9  25  1   
 21  10  12  1   
 22  10  26  1   
 23  10  27  1   
 24  11  13  1   
 25  11  14  2   
 26  12  28  1   
 27  12  29  1   
 28  13  15  1   
 29  14  16  1   
 30  14  30  1   
 31  15  16  2   
 32  15  31  1   
 33  16  32  1   
@<TRIPOS>SUBSTRUCTURE
  1 ****   5 GROUP 4 **** **** 0

# MOE 2024.06 (io_trps.svl 2023.06)
