@<TRIPOS>MOLECULE
NONAME
42 44 1 0 0 
SMALL
USER_CHARGES


@<TRIPOS>ATOM
  1 CL       0.4340    -0.4180     1.4550 Cl    1 <1>  -0.1770 
  2 C        2.0110    -0.9100     0.8880 C.ar  1 <1>   0.1770 
  3 C        3.1040    -0.7780     1.7230 C.ar  1 <1>  -0.1500 
  4 C        2.1450    -1.4270    -0.3860 C.ar  1 <1>  -0.1500 
  5 C        4.3520    -1.1690     1.2700 C.ar  1 <1>  -0.1500 
  6 C        3.3980    -1.8150    -0.8310 C.ar  1 <1>  -0.1500 
  7 C        4.5180    -1.6900    -0.0110 C.ar  1 <1>   0.1170 
  8 N        5.8080    -2.0690    -0.4100 N.am  1 <1>  -0.5470 
  9 C        6.3440    -2.4600    -1.6040 C.2   1 <1>   0.5690 
 10 O        5.7270    -2.5520    -2.6380 O.2   1 <1>  -0.5700 
 11 C        7.8380    -2.7900    -1.5950 C.3   1 <1>   0.1710 
 12 N        8.6000    -2.0850    -0.5190 N.3   1 <1>  -0.8100 
 13 C        8.7790    -0.6530    -0.8610 C.3   1 <1>   0.1100 
 14 C        9.9220    -2.7210    -0.3220 C.3   1 <1>   0.1100 
 15 C        9.5620     0.1070     0.2250 C.3   1 <1>   0.1400 
 16 C       10.7210    -2.0240     0.7910 C.3   1 <1>   0.1400 
 17 N       10.8660    -0.5660     0.5000 N.am  1 <1>  -0.6600 
 18 C       12.0830    -0.0140     0.1510 C.2   1 <1>   0.7150 
 19 O       12.9950    -0.7680    -0.1440 O.2   1 <1>  -0.5700 
 20 C       12.2830     1.4210     0.1400 C.2   1 <1>   0.0550 
 21 O       13.0420     2.0040    -0.7850 O.3   1 <1>  -0.2800 
 22 C       11.8030     2.3930     0.9680 C.2   1 <1>  -0.1500 
 23 C       13.0570     3.3000    -0.5730 C.2   1 <1>  -0.0100 
 24 C       12.3040     3.6090     0.5040 C.2   1 <1>  -0.1500 
 25 H        2.9740    -0.3750     2.7120 H     1 <1>   0.1500 
 26 H        1.2820    -1.5220    -1.0200 H     1 <1>   0.1500 
 27 H        5.2030    -1.0680     1.9180 H     1 <1>   0.1500 
 28 H        3.4940    -2.2190    -1.8220 H     1 <1>   0.1500 
 29 H        6.5400    -1.9970     0.3030 H     1 <1>   0.3700 
 30 H        8.2550    -2.5550    -2.5590 H     1 <1>   0.0800 
 31 H        7.9210    -3.8530    -1.4520 H     1 <1>   0.0800 
 32 H        7.8180    -0.1830    -0.9840 H     1 <1>   0.0800 
 33 H        9.3100    -0.5640    -1.7950 H     1 <1>   0.0800 
 34 H       10.4920    -2.6840    -1.2350 H     1 <1>   0.0800 
 35 H        9.7870    -3.7540    -0.0530 H     1 <1>   0.0800 
 36 H        8.9800     0.1360     1.1300 H     1 <1>   0.0800 
 37 H        9.7150     1.1180    -0.1080 H     1 <1>   0.0800 
 38 H       11.6870    -2.4920     0.8840 H     1 <1>   0.0800 
 39 H       10.2070    -2.1490     1.7280 H     1 <1>   0.0800 
 40 H       11.1670     2.2670     1.8260 H     1 <1>   0.1500 
 41 H       13.6290     3.9300    -1.2320 H     1 <1>   0.1500 
 42 H       12.1180     4.5770     0.9360 H     1 <1>   0.1500 
@<TRIPOS>BOND
  1   1   2  1   
  2   2   3  ar  
  3   2   4  ar  
  4   3   5  ar  
  5   3  25  1   
  6   4   6  ar  
  7   4  26  1   
  8   5   7  ar  
  9   5  27  1   
 10   6   7  ar  
 11   6  28  1   
 12   7   8  1   
 13   8   9  am  
 14   8  29  1   
 15   9  10  2   
 16   9  11  1   
 17  11  12  1   
 18  11  30  1   
 19  11  31  1   
 20  12  13  1   
 21  12  14  1   
 22  13  15  1   
 23  13  32  1   
 24  13  33  1   
 25  14  16  1   
 26  14  34  1   
 27  14  35  1   
 28  15  17  1   
 29  15  36  1   
 30  15  37  1   
 31  16  17  1   
 32  16  38  1   
 33  16  39  1   
 34  17  18  am  
 35  18  19  2   
 36  18  20  1   
 37  20  21  1   
 38  20  22  2   
 39  21  23  1   
 40  22  24  1   
 41  22  40  1   
 42  23  24  2   
 43  23  41  1   
 44  24  42  1   
@<TRIPOS>SUBSTRUCTURE
  1 ****  13 GROUP 4 **** **** 0

# MOE 2024.06 (io_trps.svl 2023.06)
