@<TRIPOS>MOLECULE
NONAME
36 38 1 0 0 
SMALL
USER_CHARGES


@<TRIPOS>ATOM
  1 S        0.2330    -0.0230    -0.5370 S.3   1 <1>  -0.3710 
  2 C       -1.2720    -0.9560    -0.3180 C.2   1 <1>   0.6510 
  3 C       -0.2120     1.6820     0.0100 C.3   1 <1>   0.2700 
  4 N       -2.2740    -0.2710     0.0950 N.2   1 <1>  -0.6290 
  5 N       -1.3060    -2.2980    -0.6740 N.am  1 <1>  -0.4200 
  6 C        1.0090     2.5320    -0.0900 C.1   1 <1>  -0.2000 
  7 C       -3.5130    -0.8660     0.1180 C.ar  1 <1>   0.1790 
  8 C       -2.5590    -2.7940    -0.9800 C.2   1 <1>   0.5440 
  9 C       -0.1550    -3.2810    -0.7240 C.3   1 <1>   0.2200 
 10 C        1.9820     3.2110    -0.1690 C.1   1 <1>  -0.1770 
 11 C       -3.7120    -2.1290    -0.4450 C.ar  1 <1>   0.0860 
 12 C       -4.5900    -0.1850     0.6770 C.ar  1 <1>  -0.1500 
 13 O       -2.6800    -3.7760    -1.6970 O.2   1 <1>  -0.5700 
 14 C       -0.4780    -4.5710     0.0610 C.3   1 <1>  -0.1600 
 15 C        1.1940    -2.8630    -0.1300 C.3   1 <1>  -0.1600 
 16 C       -5.0000    -2.6720    -0.4470 C.ar  1 <1>  -0.1500 
 17 C       -5.8540    -0.7380     0.6770 C.ar  1 <1>  -0.1500 
 18 C        0.8320    -5.1130     0.6440 C.3   1 <1>  -0.1600 
 19 C        1.9240    -4.1680     0.1610 C.3   1 <1>  -0.1600 
 20 C       -6.0610    -1.9870     0.1090 C.ar  1 <1>  -0.1500 
 21 H       -0.5630     1.6180     1.0250 H     1 <1>   0.0800 
 22 H       -0.9940     2.0380    -0.6370 H     1 <1>   0.0800 
 23 H        0.0080    -3.5500    -1.7550 H     1 <1>   0.0800 
 24 H        2.8650     3.8210    -0.2420 H     1 <1>   0.1770 
 25 H       -4.4200     0.7850     1.1080 H     1 <1>   0.1500 
 26 H       -0.9210    -5.3030    -0.5910 H     1 <1>   0.0800 
 27 H       -1.1570    -4.3630     0.8700 H     1 <1>   0.0800 
 28 H        1.0480    -2.3420     0.8010 H     1 <1>   0.0800 
 29 H        1.7700    -2.2650    -0.8140 H     1 <1>   0.0800 
 30 H       -5.1560    -3.6420    -0.8890 H     1 <1>   0.1500 
 31 H       -6.6810    -0.2030     1.1120 H     1 <1>   0.1500 
 32 H        1.0230    -6.1230     0.3220 H     1 <1>   0.0800 
 33 H        0.7830    -5.0940     1.7190 H     1 <1>   0.0800 
 34 H        2.7040    -4.0420     0.8920 H     1 <1>   0.0800 
 35 H        2.3530    -4.5500    -0.7500 H     1 <1>   0.0800 
 36 H       -7.0480    -2.4160     0.1040 H     1 <1>   0.1500 
@<TRIPOS>BOND
  1   1   2  1   
  2   1   3  1   
  3   2   4  2   
  4   2   5  1   
  5   3   6  1   
  6   3  21  1   
  7   3  22  1   
  8   4   7  1   
  9   5   8  am  
 10   5   9  1   
 11   6  10  3   
 12   7  11  ar  
 13   7  12  ar  
 14   8  11  1   
 15   8  13  2   
 16   9  14  1   
 17   9  15  1   
 18   9  23  1   
 19  10  24  1   
 20  11  16  ar  
 21  12  17  ar  
 22  12  25  1   
 23  14  18  1   
 24  14  26  1   
 25  14  27  1   
 26  15  19  1   
 27  15  28  1   
 28  15  29  1   
 29  16  20  ar  
 30  16  30  1   
 31  17  20  ar  
 32  17  31  1   
 33  18  19  1   
 34  18  32  1   
 35  18  33  1   
 36  19  34  1   
 37  19  35  1   
 38  20  36  1   
@<TRIPOS>SUBSTRUCTURE
  1 ****   2 GROUP 4 **** **** 0

# MOE 2024.06 (io_trps.svl 2023.06)
