@<TRIPOS>MOLECULE
NONAME
43 46 1 0 0 
SMALL
USER_CHARGES


@<TRIPOS>ATOM
  1 O       -0.1760    -0.2650    -0.1580 O.2   1 <1>  -0.5700 
  2 C       -0.2900    -1.4830    -0.0980 C.2   1 <1>   0.5650 
  3 N       -1.5510    -2.1380    -0.0940 N.pl3 1 <1>   0.5610 
  4 C        0.8510    -2.3400    -0.0290 C.2   1 <1>  -0.1240 
  5 N       -2.8170    -1.6740    -0.1460 N.2   1 <1>  -0.7070 
  6 C       -1.6280    -3.4930    -0.0300 C.2   1 <1>   0.2700 
  7 C        0.7390    -3.6780     0.0350 C.2   1 <1>  -0.0380 
  8 C        2.2970    -1.9050    -0.0230 C.3   1 <1>  -0.0220 
  9 C       -3.5440    -2.7550    -0.1110 C.2   1 <1>   0.4620 
 10 N       -2.8370    -3.9100    -0.0380 N.2   1 <1>  -0.5650 
 11 N       -0.4900    -4.2880     0.0350 N.pl3 1 <1>  -0.5840 
 12 C        2.0650    -4.3860     0.0970 C.3   1 <1>  -0.0220 
 13 C        3.0770    -3.2230     0.1750 C.3   1 <1>  -0.1600 
 14 C       -4.9990    -2.7500    -0.1450 C.ar  1 <1>   0.0540 
 15 C       -5.7370    -3.9340    -0.1120 C.ar  1 <1>  -0.1500 
 16 C       -5.7100    -1.5500    -0.2100 C.ar  1 <1>  -0.1500 
 17 C       -7.1270    -3.9330    -0.1470 C.ar  1 <1>   0.0820 
 18 C       -7.0990    -1.5200    -0.2460 C.ar  1 <1>   0.0820 
 19 O       -7.8630    -5.0830    -0.1110 O.3   1 <1>  -0.3630 
 20 C       -7.8080    -2.7190    -0.2160 C.ar  1 <1>   0.0820 
 21 O       -7.8070    -0.3530    -0.3050 O.3   1 <1>  -0.3630 
 22 C       -7.2600    -6.3490    -0.2550 C.3   1 <1>   0.0400 
 23 O       -9.1660    -2.7060    -0.2750 O.3   1 <1>  -0.3630 
 24 C       -7.1670     0.8860    -0.5200 C.3   1 <1>   0.0400 
 25 C       -9.8180    -2.6380     0.9690 C.3   1 <1>   0.0400 
 26 H        2.4860    -1.2130     0.7800 H     1 <1>   0.0800 
 27 H        2.5460    -1.4420    -0.9620 H     1 <1>   0.0800 
 28 H       -0.6190    -5.3050     0.0820 H     1 <1>   0.4000 
 29 H        2.2150    -4.9720    -0.7930 H     1 <1>   0.0800 
 30 H        2.1260    -5.0150     0.9670 H     1 <1>   0.0800 
 31 H        3.5450    -3.2200     1.1450 H     1 <1>   0.0800 
 32 H        3.8420    -3.3300    -0.5750 H     1 <1>   0.0800 
 33 H       -5.1990    -4.8600    -0.0550 H     1 <1>   0.1500 
 34 H       -5.1460    -0.6380    -0.2300 H     1 <1>   0.1500 
 35 H       -8.0410    -7.0870    -0.2870 H     1 <1>   0.0800 
 36 H       -6.6210    -6.5310     0.5910 H     1 <1>   0.0800 
 37 H       -6.7020    -6.3680    -1.1740 H     1 <1>   0.0800 
 38 H       -7.9270     1.6410    -0.6080 H     1 <1>   0.0800 
 39 H       -6.5990     0.8320    -1.4320 H     1 <1>   0.0800 
 40 H       -6.5320     1.1020     0.3200 H     1 <1>   0.0800 
 41 H      -10.8780    -2.6360     0.7920 H     1 <1>   0.0800 
 42 H       -9.5220    -1.7320     1.4660 H     1 <1>   0.0800 
 43 H       -9.5410    -3.4990     1.5520 H     1 <1>   0.0800 
@<TRIPOS>BOND
  1   1   2  2   
  2   2   3  1   
  3   2   4  1   
  4   3   5  1   
  5   3   6  1   
  6   4   7  2   
  7   4   8  1   
  8   5   9  2   
  9   6  10  2   
 10   6  11  1   
 11   7  11  1   
 12   7  12  1   
 13   8  13  1   
 14   8  26  1   
 15   8  27  1   
 16   9  10  1   
 17   9  14  1   
 18  11  28  1   
 19  12  13  1   
 20  12  29  1   
 21  12  30  1   
 22  13  31  1   
 23  13  32  1   
 24  14  15  ar  
 25  14  16  ar  
 26  15  17  ar  
 27  15  33  1   
 28  16  18  ar  
 29  16  34  1   
 30  17  19  1   
 31  17  20  ar  
 32  18  20  ar  
 33  18  21  1   
 34  19  22  1   
 35  20  23  1   
 36  21  24  1   
 37  22  35  1   
 38  22  36  1   
 39  22  37  1   
 40  23  25  1   
 41  24  38  1   
 42  24  39  1   
 43  24  40  1   
 44  25  41  1   
 45  25  42  1   
 46  25  43  1   
@<TRIPOS>SUBSTRUCTURE
  1 ****   9 GROUP 4 **** **** 0

# MOE 2024.06 (io_trps.svl 2023.06)
