@<TRIPOS>MOLECULE
NONAME
40 41 1 0 0 
SMALL
USER_CHARGES


@<TRIPOS>ATOM
  1 O       -0.4990     0.7970     0.0730 O.3   1 <1>  -0.3630 
  2 C       -0.1450     2.0390    -0.3480 C.ar  1 <1>   0.0830 
  3 C        0.2550     0.0900     1.0320 C.3   1 <1>   0.2580 
  4 C       -1.0570     2.7230    -1.1460 C.ar  1 <1>  -0.1440 
  5 C        1.0630     2.6410    -0.0070 C.ar  1 <1>  -0.1500 
  6 C       -0.5380    -1.1540     1.3770 C.2   1 <1>  -0.2880 
  7 C       -0.7600     4.0010    -1.5940 C.ar  1 <1>  -0.1500 
  8 C       -2.3720     2.0670    -1.5210 C.3   1 <1>   0.4870 
  9 C        1.3490     3.9170    -0.4570 C.ar  1 <1>  -0.1500 
 10 C       -1.1100    -1.4060     2.5590 C.2   1 <1>  -0.3000 
 11 C        0.4400     4.5970    -1.2480 C.ar  1 <1>  -0.1500 
 12 N       -3.1130     1.7840    -0.2680 N.4   1 <1>  -0.9590 
 13 C       -4.2310     0.8260    -0.3950 C.3   1 <1>   0.4230 
 14 C       -3.6310     2.9980     0.4030 C.3   1 <1>   0.3430 
 15 C       -5.0290     1.0520     0.8860 C.3   1 <1>  -0.1600 
 16 C       -3.7550    -0.6320    -0.5720 C.3   1 <1>   0.1200 
 17 C       -4.7670     2.5050     1.2910 C.3   1 <1>  -0.1600 
 18 O       -4.8600    -1.4580    -0.7140 O.3   1 <1>  -0.6800 
 19 H        0.3850     0.7160     1.8990 H     1 <1>   0.0800 
 20 H        1.2120    -0.1640     0.6080 H     1 <1>   0.0800 
 21 H        1.7950     2.1410     0.6000 H     1 <1>   0.1500 
 22 H       -0.5930    -1.8410     0.5490 H     1 <1>   0.1500 
 23 H       -1.4490     4.5480    -2.2160 H     1 <1>   0.1500 
 24 H       -2.1620     1.1490    -2.0440 H     1 <1>   0.0800 
 25 H       -2.9480     2.7100    -2.1660 H     1 <1>   0.0800 
 26 H        2.2840     4.3850    -0.1940 H     1 <1>   0.1500 
 27 H       -1.6630    -2.3040     2.7790 H     1 <1>   0.1500 
 28 H       -1.0710    -0.7470     3.4110 H     1 <1>   0.1500 
 29 H        0.6730     5.5900    -1.5970 H     1 <1>   0.1500 
 30 H       -2.4090     1.3580     0.3570 H     1 <1>   0.4500 
 31 H       -4.8380     1.1050    -1.2420 H     1 <1>   0.0800 
 32 H       -4.0200     3.6870    -0.3290 H     1 <1>   0.0800 
 33 H       -2.8580     3.4870     0.9770 H     1 <1>   0.0800 
 34 H       -4.6820     0.3870     1.6580 H     1 <1>   0.0800 
 35 H       -6.0750     0.8570     0.7200 H     1 <1>   0.0800 
 36 H       -3.2000    -0.9600     0.2890 H     1 <1>   0.0800 
 37 H       -3.1530    -0.7360    -1.4580 H     1 <1>   0.0800 
 38 H       -5.6400     3.1160     1.1360 H     1 <1>   0.0800 
 39 H       -4.4880     2.5690     2.3290 H     1 <1>   0.0800 
 40 H       -4.5990    -2.4010    -0.7920 H     1 <1>   0.4000 
@<TRIPOS>BOND
  1   1   2  1   
  2   1   3  1   
  3   2   4  ar  
  4   2   5  ar  
  5   3   6  1   
  6   3  19  1   
  7   3  20  1   
  8   4   7  ar  
  9   4   8  1   
 10   5   9  ar  
 11   5  21  1   
 12   6  10  2   
 13   6  22  1   
 14   7  11  ar  
 15   7  23  1   
 16   8  12  1   
 17   8  24  1   
 18   8  25  1   
 19   9  11  ar  
 20   9  26  1   
 21  10  27  1   
 22  10  28  1   
 23  11  29  1   
 24  12  13  1   
 25  12  14  1   
 26  12  30  1   
 27  13  15  1   
 28  13  16  1   
 29  13  31  1   
 30  14  17  1   
 31  14  32  1   
 32  14  33  1   
 33  15  17  1   
 34  15  34  1   
 35  15  35  1   
 36  16  18  1   
 37  16  36  1   
 38  16  37  1   
 39  17  38  1   
 40  17  39  1   
 41  18  40  1   
@<TRIPOS>SUBSTRUCTURE
  1 ****  12 GROUP 4 **** **** 0

# MOE 2024.06 (io_trps.svl 2023.06)
