@<TRIPOS>MOLECULE
NONAME
44 44 1 0 0 
SMALL
USER_CHARGES


@<TRIPOS>ATOM
  1 O        0.1760    -0.5010     0.0170 O.3   1 <1>  -0.6800 
  2 C        1.2310    -1.3120     0.3540 C.3   1 <1>   0.2000 
  3 C        2.3150    -0.4410     0.9860 C.3   1 <1>  -0.1600 
  4 C        1.7160    -1.9710    -0.9340 C.3   1 <1>  -0.1600 
  5 C        3.6100    -1.2270     1.1680 C.3   1 <1>   0.3430 
  6 C        3.0200    -2.7270    -0.7060 C.3   1 <1>   0.3430 
  7 N        4.0430    -1.8000    -0.1420 N.4   1 <1>  -0.9590 
  8 C        5.3730    -2.4730    -0.0600 C.3   1 <1>   0.3430 
  9 C        6.5230    -1.4740     0.1700 C.3   1 <1>  -0.0800 
 10 C        7.8470    -2.2640     0.1870 C.3   1 <1>  -0.1600 
 11 C        6.5440    -0.3620    -0.9000 C.3   1 <1>  -0.2400 
 12 C        9.0700    -1.4400     0.6110 C.3   1 <1>  -0.0220 
 13 C       10.2760    -2.3560     0.7250 C.2   1 <1>  -0.2880 
 14 C       11.3260    -2.4600    -0.0990 C.2   1 <1>  -0.2760 
 15 C       12.4610    -3.4310     0.1830 C.3   1 <1>  -0.1020 
 16 C       11.5520    -1.6760    -1.3860 C.3   1 <1>  -0.1020 
 17 H       -0.2700    -0.1390     0.8090 H     1 <1>   0.4000 
 18 H        0.8770    -2.0570     1.0500 H     1 <1>   0.0800 
 19 H        2.5100     0.4160     0.3640 H     1 <1>   0.0800 
 20 H        1.9820    -0.0910     1.9470 H     1 <1>   0.0800 
 21 H        0.9670    -2.6590    -1.2840 H     1 <1>   0.0800 
 22 H        1.8670    -1.2270    -1.6970 H     1 <1>   0.0800 
 23 H        3.4560    -2.0220     1.8810 H     1 <1>   0.0800 
 24 H        4.3710    -0.5690     1.5550 H     1 <1>   0.0800 
 25 H        3.3650    -3.1330    -1.6440 H     1 <1>   0.0800 
 26 H        2.8500    -3.5450    -0.0240 H     1 <1>   0.0800 
 27 H        4.1420    -1.0180    -0.8040 H     1 <1>   0.4500 
 28 H        5.3660    -3.2030     0.7330 H     1 <1>   0.0800 
 29 H        5.5630    -2.9940    -0.9850 H     1 <1>   0.0800 
 30 H        6.4050    -1.0240     1.1410 H     1 <1>   0.0800 
 31 H        7.7560    -3.0880     0.8750 H     1 <1>   0.0800 
 32 H        8.0400    -2.6800    -0.7880 H     1 <1>   0.0800 
 33 H        6.6840    -0.7800    -1.8820 H     1 <1>   0.0800 
 34 H        7.3460     0.3300    -0.7150 H     1 <1>   0.0800 
 35 H        5.6360     0.2130    -0.8930 H     1 <1>   0.0800 
 36 H        8.8970    -0.9770     1.5670 H     1 <1>   0.0800 
 37 H        9.2620    -0.6570    -0.0950 H     1 <1>   0.0800 
 38 H       10.2080    -2.9710     1.6070 H     1 <1>   0.1500 
 39 H       12.5490    -4.1420    -0.6180 H     1 <1>   0.0800 
 40 H       12.2860    -3.9700     1.0970 H     1 <1>   0.0800 
 41 H       13.3900    -2.8970     0.2790 H     1 <1>   0.0800 
 42 H       12.4290    -1.0600    -1.2890 H     1 <1>   0.0800 
 43 H       10.7220    -1.0420    -1.6300 H     1 <1>   0.0800 
 44 H       11.6990    -2.3540    -2.2070 H     1 <1>   0.0800 
@<TRIPOS>BOND
  1   1   2  1   
  2   1  17  1   
  3   2   3  1   
  4   2   4  1   
  5   2  18  1   
  6   3   5  1   
  7   3  19  1   
  8   3  20  1   
  9   4   6  1   
 10   4  21  1   
 11   4  22  1   
 12   5   7  1   
 13   5  23  1   
 14   5  24  1   
 15   6   7  1   
 16   6  25  1   
 17   6  26  1   
 18   7   8  1   
 19   7  27  1   
 20   8   9  1   
 21   8  28  1   
 22   8  29  1   
 23   9  10  1   
 24   9  11  1   
 25   9  30  1   
 26  10  12  1   
 27  10  31  1   
 28  10  32  1   
 29  11  33  1   
 30  11  34  1   
 31  11  35  1   
 32  12  13  1   
 33  12  36  1   
 34  12  37  1   
 35  13  14  2   
 36  13  38  1   
 37  14  15  1   
 38  14  16  1   
 39  15  39  1   
 40  15  40  1   
 41  15  41  1   
 42  16  42  1   
 43  16  43  1   
 44  16  44  1   
@<TRIPOS>SUBSTRUCTURE
  1 ****   9 GROUP 4 **** **** 0

# MOE 2024.06 (io_trps.svl 2023.06)
