@<TRIPOS>MOLECULE
NONAME
38 39 1 0 0 
SMALL
USER_CHARGES


@<TRIPOS>ATOM
  1 O       -5.1900     5.4320     2.1920 O.2   1 <1>  -0.5760 
  2 C       -5.8500     5.8590     1.2840 C.2   1 <1>   0.4410 
  3 C       -5.2330     6.4960     0.0180 C.3   1 <1>   0.0510 
  4 C       -7.3740     5.7430     1.3650 C.3   1 <1>   0.4080 
  5 C       -5.7600     5.8130    -1.2590 C.3   1 <1>  -0.2490 
  6 C       -3.6980     6.3520     0.0220 C.3   1 <1>  -0.2490 
  7 C       -5.5640     7.9980    -0.0460 C.3   1 <1>  -0.2490 
  8 N       -7.8900     4.3780     1.0210 N.pl3 1 <1>  -0.7680 
  9 C       -7.5020     3.2020     1.5190 C.cat 1 <1>   1.0680 
 10 C       -8.9430     4.1290     0.1500 C.ar  1 <1>   0.3010 
 11 N       -6.5210     3.0350     2.3730 N.pl3 1 <1>  -0.8400 
 12 N       -8.2400     2.2030     1.0340 N.pl3 1 <1>  -0.7680 
 13 C       -9.1610     2.7630     0.1580 C.ar  1 <1>   0.3010 
 14 C       -9.7240     4.9650    -0.6440 C.ar  1 <1>  -0.1190 
 15 C       -8.1640     0.7470     1.3100 C.3   1 <1>   0.2650 
 16 C      -10.1610     2.1960    -0.6240 C.ar  1 <1>  -0.1190 
 17 C      -10.7180     4.4030    -1.4210 C.ar  1 <1>  -0.1600 
 18 C      -10.9360     3.0250    -1.4120 C.ar  1 <1>  -0.1600 
 19 H       -7.8240     6.4760     0.7230 H     1 <1>   0.0700 
 20 H       -7.6730     5.9750     2.3720 H     1 <1>   0.0700 
 21 H       -6.8170     5.9620    -1.3820 H     1 <1>   0.0700 
 22 H       -5.2710     6.2190    -2.1280 H     1 <1>   0.0700 
 23 H       -5.5620     4.7560    -1.2290 H     1 <1>   0.0700 
 24 H       -3.4160     5.3150     0.0520 H     1 <1>   0.0700 
 25 H       -3.2760     6.8400     0.8840 H     1 <1>   0.0700 
 26 H       -3.2670     6.7950    -0.8590 H     1 <1>   0.0700 
 27 H       -6.6210     8.1710    -0.1370 H     1 <1>   0.0700 
 28 H       -5.0830     8.4520    -0.8950 H     1 <1>   0.0700 
 29 H       -5.2110     8.4960     0.8410 H     1 <1>   0.0700 
 30 H       -6.2330     2.1320     2.7310 H     1 <1>   0.4430 
 31 H       -5.8960     3.8190     2.6150 H     1 <1>   0.4430 
 32 H       -9.5620     6.0260    -0.6560 H     1 <1>   0.1400 
 33 H       -7.3950     0.5280     2.0300 H     1 <1>   0.0700 
 34 H       -7.9460     0.2150     0.3990 H     1 <1>   0.0700 
 35 H       -9.1080     0.4010     1.6980 H     1 <1>   0.0700 
 36 H      -10.3270     1.1340    -0.6150 H     1 <1>   0.1400 
 37 H      -11.3370     5.0290    -2.0450 H     1 <1>   0.1400 
 38 H      -11.7180     2.6100    -2.0280 H     1 <1>   0.1400 
@<TRIPOS>BOND
  1   1   2  2   
  2   2   3  1   
  3   2   4  1   
  4   3   5  1   
  5   3   6  1   
  6   3   7  1   
  7   4   8  1   
  8   4  19  1   
  9   4  20  1   
 10   5  21  1   
 11   5  22  1   
 12   5  23  1   
 13   6  24  1   
 14   6  25  1   
 15   6  26  1   
 16   7  27  1   
 17   7  28  1   
 18   7  29  1   
 19   8   9  ar  
 20   8  10  1   
 21   9  11  ar  
 22   9  12  ar  
 23  10  13  ar  
 24  10  14  ar  
 25  11  30  1   
 26  11  31  1   
 27  12  13  1   
 28  12  15  1   
 29  13  16  ar  
 30  14  17  ar  
 31  14  32  1   
 32  15  33  1   
 33  15  34  1   
 34  15  35  1   
 35  16  18  ar  
 36  16  36  1   
 37  17  18  ar  
 38  17  37  1   
 39  18  38  1   
@<TRIPOS>SUBSTRUCTURE
  1 ****   8 GROUP 4 **** **** 0

# MOE 2024.06 (io_trps.svl 2023.06)
