@<TRIPOS>MOLECULE
NONAME
28 28 1 0 0 
SMALL
USER_CHARGES


@<TRIPOS>ATOM
  1 CL      -0.6360     0.6830     2.3000 Cl    1 <1>  -0.1770 
  2 C       -1.6830     1.2080     1.0050 C.ar  1 <1>   0.1770 
  3 C       -1.3410     2.3330     0.2740 C.ar  1 <1>  -0.1440 
  4 C       -2.8270     0.4780     0.7260 C.ar  1 <1>  -0.1500 
  5 C       -2.1870     2.6960    -0.7580 C.ar  1 <1>   0.1900 
  6 C       -0.1050     3.1400     0.5920 C.3   1 <1>   0.4860 
  7 C       -3.6580     0.8720    -0.3130 C.ar  1 <1>  -0.1500 
  8 F       -1.8830     3.7430    -1.4760 F     1 <1>  -0.1900 
  9 C       -3.3370     1.9910    -1.0660 C.ar  1 <1>  -0.1500 
 10 N        1.0770     2.3830     0.1200 N.4   1 <1>  -0.9060 
 11 C        2.3560     3.0980     0.3990 C.3   1 <1>   0.3430 
 12 C        3.5730     2.2940    -0.0660 C.3   1 <1>   0.1200 
 13 O        4.6930     3.0510     0.2370 O.3   1 <1>  -0.5600 
 14 C        5.9050     2.4590    -0.1190 C.3   1 <1>   0.0400 
 15 H       -3.0670    -0.3910     1.3150 H     1 <1>   0.1500 
 16 H       -0.0430     3.3020     1.6560 H     1 <1>   0.0800 
 17 H       -0.1540     4.1000     0.1020 H     1 <1>   0.0800 
 18 H       -4.5520     0.3100    -0.5340 H     1 <1>   0.1500 
 19 H       -3.9690     2.3110    -1.8770 H     1 <1>   0.1500 
 20 H        0.9710     2.2110    -0.8880 H     1 <1>   0.4500 
 21 H        1.0700     1.4680     0.5910 H     1 <1>   0.4500 
 22 H        2.4510     3.2750     1.4590 H     1 <1>   0.0800 
 23 H        2.3610     4.0490    -0.1080 H     1 <1>   0.0800 
 24 H        3.5490     2.1340    -1.1310 H     1 <1>   0.0800 
 25 H        3.6440     1.3570     0.4610 H     1 <1>   0.0800 
 26 H        6.7000     3.1300     0.1600 H     1 <1>   0.0800 
 27 H        5.9290     2.2980    -1.1830 H     1 <1>   0.0800 
 28 H        6.0200     1.5280     0.4100 H     1 <1>   0.0800 
@<TRIPOS>BOND
  1   1   2  1   
  2   2   3  ar  
  3   2   4  ar  
  4   3   5  ar  
  5   3   6  1   
  6   4   7  ar  
  7   4  15  1   
  8   5   8  1   
  9   5   9  ar  
 10   6  10  1   
 11   6  16  1   
 12   6  17  1   
 13   7   9  ar  
 14   7  18  1   
 15   9  19  1   
 16  10  11  1   
 17  10  20  1   
 18  10  21  1   
 19  11  12  1   
 20  11  22  1   
 21  11  23  1   
 22  12  13  1   
 23  12  24  1   
 24  12  25  1   
 25  13  14  1   
 26  14  26  1   
 27  14  27  1   
 28  14  28  1   
@<TRIPOS>SUBSTRUCTURE
  1 ****   6 GROUP 4 **** **** 0

# MOE 2024.06 (io_trps.svl 2023.06)
