@<TRIPOS>MOLECULE
NONAME
39 40 1 0 0 
SMALL
USER_CHARGES


@<TRIPOS>ATOM
  1 S        0.2250     0.2800     1.6320 S.o2  1 <1>   1.4470 
  2 O        0.7100     1.6070     1.9490 O.2   1 <1>  -0.6500 
  3 O       -0.2720    -0.5490     2.7090 O.2   1 <1>  -0.6500 
  4 N       -1.0460     0.4960     0.5300 N.am  1 <1>  -0.8490 
  5 C        1.4800    -0.6340     0.6710 C.ar  1 <1>  -0.0090 
  6 C       -2.2710     0.9230     1.2120 C.3   1 <1>   0.1960 
  7 C       -0.6910     1.4320    -0.5430 C.3   1 <1>   0.1960 
  8 C        1.2800    -1.9300     0.1880 C.ar  1 <1>  -0.1440 
  9 C        2.6940    -0.0190     0.3860 C.ar  1 <1>  -0.1500 
 10 C       -3.4430     0.9590     0.2250 C.3   1 <1>  -0.1600 
 11 C       -1.8010     1.4720    -1.5970 C.3   1 <1>  -0.1600 
 12 C        2.2730    -2.5570    -0.5470 C.ar  1 <1>  -0.1500 
 13 C       -0.0140    -2.6940     0.4440 C.3   1 <1>  -0.0970 
 14 C        3.7100    -0.6250    -0.3540 C.ar  1 <1>   0.0860 
 15 C       -3.1450     1.8660    -0.9740 C.3   1 <1>  -0.1600 
 16 C        3.4660    -1.9170    -0.8130 C.ar  1 <1>  -0.1500 
 17 C        4.9560     0.0700    -0.6280 C.2   1 <1>   0.6340 
 18 O        5.1640     1.2170    -0.2940 O.2   1 <1>  -0.5700 
 19 O        5.9150    -0.5920    -1.2860 O.3   1 <1>  -0.4300 
 20 C        7.1580     0.0080    -1.5930 C.3   1 <1>   0.0400 
 21 H       -2.1240     1.8960     1.6510 H     1 <1>   0.0800 
 22 H       -2.5090     0.2300     2.0020 H     1 <1>   0.0800 
 23 H        0.2250     1.1170    -1.0150 H     1 <1>   0.0800 
 24 H       -0.5380     2.4190    -0.1360 H     1 <1>   0.0800 
 25 H        2.8660     0.9810     0.7530 H     1 <1>   0.1500 
 26 H       -4.3250     1.3070     0.7330 H     1 <1>   0.0800 
 27 H       -3.6360    -0.0440    -0.1160 H     1 <1>   0.0800 
 28 H       -1.8810     0.5010    -2.0540 H     1 <1>   0.0800 
 29 H       -1.5380     2.1780    -2.3660 H     1 <1>   0.0800 
 30 H        2.1230    -3.5570    -0.9190 H     1 <1>   0.1500 
 31 H       -0.0020    -3.6540    -0.0400 H     1 <1>   0.0800 
 32 H       -0.1480    -2.8580     1.4990 H     1 <1>   0.0800 
 33 H       -0.8590    -2.1460     0.0670 H     1 <1>   0.0800 
 34 H       -3.1000     2.8900    -0.6440 H     1 <1>   0.0800 
 35 H       -3.9300     1.7830    -1.7050 H     1 <1>   0.0800 
 36 H        4.2180    -2.4300    -1.3870 H     1 <1>   0.1500 
 37 H        7.7630    -0.7080    -2.1190 H     1 <1>   0.0800 
 38 H        7.6390     0.3000    -0.6760 H     1 <1>   0.0800 
 39 H        6.9830     0.8720    -2.2110 H     1 <1>   0.0800 
@<TRIPOS>BOND
  1   1   2  2   
  2   1   3  2   
  3   1   4  am  
  4   1   5  1   
  5   4   6  1   
  6   4   7  1   
  7   5   8  ar  
  8   5   9  ar  
  9   6  10  1   
 10   6  21  1   
 11   6  22  1   
 12   7  11  1   
 13   7  23  1   
 14   7  24  1   
 15   8  12  ar  
 16   8  13  1   
 17   9  14  ar  
 18   9  25  1   
 19  10  15  1   
 20  10  26  1   
 21  10  27  1   
 22  11  15  1   
 23  11  28  1   
 24  11  29  1   
 25  12  16  ar  
 26  12  30  1   
 27  13  31  1   
 28  13  32  1   
 29  13  33  1   
 30  14  16  ar  
 31  14  17  1   
 32  15  34  1   
 33  15  35  1   
 34  16  36  1   
 35  17  18  2   
 36  17  19  1   
 37  19  20  1   
 38  20  37  1   
 39  20  38  1   
 40  20  39  1   
@<TRIPOS>SUBSTRUCTURE
  1 ****   5 GROUP 4 **** **** 0

# MOE 2024.06 (io_trps.svl 2023.06)
