@<TRIPOS>MOLECULE
NONAME
51 54 1 0 0 
SMALL
USER_CHARGES


@<TRIPOS>ATOM
  1 S        0.5870     0.6700     1.3050 S.3   1 <1>  -0.3320 
  2 C        1.5140     2.0240     0.5950 C.ar  1 <1>   0.7220 
  3 C       -1.0740     1.3560     1.7430 C.3   1 <1>   0.0700 
  4 N        0.9080     3.2180     0.5580 N.ar  1 <1>  -0.3100 
  5 N        2.7180     1.7140     0.1780 N.ar  1 <1>  -0.6200 
  6 C       -1.9460     1.3650     0.4850 C.3   1 <1>  -0.1600 
  7 N        1.5400     4.2450     0.0530 N.ar  1 <1>  -0.3100 
  8 C        3.3370     2.7600    -0.3280 C.ar  1 <1>   0.3930 
  9 C       -3.3470     1.9070     0.7890 C.3   1 <1>  -0.1600 
 10 C        2.7760     4.0350    -0.4030 C.ar  1 <1>   0.3100 
 11 O        4.5610     2.5380    -0.8100 O.3   1 <1>  -0.3620 
 12 C       -4.2210     1.9100    -0.4680 C.3   1 <1>  -0.2400 
 13 C        3.5300     5.1300    -0.9640 C.ar  1 <1>   0.0000 
 14 C        5.6590     2.9750    -0.0400 C.3   1 <1>   0.6800 
 15 C        4.8860     5.2860    -0.6410 C.ar  1 <1>   0.1170 
 16 C        2.9430     6.0430    -1.8390 C.ar  1 <1>  -0.1500 
 17 N        5.5060     4.4270     0.2870 N.am  1 <1>  -0.4770 
 18 C        6.9450     2.6990    -0.8180 C.2   1 <1>  -0.0400 
 19 C        5.6130     6.3210    -1.2200 C.ar  1 <1>  -0.1500 
 20 C        3.6740     7.0710    -2.4000 C.ar  1 <1>  -0.1500 
 21 C        5.9140     4.8090     1.5380 C.2   1 <1>   0.5690 
 22 O        7.1830     1.4640    -1.2280 O.3   1 <1>  -0.2800 
 23 C        7.9640     3.5100    -1.1880 C.2   1 <1>  -0.1500 
 24 C        5.0160     7.2080    -2.0930 C.ar  1 <1>  -0.1500 
 25 O        6.4740     4.0510     2.2890 O.2   1 <1>  -0.5700 
 26 C        5.6500     6.2150     2.0300 C.3   1 <1>  -0.1790 
 27 C        8.3350     1.4610    -1.8650 C.2   1 <1>  -0.0400 
 28 C        8.8730     2.6970    -1.8760 C.2   1 <1>  -0.1500 
 29 C        8.8370     0.1560    -2.4420 C.3   1 <1>  -0.0600 
 30 H       -0.9340     2.3430     2.1500 H     1 <1>   0.0800 
 31 H       -1.4870     0.7090     2.4970 H     1 <1>   0.0800 
 32 H       -2.0230     0.3610     0.1030 H     1 <1>   0.0800 
 33 H       -1.4830     1.9780    -0.2690 H     1 <1>   0.0800 
 34 H       -3.2710     2.9120     1.1690 H     1 <1>   0.0800 
 35 H       -3.8160     1.2980     1.5440 H     1 <1>   0.0800 
 36 H       -3.7820     2.5310    -1.2290 H     1 <1>   0.0800 
 37 H       -5.1990     2.2930    -0.2370 H     1 <1>   0.0800 
 38 H       -4.3280     0.9120    -0.8550 H     1 <1>   0.0800 
 39 H        5.6620     2.3820     0.8600 H     1 <1>   0.0800 
 40 H        1.8990     5.9420    -2.0870 H     1 <1>   0.1500 
 41 H        6.6550     6.4370    -0.9820 H     1 <1>   0.1500 
 42 H        3.2040     7.7640    -3.0780 H     1 <1>   0.1500 
 43 H        8.0930     4.5600    -1.0080 H     1 <1>   0.1500 
 44 H        5.5900     8.0060    -2.5350 H     1 <1>   0.1500 
 45 H        4.6270     6.4880     1.8490 H     1 <1>   0.0800 
 46 H        6.3020     6.9060     1.5300 H     1 <1>   0.0800 
 47 H        5.8360     6.2700     3.0870 H     1 <1>   0.0800 
 48 H        9.8000     3.0260    -2.3110 H     1 <1>   0.1500 
 49 H        8.1250    -0.2210    -3.1530 H     1 <1>   0.0800 
 50 H        8.9590    -0.5650    -1.6540 H     1 <1>   0.0800 
 51 H        9.7810     0.3040    -2.9320 H     1 <1>   0.0800 
@<TRIPOS>BOND
  1   1   2  1   
  2   1   3  1   
  3   2   4  ar  
  4   2   5  ar  
  5   3   6  1   
  6   3  30  1   
  7   3  31  1   
  8   4   7  ar  
  9   5   8  ar  
 10   6   9  1   
 11   6  32  1   
 12   6  33  1   
 13   7  10  ar  
 14   8  10  ar  
 15   8  11  1   
 16   9  12  1   
 17   9  34  1   
 18   9  35  1   
 19  10  13  1   
 20  11  14  1   
 21  12  36  1   
 22  12  37  1   
 23  12  38  1   
 24  13  15  ar  
 25  13  16  ar  
 26  14  17  1   
 27  14  18  1   
 28  14  39  1   
 29  15  17  1   
 30  15  19  ar  
 31  16  20  ar  
 32  16  40  1   
 33  17  21  am  
 34  18  22  1   
 35  18  23  2   
 36  19  24  ar  
 37  19  41  1   
 38  20  24  ar  
 39  20  42  1   
 40  21  25  2   
 41  21  26  1   
 42  22  27  1   
 43  23  28  1   
 44  23  43  1   
 45  24  44  1   
 46  26  45  1   
 47  26  46  1   
 48  26  47  1   
 49  27  28  2   
 50  27  29  1   
 51  28  48  1   
 52  29  49  1   
 53  29  50  1   
 54  29  51  1   
@<TRIPOS>SUBSTRUCTURE
  1 ****   8 GROUP 4 **** **** 0

# MOE 2024.06 (io_trps.svl 2023.06)
