@<TRIPOS>MOLECULE
NONAME
36 36 1 0 0 
SMALL
USER_CHARGES


@<TRIPOS>ATOM
  1 O        0.8450    -0.1640    -1.3530 O.2   1 <1>  -0.5700 
  2 C        0.6840    -1.2390    -0.8500 C.2   1 <1>   0.4480 
  3 C        1.8410    -1.9180    -0.0650 C.3   1 <1>   0.0610 
  4 C       -0.6670    -1.9150    -1.0390 C.3   1 <1>  -0.0990 
  5 C        3.1650    -1.7250    -0.8320 C.3   1 <1>  -0.2400 
  6 C        1.9970    -1.2490     1.3120 C.3   1 <1>  -0.2400 
  7 C        1.6640    -3.4360     0.1440 C.3   1 <1>  -0.2400 
  8 C       -1.7040    -1.5910     0.0430 C.3   1 <1>   0.4240 
  9 O       -1.2850    -2.1380     1.2320 O.3   1 <1>  -0.6800 
 10 C       -3.0440    -2.2590    -0.3160 C.ar  1 <1>  -0.1440 
 11 C       -1.8320    -0.0890     0.3230 C.3   1 <1>  -0.2400 
 12 C       -4.0790    -1.5500    -0.9210 C.ar  1 <1>  -0.1500 
 13 C       -3.2430    -3.6130    -0.0620 C.ar  1 <1>  -0.1500 
 14 C       -5.2740    -2.1700    -1.2440 C.ar  1 <1>  -0.1500 
 15 C       -4.4370    -4.2350    -0.3830 C.ar  1 <1>  -0.1500 
 16 C       -5.4560    -3.5120    -0.9730 C.ar  1 <1>  -0.1500 
 17 H       -0.5670    -2.9760    -1.1450 H     1 <1>   0.0800 
 18 H       -1.0630    -1.5610    -1.9720 H     1 <1>   0.0800 
 19 H        3.3820    -0.6770    -0.9500 H     1 <1>   0.0800 
 20 H        3.0960    -2.1620    -1.8120 H     1 <1>   0.0800 
 21 H        3.9860    -2.1810    -0.3090 H     1 <1>   0.0800 
 22 H        2.8370    -1.6580     1.8440 H     1 <1>   0.0800 
 23 H        1.1150    -1.3960     1.9080 H     1 <1>   0.0800 
 24 H        2.1490    -0.1910     1.1940 H     1 <1>   0.0800 
 25 H        2.5130    -3.8460     0.6630 H     1 <1>   0.0800 
 26 H        1.5740    -3.9420    -0.8000 H     1 <1>   0.0800 
 27 H        0.7910    -3.6450     0.7350 H     1 <1>   0.0800 
 28 H       -2.0380    -2.1050     1.8510 H     1 <1>   0.4000 
 29 H       -0.9300     0.2950     0.7640 H     1 <1>   0.0800 
 30 H       -2.6540     0.1020     0.9890 H     1 <1>   0.0800 
 31 H       -1.9990     0.4470    -0.5930 H     1 <1>   0.0800 
 32 H       -3.9750    -0.5070    -1.1570 H     1 <1>   0.1500 
 33 H       -2.4620    -4.2020     0.3890 H     1 <1>   0.1500 
 34 H       -6.0640    -1.6050    -1.7080 H     1 <1>   0.1500 
 35 H       -4.5710    -5.2820    -0.1750 H     1 <1>   0.1500 
 36 H       -6.3860    -3.9940    -1.2230 H     1 <1>   0.1500 
@<TRIPOS>BOND
  1   1   2  2   
  2   2   3  1   
  3   2   4  1   
  4   3   5  1   
  5   3   6  1   
  6   3   7  1   
  7   4   8  1   
  8   4  17  1   
  9   4  18  1   
 10   5  19  1   
 11   5  20  1   
 12   5  21  1   
 13   6  22  1   
 14   6  23  1   
 15   6  24  1   
 16   7  25  1   
 17   7  26  1   
 18   7  27  1   
 19   8   9  1   
 20   8  10  1   
 21   8  11  1   
 22   9  28  1   
 23  10  12  ar  
 24  10  13  ar  
 25  11  29  1   
 26  11  30  1   
 27  11  31  1   
 28  12  14  ar  
 29  12  32  1   
 30  13  15  ar  
 31  13  33  1   
 32  14  16  ar  
 33  14  34  1   
 34  15  16  ar  
 35  15  35  1   
 36  16  36  1   
@<TRIPOS>SUBSTRUCTURE
  1 ****   8 GROUP 4 **** **** 0

# MOE 2024.06 (io_trps.svl 2023.06)
