@<TRIPOS>MOLECULE
NONAME
43 43 1 0 0 
SMALL
USER_CHARGES


@<TRIPOS>ATOM
  1 S        0.0350    -0.6020     0.7430 S.o2  1 <1>   1.4470 
  2 O       -0.0170    -0.8840     2.1580 O.2   1 <1>  -0.6500 
  3 O        0.2890    -1.6600    -0.2080 O.2   1 <1>  -0.6500 
  4 N        1.2960     0.4950     0.6150 N.am  1 <1>  -0.9140 
  5 C       -1.4080     0.3700     0.2320 C.ar  1 <1>  -0.0090 
  6 C        2.6000    -0.1540     0.5310 C.3   1 <1>   0.1960 
  7 C       -2.4830     0.5790     1.0910 C.ar  1 <1>  -0.1500 
  8 C       -1.4720     0.9360    -1.0360 C.ar  1 <1>  -0.1500 
  9 C        3.6980     0.9050     0.4490 C.3   1 <1>   0.0700 
 10 C       -3.5820     1.3270     0.7040 C.ar  1 <1>  -0.1500 
 11 C       -2.5660     1.6850    -1.4330 C.ar  1 <1>  -0.1500 
 12 S        5.3010     0.0490     0.4240 S.3   1 <1>  -0.4600 
 13 C       -3.6270     1.8880    -0.5680 C.ar  1 <1>   0.0830 
 14 C        6.5650     1.3310     0.1860 C.3   1 <1>   0.2300 
 15 O       -4.6590     2.6350    -1.0310 O.3   1 <1>  -0.3630 
 16 C        6.3580     1.9600    -1.1930 C.3   1 <1>  -0.2400 
 17 C        6.4400     2.3560     1.3140 C.3   1 <1>  -0.2400 
 18 C        7.9060     0.6030     0.2570 C.3   1 <1>  -0.2400 
 19 C       -5.7940     2.8950    -0.2390 C.3   1 <1>   0.1200 
 20 C       -6.7550     3.7510    -1.0570 C.3   1 <1>  -0.2400 
 21 H        1.2630     0.9810     1.5090 H     1 <1>   0.4200 
 22 H        2.6460    -0.7720    -0.3510 H     1 <1>   0.0800 
 23 H        2.7580    -0.7770     1.3960 H     1 <1>   0.0800 
 24 H       -2.4600     0.1490     2.0780 H     1 <1>   0.1500 
 25 H       -0.6540     0.7860    -1.7210 H     1 <1>   0.1500 
 26 H        3.6880     1.5440     1.3110 H     1 <1>   0.0800 
 27 H        3.6120     1.4730    -0.4580 H     1 <1>   0.0800 
 28 H       -4.3870     1.4610     1.4010 H     1 <1>   0.1500 
 29 H       -2.6030     2.1180    -2.4170 H     1 <1>   0.1500 
 30 H        5.4350     2.5050    -1.2360 H     1 <1>   0.0800 
 31 H        6.3490     1.1970    -1.9510 H     1 <1>   0.0800 
 32 H        7.1590     2.6430    -1.4080 H     1 <1>   0.0800 
 33 H        5.5220     2.9070     1.2370 H     1 <1>   0.0800 
 34 H        7.2530     3.0570     1.2630 H     1 <1>   0.0800 
 35 H        6.4750     1.8630     2.2700 H     1 <1>   0.0800 
 36 H        7.9630    -0.1480    -0.5100 H     1 <1>   0.0800 
 37 H        8.0200     0.1250     1.2140 H     1 <1>   0.0800 
 38 H        8.7170     1.2950     0.1210 H     1 <1>   0.0800 
 39 H       -5.4780     3.4190     0.6470 H     1 <1>   0.0800 
 40 H       -6.2490     1.9560     0.0230 H     1 <1>   0.0800 
 41 H       -6.2850     4.6800    -1.3270 H     1 <1>   0.0800 
 42 H       -7.6350     3.9680    -0.4780 H     1 <1>   0.0800 
 43 H       -7.0510     3.2260    -1.9480 H     1 <1>   0.0800 
@<TRIPOS>BOND
  1   1   2  2   
  2   1   3  2   
  3   1   4  am  
  4   1   5  1   
  5   4   6  1   
  6   4  21  1   
  7   5   7  ar  
  8   5   8  ar  
  9   6   9  1   
 10   6  22  1   
 11   6  23  1   
 12   7  10  ar  
 13   7  24  1   
 14   8  11  ar  
 15   8  25  1   
 16   9  12  1   
 17   9  26  1   
 18   9  27  1   
 19  10  13  ar  
 20  10  28  1   
 21  11  13  ar  
 22  11  29  1   
 23  12  14  1   
 24  13  15  1   
 25  14  16  1   
 26  14  17  1   
 27  14  18  1   
 28  15  19  1   
 29  16  30  1   
 30  16  31  1   
 31  16  32  1   
 32  17  33  1   
 33  17  34  1   
 34  17  35  1   
 35  18  36  1   
 36  18  37  1   
 37  18  38  1   
 38  19  20  1   
 39  19  39  1   
 40  19  40  1   
 41  20  41  1   
 42  20  42  1   
 43  20  43  1   
@<TRIPOS>SUBSTRUCTURE
  1 ****   4 GROUP 4 **** **** 0

# MOE 2024.06 (io_trps.svl 2023.06)
