@<TRIPOS>MOLECULE
NONAME
50 52 1 0 0 
SMALL
USER_CHARGES


@<TRIPOS>ATOM
  1 O       -0.5340     2.2570    -1.1140 O.2   1 <1>  -0.5700 
  2 C       -0.1880     2.8900    -0.1340 C.2   1 <1>   0.6900 
  3 N       -1.0180     3.8610     0.3400 N.am  1 <1>  -0.6600 
  4 N        0.9500     2.6230     0.5550 N.am  1 <1>  -0.5470 
  5 C       -1.6200     4.7860    -0.6640 C.3   1 <1>   0.1400 
  6 C       -1.9990     3.4240     1.3700 C.3   1 <1>   0.1400 
  7 C        1.8320     1.5480     0.4000 C.ar  1 <1>   0.1170 
  8 C       -2.8350     4.1270    -1.3530 C.3   1 <1>   0.3430 
  9 C       -3.1970     2.7310     0.6890 C.3   1 <1>   0.3430 
 10 C        2.5960     1.3500    -0.7530 C.ar  1 <1>  -0.1440 
 11 C        1.9610     0.6520     1.4540 C.ar  1 <1>  -0.1500 
 12 N       -3.8430     3.6000    -0.3640 N.4   1 <1>  -0.9590 
 13 C        3.4440     0.2560    -0.8310 C.ar  1 <1>  -0.1500 
 14 C        2.5360     2.3050    -1.9380 C.3   1 <1>  -0.0970 
 15 C        2.8130    -0.4320     1.3680 C.ar  1 <1>  -0.1500 
 16 C       -4.9260     2.8590    -1.0630 C.3   1 <1>   0.4860 
 17 C        3.5580    -0.6390     0.2200 C.ar  1 <1>  -0.1440 
 18 C       -5.9970     2.5040    -0.0520 C.ar  1 <1>  -0.1440 
 19 C        4.4940    -1.8290     0.1110 C.3   1 <1>  -0.0970 
 20 C       -6.1100     1.2010     0.4140 C.ar  1 <1>  -0.1500 
 21 C       -6.8660     3.4770     0.4220 C.ar  1 <1>  -0.1500 
 22 C       -7.0730     0.8790     1.3540 C.ar  1 <1>  -0.1500 
 23 C       -7.8280     3.1520     1.3630 C.ar  1 <1>  -0.1500 
 24 C       -7.9300     1.8540     1.8300 C.ar  1 <1>  -0.1500 
 25 H        1.1190     3.2310     1.3510 H     1 <1>   0.3700 
 26 H       -0.8810     5.0300    -1.4090 H     1 <1>   0.0800 
 27 H       -1.9150     5.7020    -0.1820 H     1 <1>   0.0800 
 28 H       -2.3330     4.2730     1.9420 H     1 <1>   0.0800 
 29 H       -1.5280     2.7320     2.0480 H     1 <1>   0.0800 
 30 H       -2.4690     3.3140    -1.9590 H     1 <1>   0.0800 
 31 H       -3.3000     4.8430    -2.0100 H     1 <1>   0.0800 
 32 H       -3.9230     2.4620     1.4400 H     1 <1>   0.0800 
 33 H       -2.8410     1.8200     0.2330 H     1 <1>   0.0800 
 34 H        1.3870     0.7990     2.3490 H     1 <1>   0.1500 
 35 H       -4.2860     4.3880     0.1220 H     1 <1>   0.4500 
 36 H        4.0260     0.0970    -1.7210 H     1 <1>   0.1500 
 37 H        2.4530     3.3220    -1.6010 H     1 <1>   0.0800 
 38 H        1.6860     2.0680    -2.5520 H     1 <1>   0.0800 
 39 H        3.4240     2.2250    -2.5380 H     1 <1>   0.0800 
 40 H        2.8940    -1.1150     2.1950 H     1 <1>   0.1500 
 41 H       -4.5320     1.9620    -1.5150 H     1 <1>   0.0800 
 42 H       -5.3580     3.4700    -1.8390 H     1 <1>   0.0800 
 43 H        4.1790    -2.6190     0.7690 H     1 <1>   0.0800 
 44 H        5.4920    -1.5310     0.3770 H     1 <1>   0.0800 
 45 H        4.4990    -2.2070    -0.8950 H     1 <1>   0.0800 
 46 H       -5.4590     0.4220     0.0530 H     1 <1>   0.1500 
 47 H       -6.8150     4.4920     0.0680 H     1 <1>   0.1500 
 48 H       -7.1620    -0.1320     1.7160 H     1 <1>   0.1500 
 49 H       -8.5040     3.9050     1.7310 H     1 <1>   0.1500 
 50 H       -8.6800     1.6020     2.5610 H     1 <1>   0.1500 
@<TRIPOS>BOND
  1   1   2  2   
  2   2   3  am  
  3   2   4  am  
  4   3   5  1   
  5   3   6  1   
  6   4   7  1   
  7   4  25  1   
  8   5   8  1   
  9   5  26  1   
 10   5  27  1   
 11   6   9  1   
 12   6  28  1   
 13   6  29  1   
 14   7  10  ar  
 15   7  11  ar  
 16   8  12  1   
 17   8  30  1   
 18   8  31  1   
 19   9  12  1   
 20   9  32  1   
 21   9  33  1   
 22  10  13  ar  
 23  10  14  1   
 24  11  15  ar  
 25  11  34  1   
 26  12  16  1   
 27  12  35  1   
 28  13  17  ar  
 29  13  36  1   
 30  14  37  1   
 31  14  38  1   
 32  14  39  1   
 33  15  17  ar  
 34  15  40  1   
 35  16  18  1   
 36  16  41  1   
 37  16  42  1   
 38  17  19  1   
 39  18  20  ar  
 40  18  21  ar  
 41  19  43  1   
 42  19  44  1   
 43  19  45  1   
 44  20  22  ar  
 45  20  46  1   
 46  21  23  ar  
 47  21  47  1   
 48  22  24  ar  
 49  22  48  1   
 50  23  24  ar  
 51  23  49  1   
 52  24  50  1   
@<TRIPOS>SUBSTRUCTURE
  1 ****   2 GROUP 4 **** **** 0

# MOE 2024.06 (io_trps.svl 2023.06)
