@<TRIPOS>MOLECULE
NONAME
48 50 1 0 0 
SMALL
USER_CHARGES


@<TRIPOS>ATOM
  1 CL       1.7480     1.0460     2.4650 Cl    1 <1>  -0.1770 
  2 C        2.5630     1.2210     0.9320 C.ar  1 <1>   0.1770 
  3 C        3.6820     0.4540     0.6770 C.ar  1 <1>  -0.1500 
  4 C        2.0780     2.1250     0.0060 C.ar  1 <1>  -0.1500 
  5 C        4.3480     0.5840    -0.5370 C.ar  1 <1>   0.1000 
  6 C        2.7330     2.2580    -1.2070 C.ar  1 <1>  -0.1500 
  7 N        5.4880    -0.1600    -0.8330 N.pl3 1 <1>  -0.8380 
  8 C        3.8560     1.4920    -1.4700 C.ar  1 <1>  -0.1500 
  9 C        6.7950     0.5590    -0.9450 C.3   1 <1>   0.2090 
 10 C        5.5630    -1.6160    -0.4980 C.3   1 <1>   0.2090 
 11 C        7.7030     0.2660     0.2670 C.3   1 <1>   0.3430 
 12 C        6.5030    -1.8800     0.6990 C.3   1 <1>   0.3430 
 13 N        7.8410    -1.2110     0.5420 N.4   1 <1>  -0.9590 
 14 C        8.7580    -1.4890     1.6730 C.3   1 <1>   0.4860 
 15 C       10.1450    -1.0110     1.2920 C.ar  1 <1>  -0.1430 
 16 C       10.7990    -1.5570     0.1900 C.ar  1 <1>   0.0830 
 17 C       10.7650    -0.0250     2.0440 C.ar  1 <1>  -0.1500 
 18 O       10.1370    -2.5150    -0.5170 O.3   1 <1>  -0.3630 
 19 C       12.0720    -1.1100    -0.1510 C.ar  1 <1>  -0.1500 
 20 C       12.0290     0.4160     1.6990 C.ar  1 <1>  -0.1500 
 21 C       10.8070    -3.3030    -1.4820 C.3   1 <1>   0.0400 
 22 C       12.6880    -0.1200     0.6060 C.ar  1 <1>   0.0830 
 23 O       13.9230     0.3750     0.3460 O.3   1 <1>  -0.3620 
 24 C       14.7310    -0.1430    -0.6870 C.3   1 <1>   0.0400 
 25 H        4.0230    -0.2290     1.4260 H     1 <1>   0.1500 
 26 H        1.2030     2.7090     0.2310 H     1 <1>   0.1500 
 27 H        2.3680     2.9530    -1.9430 H     1 <1>   0.1500 
 28 H        4.3580     1.5890    -2.4160 H     1 <1>   0.1500 
 29 H        6.6230     1.6200    -1.0080 H     1 <1>   0.0800 
 30 H        7.2900     0.2540    -1.8510 H     1 <1>   0.0800 
 31 H        5.9190    -2.1530    -1.3600 H     1 <1>   0.0800 
 32 H        4.5770    -1.9880    -0.2740 H     1 <1>   0.0800 
 33 H        7.2780     0.7540     1.1280 H     1 <1>   0.0800 
 34 H        8.6740     0.6990     0.0880 H     1 <1>   0.0800 
 35 H        6.6360    -2.9430     0.8100 H     1 <1>   0.0800 
 36 H        6.0220    -1.5120     1.5890 H     1 <1>   0.0800 
 37 H        8.3250    -1.6260    -0.2730 H     1 <1>   0.4500 
 38 H        8.7970    -2.5500     1.8640 H     1 <1>   0.0800 
 39 H        8.4200    -0.9880     2.5650 H     1 <1>   0.0800 
 40 H       10.2830     0.4090     2.9050 H     1 <1>   0.1500 
 41 H       12.5830    -1.5190    -0.9980 H     1 <1>   0.1500 
 42 H       12.5200     1.1800     2.2780 H     1 <1>   0.1500 
 43 H       11.1040    -2.6770    -2.3050 H     1 <1>   0.0800 
 44 H       10.1290    -4.0620    -1.8310 H     1 <1>   0.0800 
 45 H       11.6640    -3.7660    -1.0250 H     1 <1>   0.0800 
 46 H       15.6670     0.3860    -0.6750 H     1 <1>   0.0800 
 47 H       14.2380     0.0120    -1.6300 H     1 <1>   0.0800 
 48 H       14.9030    -1.1900    -0.5060 H     1 <1>   0.0800 
@<TRIPOS>BOND
  1   1   2  1   
  2   2   3  ar  
  3   2   4  ar  
  4   3   5  ar  
  5   3  25  1   
  6   4   6  ar  
  7   4  26  1   
  8   5   7  1   
  9   5   8  ar  
 10   6   8  ar  
 11   6  27  1   
 12   7   9  1   
 13   7  10  1   
 14   8  28  1   
 15   9  11  1   
 16   9  29  1   
 17   9  30  1   
 18  10  12  1   
 19  10  31  1   
 20  10  32  1   
 21  11  13  1   
 22  11  33  1   
 23  11  34  1   
 24  12  13  1   
 25  12  35  1   
 26  12  36  1   
 27  13  14  1   
 28  13  37  1   
 29  14  15  1   
 30  14  38  1   
 31  14  39  1   
 32  15  16  ar  
 33  15  17  ar  
 34  16  18  1   
 35  16  19  ar  
 36  17  20  ar  
 37  17  40  1   
 38  18  21  1   
 39  19  22  ar  
 40  19  41  1   
 41  20  22  ar  
 42  20  42  1   
 43  21  43  1   
 44  21  44  1   
 45  21  45  1   
 46  22  23  1   
 47  23  24  1   
 48  24  46  1   
 49  24  47  1   
 50  24  48  1   
@<TRIPOS>SUBSTRUCTURE
  1 ****  11 GROUP 4 **** **** 0

# MOE 2024.06 (io_trps.svl 2023.06)
