@<TRIPOS>MOLECULE
NONAME
40 42 1 0 0 
SMALL
USER_CHARGES


@<TRIPOS>ATOM
  1 BR      -0.0890     0.8900    -1.1080 Br    1 <1>  -0.1110 
  2 C       -1.8420     1.3470    -0.4580 C.ar  1 <1>   0.1110 
  3 C       -2.8460     0.4040    -0.5350 C.ar  1 <1>  -0.1500 
  4 C       -2.0440     2.6090     0.0670 C.ar  1 <1>  -0.1500 
  5 C       -4.1170     0.7220    -0.0670 C.ar  1 <1>   0.1170 
  6 C       -3.3070     2.9300     0.5330 C.ar  1 <1>  -0.1500 
  7 N       -5.1720    -0.2180    -0.1290 N.am  1 <1>  -0.2370 
  8 C       -4.3280     1.9950     0.4650 C.ar  1 <1>  -0.1500 
  9 C       -6.0600    -0.4770     0.8820 C.2   1 <1>   0.5690 
 10 C       -5.4630    -1.0170    -1.2030 C.2   1 <1>   0.5690 
 11 O       -5.9820    -0.0540     2.0100 O.2   1 <1>  -0.5700 
 12 C       -7.1560    -1.4430     0.4150 C.3   1 <1>   0.2510 
 13 O       -4.8950    -1.0270    -2.2640 O.2   1 <1>  -0.5700 
 14 C       -6.6170    -1.9460    -0.9270 C.3   1 <1>  -0.0990 
 15 N       -8.4760    -0.7980     0.2180 N.3   1 <1>  -0.9000 
 16 C       -9.5950    -1.7210     0.0740 C.3   1 <1>   0.1900 
 17 C      -10.7310    -0.9730    -0.6310 C.3   1 <1>  -0.1600 
 18 C      -10.0430    -2.2080     1.4580 C.3   1 <1>  -0.1600 
 19 C      -11.9920    -1.8430    -0.7380 C.3   1 <1>  -0.1600 
 20 C      -11.3050    -3.0790     1.3640 C.3   1 <1>  -0.1600 
 21 C      -12.4390    -2.3380     0.6440 C.3   1 <1>  -0.1600 
 22 H       -2.6370    -0.5620    -0.9570 H     1 <1>   0.1500 
 23 H       -1.2370     3.3170     0.1090 H     1 <1>   0.1500 
 24 H       -3.4960     3.9040     0.9510 H     1 <1>   0.1500 
 25 H       -5.3030     2.2580     0.8380 H     1 <1>   0.1500 
 26 H       -7.2320    -2.2440     1.1290 H     1 <1>   0.0800 
 27 H       -6.2400    -2.9480    -0.8320 H     1 <1>   0.0800 
 28 H       -7.3380    -1.8990    -1.7220 H     1 <1>   0.0800 
 29 H       -8.4490    -0.1770    -0.5990 H     1 <1>   0.3600 
 30 H       -9.3120    -2.5660    -0.5330 H     1 <1>   0.0800 
 31 H      -10.4180    -0.6850    -1.6190 H     1 <1>   0.0800 
 32 H      -10.9680    -0.0830    -0.0740 H     1 <1>   0.0800 
 33 H      -10.2500    -1.3550     2.0800 H     1 <1>   0.0800 
 34 H       -9.2620    -2.7810     1.9220 H     1 <1>   0.0800 
 35 H      -11.7920    -2.6890    -1.3720 H     1 <1>   0.0800 
 36 H      -12.7860    -1.2730    -1.1890 H     1 <1>   0.0800 
 37 H      -11.6270    -3.3530     2.3540 H     1 <1>   0.0800 
 38 H      -11.0760    -3.9850     0.8290 H     1 <1>   0.0800 
 39 H      -13.2880    -2.9910     0.5370 H     1 <1>   0.0800 
 40 H      -12.7460    -1.4950     1.2410 H     1 <1>   0.0800 
@<TRIPOS>BOND
  1   1   2  1   
  2   2   3  ar  
  3   2   4  ar  
  4   3   5  ar  
  5   3  22  1   
  6   4   6  ar  
  7   4  23  1   
  8   5   7  1   
  9   5   8  ar  
 10   6   8  ar  
 11   6  24  1   
 12   7   9  am  
 13   7  10  am  
 14   8  25  1   
 15   9  11  2   
 16   9  12  1   
 17  10  13  2   
 18  10  14  1   
 19  12  14  1   
 20  12  15  1   
 21  12  26  1   
 22  14  27  1   
 23  14  28  1   
 24  15  16  1   
 25  15  29  1   
 26  16  17  1   
 27  16  18  1   
 28  16  30  1   
 29  17  19  1   
 30  17  31  1   
 31  17  32  1   
 32  18  20  1   
 33  18  33  1   
 34  18  34  1   
 35  19  21  1   
 36  19  35  1   
 37  19  36  1   
 38  20  21  1   
 39  20  37  1   
 40  20  38  1   
 41  21  39  1   
 42  21  40  1   
@<TRIPOS>SUBSTRUCTURE
  1 ****   9 GROUP 4 **** **** 0

# MOE 2024.06 (io_trps.svl 2023.06)
