@<TRIPOS>MOLECULE
NONAME
54 57 1 0 0 
SMALL
USER_CHARGES


@<TRIPOS>ATOM
  1 O        1.1090    -0.7180     0.4360 O.2   1 <1>  -0.5700 
  2 C        0.9090    -1.8650     0.1300 C.2   1 <1>   0.4230 
  3 C        1.9680    -2.7870    -0.1610 C.ar  1 <1>   0.0860 
  4 C       -0.5290    -2.3400     0.0440 C.3   1 <1>  -0.0990 
  5 C        1.7360    -4.1150    -0.4920 C.ar  1 <1>   0.1660 
  6 C        3.3010    -2.4100    -0.1300 C.ar  1 <1>   0.1600 
  7 C       -0.6410    -3.8450     0.3310 C.3   1 <1>   0.0640 
  8 N        2.7060    -4.9520    -0.7620 N.ar  1 <1>  -0.6200 
  9 C        0.3150    -4.6540    -0.5600 C.3   1 <1>  -0.0160 
 10 N        4.2950    -3.2270    -0.3930 N.ar  1 <1>  -0.6200 
 11 C       -2.0800    -4.3340     0.1850 C.ar  1 <1>  -0.1430 
 12 C        3.9340    -4.4700    -0.7010 C.ar  1 <1>   0.7200 
 13 C       -2.7340    -4.8830     1.2780 C.ar  1 <1>  -0.1500 
 14 C       -2.7570    -4.2450    -1.0230 C.ar  1 <1>  -0.1500 
 15 N        4.9000    -5.3630    -0.9840 N.pl3 1 <1>  -0.8690 
 16 C       -4.0380    -5.3340     1.1660 C.ar  1 <1>  -0.1500 
 17 C       -4.0610    -4.6950    -1.1350 C.ar  1 <1>  -0.1500 
 18 C        6.3180    -5.0640    -1.2820 C.3   1 <1>   0.2090 
 19 C       -4.7090    -5.2440    -0.0420 C.ar  1 <1>  -0.1430 
 20 C        7.0840    -4.7630     0.0240 C.3   1 <1>   0.3430 
 21 C       -6.1400    -5.7370    -0.1640 C.3   1 <1>  -0.0970 
 22 N        7.9820    -3.5590    -0.0610 N.4   1 <1>  -0.9590 
 23 C        8.8830    -3.4830     1.1410 C.3   1 <1>   0.3430 
 24 C        7.1730    -2.2900    -0.1630 C.3   1 <1>   0.3430 
 25 C        9.7150    -2.1860     1.1400 C.3   1 <1>   0.1200 
 26 C        8.0660    -1.0370    -0.1000 C.3   1 <1>   0.1200 
 27 O        8.8770    -1.0710     1.0400 O.3   1 <1>  -0.5600 
 28 H       -0.9010    -2.1130    -0.9380 H     1 <1>   0.0800 
 29 H       -1.1250    -1.7970     0.7560 H     1 <1>   0.0800 
 30 H        3.5320    -1.3880     0.1250 H     1 <1>   0.1500 
 31 H       -0.3320    -4.0000     1.3510 H     1 <1>   0.0800 
 32 H        0.3030    -5.6820    -0.2420 H     1 <1>   0.0800 
 33 H       -0.0110    -4.6260    -1.5840 H     1 <1>   0.0800 
 34 H       -2.2370    -4.9670     2.2280 H     1 <1>   0.1500 
 35 H       -2.2810    -3.8240    -1.8910 H     1 <1>   0.1500 
 36 H        4.5270    -6.2610    -1.3050 H     1 <1>   0.4000 
 37 H       -4.5290    -5.7550     2.0250 H     1 <1>   0.1500 
 38 H       -4.5720    -4.6160    -2.0790 H     1 <1>   0.1500 
 39 H        6.3580    -4.2250    -1.9550 H     1 <1>   0.0800 
 40 H        6.7610    -5.9140    -1.7720 H     1 <1>   0.0800 
 41 H        7.6650    -5.6320     0.2840 H     1 <1>   0.0800 
 42 H        6.3600    -4.6030     0.8070 H     1 <1>   0.0800 
 43 H       -6.8200    -4.9340     0.0550 H     1 <1>   0.0800 
 44 H       -6.3210    -6.5430     0.5230 H     1 <1>   0.0800 
 45 H       -6.3310    -6.0920    -1.1610 H     1 <1>   0.0800 
 46 H        8.5750    -3.6270    -0.8970 H     1 <1>   0.4500 
 47 H        9.5470    -4.3310     1.1600 H     1 <1>   0.0800 
 48 H        8.2910    -3.5030     2.0420 H     1 <1>   0.0800 
 49 H        6.4660    -2.2450     0.6500 H     1 <1>   0.0800 
 50 H        6.6080    -2.2800    -1.0810 H     1 <1>   0.0800 
 51 H       10.4140    -2.1690     0.3220 H     1 <1>   0.0800 
 52 H       10.2640    -2.0980     2.0620 H     1 <1>   0.0800 
 53 H        7.4570    -0.1520    -0.0400 H     1 <1>   0.0800 
 54 H        8.6950    -0.9620    -0.9700 H     1 <1>   0.0800 
@<TRIPOS>BOND
  1   1   2  2   
  2   2   3  1   
  3   2   4  1   
  4   3   5  ar  
  5   3   6  ar  
  6   4   7  1   
  7   4  28  1   
  8   4  29  1   
  9   5   8  ar  
 10   5   9  1   
 11   6  10  ar  
 12   6  30  1   
 13   7   9  1   
 14   7  11  1   
 15   7  31  1   
 16   8  12  ar  
 17   9  32  1   
 18   9  33  1   
 19  10  12  ar  
 20  11  13  ar  
 21  11  14  ar  
 22  12  15  1   
 23  13  16  ar  
 24  13  34  1   
 25  14  17  ar  
 26  14  35  1   
 27  15  18  1   
 28  15  36  1   
 29  16  19  ar  
 30  16  37  1   
 31  17  19  ar  
 32  17  38  1   
 33  18  20  1   
 34  18  39  1   
 35  18  40  1   
 36  19  21  1   
 37  20  22  1   
 38  20  41  1   
 39  20  42  1   
 40  21  43  1   
 41  21  44  1   
 42  21  45  1   
 43  22  23  1   
 44  22  24  1   
 45  22  46  1   
 46  23  25  1   
 47  23  47  1   
 48  23  48  1   
 49  24  26  1   
 50  24  49  1   
 51  24  50  1   
 52  25  27  1   
 53  25  51  1   
 54  25  52  1   
 55  26  27  1   
 56  26  53  1   
 57  26  54  1   
@<TRIPOS>SUBSTRUCTURE
  1 ****   5 GROUP 4 **** **** 0

# MOE 2024.06 (io_trps.svl 2023.06)
