@<TRIPOS>MOLECULE
NONAME
46 47 1 0 0 
SMALL
USER_CHARGES


@<TRIPOS>ATOM
  1 CL      -1.8810    -2.1470    -3.0860 Cl    1 <1>  -0.1770 
  2 C       -2.9740    -1.7220    -1.7960 C.ar  1 <1>   0.1770 
  3 C       -4.3350    -1.7320    -2.0280 C.ar  1 <1>  -0.1500 
  4 C       -2.4660    -1.3810    -0.5580 C.ar  1 <1>  -0.1500 
  5 C       -5.1980    -1.3900    -0.9990 C.ar  1 <1>  -0.1500 
  6 C       -3.3400    -1.0410     0.4620 C.ar  1 <1>  -0.1500 
  7 C       -4.7180    -1.0370     0.2590 C.ar  1 <1>  -0.0090 
  8 S       -5.8640    -0.5840     1.5930 S.o2  1 <1>   1.4470 
  9 O       -5.1470     0.0080     2.7010 O.2   1 <1>  -0.6500 
 10 O       -6.7690    -1.6860     1.8330 O.2   1 <1>  -0.6500 
 11 N       -6.7910     0.6530     0.9040 N.am  1 <1>  -0.8490 
 12 C       -7.9520     0.9610     1.7860 C.3   1 <1>   0.2570 
 13 C       -6.0130     1.8660     0.6280 C.3   1 <1>   0.1960 
 14 C       -8.9970     1.9200     1.1960 C.2   1 <1>   0.5690 
 15 C       -6.3410     2.3550    -0.7790 C.3   1 <1>  -0.2400 
 16 O       -9.0410     3.0370     1.6620 O.2   1 <1>  -0.5700 
 17 N       -9.8430     1.5250     0.1850 N.am  1 <1>  -0.6600 
 18 C       -9.7740     0.2060    -0.5060 C.3   1 <1>   0.1400 
 19 C      -10.9080     2.4260    -0.3350 C.3   1 <1>   0.1400 
 20 C      -11.1240    -0.5070    -0.3870 C.3   1 <1>  -0.1600 
 21 C      -12.2690     1.7320    -0.2200 C.3   1 <1>  -0.1600 
 22 C      -12.2720     0.3650    -0.9230 C.3   1 <1>  -0.0800 
 23 C      -13.6200    -0.3390    -0.7300 C.3   1 <1>  -0.2400 
 24 H       -4.7100    -2.0030    -2.9990 H     1 <1>   0.1500 
 25 H       -1.4020    -1.3820    -0.3990 H     1 <1>   0.1500 
 26 H       -6.2620    -1.3960    -1.1720 H     1 <1>   0.1500 
 27 H       -2.9460    -0.7750     1.4290 H     1 <1>   0.1500 
 28 H       -7.5950     1.3790     2.7110 H     1 <1>   0.0800 
 29 H       -8.4710     0.0530     2.0340 H     1 <1>   0.0800 
 30 H       -4.9560     1.6610     0.6730 H     1 <1>   0.0800 
 31 H       -6.2220     2.6380     1.3530 H     1 <1>   0.0800 
 32 H       -7.3740     2.6400    -0.8560 H     1 <1>   0.0800 
 33 H       -6.1270     1.5880    -1.5000 H     1 <1>   0.0800 
 34 H       -5.7400     3.2160    -1.0080 H     1 <1>   0.0800 
 35 H       -9.0030    -0.4190    -0.0930 H     1 <1>   0.0800 
 36 H       -9.5410     0.3710    -1.5440 H     1 <1>   0.0800 
 37 H      -10.6980     2.6570    -1.3650 H     1 <1>   0.0800 
 38 H      -10.9290     3.3500     0.2170 H     1 <1>   0.0800 
 39 H      -11.2970    -0.7480     0.6480 H     1 <1>   0.0800 
 40 H      -11.0830    -1.4300    -0.9360 H     1 <1>   0.0800 
 41 H      -13.0210     2.3660    -0.6550 H     1 <1>   0.0800 
 42 H      -12.5040     1.6120     0.8230 H     1 <1>   0.0800 
 43 H      -12.1180     0.5220    -1.9780 H     1 <1>   0.0800 
 44 H      -13.8100    -0.5150     0.3140 H     1 <1>   0.0800 
 45 H      -13.6260    -1.2830    -1.2450 H     1 <1>   0.0800 
 46 H      -14.4160     0.2670    -1.1260 H     1 <1>   0.0800 
@<TRIPOS>BOND
  1   1   2  1   
  2   2   3  ar  
  3   2   4  ar  
  4   3   5  ar  
  5   3  24  1   
  6   4   6  ar  
  7   4  25  1   
  8   5   7  ar  
  9   5  26  1   
 10   6   7  ar  
 11   6  27  1   
 12   7   8  1   
 13   8   9  2   
 14   8  10  2   
 15   8  11  am  
 16  11  12  1   
 17  11  13  1   
 18  12  14  1   
 19  12  28  1   
 20  12  29  1   
 21  13  15  1   
 22  13  30  1   
 23  13  31  1   
 24  14  16  2   
 25  14  17  am  
 26  15  32  1   
 27  15  33  1   
 28  15  34  1   
 29  17  18  1   
 30  17  19  1   
 31  18  20  1   
 32  18  35  1   
 33  18  36  1   
 34  19  21  1   
 35  19  37  1   
 36  19  38  1   
 37  20  22  1   
 38  20  39  1   
 39  20  40  1   
 40  21  22  1   
 41  21  41  1   
 42  21  42  1   
 43  22  23  1   
 44  22  43  1   
 45  23  44  1   
 46  23  45  1   
 47  23  46  1   
@<TRIPOS>SUBSTRUCTURE
  1 ****  11 GROUP 4 **** **** 0

# MOE 2024.06 (io_trps.svl 2023.06)
