@<TRIPOS>MOLECULE
NONAME
39 42 1 0 0 
SMALL
USER_CHARGES


@<TRIPOS>ATOM
  1 S        0.0210    -0.1080    -1.1040 S.3   1 <1>  -0.0800 
  2 C        1.5210     0.7690    -0.8500 C.2   1 <1>   0.1660 
  3 C       -0.9120     1.2750    -0.5520 C.2   1 <1>  -0.1400 
  4 N        2.7430     0.2090    -1.1180 N.2   1 <1>  -0.5760 
  5 C        1.2840     2.0220    -0.3740 C.2   1 <1>  -0.0130 
  6 C       -0.1180     2.2970    -0.1990 C.2   1 <1>  -0.1810 
  7 C       -2.4240     1.2150    -0.5180 C.3   1 <1>   0.0200 
  8 C        3.7650     0.9550    -0.8930 C.2   1 <1>   0.8090 
  9 C        2.4400     2.8240    -0.1390 C.2   1 <1>   0.6660 
 10 C       -0.6980     3.6000     0.3240 C.3   1 <1>   0.0210 
 11 C       -3.0090     2.6400    -0.3230 C.3   1 <1>  -0.0800 
 12 N        3.6480     2.2340    -0.4160 N.pl3 1 <1>  -0.6690 
 13 N        2.5840     4.0410     0.2970 N.2   1 <1>  -0.2600 
 14 C       -2.1730     3.4160     0.7350 C.3   1 <1>  -0.1600 
 15 C       -4.5520     2.6520    -0.0570 C.3   1 <1>   0.0000 
 16 C        4.5500     3.1370    -0.1330 C.cat 1 <1>   0.7360 
 17 N        3.9400     4.2200     0.2940 N.pl3 1 <1>  -0.3930 
 18 C       -5.2950     1.8180    -1.1170 C.3   1 <1>  -0.2400 
 19 C       -4.9190     2.0960     1.3310 C.3   1 <1>  -0.2400 
 20 C       -5.1030     4.0870    -0.1530 C.3   1 <1>  -0.2400 
 21 S        6.1440     2.9300    -0.2900 S.3   1 <1>  -0.9360 
 22 H       -2.7170     0.5630     0.2840 H     1 <1>   0.0800 
 23 H       -2.7720     0.7950    -1.4440 H     1 <1>   0.0800 
 24 H        4.7630     0.5940    -1.0760 H     1 <1>   0.0600 
 25 H       -0.6270     4.3480    -0.4470 H     1 <1>   0.0800 
 26 H       -0.1380     3.9390     1.1780 H     1 <1>   0.0800 
 27 H       -2.8570     3.1490    -1.2600 H     1 <1>   0.0800 
 28 H       -2.5860     4.3900     0.9140 H     1 <1>   0.0800 
 29 H       -2.1980     2.8750     1.6650 H     1 <1>   0.0800 
 30 H        4.4680     5.0520     0.5700 H     1 <1>   0.4500 
 31 H       -5.0650     0.7720    -1.0250 H     1 <1>   0.0800 
 32 H       -5.0310     2.1440    -2.1070 H     1 <1>   0.0800 
 33 H       -6.3600     1.9220    -1.0030 H     1 <1>   0.0800 
 34 H       -4.4850     2.6900     2.1140 H     1 <1>   0.0800 
 35 H       -4.5850     1.0820     1.4470 H     1 <1>   0.0800 
 36 H       -5.9870     2.1080     1.4670 H     1 <1>   0.0800 
 37 H       -4.7340     4.7070     0.6420 H     1 <1>   0.0800 
 38 H       -6.1770     4.0860    -0.0840 H     1 <1>   0.0800 
 39 H       -4.8300     4.5350    -1.0920 H     1 <1>   0.0800 
@<TRIPOS>BOND
  1   1   2  1   
  2   1   3  1   
  3   2   4  1   
  4   2   5  2   
  5   3   6  2   
  6   3   7  1   
  7   4   8  2   
  8   5   6  1   
  9   5   9  1   
 10   6  10  1   
 11   7  11  1   
 12   7  22  1   
 13   7  23  1   
 14   8  12  1   
 15   8  24  1   
 16   9  12  1   
 17   9  13  2   
 18  10  14  1   
 19  10  25  1   
 20  10  26  1   
 21  11  14  1   
 22  11  15  1   
 23  11  27  1   
 24  12  16  ar  
 25  13  17  1   
 26  14  28  1   
 27  14  29  1   
 28  15  18  1   
 29  15  19  1   
 30  15  20  1   
 31  16  17  ar  
 32  16  21  1   
 33  17  30  1   
 34  18  31  1   
 35  18  32  1   
 36  18  33  1   
 37  19  34  1   
 38  19  35  1   
 39  19  36  1   
 40  20  37  1   
 41  20  38  1   
 42  20  39  1   
@<TRIPOS>SUBSTRUCTURE
  1 ****   6 GROUP 4 **** **** 0

# MOE 2024.06 (io_trps.svl 2023.06)
