@<TRIPOS>MOLECULE
NONAME
45 47 1 0 0 
SMALL
USER_CHARGES


@<TRIPOS>ATOM
  1 O        4.0220    -0.4220    -0.9610 O.co2 1 <1>  -0.9000 
  2 C        3.5980    -0.1860     0.1770 C.2   1 <1>   0.9060 
  3 O        3.9490     0.8160     0.8020 O.co2 1 <1>  -0.9000 
  4 C        2.6540    -1.1730     0.8510 C.3   1 <1>  -0.1860 
  5 C        3.3210    -2.3860     1.5840 C.3   1 <1>  -0.0190 
  6 C        1.4860    -1.6660    -0.0460 C.3   1 <1>  -0.0800 
  7 C        4.8020    -2.7190     1.3360 C.2   1 <1>   0.5690 
  8 C        2.4430    -3.6520     1.3820 C.3   1 <1>  -0.0800 
  9 C        1.9570    -2.8210    -0.9580 C.3   1 <1>  -0.1600 
 10 C        0.3950    -2.2330     0.8870 C.3   1 <1>  -0.1600 
 11 O        5.4130    -3.2060     2.2620 O.2   1 <1>  -0.5700 
 12 N        5.3780    -2.5240     0.1140 N.am  1 <1>  -0.5470 
 13 C        2.4210    -4.0280    -0.1150 C.3   1 <1>  -0.1600 
 14 C        0.9910    -3.3300     1.8010 C.3   1 <1>  -0.1600 
 15 C        6.7200    -2.6490    -0.2660 C.ar  1 <1>   0.1170 
 16 C        7.4400    -3.8460    -0.2190 C.ar  1 <1>  -0.1440 
 17 C        7.3470    -1.5040    -0.7400 C.ar  1 <1>  -0.1500 
 18 C        8.7650    -3.8610    -0.6240 C.ar  1 <1>  -0.1500 
 19 C        6.8060    -5.1450     0.2590 C.3   1 <1>  -0.0970 
 20 C        8.6680    -1.5250    -1.1460 C.ar  1 <1>  -0.1500 
 21 C        9.3890    -2.7130    -1.0860 C.ar  1 <1>   0.0820 
 22 O       10.6920    -2.8290    -1.4610 O.3   1 <1>  -0.3620 
 23 C       11.4130    -1.7020    -1.9060 C.3   1 <1>   0.0400 
 24 H        2.1970    -0.5770     1.6190 H     1 <1>   0.0800 
 25 H        3.2800    -2.1450     2.6320 H     1 <1>   0.0800 
 26 H        1.0980    -0.8520    -0.6360 H     1 <1>   0.0800 
 27 H        2.8290    -4.4680     1.9700 H     1 <1>   0.0800 
 28 H        2.7640    -2.4850    -1.5850 H     1 <1>   0.0800 
 29 H        1.1540    -3.1200    -1.6080 H     1 <1>   0.0800 
 30 H       -0.4020    -2.6450     0.2940 H     1 <1>   0.0800 
 31 H       -0.0190    -1.4430     1.4880 H     1 <1>   0.0800 
 32 H        4.8460    -1.8660    -0.4890 H     1 <1>   0.3700 
 33 H        1.7480    -4.8540    -0.2660 H     1 <1>   0.0800 
 34 H        3.3960    -4.3460    -0.4410 H     1 <1>   0.0800 
 35 H        0.9810    -2.9950     2.8230 H     1 <1>   0.0800 
 36 H        0.3880    -4.2190     1.7400 H     1 <1>   0.0800 
 37 H        6.7790    -0.5880    -0.7830 H     1 <1>   0.1500 
 38 H        9.3350    -4.7710    -0.5860 H     1 <1>   0.1500 
 39 H        5.7810    -5.2010    -0.0580 H     1 <1>   0.0800 
 40 H        6.8400    -5.1890     1.3320 H     1 <1>   0.0800 
 41 H        7.3300    -5.9950    -0.1390 H     1 <1>   0.0800 
 42 H        9.1060    -0.6130    -1.5010 H     1 <1>   0.1500 
 43 H       12.4160    -2.0160    -2.1320 H     1 <1>   0.0800 
 44 H       11.4270    -0.9660    -1.1220 H     1 <1>   0.0800 
 45 H       10.9420    -1.3150    -2.7920 H     1 <1>   0.0800 
@<TRIPOS>BOND
  1   1   2  ar  
  2   2   3  ar  
  3   2   4  1   
  4   4   5  1   
  5   4   6  1   
  6   4  24  1   
  7   5   7  1   
  8   5   8  1   
  9   5  25  1   
 10   6   9  1   
 11   6  10  1   
 12   6  26  1   
 13   7  11  2   
 14   7  12  am  
 15   8  13  1   
 16   8  14  1   
 17   8  27  1   
 18   9  13  1   
 19   9  28  1   
 20   9  29  1   
 21  10  14  1   
 22  10  30  1   
 23  10  31  1   
 24  12  15  1   
 25  12  32  1   
 26  13  33  1   
 27  13  34  1   
 28  14  35  1   
 29  14  36  1   
 30  15  16  ar  
 31  15  17  ar  
 32  16  18  ar  
 33  16  19  1   
 34  17  20  ar  
 35  17  37  1   
 36  18  21  ar  
 37  18  38  1   
 38  19  39  1   
 39  19  40  1   
 40  19  41  1   
 41  20  21  ar  
 42  20  42  1   
 43  21  22  1   
 44  22  23  1   
 45  23  43  1   
 46  23  44  1   
 47  23  45  1   
@<TRIPOS>SUBSTRUCTURE
  1 ****  12 GROUP 4 **** **** 0

# MOE 2024.06 (io_trps.svl 2023.06)
