@<TRIPOS>MOLECULE
NONAME
37 39 1 0 0 
SMALL
USER_CHARGES


@<TRIPOS>ATOM
  1 O        4.7740    -2.4300     0.2600 O.3   1 <1>  -0.3630 
  2 C        3.5270    -2.9720     0.1910 C.ar  1 <1>   0.0830 
  3 C        5.9270    -3.2290     0.1120 C.3   1 <1>   0.0400 
  4 C        2.4660    -2.1120     0.3420 C.ar  1 <1>  -0.1500 
  5 C        3.2940    -4.3470    -0.0240 C.ar  1 <1>  -0.1500 
  6 C        1.1560    -2.6020     0.2820 C.ar  1 <1>   0.0000 
  7 C        2.0110    -4.8380    -0.0860 C.ar  1 <1>  -0.1500 
  8 C        0.9340    -3.9570     0.0660 C.ar  1 <1>  -0.1520 
  9 C       -0.1080    -2.0020     0.4000 C.2   1 <1>  -0.1500 
 10 N       -0.4170    -4.1680     0.0480 N.pl3 1 <1>   0.0480 
 11 C       -1.0640    -2.9720     0.2580 C.2   1 <1>  -0.2270 
 12 C       -1.1260    -5.4590    -0.0670 C.3   1 <1>   0.0960 
 13 C       -2.4910    -2.9270     0.2900 C.cat 1 <1>   0.7840 
 14 C       -2.5510    -5.2450    -0.6090 C.3   1 <1>   0.3300 
 15 N       -3.1770    -3.9880    -0.0960 N.pl3 1 <1>  -0.7940 
 16 N       -3.1070    -1.8340     0.6940 N.pl3 1 <1>  -0.7940 
 17 C       -4.5600    -1.5570     0.8420 C.3   1 <1>   0.3290 
 18 C       -5.0780    -0.7250    -0.3380 C.3   1 <1>   0.1200 
 19 O       -6.4620    -0.7280    -0.2970 O.3   1 <1>  -0.6800 
 20 H        6.7880    -2.5900     0.2000 H     1 <1>   0.0800 
 21 H        5.9120    -3.6880    -0.8600 H     1 <1>   0.0800 
 22 H        5.9420    -3.9690     0.8920 H     1 <1>   0.0800 
 23 H        2.6380    -1.0650     0.5060 H     1 <1>   0.1500 
 24 H        4.1170    -5.0260    -0.1410 H     1 <1>   0.1500 
 25 H        1.8380    -5.8860    -0.2480 H     1 <1>   0.1500 
 26 H       -0.2340    -0.9480     0.5710 H     1 <1>   0.1500 
 27 H       -1.1700    -5.9070     0.9100 H     1 <1>   0.0800 
 28 H       -0.5760    -6.1150    -0.7170 H     1 <1>   0.0800 
 29 H       -3.1590    -6.0920    -0.3380 H     1 <1>   0.0800 
 30 H       -2.5140    -5.2000    -1.6850 H     1 <1>   0.0800 
 31 H       -4.1970    -3.9660    -0.1120 H     1 <1>   0.4500 
 32 H       -2.5060    -1.0560     0.9780 H     1 <1>   0.4500 
 33 H       -4.7320    -1.0210     1.7610 H     1 <1>   0.0800 
 34 H       -5.1090    -2.4810     0.8880 H     1 <1>   0.0800 
 35 H       -4.7750    -1.1560    -1.2770 H     1 <1>   0.0800 
 36 H       -4.7370     0.2940    -0.2690 H     1 <1>   0.0800 
 37 H       -6.8460    -0.1570    -0.9970 H     1 <1>   0.4000 
@<TRIPOS>BOND
  1   1   2  1   
  2   1   3  1   
  3   2   4  ar  
  4   2   5  ar  
  5   3  20  1   
  6   3  21  1   
  7   3  22  1   
  8   4   6  ar  
  9   4  23  1   
 10   5   7  ar  
 11   5  24  1   
 12   6   8  ar  
 13   6   9  1   
 14   7   8  ar  
 15   7  25  1   
 16   8  10  1   
 17   9  11  2   
 18   9  26  1   
 19  10  11  1   
 20  10  12  1   
 21  11  13  1   
 22  12  14  1   
 23  12  27  1   
 24  12  28  1   
 25  13  15  ar  
 26  13  16  ar  
 27  14  15  1   
 28  14  29  1   
 29  14  30  1   
 30  15  31  1   
 31  16  17  1   
 32  16  32  1   
 33  17  18  1   
 34  17  33  1   
 35  17  34  1   
 36  18  19  1   
 37  18  35  1   
 38  18  36  1   
 39  19  37  1   
@<TRIPOS>SUBSTRUCTURE
  1 ****  11 GROUP 4 **** **** 0

# MOE 2024.06 (io_trps.svl 2023.06)
