@<TRIPOS>MOLECULE
NONAME
41 42 1 0 0 
SMALL
USER_CHARGES


@<TRIPOS>ATOM
  1 O        0.2870    -0.0390    -0.2100 O.2   1 <1>  -0.5700 
  2 C        0.7300     1.0920    -0.2800 C.2   1 <1>   0.6900 
  3 N        2.0700     1.3000    -0.4890 N.am  1 <1>  -0.6600 
  4 N       -0.0810     2.1780    -0.1230 N.am  1 <1>  -0.5470 
  5 C        3.0570     0.2020    -0.2860 C.3   1 <1>   0.1400 
  6 C        2.6460     2.5290    -1.0980 C.3   1 <1>   0.1400 
  7 C       -1.4760     2.2920    -0.0220 C.ar  1 <1>   0.1170 
  8 C        4.2140     0.6940     0.6000 C.3   1 <1>  -0.0800 
  9 C        3.7770     3.0550    -0.2090 C.3   1 <1>  -0.1600 
 10 C       -2.3480     1.3470    -0.5510 C.ar  1 <1>  -0.1500 
 11 C       -2.0140     3.4050     0.6140 C.ar  1 <1>  -0.1500 
 12 C        4.8450     1.9770     0.0310 C.3   1 <1>  -0.1600 
 13 C        5.2790    -0.3990     0.7580 C.3   1 <1>  -0.2400 
 14 C       -3.7190     1.5010    -0.4460 C.ar  1 <1>  -0.1500 
 15 C       -3.3830     3.5660     0.7210 C.ar  1 <1>  -0.1500 
 16 C       -4.2460     2.6190     0.1950 C.ar  1 <1>   0.0830 
 17 O       -5.5760     2.8540     0.3450 O.3   1 <1>  -0.3630 
 18 C       -6.5280     1.9260    -0.1200 C.3   1 <1>   0.1200 
 19 C       -7.9150     2.4630     0.2180 C.3   1 <1>  -0.2400 
 20 H        0.4440     3.0200     0.0770 H     1 <1>   0.3700 
 21 H        3.4320    -0.1120    -1.2440 H     1 <1>   0.0800 
 22 H        2.5860    -0.6450     0.1830 H     1 <1>   0.0800 
 23 H        1.8970     3.2880    -1.2330 H     1 <1>   0.0800 
 24 H        3.0380     2.2790    -2.0700 H     1 <1>   0.0800 
 25 H        3.8100     0.9100     1.5750 H     1 <1>   0.0800 
 26 H        3.3640     3.3730     0.7330 H     1 <1>   0.0800 
 27 H        4.2290     3.9110    -0.6770 H     1 <1>   0.0800 
 28 H       -1.9540     0.4810    -1.0520 H     1 <1>   0.1500 
 29 H       -1.3620     4.1490     1.0310 H     1 <1>   0.1500 
 30 H        5.3360     1.7540    -0.9010 H     1 <1>   0.0800 
 31 H        5.5870     2.3530     0.7150 H     1 <1>   0.0800 
 32 H        5.7060    -0.6550    -0.1950 H     1 <1>   0.0800 
 33 H        4.8420    -1.2830     1.1880 H     1 <1>   0.0800 
 34 H        6.0660    -0.0610     1.4090 H     1 <1>   0.0800 
 35 H       -4.3520     0.7450    -0.8670 H     1 <1>   0.1500 
 36 H       -3.7950     4.4280     1.2150 H     1 <1>   0.1500 
 37 H       -6.3540     0.9840     0.3730 H     1 <1>   0.0800 
 38 H       -6.4090     1.8200    -1.1840 H     1 <1>   0.0800 
 39 H       -8.0160     2.5810     1.2820 H     1 <1>   0.0800 
 40 H       -8.6660     1.7750    -0.1250 H     1 <1>   0.0800 
 41 H       -8.0710     3.4110    -0.2650 H     1 <1>   0.0800 
@<TRIPOS>BOND
  1   1   2  2   
  2   2   3  am  
  3   2   4  am  
  4   3   5  1   
  5   3   6  1   
  6   4   7  1   
  7   4  20  1   
  8   5   8  1   
  9   5  21  1   
 10   5  22  1   
 11   6   9  1   
 12   6  23  1   
 13   6  24  1   
 14   7  10  ar  
 15   7  11  ar  
 16   8  12  1   
 17   8  13  1   
 18   8  25  1   
 19   9  12  1   
 20   9  26  1   
 21   9  27  1   
 22  10  14  ar  
 23  10  28  1   
 24  11  15  ar  
 25  11  29  1   
 26  12  30  1   
 27  12  31  1   
 28  13  32  1   
 29  13  33  1   
 30  13  34  1   
 31  14  16  ar  
 32  14  35  1   
 33  15  16  ar  
 34  15  36  1   
 35  16  17  1   
 36  17  18  1   
 37  18  19  1   
 38  18  37  1   
 39  18  38  1   
 40  19  39  1   
 41  19  40  1   
 42  19  41  1   
@<TRIPOS>SUBSTRUCTURE
  1 ****   4 GROUP 4 **** **** 0

# MOE 2024.06 (io_trps.svl 2023.06)
