@<TRIPOS>MOLECULE
NONAME
48 48 1 0 0 
SMALL
USER_CHARGES


@<TRIPOS>ATOM
  1 O        4.6000     2.3050     2.1850 O.2   1 <1>  -0.5700 
  2 C        5.1460     2.7170     1.1890 C.2   1 <1>   0.5690 
  3 N        4.5250     2.8020    -0.0200 N.am  1 <1>  -0.7300 
  4 C        6.5990     3.1640     1.2970 C.3   1 <1>   0.1810 
  5 C        3.1510     2.4610    -0.3930 C.3   1 <1>   0.3000 
  6 O        7.2000     3.2820     0.0060 O.3   1 <1>  -0.3620 
  7 C        2.9160     0.9670    -0.1750 C.3   1 <1>  -0.2400 
  8 C        3.0070     2.7940    -1.8760 C.3   1 <1>  -0.2400 
  9 C        2.1710     3.3040     0.4220 C.3   1 <1>  -0.2400 
 10 C        8.4820     2.8700    -0.1510 C.ar  1 <1>   0.0830 
 11 C        8.9140     1.5720     0.1440 C.ar  1 <1>   0.0830 
 12 C        9.3890     3.7940    -0.6400 C.ar  1 <1>  -0.1500 
 13 O        8.0850     0.6050     0.6000 O.3   1 <1>  -0.3630 
 14 C       10.2480     1.2380    -0.0130 C.ar  1 <1>  -0.1500 
 15 C       10.7210     3.4520    -0.8040 C.ar  1 <1>  -0.1500 
 16 C        7.1210     0.1060    -0.2990 C.3   1 <1>   0.1200 
 17 C       11.1590     2.1740    -0.4810 C.ar  1 <1>  -0.1440 
 18 C        6.2170    -0.8540     0.4680 C.3   1 <1>  -0.2400 
 19 C       12.6160     1.8020    -0.6230 C.3   1 <1>   0.4860 
 20 N       13.2230     1.9920     0.7110 N.4   1 <1>  -0.9060 
 21 C       14.6760     1.6590     0.7630 C.3   1 <1>   0.2630 
 22 H        5.0910     3.1490    -0.7960 H     1 <1>   0.3700 
 23 H        7.1430     2.4600     1.8980 H     1 <1>   0.0800 
 24 H        6.6410     4.1270     1.7690 H     1 <1>   0.0800 
 25 H        3.6220     0.3890    -0.7420 H     1 <1>   0.0800 
 26 H        1.9250     0.6990    -0.4910 H     1 <1>   0.0800 
 27 H        3.0130     0.7170     0.8660 H     1 <1>   0.0800 
 28 H        3.7010     2.2190    -2.4630 H     1 <1>   0.0800 
 29 H        3.1820     3.8420    -2.0470 H     1 <1>   0.0800 
 30 H        2.0120     2.5620    -2.2110 H     1 <1>   0.0800 
 31 H        2.2350     3.0570     1.4660 H     1 <1>   0.0800 
 32 H        1.1630     3.1160     0.0990 H     1 <1>   0.0800 
 33 H        2.3800     4.3510     0.2970 H     1 <1>   0.0800 
 34 H        9.0450     4.7830    -0.8870 H     1 <1>   0.1500 
 35 H       10.5460     0.2340     0.2340 H     1 <1>   0.1500 
 36 H       11.4010     4.1960    -1.1850 H     1 <1>   0.1500 
 37 H        7.6350    -0.4030    -1.0970 H     1 <1>   0.0800 
 38 H        6.5500     0.9230    -0.7020 H     1 <1>   0.0800 
 39 H        6.7970    -1.6550     0.8910 H     1 <1>   0.0800 
 40 H        5.4850    -1.2740    -0.1970 H     1 <1>   0.0800 
 41 H        5.7030    -0.3280     1.2540 H     1 <1>   0.0800 
 42 H       13.0930     2.4380    -1.3520 H     1 <1>   0.0800 
 43 H       12.7060     0.7750    -0.9400 H     1 <1>   0.0800 
 44 H       12.6880     1.4200     1.3780 H     1 <1>   0.4500 
 45 H       13.0550     2.9670     0.9940 H     1 <1>   0.4500 
 46 H       14.8360     0.6270     0.4940 H     1 <1>   0.0800 
 47 H       15.0600     1.8160     1.7590 H     1 <1>   0.0800 
 48 H       15.2310     2.2840     0.0810 H     1 <1>   0.0800 
@<TRIPOS>BOND
  1   1   2  2   
  2   2   3  am  
  3   2   4  1   
  4   3   5  1   
  5   3  22  1   
  6   4   6  1   
  7   4  23  1   
  8   4  24  1   
  9   5   7  1   
 10   5   8  1   
 11   5   9  1   
 12   6  10  1   
 13   7  25  1   
 14   7  26  1   
 15   7  27  1   
 16   8  28  1   
 17   8  29  1   
 18   8  30  1   
 19   9  31  1   
 20   9  32  1   
 21   9  33  1   
 22  10  11  ar  
 23  10  12  ar  
 24  11  13  1   
 25  11  14  ar  
 26  12  15  ar  
 27  12  34  1   
 28  13  16  1   
 29  14  17  ar  
 30  14  35  1   
 31  15  17  ar  
 32  15  36  1   
 33  16  18  1   
 34  16  37  1   
 35  16  38  1   
 36  17  19  1   
 37  18  39  1   
 38  18  40  1   
 39  18  41  1   
 40  19  20  1   
 41  19  42  1   
 42  19  43  1   
 43  20  21  1   
 44  20  44  1   
 45  20  45  1   
 46  21  46  1   
 47  21  47  1   
 48  21  48  1   
@<TRIPOS>SUBSTRUCTURE
  1 ****  10 GROUP 4 **** **** 0

# MOE 2024.06 (io_trps.svl 2023.06)
