@<TRIPOS>MOLECULE
NONAME
34 35 1 0 0 
SMALL
USER_CHARGES


@<TRIPOS>ATOM
  1 BR      -2.3360     0.4230     4.0970 Br    1 <1>  -0.0580 
  2 C       -2.8170     0.2540     2.2460 C.2   1 <1>   0.0980 
  3 S       -4.2550    -0.6820     1.9120 S.3   1 <1>  -0.0800 
  4 C       -2.2360     0.7380     1.1360 C.2   1 <1>  -0.1500 
  5 C       -4.0450    -0.3910     0.1830 C.2   1 <1>  -0.1400 
  6 C       -2.9470     0.3630    -0.0510 C.2   1 <1>  -0.1500 
  7 C       -5.0830    -0.9980    -0.7350 C.3   1 <1>   0.5230 
  8 N       -6.4200    -0.4780    -0.3080 N.4   1 <1>  -0.9590 
  9 C       -7.5370    -1.3160    -0.8760 C.3   1 <1>   0.3430 
 10 C       -6.4910     0.9880    -0.6070 C.3   1 <1>   0.3430 
 11 C       -8.7920    -1.3970     0.0430 C.3   1 <1>   0.3430 
 12 C       -7.8890     1.5930    -0.4540 C.3   1 <1>  -0.1600 
 13 N       -9.5330    -0.1040     0.3030 N.4   1 <1>  -0.9590 
 14 C       -8.7070     1.0690     0.7260 C.3   1 <1>   0.3430 
 15 C      -10.6100    -0.3420     1.3250 C.3   1 <1>   0.2630 
 16 H       -1.3420     1.3370     1.1060 H     1 <1>   0.1500 
 17 H       -2.5820     0.6830    -1.0140 H     1 <1>   0.1500 
 18 H       -5.0450    -2.0720    -0.6390 H     1 <1>   0.0800 
 19 H       -4.8760    -0.7350    -1.7600 H     1 <1>   0.0800 
 20 H       -6.3850    -0.5890     0.7170 H     1 <1>   0.4500 
 21 H       -7.1800    -2.3250    -1.0130 H     1 <1>   0.0800 
 22 H       -7.8210    -0.9470    -1.8490 H     1 <1>   0.0800 
 23 H       -6.1480     1.1730    -1.6130 H     1 <1>   0.0800 
 24 H       -5.8140     1.5080     0.0560 H     1 <1>   0.0800 
 25 H       -8.4860    -1.8230     0.9840 H     1 <1>   0.0800 
 26 H       -9.4800    -2.0980    -0.4020 H     1 <1>   0.0800 
 27 H       -8.4390     1.4970    -1.3730 H     1 <1>   0.0800 
 28 H       -7.7460     2.6490    -0.3060 H     1 <1>   0.0800 
 29 H      -10.0280     0.1730    -0.5620 H     1 <1>   0.4500 
 30 H       -9.3680     1.8580     1.0520 H     1 <1>   0.0800 
 31 H       -8.0690     0.8140     1.5580 H     1 <1>   0.0800 
 32 H      -10.1790    -0.6210     2.2740 H     1 <1>   0.0800 
 33 H      -11.2700    -1.1320     1.0020 H     1 <1>   0.0800 
 34 H      -11.1990     0.5510     1.4670 H     1 <1>   0.0800 
@<TRIPOS>BOND
  1   1   2  1   
  2   2   3  1   
  3   2   4  2   
  4   3   5  1   
  5   4   6  1   
  6   4  16  1   
  7   5   6  2   
  8   5   7  1   
  9   6  17  1   
 10   7   8  1   
 11   7  18  1   
 12   7  19  1   
 13   8   9  1   
 14   8  10  1   
 15   8  20  1   
 16   9  11  1   
 17   9  21  1   
 18   9  22  1   
 19  10  12  1   
 20  10  23  1   
 21  10  24  1   
 22  11  13  1   
 23  11  25  1   
 24  11  26  1   
 25  12  14  1   
 26  12  27  1   
 27  12  28  1   
 28  13  14  1   
 29  13  15  1   
 30  13  29  1   
 31  14  30  1   
 32  14  31  1   
 33  15  32  1   
 34  15  33  1   
 35  15  34  1   
@<TRIPOS>SUBSTRUCTURE
  1 ****   8 GROUP 4 **** **** 0

# MOE 2024.06 (io_trps.svl 2023.06)
