@<TRIPOS>MOLECULE
NONAME
56 57 1 0 0 
SMALL
USER_CHARGES


@<TRIPOS>ATOM
  1 S        0.2680     1.6770     1.5930 S.o2  1 <1>   1.4470 
  2 O       -0.2780     2.8410     2.2580 O.2   1 <1>  -0.6500 
  3 O        0.4770     0.4710     2.3650 O.2   1 <1>  -0.6500 
  4 N       -0.8230     1.2620     0.3640 N.am  1 <1>  -0.8490 
  5 C        1.7840     2.1200     0.6800 C.ar  1 <1>  -0.0090 
  6 C       -0.4710    -0.0020    -0.3050 C.3   1 <1>   0.1960 
  7 C       -2.1970     1.1650     0.8800 C.3   1 <1>   0.1960 
  8 C        1.8810     3.2410    -0.1490 C.ar  1 <1>  -0.1440 
  9 C        2.9010     1.3000     0.7900 C.ar  1 <1>  -0.1500 
 10 C       -1.4940    -0.3460    -1.4020 C.3   1 <1>   0.1200 
 11 C       -3.1850     0.7810    -0.2370 C.3   1 <1>   0.1200 
 12 C        3.0640     3.5080    -0.8200 C.ar  1 <1>  -0.1500 
 13 C        0.7150     4.2050    -0.3390 C.3   1 <1>  -0.0960 
 14 C        4.0970     1.5380     0.1150 C.ar  1 <1>   0.0860 
 15 O       -2.7860    -0.4040    -0.8670 O.3   1 <1>  -0.5600 
 16 C        4.1540     2.6730    -0.6890 C.ar  1 <1>  -0.1500 
 17 C        5.2260     0.6340     0.2520 C.2   1 <1>   0.5440 
 18 O        5.3710    -0.0030     1.2750 O.2   1 <1>  -0.5700 
 19 N        6.1100     0.4860    -0.7850 N.am  1 <1>  -0.7300 
 20 C        7.3250    -0.3730    -0.9010 C.3   1 <1>   0.2200 
 21 C        6.9440    -1.7950    -1.4050 C.3   1 <1>  -0.0800 
 22 C        8.2380    -0.3150     0.3580 C.3   1 <1>  -0.0800 
 23 C        6.1770    -1.7420    -2.7380 C.3   1 <1>  -0.2400 
 24 C        6.1450    -2.6350    -0.3940 C.3   1 <1>  -0.2400 
 25 C        8.6090     1.1340     0.7260 C.3   1 <1>  -0.2400 
 26 C        9.5440    -1.1080     0.1730 C.3   1 <1>  -0.2400 
 27 H       -0.4440    -0.8100     0.4080 H     1 <1>   0.0800 
 28 H        0.5050     0.0830    -0.7510 H     1 <1>   0.0800 
 29 H       -2.4950     2.1140     1.2950 H     1 <1>   0.0800 
 30 H       -2.2460     0.4300     1.6660 H     1 <1>   0.0800 
 31 H        2.8520     0.4320     1.4280 H     1 <1>   0.1500 
 32 H       -1.2730    -1.3080    -1.8300 H     1 <1>   0.0800 
 33 H       -1.4760     0.3950    -2.1820 H     1 <1>   0.0800 
 34 H       -3.2420     1.5620    -0.9750 H     1 <1>   0.0800 
 35 H       -4.1660     0.6200     0.1740 H     1 <1>   0.0800 
 36 H        3.1440     4.3780    -1.4510 H     1 <1>   0.1500 
 37 H        0.4940     4.7070     0.5860 H     1 <1>   0.0800 
 38 H       -0.1630     3.6800    -0.6680 H     1 <1>   0.0800 
 39 H        0.9460     4.9540    -1.0750 H     1 <1>   0.0800 
 40 H        5.0630     2.9130    -1.2100 H     1 <1>   0.1500 
 41 H        5.8450     0.9040    -1.6740 H     1 <1>   0.3700 
 42 H        7.9150     0.0630    -1.6900 H     1 <1>   0.0800 
 43 H        7.8580    -2.3230    -1.6050 H     1 <1>   0.0800 
 44 H        7.7190    -0.7500     1.1940 H     1 <1>   0.0800 
 45 H        5.2080    -1.2960    -2.6060 H     1 <1>   0.0800 
 46 H        6.0400    -2.7370    -3.1230 H     1 <1>   0.0800 
 47 H        6.7280    -1.1740    -3.4660 H     1 <1>   0.0800 
 48 H        5.1830    -2.1940    -0.2060 H     1 <1>   0.0800 
 49 H        6.6700    -2.7110     0.5400 H     1 <1>   0.0800 
 50 H        5.9930    -3.6300    -0.7730 H     1 <1>   0.0800 
 51 H        9.1150     1.6170    -0.0900 H     1 <1>   0.0800 
 52 H        9.2530     1.1470     1.5880 H     1 <1>   0.0800 
 53 H        7.7300     1.7010     0.9720 H     1 <1>   0.0800 
 54 H       10.0760    -0.7690    -0.6980 H     1 <1>   0.0800 
 55 H        9.3430    -2.1590     0.0740 H     1 <1>   0.0800 
 56 H       10.1800    -0.9830     1.0320 H     1 <1>   0.0800 
@<TRIPOS>BOND
  1   1   2  2   
  2   1   3  2   
  3   1   4  am  
  4   1   5  1   
  5   4   6  1   
  6   4   7  1   
  7   5   8  ar  
  8   5   9  ar  
  9   6  10  1   
 10   6  27  1   
 11   6  28  1   
 12   7  11  1   
 13   7  29  1   
 14   7  30  1   
 15   8  12  ar  
 16   8  13  1   
 17   9  14  ar  
 18   9  31  1   
 19  10  15  1   
 20  10  32  1   
 21  10  33  1   
 22  11  15  1   
 23  11  34  1   
 24  11  35  1   
 25  12  16  ar  
 26  12  36  1   
 27  13  37  1   
 28  13  38  1   
 29  13  39  1   
 30  14  16  ar  
 31  14  17  1   
 32  16  40  1   
 33  17  18  2   
 34  17  19  am  
 35  19  20  1   
 36  19  41  1   
 37  20  21  1   
 38  20  22  1   
 39  20  42  1   
 40  21  23  1   
 41  21  24  1   
 42  21  43  1   
 43  22  25  1   
 44  22  26  1   
 45  22  44  1   
 46  23  45  1   
 47  23  46  1   
 48  23  47  1   
 49  24  48  1   
 50  24  49  1   
 51  24  50  1   
 52  25  51  1   
 53  25  52  1   
 54  25  53  1   
 55  26  54  1   
 56  26  55  1   
 57  26  56  1   
@<TRIPOS>SUBSTRUCTURE
  1 ****   9 GROUP 4 **** **** 0

# MOE 2024.06 (io_trps.svl 2023.06)
