@<TRIPOS>MOLECULE
NONAME
54 56 1 0 0 
SMALL
USER_CHARGES


@<TRIPOS>ATOM
  1 O        0.4830     1.1360    -1.4830 O.2   1 <1>  -0.5700 
  2 C       -0.2340     1.5490    -0.5880 C.2   1 <1>   0.5440 
  3 N       -0.6420     0.6760     0.3970 N.am  1 <1>  -0.6600 
  4 C       -0.6180     2.9430    -0.5660 C.ar  1 <1>   0.0860 
  5 C       -0.4380    -0.8000     0.2870 C.3   1 <1>   0.1400 
  6 C       -0.9640     1.1150     1.7890 C.3   1 <1>   0.1400 
  7 C        0.3480     3.9610    -0.6090 C.ar  1 <1>   0.1170 
  8 C       -1.9650     3.3000    -0.4880 C.ar  1 <1>  -0.1500 
  9 C        0.5320    -1.2880     1.3740 C.3   1 <1>   0.1200 
 10 C        0.0340     0.5070     2.7880 C.3   1 <1>   0.1200 
 11 N        1.7060     3.6210    -0.7040 N.am  1 <1>  -0.5470 
 12 C       -0.0670     5.2900    -0.5680 C.ar  1 <1>  -0.1500 
 13 C       -2.3600     4.6220    -0.4460 C.ar  1 <1>  -0.1500 
 14 O        0.0940    -0.8840     2.6410 O.3   1 <1>  -0.5600 
 15 C        2.8400     4.2770    -0.3080 C.2   1 <1>   0.5690 
 16 C       -1.4050     5.6220    -0.4850 C.ar  1 <1>  -0.1500 
 17 O        2.8270     5.3420     0.2610 O.2   1 <1>  -0.5700 
 18 C        4.1890     3.6250    -0.5800 C.3   1 <1>   0.1810 
 19 O        4.1050     2.2070    -0.5870 O.3   1 <1>  -0.3630 
 20 C        4.0430     1.4670     0.5540 C.ar  1 <1>   0.0830 
 21 C        4.1820     0.0810     0.4480 C.ar  1 <1>  -0.1430 
 22 C        3.8500     2.0490     1.8070 C.ar  1 <1>  -0.1500 
 23 C        4.1270    -0.6890     1.6030 C.ar  1 <1>  -0.1500 
 24 C        4.3950    -0.6090    -0.9070 C.3   1 <1>   0.0630 
 25 C        3.7960     1.2650     2.9440 C.ar  1 <1>  -0.1500 
 26 C        3.9340    -0.1060     2.8420 C.ar  1 <1>  -0.1500 
 27 C        3.2000    -1.5010    -1.2570 C.3   1 <1>  -0.2400 
 28 C        5.6970    -1.4190    -0.9200 C.3   1 <1>  -0.2400 
 29 H       -0.0530    -1.0620    -0.6820 H     1 <1>   0.0800 
 30 H       -1.3840    -1.2970     0.4100 H     1 <1>   0.0800 
 31 H       -1.9590     0.7920     2.0410 H     1 <1>   0.0800 
 32 H       -0.9280     2.1860     1.8720 H     1 <1>   0.0800 
 33 H       -2.7080     2.5210    -0.4630 H     1 <1>   0.1500 
 34 H        1.5140    -0.8850     1.2020 H     1 <1>   0.0800 
 35 H        0.5900    -2.3620     1.3700 H     1 <1>   0.0800 
 36 H       -0.2710     0.7180     3.7970 H     1 <1>   0.0800 
 37 H        1.0190     0.9130     2.6310 H     1 <1>   0.0800 
 38 H        1.8730     2.6610    -1.0460 H     1 <1>   0.3700 
 39 H        0.6620     6.0790    -0.6070 H     1 <1>   0.1500 
 40 H       -3.4040     4.8780    -0.3860 H     1 <1>   0.1500 
 41 H       -1.7030     6.6560    -0.4530 H     1 <1>   0.1500 
 42 H        4.9150     3.9270     0.1520 H     1 <1>   0.0800 
 43 H        4.5330     3.9300    -1.5500 H     1 <1>   0.0800 
 44 H        3.7370     3.1090     1.9280 H     1 <1>   0.1500 
 45 H        4.2310    -1.7570     1.5470 H     1 <1>   0.1500 
 46 H        4.4780     0.1260    -1.6870 H     1 <1>   0.0800 
 47 H        3.6490     1.7200     3.9080 H     1 <1>   0.1500 
 48 H        3.8890    -0.7200     3.7240 H     1 <1>   0.1500 
 49 H        3.0760    -2.2840    -0.5320 H     1 <1>   0.0800 
 50 H        3.3380    -1.9450    -2.2270 H     1 <1>   0.0800 
 51 H        2.3050    -0.9050    -1.2840 H     1 <1>   0.0800 
 52 H        5.6530    -2.2380    -0.2260 H     1 <1>   0.0800 
 53 H        6.5210    -0.7830    -0.6500 H     1 <1>   0.0800 
 54 H        5.8780    -1.8130    -1.9040 H     1 <1>   0.0800 
@<TRIPOS>BOND
  1   1   2  2   
  2   2   3  am  
  3   2   4  1   
  4   3   5  1   
  5   3   6  1   
  6   4   7  ar  
  7   4   8  ar  
  8   5   9  1   
  9   5  29  1   
 10   5  30  1   
 11   6  10  1   
 12   6  31  1   
 13   6  32  1   
 14   7  11  1   
 15   7  12  ar  
 16   8  13  ar  
 17   8  33  1   
 18   9  14  1   
 19   9  34  1   
 20   9  35  1   
 21  10  14  1   
 22  10  36  1   
 23  10  37  1   
 24  11  15  am  
 25  11  38  1   
 26  12  16  ar  
 27  12  39  1   
 28  13  16  ar  
 29  13  40  1   
 30  15  17  2   
 31  15  18  1   
 32  16  41  1   
 33  18  19  1   
 34  18  42  1   
 35  18  43  1   
 36  19  20  1   
 37  20  21  ar  
 38  20  22  ar  
 39  21  23  ar  
 40  21  24  1   
 41  22  25  ar  
 42  22  44  1   
 43  23  26  ar  
 44  23  45  1   
 45  24  27  1   
 46  24  28  1   
 47  24  46  1   
 48  25  26  ar  
 49  25  47  1   
 50  26  48  1   
 51  27  49  1   
 52  27  50  1   
 53  27  51  1   
 54  28  52  1   
 55  28  53  1   
 56  28  54  1   
@<TRIPOS>SUBSTRUCTURE
  1 ****   2 GROUP 4 **** **** 0

# MOE 2024.06 (io_trps.svl 2023.06)
