@<TRIPOS>MOLECULE
NONAME
27 27 1 0 0 
SMALL
USER_CHARGES


@<TRIPOS>ATOM
  1 O       -0.8880    -0.8990     0.2140 O.2   1 <1>  -0.5700 
  2 C       -0.0320    -1.7510     0.3180 C.2   1 <1>   0.6900 
  3 N       -0.0110    -2.8840    -0.4800 N.am  1 <1>  -0.4690 
  4 N        0.9510    -1.5930     1.2400 N.am  1 <1>  -0.4900 
  5 C        0.9900    -3.8370    -0.3270 C.2   1 <1>  -0.0410 
  6 C       -1.1190    -3.1290    -1.4570 C.3   1 <1>   0.2010 
  7 C        1.9550    -2.4910     1.4230 C.2   1 <1>   0.6160 
  8 C        1.9640    -3.6640     0.5980 C.2   1 <1>  -0.1240 
  9 C       -2.0750    -4.2140    -0.9850 C.2   1 <1>   0.6590 
 10 O        2.7880    -2.2530     2.2740 O.2   1 <1>  -0.5700 
 11 C        3.0770    -4.6860     0.7950 C.3   1 <1>  -0.1020 
 12 O       -2.0600    -5.3170    -1.4710 O.2   1 <1>  -0.5700 
 13 O       -2.9140    -3.8830    -0.0120 O.3   1 <1>  -0.4300 
 14 C       -3.8290    -4.8090     0.5230 C.3   1 <1>   0.1200 
 15 C       -4.6120    -4.1100     1.6300 C.3   1 <1>  -0.2400 
 16 H        0.9330    -0.7640     1.8210 H     1 <1>   0.3700 
 17 H        0.9490    -4.7050    -0.9670 H     1 <1>   0.1500 
 18 H       -0.6940    -3.4320    -2.3950 H     1 <1>   0.0800 
 19 H       -1.6800    -2.2280    -1.6260 H     1 <1>   0.0800 
 20 H        4.0330    -4.2240     0.6220 H     1 <1>   0.0800 
 21 H        2.9660    -5.5150     0.1190 H     1 <1>   0.0800 
 22 H        3.0560    -5.0590     1.8040 H     1 <1>   0.0800 
 23 H       -3.2780    -5.6490     0.9110 H     1 <1>   0.0800 
 24 H       -4.4840    -5.1390    -0.2660 H     1 <1>   0.0800 
 25 H       -3.9430    -3.7750     2.4020 H     1 <1>   0.0800 
 26 H       -5.3200    -4.7940     2.0620 H     1 <1>   0.0800 
 27 H       -5.1490    -3.2680     1.2300 H     1 <1>   0.0800 
@<TRIPOS>BOND
  1   1   2  2   
  2   2   3  am  
  3   2   4  am  
  4   3   5  1   
  5   3   6  1   
  6   4   7  am  
  7   4  16  1   
  8   5   8  2   
  9   5  17  1   
 10   6   9  1   
 11   6  18  1   
 12   6  19  1   
 13   7   8  1   
 14   7  10  2   
 15   8  11  1   
 16   9  12  2   
 17   9  13  1   
 18  11  20  1   
 19  11  21  1   
 20  11  22  1   
 21  13  14  1   
 22  14  15  1   
 23  14  23  1   
 24  14  24  1   
 25  15  25  1   
 26  15  26  1   
 27  15  27  1   
@<TRIPOS>SUBSTRUCTURE
  1 ****   3 GROUP 4 **** **** 0

# MOE 2024.06 (io_trps.svl 2023.06)
