@<TRIPOS>MOLECULE
NONAME
49 50 1 0 0 
SMALL
USER_CHARGES


@<TRIPOS>ATOM
  1 O       -3.3990     2.2210     0.3440 O.3   1 <1>  -0.6800 
  2 C       -4.4060     3.0640    -0.1050 C.3   1 <1>   0.5670 
  3 C       -5.7300     2.3740     0.2620 C.ar  1 <1>  -0.1440 
  4 C       -4.2080     4.4180     0.6330 C.ar  1 <1>  -0.1440 
  5 C       -4.2600     3.1550    -1.6440 C.3   1 <1>   0.0400 
  6 C       -5.9200     1.0260    -0.0320 C.ar  1 <1>  -0.1500 
  7 C       -6.7700     3.0630     0.8810 C.ar  1 <1>  -0.1500 
  8 C       -3.7420     4.4510     1.9460 C.ar  1 <1>  -0.1500 
  9 C       -4.5070     5.6380     0.0270 C.ar  1 <1>  -0.1500 
 10 C       -3.0060     3.8660    -2.0410 C.1   1 <1>  -0.2000 
 11 C       -7.1040     0.3860     0.2870 C.ar  1 <1>  -0.1500 
 12 C       -7.9550     2.4230     1.2000 C.ar  1 <1>  -0.1500 
 13 C       -3.5510     5.6480     2.6140 C.ar  1 <1>  -0.1500 
 14 C       -4.3160     6.8370     0.6900 C.ar  1 <1>  -0.1500 
 15 C       -2.0010     4.4950    -2.0620 C.1   1 <1>  -0.2000 
 16 C       -8.1240     1.0840     0.9040 C.ar  1 <1>  -0.1500 
 17 C       -3.8340     6.8440     1.9850 C.ar  1 <1>  -0.1500 
 18 C       -0.7870     5.2790    -1.7370 C.3   1 <1>   0.5430 
 19 N       -0.6470     5.2450    -0.2530 N.4   1 <1>  -0.9590 
 20 C        0.2600     6.3090     0.2530 C.3   1 <1>   0.3430 
 21 C       -0.2800     3.8650     0.1920 C.3   1 <1>   0.3430 
 22 C       -0.4000     7.6750     0.0950 C.3   1 <1>  -0.2400 
 23 C       -0.1630     3.7740     1.7100 C.3   1 <1>  -0.2400 
 24 H       -3.7760     1.7250     1.0960 H     1 <1>   0.4000 
 25 H       -5.1070     3.6750    -2.0510 H     1 <1>   0.0800 
 26 H       -4.2600     2.1670    -2.0680 H     1 <1>   0.0800 
 27 H       -5.1440     0.4560    -0.5160 H     1 <1>   0.1500 
 28 H       -6.6810     4.1070     1.1270 H     1 <1>   0.1500 
 29 H       -3.5290     3.5370     2.4740 H     1 <1>   0.1500 
 30 H       -4.9020     5.6780    -0.9730 H     1 <1>   0.1500 
 31 H       -7.2340    -0.6570     0.0530 H     1 <1>   0.1500 
 32 H       -8.7480     2.9710     1.6800 H     1 <1>   0.1500 
 33 H       -3.1940     5.6470     3.6300 H     1 <1>   0.1500 
 34 H       -4.5560     7.7670     0.2020 H     1 <1>   0.1500 
 35 H       -9.0460     0.5880     1.1530 H     1 <1>   0.1500 
 36 H       -3.6940     7.7770     2.5060 H     1 <1>   0.1500 
 37 H       -0.9180     6.2890    -2.0870 H     1 <1>   0.0800 
 38 H        0.0790     4.8500    -2.2130 H     1 <1>   0.0800 
 39 H       -1.5960     5.4200     0.1180 H     1 <1>   0.4500 
 40 H        1.2020     6.2820    -0.2720 H     1 <1>   0.0800 
 41 H        0.4560     6.1540     1.3010 H     1 <1>   0.0800 
 42 H        0.6520     3.5630    -0.2600 H     1 <1>   0.0800 
 43 H       -1.0450     3.1740    -0.1320 H     1 <1>   0.0800 
 44 H       -0.5130     7.9490    -0.9370 H     1 <1>   0.0800 
 45 H        0.2220     8.4190     0.5610 H     1 <1>   0.0800 
 46 H       -1.3570     7.6920     0.5840 H     1 <1>   0.0800 
 47 H        0.7310     4.2530     2.0640 H     1 <1>   0.0800 
 48 H       -0.1070     2.7380     1.9910 H     1 <1>   0.0800 
 49 H       -1.0220     4.2020     2.1900 H     1 <1>   0.0800 
@<TRIPOS>BOND
  1   1   2  1   
  2   1  24  1   
  3   2   3  1   
  4   2   4  1   
  5   2   5  1   
  6   3   6  ar  
  7   3   7  ar  
  8   4   8  ar  
  9   4   9  ar  
 10   5  10  1   
 11   5  25  1   
 12   5  26  1   
 13   6  11  ar  
 14   6  27  1   
 15   7  12  ar  
 16   7  28  1   
 17   8  13  ar  
 18   8  29  1   
 19   9  14  ar  
 20   9  30  1   
 21  10  15  3   
 22  11  16  ar  
 23  11  31  1   
 24  12  16  ar  
 25  12  32  1   
 26  13  17  ar  
 27  13  33  1   
 28  14  17  ar  
 29  14  34  1   
 30  15  18  1   
 31  16  35  1   
 32  17  36  1   
 33  18  19  1   
 34  18  37  1   
 35  18  38  1   
 36  19  20  1   
 37  19  21  1   
 38  19  39  1   
 39  20  22  1   
 40  20  40  1   
 41  20  41  1   
 42  21  23  1   
 43  21  42  1   
 44  21  43  1   
 45  22  44  1   
 46  22  45  1   
 47  22  46  1   
 48  23  47  1   
 49  23  48  1   
 50  23  49  1   
@<TRIPOS>SUBSTRUCTURE
  1 ****   4 GROUP 4 **** **** 0

# MOE 2024.06 (io_trps.svl 2023.06)
