@<TRIPOS>MOLECULE
NONAME
24 24 1 0 0 
SMALL
USER_CHARGES


@<TRIPOS>ATOM
  1 O        0.1520    -0.1790     0.2630 O.2   1 <1>  -0.5700 
  2 C       -0.0520    -1.3780     0.1200 C.2   1 <1>   0.7060 
  3 O        1.0420    -2.1570     0.0180 O.3   1 <1>  -0.4300 
  4 C       -1.3310    -1.9850     0.0610 C.2   1 <1>   0.0790 
  5 C        2.3480    -1.6210     0.0760 C.3   1 <1>   0.1200 
  6 C       -1.3010    -3.4070     0.0390 C.1   1 <1>   0.4920 
  7 C       -2.5770    -1.3600     0.0280 C.2   1 <1>   0.1000 
  8 C        3.3350    -2.7740    -0.0680 C.3   1 <1>  -0.2400 
  9 N       -1.3580    -4.5470     0.0240 N.1   1 <1>  -0.5570 
 10 N       -3.7430    -2.1230     0.0160 N.pl3 1 <1>  -0.6000 
 11 C       -2.8050     0.0530    -0.0020 C.2   1 <1>  -0.1500 
 12 C       -5.0080    -1.5860    -0.0110 C.2   1 <1>  -0.0500 
 13 C       -4.0520     0.6000    -0.0300 C.2   1 <1>  -0.1500 
 14 C       -5.1830    -0.2410    -0.0340 C.2   1 <1>  -0.1500 
 15 H        2.4720    -1.1230     1.0230 H     1 <1>   0.0800 
 16 H        2.4640    -0.9110    -0.7260 H     1 <1>   0.0800 
 17 H        3.2010    -3.4810     0.7310 H     1 <1>   0.0800 
 18 H        4.3410    -2.3980    -0.0270 H     1 <1>   0.0800 
 19 H        3.1930    -3.2690    -1.0130 H     1 <1>   0.0800 
 20 H       -3.6680    -3.1500     0.0300 H     1 <1>   0.4000 
 21 H       -1.9690     0.7230    -0.0060 H     1 <1>   0.1500 
 22 H       -5.8450    -2.2660    -0.0140 H     1 <1>   0.1500 
 23 H       -4.2000     1.6660    -0.0510 H     1 <1>   0.1500 
 24 H       -6.1620     0.2030    -0.0550 H     1 <1>   0.1500 
@<TRIPOS>BOND
  1   1   2  2   
  2   2   3  1   
  3   2   4  1   
  4   3   5  1   
  5   4   6  1   
  6   4   7  2   
  7   5   8  1   
  8   5  15  1   
  9   5  16  1   
 10   6   9  3   
 11   7  10  1   
 12   7  11  1   
 13   8  17  1   
 14   8  18  1   
 15   8  19  1   
 16  10  12  1   
 17  10  20  1   
 18  11  13  2   
 19  11  21  1   
 20  12  14  2   
 21  12  22  1   
 22  13  14  1   
 23  13  23  1   
 24  14  24  1   
@<TRIPOS>SUBSTRUCTURE
  1 ****   4 GROUP 4 **** **** 0

# MOE 2024.06 (io_trps.svl 2023.06)
