@<TRIPOS>MOLECULE
NONAME
28 28 1 0 0 
SMALL
USER_CHARGES


@<TRIPOS>ATOM
  1 I       -0.0990     0.1180     0.6530 I     1 <1>  -0.0810 
  2 C        1.7640    -0.9020     0.6070 C.ar  1 <1>   0.0810 
  3 C        1.7690    -2.2840     0.6330 C.ar  1 <1>  -0.1500 
  4 C        2.9290    -0.1610     0.5550 C.ar  1 <1>  -0.1500 
  5 C        2.9880    -2.9370     0.6000 C.ar  1 <1>  -0.1500 
  6 C        4.1370    -0.8350     0.5240 C.ar  1 <1>  -0.1500 
  7 C        4.1960    -2.2340     0.5380 C.ar  1 <1>   0.0860 
  8 C        5.4620    -2.9450     0.4910 C.2   1 <1>   0.5440 
  9 O        5.5770    -4.0220     1.0420 O.2   1 <1>  -0.5700 
 10 N        6.5210    -2.4090    -0.1930 N.am  1 <1>  -0.7300 
 11 C        7.8830    -2.9280    -0.3610 C.3   1 <1>   0.3000 
 12 C        8.6400    -1.8910    -1.1890 C.3   1 <1>  -0.2400 
 13 C        7.8430    -4.2550    -1.1170 C.3   1 <1>  -0.2400 
 14 C        8.5560    -3.0790     1.0040 C.3   1 <1>  -0.2400 
 15 H        0.8460    -2.8360     0.6790 H     1 <1>   0.1500 
 16 H        2.8920     0.9140     0.5430 H     1 <1>   0.1500 
 17 H        3.0160    -4.0130     0.6230 H     1 <1>   0.1500 
 18 H        5.0500    -0.2670     0.4990 H     1 <1>   0.1500 
 19 H        6.3480    -1.5740    -0.7480 H     1 <1>   0.3700 
 20 H        8.1780    -1.7640    -2.1520 H     1 <1>   0.0800 
 21 H        9.6530    -2.2150    -1.3460 H     1 <1>   0.0800 
 22 H        8.6670    -0.9450    -0.6790 H     1 <1>   0.0800 
 23 H        7.3290    -4.1410    -2.0540 H     1 <1>   0.0800 
 24 H        7.3430    -5.0080    -0.5350 H     1 <1>   0.0800 
 25 H        8.8410    -4.6000    -1.3140 H     1 <1>   0.0800 
 26 H        8.5310    -2.1490     1.5420 H     1 <1>   0.0800 
 27 H        9.5820    -3.3760     0.8800 H     1 <1>   0.0800 
 28 H        8.0640    -3.8340     1.5890 H     1 <1>   0.0800 
@<TRIPOS>BOND
  1   1   2  1   
  2   2   3  ar  
  3   2   4  ar  
  4   3   5  ar  
  5   3  15  1   
  6   4   6  ar  
  7   4  16  1   
  8   5   7  ar  
  9   5  17  1   
 10   6   7  ar  
 11   6  18  1   
 12   7   8  1   
 13   8   9  2   
 14   8  10  am  
 15  10  11  1   
 16  10  19  1   
 17  11  12  1   
 18  11  13  1   
 19  11  14  1   
 20  12  20  1   
 21  12  21  1   
 22  12  22  1   
 23  13  23  1   
 24  13  24  1   
 25  13  25  1   
 26  14  26  1   
 27  14  27  1   
 28  14  28  1   
@<TRIPOS>SUBSTRUCTURE
  1 ****   7 GROUP 4 **** **** 0

# MOE 2024.06 (io_trps.svl 2023.06)
