@<TRIPOS>MOLECULE
NONAME
43 45 1 0 0 
SMALL
USER_CHARGES


@<TRIPOS>ATOM
  1 O        0.7160     0.6770     0.6780 O.2   1 <1>  -0.5700 
  2 C        1.0020     1.7600     0.2360 C.2   1 <1>   0.5690 
  3 N        2.2540     2.2860     0.1800 N.am  1 <1>  -0.4200 
  4 C       -0.0150     2.7190    -0.3520 C.3   1 <1>  -0.0190 
  5 C        2.2540     3.5180    -0.3960 C.2   1 <1>   0.5690 
  6 C        3.4710     1.6200     0.6970 C.3   1 <1>   0.1400 
  7 C        0.8500     3.9340    -0.7860 C.3   1 <1>  -0.0190 
  8 C       -1.1680     3.0130     0.6270 C.3   1 <1>  -0.0220 
  9 O        3.2310     4.1940    -0.5920 O.2   1 <1>  -0.5700 
 10 C        4.2670     1.0050    -0.4540 C.3   1 <1>  -0.0990 
 11 C        0.4620     5.3010    -0.1890 C.3   1 <1>  -0.0220 
 12 C       -1.7830     4.3700     0.3490 C.2   1 <1>  -0.2880 
 13 C        5.5940     0.5090     0.0620 C.2   1 <1>   0.5690 
 14 C       -1.0400     5.4130    -0.0230 C.2   1 <1>  -0.2880 
 15 O        5.6460    -0.5580     0.6200 O.2   1 <1>  -0.5700 
 16 N        6.6890     1.2860    -0.0990 N.am  1 <1>  -0.7300 
 17 C        8.0310     0.9300     0.3810 C.3   1 <1>   0.2840 
 18 C        8.9110     2.1610     0.2650 C.ar  1 <1>  -0.1440 
 19 C        8.9130     3.1140     1.2720 C.ar  1 <1>  -0.1500 
 20 C        9.7130     2.3490    -0.8510 C.ar  1 <1>  -0.1500 
 21 C        9.7090     4.2410     1.1670 C.ar  1 <1>  -0.1500 
 22 C       10.5100     3.4750    -0.9570 C.ar  1 <1>  -0.1500 
 23 C       10.5080     4.4220     0.0520 C.ar  1 <1>  -0.1500 
 24 H       -0.4290     2.2650    -1.2340 H     1 <1>   0.0800 
 25 H        3.1980     0.8530     1.4030 H     1 <1>   0.0800 
 26 H        4.0750     2.3500     1.2090 H     1 <1>   0.0800 
 27 H        0.8110     4.0120    -1.8580 H     1 <1>   0.0800 
 28 H       -0.8130     3.0010     1.6440 H     1 <1>   0.0800 
 29 H       -1.9130     2.2410     0.5310 H     1 <1>   0.0800 
 30 H        4.4390     1.7350    -1.2230 H     1 <1>   0.0800 
 31 H        3.7250     0.1760    -0.8690 H     1 <1>   0.0800 
 32 H        0.8230     6.0810    -0.8370 H     1 <1>   0.0800 
 33 H        0.9220     5.4360     0.7750 H     1 <1>   0.0800 
 34 H       -2.8490     4.4150     0.5010 H     1 <1>   0.1500 
 35 H       -1.4370     6.3980    -0.2060 H     1 <1>   0.1500 
 36 H        6.6320     2.2050    -0.5440 H     1 <1>   0.3700 
 37 H        8.4240     0.1250    -0.2150 H     1 <1>   0.0800 
 38 H        7.9760     0.6000     1.4050 H     1 <1>   0.0800 
 39 H        8.2920     2.9820     2.1420 H     1 <1>   0.1500 
 40 H        9.7190     1.6200    -1.6430 H     1 <1>   0.1500 
 41 H        9.7060     4.9780     1.9520 H     1 <1>   0.1500 
 42 H       11.1310     3.6160    -1.8250 H     1 <1>   0.1500 
 43 H       11.1280     5.2980    -0.0300 H     1 <1>   0.1500 
@<TRIPOS>BOND
  1   1   2  2   
  2   2   3  am  
  3   2   4  1   
  4   3   5  am  
  5   3   6  1   
  6   4   7  1   
  7   4   8  1   
  8   4  24  1   
  9   5   7  1   
 10   5   9  2   
 11   6  10  1   
 12   6  25  1   
 13   6  26  1   
 14   7  11  1   
 15   7  27  1   
 16   8  12  1   
 17   8  28  1   
 18   8  29  1   
 19  10  13  1   
 20  10  30  1   
 21  10  31  1   
 22  11  14  1   
 23  11  32  1   
 24  11  33  1   
 25  12  14  2   
 26  12  34  1   
 27  13  15  2   
 28  13  16  am  
 29  14  35  1   
 30  16  17  1   
 31  16  36  1   
 32  17  18  1   
 33  17  37  1   
 34  17  38  1   
 35  18  19  ar  
 36  18  20  ar  
 37  19  21  ar  
 38  19  39  1   
 39  20  22  ar  
 40  20  40  1   
 41  21  23  ar  
 42  21  41  1   
 43  22  23  ar  
 44  22  42  1   
 45  23  43  1   
@<TRIPOS>SUBSTRUCTURE
  1 ****   6 GROUP 4 **** **** 0

# MOE 2024.06 (io_trps.svl 2023.06)
