@<TRIPOS>MOLECULE
NONAME
35 35 1 0 0 
SMALL
USER_CHARGES


@<TRIPOS>ATOM
  1 S       -0.0790    -0.1530    -0.0120 S.o2  1 <1>   1.4470 
  2 O       -0.1960    -1.0140    -1.1660 O.2   1 <1>  -0.6500 
  3 O       -0.2140    -0.6940     1.3220 O.2   1 <1>  -0.6500 
  4 N       -1.3180     0.9560    -0.2230 N.am  1 <1>  -0.9140 
  5 C        1.4090     0.8710    -0.1210 C.ar  1 <1>  -0.0090 
  6 C       -2.5890     0.4820     0.2900 C.3   1 <1>   0.1960 
  7 C        2.3840     0.6330    -1.0850 C.ar  1 <1>  -0.1500 
  8 C        1.6080     1.9250     0.7630 C.ar  1 <1>  -0.1500 
  9 C       -3.6740     1.4900    -0.0830 C.3   1 <1>  -0.1600 
 10 C        3.5170     1.4230    -1.1620 C.ar  1 <1>  -0.1500 
 11 C        2.7380     2.7200     0.6940 C.ar  1 <1>  -0.1500 
 12 C       -5.0460     1.0490     0.4450 C.3   1 <1>  -0.1600 
 13 C        3.7020     2.4700    -0.2760 C.ar  1 <1>   0.0820 
 14 C       -6.1310     2.0620     0.0700 C.3   1 <1>  -0.2400 
 15 O        4.8350     3.1940    -0.4160 O.3   1 <1>  -0.3620 
 16 C        5.1360     4.2730     0.4690 C.3   1 <1>   0.0140 
 17 C        6.4670     4.9440     0.1720 C.2   1 <1>   0.9060 
 18 O        6.4860     5.9290    -0.5770 O.co2 1 <1>  -0.9000 
 19 O        7.4830     4.5370     0.7500 O.co2 1 <1>  -0.9000 
 20 H       -1.4130     1.0110    -1.2350 H     1 <1>   0.4200 
 21 H       -2.5340     0.3860     1.3630 H     1 <1>   0.0800 
 22 H       -2.8200    -0.4840    -0.1300 H     1 <1>   0.0800 
 23 H        2.2580    -0.1770    -1.7830 H     1 <1>   0.1500 
 24 H        0.8650     2.1240     1.5170 H     1 <1>   0.1500 
 25 H       -3.7220     1.5850    -1.1540 H     1 <1>   0.0800 
 26 H       -3.4230     2.4480     0.3380 H     1 <1>   0.0800 
 27 H        4.2700     1.2390    -1.9070 H     1 <1>   0.1500 
 28 H        2.8550     3.5250     1.3950 H     1 <1>   0.1500 
 29 H       -5.0080     0.9540     1.5180 H     1 <1>   0.0800 
 30 H       -5.3030     0.0870     0.0340 H     1 <1>   0.0800 
 31 H       -5.9080     3.0270     0.4890 H     1 <1>   0.0800 
 32 H       -7.0840     1.7370     0.4500 H     1 <1>   0.0800 
 33 H       -6.2050     2.1570    -1.0000 H     1 <1>   0.0800 
 34 H        5.1730     3.8890     1.4700 H     1 <1>   0.0800 
 35 H        4.3630     5.0100     0.3790 H     1 <1>   0.0800 
@<TRIPOS>BOND
  1   1   2  2   
  2   1   3  2   
  3   1   4  am  
  4   1   5  1   
  5   4   6  1   
  6   4  20  1   
  7   5   7  ar  
  8   5   8  ar  
  9   6   9  1   
 10   6  21  1   
 11   6  22  1   
 12   7  10  ar  
 13   7  23  1   
 14   8  11  ar  
 15   8  24  1   
 16   9  12  1   
 17   9  25  1   
 18   9  26  1   
 19  10  13  ar  
 20  10  27  1   
 21  11  13  ar  
 22  11  28  1   
 23  12  14  1   
 24  12  29  1   
 25  12  30  1   
 26  13  15  1   
 27  14  31  1   
 28  14  32  1   
 29  14  33  1   
 30  15  16  1   
 31  16  17  1   
 32  16  34  1   
 33  16  35  1   
 34  17  18  ar  
 35  17  19  ar  
@<TRIPOS>SUBSTRUCTURE
  1 ****   8 GROUP 4 **** **** 0

# MOE 2024.06 (io_trps.svl 2023.06)
