@<TRIPOS>MOLECULE
NONAME
43 44 1 0 0 
SMALL
USER_CHARGES


@<TRIPOS>ATOM
  1 F        1.6200     0.2770     1.4950 F     1 <1>  -0.3400 
  2 C        1.7920    -1.0380     1.3700 C.3   1 <1>   1.0200 
  3 F        1.2600    -1.5670     2.4700 F     1 <1>  -0.3400 
  4 F        3.1030    -1.2330     1.4730 F     1 <1>  -0.3400 
  5 C        1.1420    -1.6050     0.0380 C.3   1 <1>   0.5800 
  6 O        1.7590    -1.1560    -1.1370 O.3   1 <1>  -0.6800 
  7 N        1.1090    -3.0860    -0.0370 N.am  1 <1>  -0.2980 
  8 C       -0.3500    -1.2530    -0.0660 C.3   1 <1>  -0.0990 
  9 N       -0.1820    -3.5670    -0.0430 N.2   1 <1>  -0.5120 
 10 C        2.2720    -3.8280    -0.1500 C.2   1 <1>   0.7800 
 11 C       -1.0200    -2.6100    -0.0660 C.2   1 <1>   0.3030 
 12 O        3.3350    -3.3020    -0.4240 O.2   1 <1>  -0.5700 
 13 O        2.1830    -5.1460     0.0420 O.3   1 <1>  -0.4300 
 14 C       -2.4610    -2.7340    -0.0820 C.ar  1 <1>   0.0860 
 15 C        3.2190    -6.1000    -0.0250 C.3   1 <1>   0.2800 
 16 C       -3.3180    -1.6320    -0.1820 C.ar  1 <1>  -0.1500 
 17 C       -3.0640    -3.9910     0.0050 C.ar  1 <1>  -0.1500 
 18 C        2.5470    -7.4390     0.2810 C.3   1 <1>  -0.2400 
 19 C        4.2770    -5.8080     1.0450 C.3   1 <1>  -0.2400 
 20 C        3.8100    -6.1410    -1.4390 C.3   1 <1>  -0.2400 
 21 C       -4.6930    -1.7810    -0.1890 C.ar  1 <1>  -0.1500 
 22 C       -4.4380    -4.1440    -0.0020 C.ar  1 <1>  -0.1500 
 23 C       -5.2630    -3.0380    -0.0970 C.ar  1 <1>  -0.1430 
 24 C       -6.7720    -3.2030    -0.1060 C.3   1 <1>  -0.0970 
 25 H        2.6110    -1.6440    -1.2250 H     1 <1>   0.4000 
 26 H       -0.5680    -0.7220    -0.9750 H     1 <1>   0.0800 
 27 H       -0.6870    -0.6820     0.7780 H     1 <1>   0.0800 
 28 H       -2.9190    -0.6380    -0.2590 H     1 <1>   0.1500 
 29 H       -2.4420    -4.8660     0.0800 H     1 <1>   0.1500 
 30 H        3.2670    -8.2360     0.2510 H     1 <1>   0.0800 
 31 H        1.7810    -7.6450    -0.4460 H     1 <1>   0.0800 
 32 H        2.1020    -7.4180     1.2600 H     1 <1>   0.0800 
 33 H        3.8150    -5.7160     2.0120 H     1 <1>   0.0800 
 34 H        4.8170    -4.9060     0.8230 H     1 <1>   0.0800 
 35 H        4.9890    -6.6110     1.0840 H     1 <1>   0.0800 
 36 H        3.0290    -6.2720    -2.1660 H     1 <1>   0.0800 
 37 H        4.4970    -6.9630    -1.5240 H     1 <1>   0.0800 
 38 H        4.3530    -5.2410    -1.6600 H     1 <1>   0.0800 
 39 H       -5.3220    -0.9110    -0.2690 H     1 <1>   0.1500 
 40 H       -4.8620    -5.1310     0.0670 H     1 <1>   0.1500 
 41 H       -7.2490    -2.3370     0.3160 H     1 <1>   0.0800 
 42 H       -7.0600    -4.0620     0.4740 H     1 <1>   0.0800 
 43 H       -7.1180    -3.3340    -1.1150 H     1 <1>   0.0800 
@<TRIPOS>BOND
  1   1   2  1   
  2   2   3  1   
  3   2   4  1   
  4   2   5  1   
  5   5   6  1   
  6   5   7  1   
  7   5   8  1   
  8   6  25  1   
  9   7   9  1   
 10   7  10  am  
 11   8  11  1   
 12   8  26  1   
 13   8  27  1   
 14   9  11  2   
 15  10  12  2   
 16  10  13  1   
 17  11  14  1   
 18  13  15  1   
 19  14  16  ar  
 20  14  17  ar  
 21  15  18  1   
 22  15  19  1   
 23  15  20  1   
 24  16  21  ar  
 25  16  28  1   
 26  17  22  ar  
 27  17  29  1   
 28  18  30  1   
 29  18  31  1   
 30  18  32  1   
 31  19  33  1   
 32  19  34  1   
 33  19  35  1   
 34  20  36  1   
 35  20  37  1   
 36  20  38  1   
 37  21  23  ar  
 38  21  39  1   
 39  22  23  ar  
 40  22  40  1   
 41  23  24  1   
 42  24  41  1   
 43  24  42  1   
 44  24  43  1   
@<TRIPOS>SUBSTRUCTURE
  1 ****   9 GROUP 4 **** **** 0

# MOE 2024.06 (io_trps.svl 2023.06)
