@<TRIPOS>MOLECULE
10439
45 47 1 0 0 
SMALL
USER_CHARGES


@<TRIPOS>ATOM
  1 BR       2.0980     0.5910    -2.3410 Br    1 <1>  -0.1190 
  2 C        2.3050    -0.6880    -0.9110 C.ar  1 <1>   0.1030 
  3 C        2.3670    -0.2590     0.4070 C.ar  1 <1>   0.0740 
  4 C        2.3820    -2.0260    -1.2480 C.ar  1 <1>  -0.1580 
  5 O        2.2850     1.0460     0.7400 O.3   1 <1>  -0.3690 
  6 C        2.5000    -1.2050     1.4080 C.ar  1 <1>  -0.1580 
  7 C        2.5180    -2.9750    -0.2410 C.ar  1 <1>  -0.1520 
  8 C        3.4950     1.7670     0.7150 C.3   1 <1>   0.0310 
  9 C        2.5770    -2.5510     1.0870 C.ar  1 <1>  -0.1580 
 10 C        2.6030    -4.4580    -0.6050 C.3   1 <1>   0.7120 
 11 N        1.3680    -5.1170    -0.1120 N.pl3 1 <1>  -0.4630 
 12 C        3.8530    -5.0780     0.0130 C.2   1 <1>  -0.1320 
 13 N        0.0900    -4.8720    -0.5310 N.2   1 <1>  -0.2670 
 14 C        1.3760    -5.9790     0.8740 C.cat 1 <1>   1.0690 
 15 C        3.7480    -6.0050     1.0020 C.2   1 <1>   0.1570 
 16 C        5.0240    -4.5230    -0.5740 C.2   1 <1>   0.7020 
 17 C       -0.6280    -5.6050     0.2380 C.2   1 <1>   0.4970 
 18 N        0.1350    -6.3140     1.1290 N.pl3 1 <1>  -0.7040 
 19 N        2.5050    -6.4080     1.4570 N.pl3 1 <1>  -0.6940 
 20 C        4.9060    -6.7070     1.6950 C.3   1 <1>  -0.1100 
 21 O        5.0450    -4.1990    -1.7420 O.2   1 <1>  -0.5750 
 22 O        6.0840    -4.3330     0.2130 O.3   1 <1>  -0.4360 
 23 C        7.3010    -3.6970    -0.1320 C.3   1 <1>   0.1920 
 24 C        7.0530    -2.2350    -0.5140 C.3   1 <1>  -0.2470 
 25 C        8.0460    -4.4930    -1.2050 C.3   1 <1>  -0.2470 
 26 H        2.3360    -2.3030    -2.2870 H     1 <1>   0.1420 
 27 H        2.5410    -0.8790     2.4330 H     1 <1>   0.1420 
 28 H        3.2840     2.7850     0.9900 H     1 <1>   0.0710 
 29 H        3.9050     1.7320    -0.2780 H     1 <1>   0.0710 
 30 H        4.1770     1.3270     1.4200 H     1 <1>   0.0710 
 31 H        2.6860    -3.2560     1.8920 H     1 <1>   0.1420 
 32 H        2.6280    -4.5720    -1.6760 H     1 <1>   0.0710 
 33 H       -1.7060    -5.6690     0.2030 H     1 <1>   0.1420 
 34 H       -0.2070    -6.9600     1.8360 H     1 <1>   0.4440 
 35 H        2.4430    -7.0860     2.2180 H     1 <1>   0.4440 
 36 H        4.7150    -7.7630     1.7710 H     1 <1>   0.0710 
 37 H        5.0420    -6.3080     2.6850 H     1 <1>   0.0710 
 38 H        5.8280    -6.5930     1.1550 H     1 <1>   0.0710 
 39 H        7.9000    -3.7080     0.7630 H     1 <1>   0.0710 
 40 H        6.5300    -2.1570    -1.4490 H     1 <1>   0.0710 
 41 H        7.9950    -1.7290    -0.6230 H     1 <1>   0.0710 
 42 H        6.4910    -1.7390     0.2560 H     1 <1>   0.0710 
 43 H        7.5350    -4.4520    -2.1500 H     1 <1>   0.0710 
 44 H        8.1580    -5.5170    -0.8990 H     1 <1>   0.0710 
 45 H        9.0260    -4.0740    -1.3450 H     1 <1>   0.0710 
@<TRIPOS>BOND
  1   1   2  1   
  2   2   3  ar  
  3   2   4  ar  
  4   3   5  1   
  5   3   6  ar  
  6   4   7  ar  
  7   4  26  1   
  8   5   8  1   
  9   6   9  ar  
 10   6  27  1   
 11   7   9  ar  
 12   7  10  1   
 13   8  28  1   
 14   8  29  1   
 15   8  30  1   
 16   9  31  1   
 17  10  11  1   
 18  10  12  1   
 19  10  32  1   
 20  11  13  1   
 21  11  14  ar  
 22  12  15  2   
 23  12  16  1   
 24  13  17  2   
 25  14  18  ar  
 26  14  19  ar  
 27  15  19  1   
 28  15  20  1   
 29  16  21  2   
 30  16  22  1   
 31  17  18  1   
 32  17  33  1   
 33  18  34  1   
 34  19  35  1   
 35  20  36  1   
 36  20  37  1   
 37  20  38  1   
 38  22  23  1   
 39  23  24  1   
 40  23  25  1   
 41  23  39  1   
 42  24  40  1   
 43  24  41  1   
 44  24  42  1   
 45  25  43  1   
 46  25  44  1   
 47  25  45  1   
@<TRIPOS>SUBSTRUCTURE
  1 ****   7 GROUP 4 **** **** 0

# MOE 2024.06 (io_trps.svl 2023.06)
