@<TRIPOS>MOLECULE
NONAME
40 41 1 0 0 
SMALL
USER_CHARGES


@<TRIPOS>ATOM
  1 O       -0.0090     0.9830     1.8290 O.2   1 <1>  -0.5700 
  2 C        0.1450     2.1020     1.3770 C.2   1 <1>   0.5440 
  3 N       -0.9590     2.8300     0.9760 N.am  1 <1>  -0.6600 
  4 C        1.4870     2.6400     1.2750 C.ar  1 <1>   0.0860 
  5 C       -0.8760     4.1070     0.2140 C.3   1 <1>   0.1400 
  6 C       -2.3460     2.3190     1.1600 C.3   1 <1>   0.1400 
  7 C        2.4080     2.1090     0.3770 C.ar  1 <1>  -0.1500 
  8 C        1.8970     3.7090     2.0700 C.ar  1 <1>  -0.1500 
  9 C       -1.5340     3.9330    -1.1580 C.3   1 <1>  -0.1600 
 10 C       -3.0130     2.1330    -0.2070 C.3   1 <1>  -0.1600 
 11 C        3.6870     2.6240     0.2590 C.ar  1 <1>   0.0830 
 12 C        3.1720     4.2340     1.9640 C.ar  1 <1>  -0.1500 
 13 C       -2.9800     3.4270    -1.0350 C.3   1 <1>  -0.0800 
 14 O        4.5000     2.0340    -0.6510 O.3   1 <1>  -0.3630 
 15 C        4.0700     3.6970     1.0590 C.ar  1 <1>  -0.1500 
 16 C       -3.5930     3.1980    -2.4200 C.3   1 <1>  -0.2400 
 17 C        5.8510     2.4100    -0.7810 C.3   1 <1>   0.2580 
 18 C        6.4870     1.5290    -1.8380 C.2   1 <1>  -0.2880 
 19 C        7.1170     1.9610    -2.9360 C.2   1 <1>  -0.3000 
 20 H        0.1460     4.4140     0.0770 H     1 <1>   0.0800 
 21 H       -1.3850     4.8770     0.7680 H     1 <1>   0.0800 
 22 H       -2.9040     3.0280     1.7460 H     1 <1>   0.0800 
 23 H       -2.3440     1.3810     1.6890 H     1 <1>   0.0800 
 24 H        2.1180     1.2750    -0.2380 H     1 <1>   0.1500 
 25 H        1.2010     4.1250     2.7780 H     1 <1>   0.1500 
 26 H       -0.9490     3.2360    -1.7330 H     1 <1>   0.0800 
 27 H       -1.5220     4.8760    -1.6750 H     1 <1>   0.0800 
 28 H       -4.0320     1.8210    -0.0590 H     1 <1>   0.0800 
 29 H       -2.5010     1.3440    -0.7310 H     1 <1>   0.0800 
 30 H        3.4670     5.0610     2.5890 H     1 <1>   0.1500 
 31 H       -3.5620     4.1760    -0.5240 H     1 <1>   0.0800 
 32 H        5.0530     4.1240     0.9950 H     1 <1>   0.1500 
 33 H       -3.0380     2.4520    -2.9620 H     1 <1>   0.0800 
 34 H       -3.5850     4.1120    -2.9880 H     1 <1>   0.0800 
 35 H       -4.6120     2.8670    -2.3270 H     1 <1>   0.0800 
 36 H        6.3360     2.2670     0.1690 H     1 <1>   0.0800 
 37 H        5.8930     3.4460    -1.0700 H     1 <1>   0.0800 
 38 H        6.3720     0.4830    -1.6090 H     1 <1>   0.1500 
 39 H        7.5570     1.3070    -3.6690 H     1 <1>   0.1500 
 40 H        7.2460     2.9970    -3.1970 H     1 <1>   0.1500 
@<TRIPOS>BOND
  1   1   2  2   
  2   2   3  am  
  3   2   4  1   
  4   3   5  1   
  5   3   6  1   
  6   4   7  ar  
  7   4   8  ar  
  8   5   9  1   
  9   5  20  1   
 10   5  21  1   
 11   6  10  1   
 12   6  22  1   
 13   6  23  1   
 14   7  11  ar  
 15   7  24  1   
 16   8  12  ar  
 17   8  25  1   
 18   9  13  1   
 19   9  26  1   
 20   9  27  1   
 21  10  13  1   
 22  10  28  1   
 23  10  29  1   
 24  11  14  1   
 25  11  15  ar  
 26  12  15  ar  
 27  12  30  1   
 28  13  16  1   
 29  13  31  1   
 30  14  17  1   
 31  15  32  1   
 32  16  33  1   
 33  16  34  1   
 34  16  35  1   
 35  17  18  1   
 36  17  36  1   
 37  17  37  1   
 38  18  19  2   
 39  18  38  1   
 40  19  39  1   
 41  19  40  1   
@<TRIPOS>SUBSTRUCTURE
  1 ****   4 GROUP 4 **** **** 0

# MOE 2024.06 (io_trps.svl 2023.06)
