@<TRIPOS>MOLECULE
NONAME
34 34 1 0 0 
SMALL
USER_CHARGES


@<TRIPOS>ATOM
  1 O        0.3260     1.6730     1.5340 O.2   1 <1>  -0.5700 
  2 C        0.8170     1.7900     0.4290 C.2   1 <1>   0.5440 
  3 N        0.0300     2.0660    -0.6570 N.am  1 <1>  -0.7300 
  4 C        2.2460     1.6400     0.2320 C.ar  1 <1>   0.0860 
  5 C       -1.4300     2.2610    -0.7230 C.3   1 <1>   0.2200 
  6 C        3.1010     2.7460     0.3160 C.ar  1 <1>  -0.1440 
  7 C        2.8020     0.3910    -0.0670 C.ar  1 <1>  -0.1430 
  8 C       -1.8380     3.4720     0.1130 C.3   1 <1>  -0.2400 
  9 C       -2.1530     0.9880    -0.2900 C.3   1 <1>  -0.2400 
 10 C        4.4590     2.6010     0.0900 C.ar  1 <1>  -0.1500 
 11 C        2.5490     4.1230     0.6640 C.3   1 <1>  -0.0970 
 12 C        4.1630     0.2640    -0.2900 C.ar  1 <1>  -0.1500 
 13 C        1.9180    -0.8480    -0.1450 C.3   1 <1>  -0.0970 
 14 C        4.9970     1.3640    -0.2180 C.ar  1 <1>  -0.1430 
 15 C        6.4880     1.2150    -0.4620 C.3   1 <1>  -0.0970 
 16 H        0.5070     2.1510    -1.5540 H     1 <1>   0.3700 
 17 H       -1.6890     2.4610    -1.7500 H     1 <1>   0.0800 
 18 H       -1.6440     3.2960     1.1560 H     1 <1>   0.0800 
 19 H       -2.8890     3.6610    -0.0060 H     1 <1>   0.0800 
 20 H       -1.2960     4.3430    -0.2060 H     1 <1>   0.0800 
 21 H       -1.9630     0.7780     0.7480 H     1 <1>   0.0800 
 22 H       -1.8270     0.1560    -0.8850 H     1 <1>   0.0800 
 23 H       -3.2130     1.1080    -0.4200 H     1 <1>   0.0800 
 24 H        5.1090     3.4560     0.1560 H     1 <1>   0.1500 
 25 H        3.3370     4.8480     0.7490 H     1 <1>   0.0800 
 26 H        1.8630     4.4500    -0.0970 H     1 <1>   0.0800 
 27 H        2.0270     4.0800     1.6040 H     1 <1>   0.0800 
 28 H        4.5820    -0.7000    -0.5200 H     1 <1>   0.1500 
 29 H        1.2040    -0.7440    -0.9420 H     1 <1>   0.0800 
 30 H        1.3850    -0.9750     0.7810 H     1 <1>   0.0800 
 31 H        2.5020    -1.7330    -0.3220 H     1 <1>   0.0800 
 32 H        6.8940     2.1210    -0.8750 H     1 <1>   0.0800 
 33 H        6.6780     0.4130    -1.1520 H     1 <1>   0.0800 
 34 H        6.9880     1.0010     0.4660 H     1 <1>   0.0800 
@<TRIPOS>BOND
  1   1   2  2   
  2   2   3  am  
  3   2   4  1   
  4   3   5  1   
  5   3  16  1   
  6   4   6  ar  
  7   4   7  ar  
  8   5   8  1   
  9   5   9  1   
 10   5  17  1   
 11   6  10  ar  
 12   6  11  1   
 13   7  12  ar  
 14   7  13  1   
 15   8  18  1   
 16   8  19  1   
 17   8  20  1   
 18   9  21  1   
 19   9  22  1   
 20   9  23  1   
 21  10  14  ar  
 22  10  24  1   
 23  11  25  1   
 24  11  26  1   
 25  11  27  1   
 26  12  14  ar  
 27  12  28  1   
 28  13  29  1   
 29  13  30  1   
 30  13  31  1   
 31  14  15  1   
 32  15  32  1   
 33  15  33  1   
 34  15  34  1   
@<TRIPOS>SUBSTRUCTURE
  1 ****   4 GROUP 4 **** **** 0

# MOE 2024.06 (io_trps.svl 2023.06)
