@<TRIPOS>MOLECULE
NONAME
43 44 1 0 0 
SMALL
USER_CHARGES


@<TRIPOS>ATOM
  1 O       -0.6390     0.2540    -0.8170 O.3   1 <1>  -0.8500 
  2 C       -1.8230     0.0630    -0.5410 C.2   1 <1>  -0.2880 
  3 C       -2.3840    -1.1690    -0.1460 C.2   1 <1>  -0.1240 
  4 C       -2.6680     1.3140    -0.6490 C.3   1 <1>  -0.0220 
  5 C       -3.7390    -1.2780     0.1970 C.2   1 <1>   0.4950 
  6 C       -1.4340    -2.3970    -0.1100 C.3   1 <1>   0.1960 
  7 C       -4.1330     0.9710    -0.9100 C.3   1 <1>  -0.1600 
  8 O       -4.3660    -2.2720     0.5780 O.2   1 <1>  -0.5700 
  9 C       -4.6250    -0.0420     0.1270 C.3   1 <1>  -0.0990 
 10 C       -2.1130    -3.7840    -0.3490 C.2   1 <1>  -0.1240 
 11 C       -0.4440    -2.2420     1.0800 C.3   1 <1>  -0.1600 
 12 C       -2.1200    -4.8690     0.5610 C.2   1 <1>  -0.2880 
 13 C       -2.7580    -3.8970    -1.5900 C.2   1 <1>   0.4950 
 14 C        1.0270    -2.5880     0.7530 C.3   1 <1>  -0.0800 
 15 O       -1.5900    -4.9340     1.6670 O.3   1 <1>  -0.8500 
 16 C       -2.8600    -6.1520     0.2350 C.3   1 <1>  -0.0220 
 17 O       -2.7830    -3.0590    -2.5000 O.2   1 <1>  -0.5700 
 18 C       -3.5290    -5.1570    -1.9470 C.3   1 <1>  -0.0990 
 19 C        1.2260    -4.0500     0.3370 C.3   1 <1>  -0.2400 
 20 C        1.9160    -2.2740     1.9620 C.3   1 <1>  -0.2400 
 21 C       -2.9450    -6.3950    -1.2680 C.3   1 <1>  -0.1600 
 22 H       -2.2910     1.9160    -1.4560 H     1 <1>   0.0800 
 23 H       -2.5620     1.8730     0.2630 H     1 <1>   0.0800 
 24 H       -0.8220    -2.2580    -0.9830 H     1 <1>   0.0800 
 25 H       -4.2050     0.5310    -1.8900 H     1 <1>   0.0800 
 26 H       -4.7320     1.8620    -0.8860 H     1 <1>   0.0800 
 27 H       -4.6400     0.4070     1.1020 H     1 <1>   0.0800 
 28 H       -5.6250    -0.3430    -0.1240 H     1 <1>   0.0800 
 29 H       -0.7940    -2.7740     1.9390 H     1 <1>   0.0800 
 30 H       -0.4490    -1.2060     1.3650 H     1 <1>   0.0800 
 31 H        1.3330    -1.9540    -0.0640 H     1 <1>   0.0800 
 32 H       -3.8420    -6.0870     0.6660 H     1 <1>   0.0800 
 33 H       -2.3480    -6.9760     0.6990 H     1 <1>   0.0800 
 34 H       -3.5110    -5.2930    -3.0120 H     1 <1>   0.0800 
 35 H       -4.5480    -5.0120    -1.6380 H     1 <1>   0.0800 
 36 H        0.9000    -4.7030     1.1270 H     1 <1>   0.0800 
 37 H        2.2580    -4.2470     0.1180 H     1 <1>   0.0800 
 38 H        0.6400    -4.2720    -0.5350 H     1 <1>   0.0800 
 39 H        1.6180    -2.8780     2.8000 H     1 <1>   0.0800 
 40 H        1.8160    -1.2370     2.2270 H     1 <1>   0.0800 
 41 H        2.9460    -2.4730     1.7300 H     1 <1>   0.0800 
 42 H       -3.5510    -7.2590    -1.4690 H     1 <1>   0.0800 
 43 H       -1.9510    -6.5690    -1.6420 H     1 <1>   0.0800 
@<TRIPOS>BOND
  1   1   2  1   
  2   2   3  2   
  3   2   4  1   
  4   3   5  1   
  5   3   6  1   
  6   4   7  1   
  7   4  22  1   
  8   4  23  1   
  9   5   8  2   
 10   5   9  1   
 11   6  10  1   
 12   6  11  1   
 13   6  24  1   
 14   7   9  1   
 15   7  25  1   
 16   7  26  1   
 17   9  27  1   
 18   9  28  1   
 19  10  12  2   
 20  10  13  1   
 21  11  14  1   
 22  11  29  1   
 23  11  30  1   
 24  12  15  1   
 25  12  16  1   
 26  13  17  2   
 27  13  18  1   
 28  14  19  1   
 29  14  20  1   
 30  14  31  1   
 31  16  21  1   
 32  16  32  1   
 33  16  33  1   
 34  18  21  1   
 35  18  34  1   
 36  18  35  1   
 37  19  36  1   
 38  19  37  1   
 39  19  38  1   
 40  20  39  1   
 41  20  40  1   
 42  20  41  1   
 43  21  42  1   
 44  21  43  1   
@<TRIPOS>SUBSTRUCTURE
  1 ****   6 GROUP 4 **** **** 0

# MOE 2024.06 (io_trps.svl 2023.06)
