@<TRIPOS>MOLECULE
NONAME
23 23 1 0 0 
SMALL
USER_CHARGES


@<TRIPOS>ATOM
  1 F       -1.1690     0.5250     0.3740 F     1 <1>  -0.3400 
  2 C       -1.3740    -0.7900     0.3180 C.3   1 <1>   1.0200 
  3 F       -0.1750    -1.3400     0.1490 F     1 <1>  -0.3400 
  4 F       -1.7650    -1.1470     1.5390 F     1 <1>  -0.3400 
  5 C       -2.3930    -1.2140    -0.7890 C.3   1 <1>   0.3440 
  6 O       -2.0090    -0.8670    -2.0980 O.3   1 <1>  -0.6800 
  7 C       -3.7980    -0.6480    -0.5640 C.ar  1 <1>  -0.1440 
  8 C       -4.7850    -1.4360     0.0230 C.ar  1 <1>   0.0830 
  9 C       -4.0990     0.6580    -0.9300 C.ar  1 <1>  -0.1500 
 10 O       -4.4490    -2.7020     0.3840 O.3   1 <1>  -0.3630 
 11 C       -6.0600    -0.9120     0.2240 C.ar  1 <1>  -0.1500 
 12 C       -5.3670     1.1740    -0.7270 C.ar  1 <1>  -0.1500 
 13 C       -5.3250    -3.5170     1.1310 C.3   1 <1>   0.0400 
 14 C       -6.3470     0.3880    -0.1510 C.ar  1 <1>  -0.1500 
 15 H       -2.4280    -2.2870    -0.7750 H     1 <1>   0.0800 
 16 H       -2.7690    -1.0110    -2.6940 H     1 <1>   0.4000 
 17 H       -3.3440     1.2870    -1.3740 H     1 <1>   0.1500 
 18 H       -6.8420    -1.4970     0.6680 H     1 <1>   0.1500 
 19 H       -5.5880     2.1870    -1.0150 H     1 <1>   0.1500 
 20 H       -5.5780    -3.0110     2.0470 H     1 <1>   0.0800 
 21 H       -4.8170    -4.4390     1.3530 H     1 <1>   0.0800 
 22 H       -6.2040    -3.7170     0.5450 H     1 <1>   0.0800 
 23 H       -7.3340     0.7900     0.0060 H     1 <1>   0.1500 
@<TRIPOS>BOND
  1   1   2  1   
  2   2   3  1   
  3   2   4  1   
  4   2   5  1   
  5   5   6  1   
  6   5   7  1   
  7   5  15  1   
  8   6  16  1   
  9   7   8  ar  
 10   7   9  ar  
 11   8  10  1   
 12   8  11  ar  
 13   9  12  ar  
 14   9  17  1   
 15  10  13  1   
 16  11  14  ar  
 17  11  18  1   
 18  12  14  ar  
 19  12  19  1   
 20  13  20  1   
 21  13  21  1   
 22  13  22  1   
 23  14  23  1   
@<TRIPOS>SUBSTRUCTURE
  1 ****   7 GROUP 4 **** **** 0

# MOE 2024.06 (io_trps.svl 2023.06)
