@<TRIPOS>MOLECULE
NONAME
37 38 1 0 0 
SMALL
USER_CHARGES


@<TRIPOS>ATOM
  1 O       -7.7460     2.2950    -0.3220 O.3   1 <1>  -0.2800 
  2 C       -8.5310     3.3550    -0.1660 C.2   1 <1>   0.0870 
  3 C       -6.4960     2.6460    -0.1180 C.2   1 <1>  -0.0400 
  4 C       -9.9640     3.2390    -0.3350 C.ar  1 <1>   0.0530 
  5 C       -7.7470     4.4210     0.1490 C.2   1 <1>  -0.1500 
  6 C       -6.4280     3.9640     0.1810 C.2   1 <1>  -0.1500 
  7 C       -5.4470     1.5600    -0.2540 C.3   1 <1>   0.5230 
  8 C      -10.8030     4.3430    -0.1760 C.ar  1 <1>  -0.1500 
  9 C      -10.5640     2.0230    -0.6640 C.ar  1 <1>  -0.1500 
 10 N       -4.1000     2.1290     0.0080 N.4   1 <1>  -0.9060 
 11 C      -12.1730     4.2390    -0.3370 C.ar  1 <1>  -0.1500 
 12 C      -11.9330     1.9120    -0.8260 C.ar  1 <1>  -0.1500 
 13 C       -2.9640     1.2140    -0.0810 C.3   1 <1>   0.5030 
 14 C      -12.7420     3.0220    -0.6620 C.ar  1 <1>  -0.1500 
 15 C       -1.7230     2.0440     0.2290 C.3   1 <1>  -0.2400 
 16 C       -3.1150     0.1000     0.9540 C.3   1 <1>  -0.2400 
 17 C       -2.8680     0.6440    -1.4950 C.3   1 <1>  -0.2400 
 18 H       -8.0570     5.4330     0.3430 H     1 <1>   0.1500 
 19 H       -5.5850     4.5920     0.4050 H     1 <1>   0.1500 
 20 H       -5.4950     1.1520    -1.2500 H     1 <1>   0.0800 
 21 H       -5.6660     0.7740     0.4500 H     1 <1>   0.0800 
 22 H      -10.3840     5.2990     0.0770 H     1 <1>   0.1500 
 23 H       -9.9530     1.1490    -0.7950 H     1 <1>   0.1500 
 24 H       -4.1120     2.5400     0.9450 H     1 <1>   0.4500 
 25 H       -3.9510     2.8950    -0.6540 H     1 <1>   0.4500 
 26 H      -12.7990     5.1050    -0.2080 H     1 <1>   0.1500 
 27 H      -12.3710     0.9620    -1.0800 H     1 <1>   0.1500 
 28 H      -13.8080     2.9380    -0.7880 H     1 <1>   0.1500 
 29 H       -1.7680     2.4610     1.2200 H     1 <1>   0.0800 
 30 H       -1.5970     2.8390    -0.4850 H     1 <1>   0.0800 
 31 H       -0.8450     1.4220     0.1790 H     1 <1>   0.0800 
 32 H       -3.2320     0.5010     1.9450 H     1 <1>   0.0800 
 33 H       -2.2310    -0.5140     0.9540 H     1 <1>   0.0800 
 34 H       -3.9460    -0.5450     0.7300 H     1 <1>   0.0800 
 35 H       -2.8110     1.4280    -2.2290 H     1 <1>   0.0800 
 36 H       -3.6990     0.0000    -1.7240 H     1 <1>   0.0800 
 37 H       -1.9750     0.0490    -1.5840 H     1 <1>   0.0800 
@<TRIPOS>BOND
  1   1   2  1   
  2   1   3  1   
  3   2   4  1   
  4   2   5  2   
  5   3   6  2   
  6   3   7  1   
  7   4   8  ar  
  8   4   9  ar  
  9   5   6  1   
 10   5  18  1   
 11   6  19  1   
 12   7  10  1   
 13   7  20  1   
 14   7  21  1   
 15   8  11  ar  
 16   8  22  1   
 17   9  12  ar  
 18   9  23  1   
 19  10  13  1   
 20  10  24  1   
 21  10  25  1   
 22  11  14  ar  
 23  11  26  1   
 24  12  14  ar  
 25  12  27  1   
 26  13  15  1   
 27  13  16  1   
 28  13  17  1   
 29  14  28  1   
 30  15  29  1   
 31  15  30  1   
 32  15  31  1   
 33  16  32  1   
 34  16  33  1   
 35  16  34  1   
 36  17  35  1   
 37  17  36  1   
 38  17  37  1   
@<TRIPOS>SUBSTRUCTURE
  1 ****   1 GROUP 4 **** **** 0

# MOE 2024.06 (io_trps.svl 2023.06)
