@<TRIPOS>MOLECULE
NONAME
51 52 1 0 0 
SMALL
USER_CHARGES


@<TRIPOS>ATOM
  1 O       -0.4210    -0.4510     0.1000 O.2   1 <1>  -0.5700 
  2 C       -0.2470    -1.5870     0.4990 C.2   1 <1>   0.5440 
  3 N       -1.3420    -2.3340     0.8940 N.am  1 <1>  -0.6600 
  4 C        1.1030    -2.1150     0.5390 C.ar  1 <1>   0.0860 
  5 C       -2.6800    -1.7090     1.0920 C.3   1 <1>   0.1400 
  6 C       -1.3240    -3.8180     1.0210 C.3   1 <1>   0.1400 
  7 C        1.6410    -2.6660     1.7030 C.ar  1 <1>  -0.1500 
  8 C        1.9190    -2.0780    -0.5920 C.ar  1 <1>  -0.1500 
  9 C       -3.6830    -2.3090     0.1060 C.3   1 <1>  -0.1600 
 10 C       -2.3270    -4.4330     0.0410 C.3   1 <1>  -0.1600 
 11 C        2.9270    -3.1750     1.7290 C.ar  1 <1>  -0.1500 
 12 C        3.2070    -2.5830    -0.5740 C.ar  1 <1>  -0.1500 
 13 C       -3.7410    -3.8460     0.2200 C.3   1 <1>  -0.0190 
 14 C        3.7190    -3.1410     0.5930 C.ar  1 <1>   0.0830 
 15 C       -4.7310    -4.4810    -0.7560 C.2   1 <1>   0.6590 
 16 O        4.9620    -3.6610     0.6990 O.3   1 <1>  -0.3630 
 17 O       -5.2200    -3.8790    -1.6780 O.2   1 <1>  -0.5700 
 18 O       -5.0230    -5.7530    -0.5180 O.3   1 <1>  -0.4300 
 19 C        5.8660    -3.6480    -0.3820 C.3   1 <1>   0.1200 
 20 C       -5.9190    -6.4660    -1.3390 C.3   1 <1>   0.1200 
 21 C        7.1740    -4.2920     0.0790 C.3   1 <1>  -0.1600 
 22 C       -6.0230    -7.8900    -0.8020 C.3   1 <1>  -0.2400 
 23 C        8.2120    -4.3140    -1.0500 C.3   1 <1>  -0.1600 
 24 C        9.5190    -4.9590    -0.5820 C.3   1 <1>  -0.2400 
 25 H       -2.6300    -0.6420     0.9500 H     1 <1>   0.0800 
 26 H       -3.0030    -1.8900     2.1030 H     1 <1>   0.0800 
 27 H       -1.5840    -4.0860     2.0310 H     1 <1>   0.0800 
 28 H       -0.3460    -4.2120     0.8090 H     1 <1>   0.0800 
 29 H        1.0400    -2.6890     2.5940 H     1 <1>   0.1500 
 30 H        1.5260    -1.6390    -1.4930 H     1 <1>   0.1500 
 31 H       -3.3970    -2.0240    -0.8920 H     1 <1>   0.0800 
 32 H       -4.6570    -1.8940     0.2950 H     1 <1>   0.0800 
 33 H       -2.3550    -5.4980     0.1910 H     1 <1>   0.0800 
 34 H       -1.9860    -4.2530    -0.9650 H     1 <1>   0.0800 
 35 H        3.3300    -3.5980     2.6310 H     1 <1>   0.1500 
 36 H        3.7930    -2.5320    -1.4720 H     1 <1>   0.1500 
 37 H       -4.0840    -4.0910     1.2090 H     1 <1>   0.0800 
 38 H        6.0290    -2.6260    -0.6770 H     1 <1>   0.0800 
 39 H        5.4330    -4.2070    -1.1940 H     1 <1>   0.0800 
 40 H       -5.5380    -6.4590    -2.3470 H     1 <1>   0.0800 
 41 H       -6.8750    -5.9700    -1.3120 H     1 <1>   0.0800 
 42 H        6.9730    -5.2990     0.4010 H     1 <1>   0.0800 
 43 H        7.5630    -3.7340     0.9130 H     1 <1>   0.0800 
 44 H       -5.0590    -8.3670    -0.8270 H     1 <1>   0.0800 
 45 H       -6.7010    -8.4580    -1.4120 H     1 <1>   0.0800 
 46 H       -6.3950    -7.8800     0.2060 H     1 <1>   0.0800 
 47 H        8.4120    -3.3080    -1.3780 H     1 <1>   0.0800 
 48 H        7.8250    -4.8690    -1.8880 H     1 <1>   0.0800 
 49 H        9.9360    -4.4080     0.2420 H     1 <1>   0.0800 
 50 H       10.2350    -4.9660    -1.3850 H     1 <1>   0.0800 
 51 H        9.3470    -5.9740    -0.2690 H     1 <1>   0.0800 
@<TRIPOS>BOND
  1   1   2  2   
  2   2   3  am  
  3   2   4  1   
  4   3   5  1   
  5   3   6  1   
  6   4   7  ar  
  7   4   8  ar  
  8   5   9  1   
  9   5  25  1   
 10   5  26  1   
 11   6  10  1   
 12   6  27  1   
 13   6  28  1   
 14   7  11  ar  
 15   7  29  1   
 16   8  12  ar  
 17   8  30  1   
 18   9  13  1   
 19   9  31  1   
 20   9  32  1   
 21  10  13  1   
 22  10  33  1   
 23  10  34  1   
 24  11  14  ar  
 25  11  35  1   
 26  12  14  ar  
 27  12  36  1   
 28  13  15  1   
 29  13  37  1   
 30  14  16  1   
 31  15  17  2   
 32  15  18  1   
 33  16  19  1   
 34  18  20  1   
 35  19  21  1   
 36  19  38  1   
 37  19  39  1   
 38  20  22  1   
 39  20  40  1   
 40  20  41  1   
 41  21  23  1   
 42  21  42  1   
 43  21  43  1   
 44  22  44  1   
 45  22  45  1   
 46  22  46  1   
 47  23  24  1   
 48  23  47  1   
 49  23  48  1   
 50  24  49  1   
 51  24  50  1   
 52  24  51  1   
@<TRIPOS>SUBSTRUCTURE
  1 ****   4 GROUP 4 **** **** 0

# MOE 2024.06 (io_trps.svl 2023.06)
