@<TRIPOS>MOLECULE
NONAME
57 60 1 0 0 
SMALL
USER_CHARGES


@<TRIPOS>ATOM
  1 O        1.1460     0.9540     1.7890 O.2   1 <1>  -0.5700 
  2 C        1.8990     1.8590     1.4550 C.2   1 <1>   0.5440 
  3 N        2.9630     2.2250     2.2670 N.am  1 <1>  -0.2980 
  4 C        1.7200     2.5810     0.2280 C.ar  1 <1>   0.0860 
  5 N        3.8640     3.2060     1.9670 N.2   1 <1>  -0.5120 
  6 C        3.1760     1.5160     3.5490 C.3   1 <1>   0.0600 
  7 C        2.6410     3.5950    -0.0770 C.ar  1 <1>   0.0860 
  8 C        0.6670     2.3150    -0.6540 C.ar  1 <1>  -0.1500 
  9 C        3.7240     3.8480     0.8480 C.2   1 <1>   0.2780 
 10 C        2.4530     4.3190    -1.2640 C.ar  1 <1>  -0.1500 
 11 C        0.5100     3.0360    -1.8170 C.ar  1 <1>  -0.1500 
 12 C        4.6960     4.8650     0.5280 C.ar  1 <1>   0.0860 
 13 C        1.4090     4.0450    -2.1210 C.ar  1 <1>  -0.1500 
 14 C        5.6420     4.6790    -0.4790 C.ar  1 <1>  -0.1500 
 15 C        4.7190     6.0720     1.2220 C.ar  1 <1>  -0.1500 
 16 C        6.5610     5.6620    -0.8050 C.ar  1 <1>  -0.1430 
 17 C        5.6330     7.0610     0.9140 C.ar  1 <1>  -0.1500 
 18 C        6.5620     6.8650    -0.1050 C.ar  1 <1>   0.0830 
 19 C        7.5660     5.4100    -1.9160 C.3   1 <1>   0.2840 
 20 O        7.4870     7.7980    -0.4500 O.3   1 <1>  -0.3630 
 21 N        8.8420     5.0030    -1.3120 N.am  1 <1>  -0.7300 
 22 C        7.6250     9.0070     0.2640 C.3   1 <1>   0.0400 
 23 C        9.5620     3.8960    -1.6100 C.2   1 <1>   0.5690 
 24 O        9.2170     3.1190    -2.4680 O.2   1 <1>  -0.5700 
 25 C       10.8490     3.6320    -0.8200 C.3   1 <1>   0.1710 
 26 N       11.5060     4.8560    -0.2720 N.3   1 <1>  -0.8100 
 27 C       12.5550     4.5010     0.7030 C.3   1 <1>   0.1100 
 28 C       12.1000     5.6750    -1.3510 C.3   1 <1>   0.1100 
 29 C       13.2750     5.7600     1.2200 C.3   1 <1>   0.1200 
 30 C       12.8340     6.8980    -0.7750 C.3   1 <1>   0.1200 
 31 O       13.8020     6.4980     0.1540 O.3   1 <1>  -0.5600 
 32 H        3.3280     0.4690     3.3570 H     1 <1>   0.0800 
 33 H        2.3100     1.6400     4.1740 H     1 <1>   0.0800 
 34 H        4.0390     1.9150     4.0520 H     1 <1>   0.0800 
 35 H       -0.0300     1.5310    -0.4100 H     1 <1>   0.1500 
 36 H        3.1310     5.1130    -1.5240 H     1 <1>   0.1500 
 37 H       -0.3060     2.8200    -2.4860 H     1 <1>   0.1500 
 38 H        1.2850     4.6130    -3.0290 H     1 <1>   0.1500 
 39 H        5.6550     3.7400    -1.0070 H     1 <1>   0.1500 
 40 H        4.0080     6.2250     2.0160 H     1 <1>   0.1500 
 41 H        5.6080     7.9740     1.4790 H     1 <1>   0.1500 
 42 H        7.7160     6.3050    -2.4960 H     1 <1>   0.0800 
 43 H        7.2100     4.6380    -2.5770 H     1 <1>   0.0800 
 44 H        9.2080     5.6230    -0.5820 H     1 <1>   0.3700 
 45 H        6.7140     9.5710     0.1780 H     1 <1>   0.0800 
 46 H        8.4380     9.5600    -0.1700 H     1 <1>   0.0800 
 47 H        7.8460     8.7820     1.2930 H     1 <1>   0.0800 
 48 H       11.5380     3.1010    -1.4540 H     1 <1>   0.0800 
 49 H       10.5860     2.9810    -0.0060 H     1 <1>   0.0800 
 50 H       13.2790     3.8480     0.2470 H     1 <1>   0.0800 
 51 H       12.1100     3.9850     1.5360 H     1 <1>   0.0800 
 52 H       11.3270     6.0150    -2.0190 H     1 <1>   0.0800 
 53 H       12.7990     5.0870    -1.9210 H     1 <1>   0.0800 
 54 H       14.0910     5.4850     1.8640 H     1 <1>   0.0800 
 55 H       12.5930     6.3850     1.7690 H     1 <1>   0.0800 
 56 H       12.1400     7.5590    -0.2870 H     1 <1>   0.0800 
 57 H       13.3350     7.4360    -1.5590 H     1 <1>   0.0800 
@<TRIPOS>BOND
  1   1   2  2   
  2   2   3  am  
  3   2   4  1   
  4   3   5  1   
  5   3   6  1   
  6   4   7  ar  
  7   4   8  ar  
  8   5   9  2   
  9   6  32  1   
 10   6  33  1   
 11   6  34  1   
 12   7   9  1   
 13   7  10  ar  
 14   8  11  ar  
 15   8  35  1   
 16   9  12  1   
 17  10  13  ar  
 18  10  36  1   
 19  11  13  ar  
 20  11  37  1   
 21  12  14  ar  
 22  12  15  ar  
 23  13  38  1   
 24  14  16  ar  
 25  14  39  1   
 26  15  17  ar  
 27  15  40  1   
 28  16  18  ar  
 29  16  19  1   
 30  17  18  ar  
 31  17  41  1   
 32  18  20  1   
 33  19  21  1   
 34  19  42  1   
 35  19  43  1   
 36  20  22  1   
 37  21  23  am  
 38  21  44  1   
 39  22  45  1   
 40  22  46  1   
 41  22  47  1   
 42  23  24  2   
 43  23  25  1   
 44  25  26  1   
 45  25  48  1   
 46  25  49  1   
 47  26  27  1   
 48  26  28  1   
 49  27  29  1   
 50  27  50  1   
 51  27  51  1   
 52  28  30  1   
 53  28  52  1   
 54  28  53  1   
 55  29  31  1   
 56  29  54  1   
 57  29  55  1   
 58  30  31  1   
 59  30  56  1   
 60  30  57  1   
@<TRIPOS>SUBSTRUCTURE
  1 ****  14 GROUP 4 **** **** 0

# MOE 2024.06 (io_trps.svl 2023.06)
