@<TRIPOS>MOLECULE
NONAME
35 36 1 0 0 
SMALL
USER_CHARGES


@<TRIPOS>ATOM
  1 CL       0.1170    -1.0880     0.2160 Cl    1 <1>  -0.1770 
  2 C       -0.9800     0.2400    -0.1080 C.ar  1 <1>   0.1770 
  3 C       -0.6270     1.5830     0.0910 C.ar  1 <1>   0.0820 
  4 C       -2.2390    -0.1090    -0.5560 C.ar  1 <1>  -0.1500 
  5 O        0.5990     2.0030     0.5160 O.3   1 <1>  -0.3630 
  6 C       -1.5800     2.5750    -0.1460 C.ar  1 <1>  -0.1440 
  7 C       -3.1590     0.8910    -0.7970 C.ar  1 <1>   0.1770 
  8 C        1.7810     1.4200     0.0180 C.3   1 <1>   0.1200 
  9 C       -2.8440     2.2210    -0.5950 C.ar  1 <1>  -0.1500 
 10 C       -1.2590     4.0470     0.0810 C.3   1 <1>  -0.0960 
 11 CL      -4.7530     0.4650    -1.3660 Cl    1 <1>  -0.1770 
 12 C        2.8890     2.4730     0.0930 C.3   1 <1>   0.3430 
 13 N        4.2070     1.9520    -0.3980 N.4   1 <1>  -0.9590 
 14 C        4.7800     0.8610     0.4340 C.3   1 <1>   0.3430 
 15 C        5.2500     3.0060    -0.4450 C.3   1 <1>   0.3430 
 16 C        6.2600     0.8510     0.0790 C.3   1 <1>  -0.1600 
 17 C        6.5630     2.2380    -0.4970 C.3   1 <1>  -0.1600 
 18 H       -2.5040    -1.1390    -0.7090 H     1 <1>   0.1500 
 19 H        1.6100     1.1120    -0.9990 H     1 <1>   0.0800 
 20 H        2.0200     0.5800     0.6430 H     1 <1>   0.0800 
 21 H       -3.5950     2.9670    -0.7890 H     1 <1>   0.1500 
 22 H       -0.4790     4.3610    -0.5890 H     1 <1>   0.0800 
 23 H       -0.9310     4.1990     1.0940 H     1 <1>   0.0800 
 24 H       -2.1230     4.6640    -0.0900 H     1 <1>   0.0800 
 25 H        2.9900     2.7990     1.1150 H     1 <1>   0.0800 
 26 H        2.5940     3.3190    -0.5070 H     1 <1>   0.0800 
 27 H        4.1020     1.5900    -1.3570 H     1 <1>   0.4500 
 28 H        4.3140    -0.0900     0.2280 H     1 <1>   0.0800 
 29 H        4.6630     1.0990     1.4790 H     1 <1>   0.0800 
 30 H        5.2150     3.5960     0.4570 H     1 <1>   0.0800 
 31 H        5.1310     3.6530    -1.3010 H     1 <1>   0.0800 
 32 H        6.4560     0.0880    -0.6550 H     1 <1>   0.0800 
 33 H        6.8530     0.6430     0.9530 H     1 <1>   0.0800 
 34 H        7.3210     2.7510     0.0710 H     1 <1>   0.0800 
 35 H        6.8990     2.1560    -1.5170 H     1 <1>   0.0800 
@<TRIPOS>BOND
  1   1   2  1   
  2   2   3  ar  
  3   2   4  ar  
  4   3   5  1   
  5   3   6  ar  
  6   4   7  ar  
  7   4  18  1   
  8   5   8  1   
  9   6   9  ar  
 10   6  10  1   
 11   7   9  ar  
 12   7  11  1   
 13   8  12  1   
 14   8  19  1   
 15   8  20  1   
 16   9  21  1   
 17  10  22  1   
 18  10  23  1   
 19  10  24  1   
 20  12  13  1   
 21  12  25  1   
 22  12  26  1   
 23  13  14  1   
 24  13  15  1   
 25  13  27  1   
 26  14  16  1   
 27  14  28  1   
 28  14  29  1   
 29  15  17  1   
 30  15  30  1   
 31  15  31  1   
 32  16  17  1   
 33  16  32  1   
 34  16  33  1   
 35  17  34  1   
 36  17  35  1   
@<TRIPOS>SUBSTRUCTURE
  1 ****   5 GROUP 4 **** **** 0

# MOE 2024.06 (io_trps.svl 2023.06)
