@<TRIPOS>MOLECULE
NONAME
26 27 1 0 0 
SMALL
USER_CHARGES


@<TRIPOS>ATOM
  1 CL      -0.9090     0.4360     2.7250 Cl    1 <1>  -0.2900 
  2 C       -1.2020    -0.2880     1.1550 C.3   1 <1>   1.0080 
  3 CL      -1.9020    -1.8740     1.4210 Cl    1 <1>  -0.2900 
  4 CL       0.3620    -0.5310     0.3950 Cl    1 <1>  -0.2900 
  5 C       -2.1160     0.5930     0.2910 C.2   1 <1>  -0.0620 
  6 O       -3.3490     0.8650     0.7450 O.3   1 <1>  -0.3570 
  7 C       -1.8870     1.1690    -0.9010 C.2   1 <1>  -0.1360 
  8 C       -4.0590     1.6970    -0.1830 C.3   1 <1>   0.3410 
  9 C       -3.0300     1.8880    -1.3040 C.2   1 <1>   0.4950 
 10 C       -4.3920     3.0210     0.5380 C.3   1 <1>  -0.1600 
 11 C       -5.3160     0.9120    -0.6330 C.3   1 <1>  -0.1600 
 12 O       -3.1890     2.5260    -2.3160 O.2   1 <1>  -0.5700 
 13 C       -5.6410     2.8800     1.4190 C.3   1 <1>  -0.1600 
 14 C       -6.5570     1.8100    -0.7460 C.3   1 <1>  -0.1600 
 15 C       -6.8840     2.5030     0.5900 C.3   1 <1>  -0.1600 
 16 H       -1.0060     1.1380    -1.5150 H     1 <1>   0.1500 
 17 H       -4.5780     3.7840    -0.1990 H     1 <1>   0.0800 
 18 H       -3.5490     3.3390     1.1260 H     1 <1>   0.0800 
 19 H       -5.5290     0.1360     0.0820 H     1 <1>   0.0800 
 20 H       -5.1320     0.4440    -1.5840 H     1 <1>   0.0800 
 21 H       -5.8250     3.7990     1.9490 H     1 <1>   0.0800 
 22 H       -5.4590     2.1130     2.1530 H     1 <1>   0.0800 
 23 H       -7.4040     1.2300    -1.0690 H     1 <1>   0.0800 
 24 H       -6.3730     2.5590    -1.4990 H     1 <1>   0.0800 
 25 H       -7.4560     3.3900     0.3800 H     1 <1>   0.0800 
 26 H       -7.5070     1.8560     1.1840 H     1 <1>   0.0800 
@<TRIPOS>BOND
  1   1   2  1   
  2   2   3  1   
  3   2   4  1   
  4   2   5  1   
  5   5   6  1   
  6   5   7  2   
  7   6   8  1   
  8   7   9  1   
  9   7  16  1   
 10   8   9  1   
 11   8  10  1   
 12   8  11  1   
 13   9  12  2   
 14  10  13  1   
 15  10  17  1   
 16  10  18  1   
 17  11  14  1   
 18  11  19  1   
 19  11  20  1   
 20  13  15  1   
 21  13  21  1   
 22  13  22  1   
 23  14  15  1   
 24  14  23  1   
 25  14  24  1   
 26  15  25  1   
 27  15  26  1   
@<TRIPOS>SUBSTRUCTURE
  1 ****   6 GROUP 4 **** **** 0

# MOE 2024.06 (io_trps.svl 2023.06)
