@<TRIPOS>MOLECULE
NONAME
39 41 1 0 0 
SMALL
USER_CHARGES


@<TRIPOS>ATOM
  1 CL      -2.2590     0.6230    -1.6540 Cl    1 <1>  -0.1770 
  2 C       -1.1940     1.8690    -1.0490 C.ar  1 <1>   0.1770 
  3 C       -1.4760     2.4730     0.1650 C.ar  1 <1>  -0.1440 
  4 C       -0.0950     2.2360    -1.8060 C.ar  1 <1>  -0.1500 
  5 C       -0.6230     3.4720     0.6020 C.ar  1 <1>   0.1770 
  6 C       -2.6730     2.0420     0.9860 C.3   1 <1>   0.4870 
  7 C        0.7500     3.2340    -1.3450 C.ar  1 <1>  -0.1500 
  8 CL      -0.9520     4.2850     2.1110 Cl    1 <1>  -0.1770 
  9 C        0.4840     3.8560    -0.1360 C.ar  1 <1>  -0.1500 
 10 N       -3.9190     2.5660     0.3650 N.4   1 <1>  -0.9590 
 11 C       -3.9880     4.0740     0.4090 C.3   1 <1>   0.3430 
 12 C       -5.1460     1.9600     0.9940 C.3   1 <1>   0.3430 
 13 C       -5.2850     4.6230    -0.2180 C.3   1 <1>   0.2090 
 14 C       -6.4500     2.4880     0.3640 C.3   1 <1>   0.2090 
 15 N       -6.4970     3.9810     0.3710 N.pl3 1 <1>  -0.8380 
 16 C       -7.6840     4.5040    -0.0940 C.ar  1 <1>   0.4100 
 17 N       -7.9670     4.2650    -1.3670 N.ar  1 <1>  -0.6200 
 18 C       -8.5040     5.2350     0.7590 C.ar  1 <1>  -0.1500 
 19 C       -9.1090     4.7740    -1.8020 C.ar  1 <1>   0.1600 
 20 C       -9.6870     5.7570     0.2930 C.ar  1 <1>  -0.1500 
 21 C       -9.9900     5.5120    -1.0320 C.ar  1 <1>  -0.1500 
 22 H        0.1000     1.7460    -2.7450 H     1 <1>   0.1500 
 23 H       -2.5840     2.4020     1.9990 H     1 <1>   0.0800 
 24 H       -2.7050     0.9650     1.0150 H     1 <1>   0.0800 
 25 H        1.6110     3.5250    -1.9260 H     1 <1>   0.1500 
 26 H        1.1320     4.6330     0.2320 H     1 <1>   0.1500 
 27 H       -3.9100     2.2850    -0.6260 H     1 <1>   0.4500 
 28 H       -3.1450     4.4980    -0.1110 H     1 <1>   0.0800 
 29 H       -3.9440     4.4080     1.4330 H     1 <1>   0.0800 
 30 H       -5.1660     2.1930     2.0460 H     1 <1>   0.0800 
 31 H       -5.1210     0.8880     0.8920 H     1 <1>   0.0800 
 32 H       -5.2710     4.4580    -1.2830 H     1 <1>   0.0800 
 33 H       -5.3360     5.6870    -0.0560 H     1 <1>   0.0800 
 34 H       -7.2930     2.1080     0.9160 H     1 <1>   0.0800 
 35 H       -6.5350     2.1290    -0.6480 H     1 <1>   0.0800 
 36 H       -8.1980     5.3810     1.7770 H     1 <1>   0.1500 
 37 H       -9.3590     4.5920    -2.8340 H     1 <1>   0.1500 
 38 H      -10.3460     6.3270     0.9250 H     1 <1>   0.1500 
 39 H      -10.9000     5.8910    -1.4620 H     1 <1>   0.1500 
@<TRIPOS>BOND
  1   1   2  1   
  2   2   3  ar  
  3   2   4  ar  
  4   3   5  ar  
  5   3   6  1   
  6   4   7  ar  
  7   4  22  1   
  8   5   8  1   
  9   5   9  ar  
 10   6  10  1   
 11   6  23  1   
 12   6  24  1   
 13   7   9  ar  
 14   7  25  1   
 15   9  26  1   
 16  10  11  1   
 17  10  12  1   
 18  10  27  1   
 19  11  13  1   
 20  11  28  1   
 21  11  29  1   
 22  12  14  1   
 23  12  30  1   
 24  12  31  1   
 25  13  15  1   
 26  13  32  1   
 27  13  33  1   
 28  14  15  1   
 29  14  34  1   
 30  14  35  1   
 31  15  16  1   
 32  16  17  ar  
 33  16  18  ar  
 34  17  19  ar  
 35  18  20  ar  
 36  18  36  1   
 37  19  21  ar  
 38  19  37  1   
 39  20  21  ar  
 40  20  38  1   
 41  21  39  1   
@<TRIPOS>SUBSTRUCTURE
  1 ****  11 GROUP 4 **** **** 0

# MOE 2024.06 (io_trps.svl 2023.06)
