@<TRIPOS>MOLECULE
NONAME
36 36 1 0 0 
SMALL
USER_CHARGES


@<TRIPOS>ATOM
  1 S       -0.1420     0.0450     0.3990 S.o2  1 <1>   1.4470 
  2 O       -0.3760     1.0060    -0.6580 O.2   1 <1>  -0.6500 
  3 O       -0.2830     0.4750     1.7740 O.2   1 <1>  -0.6500 
  4 N        1.4920    -0.3900     0.2130 N.am  1 <1>  -0.8490 
  5 C       -1.0400    -1.5150     0.1600 C.ar  1 <1>  -0.0090 
  6 C        2.3690     0.6520     0.8190 C.3   1 <1>   0.2570 
  7 C        1.8470    -0.6380    -1.1930 C.3   1 <1>   0.1160 
  8 C       -2.3760    -1.5160    -0.2330 C.ar  1 <1>   0.0830 
  9 C       -0.4270    -2.7430     0.3980 C.ar  1 <1>  -0.1500 
 10 C        3.8830     0.4040     0.7620 C.2   1 <1>   0.6590 
 11 O       -2.9760    -0.3140    -0.4180 O.3   1 <1>  -0.3630 
 12 C       -3.0560    -2.7190    -0.4150 C.ar  1 <1>  -0.1500 
 13 C       -1.0980    -3.9410     0.2240 C.ar  1 <1>  -0.1440 
 14 O        4.4940    -0.0570     1.6930 O.2   1 <1>  -0.5700 
 15 O        4.4950     0.7540    -0.3680 O.3   1 <1>  -0.4300 
 16 C       -4.3240    -0.1900    -0.8130 C.3   1 <1>   0.0400 
 17 C       -2.4170    -3.9230    -0.1900 C.ar  1 <1>  -0.1500 
 18 C       -0.3940    -5.2600     0.4850 C.3   1 <1>  -0.0970 
 19 C        5.8900     0.5980    -0.5350 C.3   1 <1>   0.0400 
 20 H        2.1210     0.7490     1.8610 H     1 <1>   0.0800 
 21 H        2.1690     1.6000     0.3510 H     1 <1>   0.0800 
 22 H        1.1520    -1.3320    -1.6360 H     1 <1>   0.0800 
 23 H        2.8320    -1.0690    -1.2610 H     1 <1>   0.0800 
 24 H        1.8240     0.2790    -1.7590 H     1 <1>   0.0800 
 25 H        0.5970    -2.7620     0.7310 H     1 <1>   0.1500 
 26 H       -4.0830    -2.7400    -0.7270 H     1 <1>   0.1500 
 27 H       -4.5520     0.8580    -0.8900 H     1 <1>   0.0800 
 28 H       -4.9510    -0.6460    -0.0670 H     1 <1>   0.0800 
 29 H       -4.4530    -0.6620    -1.7710 H     1 <1>   0.0800 
 30 H       -2.9520    -4.8460    -0.3350 H     1 <1>   0.1500 
 31 H        0.3730    -5.1380     1.2300 H     1 <1>   0.0800 
 32 H        0.0580    -5.6180    -0.4230 H     1 <1>   0.0800 
 33 H       -1.0930    -5.9960     0.8390 H     1 <1>   0.0800 
 34 H        6.1570     0.9420    -1.5180 H     1 <1>   0.0800 
 35 H        6.1390    -0.4440    -0.4240 H     1 <1>   0.0800 
 36 H        6.3980     1.1810     0.2140 H     1 <1>   0.0800 
@<TRIPOS>BOND
  1   1   2  2   
  2   1   3  2   
  3   1   4  am  
  4   1   5  1   
  5   4   6  1   
  6   4   7  1   
  7   5   8  ar  
  8   5   9  ar  
  9   6  10  1   
 10   6  20  1   
 11   6  21  1   
 12   7  22  1   
 13   7  23  1   
 14   7  24  1   
 15   8  11  1   
 16   8  12  ar  
 17   9  13  ar  
 18   9  25  1   
 19  10  14  2   
 20  10  15  1   
 21  11  16  1   
 22  12  17  ar  
 23  12  26  1   
 24  13  17  ar  
 25  13  18  1   
 26  15  19  1   
 27  16  27  1   
 28  16  28  1   
 29  16  29  1   
 30  17  30  1   
 31  18  31  1   
 32  18  32  1   
 33  18  33  1   
 34  19  34  1   
 35  19  35  1   
 36  19  36  1   
@<TRIPOS>SUBSTRUCTURE
  1 ****   1 GROUP 4 **** **** 0

# MOE 2024.06 (io_trps.svl 2023.06)
