@<TRIPOS>MOLECULE
NONAME
37 37 1 0 0 
SMALL
USER_CHARGES


@<TRIPOS>ATOM
  1 CL       1.3080     1.4980    -1.9570 Cl    1 <1>  -0.1770 
  2 C        0.7230     2.5270    -0.6700 C.ar  1 <1>   0.1770 
  3 C        1.4450     2.7240     0.5150 C.ar  1 <1>   0.0860 
  4 C       -0.5020     3.1290    -0.8940 C.ar  1 <1>  -0.1500 
  5 C        2.7410     2.1330     0.8100 C.2   1 <1>   0.5440 
  6 C        0.8480     3.5580     1.4660 C.ar  1 <1>  -0.1500 
  7 C       -1.0580     3.9520     0.0670 C.ar  1 <1>  -0.1500 
  8 O        3.0660     1.9380     1.9650 O.2   1 <1>  -0.5700 
  9 N        3.6380     1.8170    -0.1700 N.am  1 <1>  -0.7300 
 10 C       -0.3770     4.1640     1.2520 C.ar  1 <1>  -0.1500 
 11 C        5.0220     1.3200     0.0350 C.3   1 <1>   0.2200 
 12 C        5.9910     2.2380    -0.7620 C.3   1 <1>  -0.0800 
 13 C        5.1400    -0.1940    -0.3310 C.3   1 <1>  -0.0800 
 14 C        7.4710     1.8550    -0.5860 C.3   1 <1>  -0.2400 
 15 C        5.8380     3.7190    -0.3650 C.3   1 <1>  -0.2400 
 16 C        3.8030    -0.9540    -0.4360 C.3   1 <1>  -0.2400 
 17 C        6.0050    -0.9330     0.7070 C.3   1 <1>  -0.2400 
 18 H       -1.0210     2.9500    -1.8190 H     1 <1>   0.1500 
 19 H        1.3620     3.7350     2.3970 H     1 <1>   0.1500 
 20 H       -2.0120     4.4220    -0.1020 H     1 <1>   0.1500 
 21 H        3.3380     1.8480    -1.1450 H     1 <1>   0.3700 
 22 H       -0.8020     4.8010     2.0100 H     1 <1>   0.1500 
 23 H        5.2570     1.4290     1.0810 H     1 <1>   0.0800 
 24 H        5.7550     2.1450    -1.8080 H     1 <1>   0.0800 
 25 H        5.6260    -0.2770    -1.2870 H     1 <1>   0.0800 
 26 H        7.7440     1.8750     0.4540 H     1 <1>   0.0800 
 27 H        8.1020     2.5470    -1.1160 H     1 <1>   0.0800 
 28 H        7.6670     0.8750    -0.9800 H     1 <1>   0.0800 
 29 H        6.0090     3.8430     0.6900 H     1 <1>   0.0800 
 30 H        4.8510     4.0810    -0.5930 H     1 <1>   0.0800 
 31 H        6.5410     4.3310    -0.9020 H     1 <1>   0.0800 
 32 H        3.2460    -0.8650     0.4810 H     1 <1>   0.0800 
 33 H        3.9760    -1.9970    -0.6300 H     1 <1>   0.0800 
 34 H        3.2080    -0.5680    -1.2430 H     1 <1>   0.0800 
 35 H        5.5220    -0.9190     1.6690 H     1 <1>   0.0800 
 36 H        6.9720    -0.4780     0.8100 H     1 <1>   0.0800 
 37 H        6.1490    -1.9580     0.4140 H     1 <1>   0.0800 
@<TRIPOS>BOND
  1   1   2  1   
  2   2   3  ar  
  3   2   4  ar  
  4   3   5  1   
  5   3   6  ar  
  6   4   7  ar  
  7   4  18  1   
  8   5   8  2   
  9   5   9  am  
 10   6  10  ar  
 11   6  19  1   
 12   7  10  ar  
 13   7  20  1   
 14   9  11  1   
 15   9  21  1   
 16  10  22  1   
 17  11  12  1   
 18  11  13  1   
 19  11  23  1   
 20  12  14  1   
 21  12  15  1   
 22  12  24  1   
 23  13  16  1   
 24  13  17  1   
 25  13  25  1   
 26  14  26  1   
 27  14  27  1   
 28  14  28  1   
 29  15  29  1   
 30  15  30  1   
 31  15  31  1   
 32  16  32  1   
 33  16  33  1   
 34  16  34  1   
 35  17  35  1   
 36  17  36  1   
 37  17  37  1   
@<TRIPOS>SUBSTRUCTURE
  1 ****   9 GROUP 4 **** **** 0

# MOE 2024.06 (io_trps.svl 2023.06)
