@<TRIPOS>MOLECULE
NONAME
54 57 1 0 0 
SMALL
USER_CHARGES


@<TRIPOS>ATOM
  1 O       -0.2720     1.6460     1.8070 O.2   1 <1>  -0.5700 
  2 C       -0.4020     2.5990     1.0760 C.2   1 <1>   0.5690 
  3 N        0.5530     3.1290     0.2520 N.am  1 <1>  -0.2370 
  4 C       -1.7170     3.3760     0.9800 C.3   1 <1>   0.2510 
  5 C        1.8720     2.6350     0.1090 C.ar  1 <1>   0.1170 
  6 C        0.0360     4.2140    -0.4060 C.2   1 <1>   0.5690 
  7 N       -2.8410     2.5460     0.5000 N.3   1 <1>  -0.9000 
  8 C       -1.4030     4.4720    -0.0410 C.3   1 <1>  -0.0990 
  9 C        2.1080     1.2750    -0.0710 C.ar  1 <1>  -0.1500 
 10 C        2.9660     3.4950     0.1460 C.ar  1 <1>  -0.1500 
 11 O        0.6220     4.9310    -1.1740 O.2   1 <1>  -0.5700 
 12 C       -4.1450     2.8930     1.0570 C.3   1 <1>   0.1900 
 13 C        3.3950     0.7840    -0.2050 C.ar  1 <1>  -0.1500 
 14 C        4.2540     3.0090     0.0120 C.ar  1 <1>  -0.1500 
 15 C       -5.1200     1.7840     0.6580 C.3   1 <1>  -0.1600 
 16 C       -4.6280     4.2520     0.5320 C.3   1 <1>  -0.1600 
 17 C        4.4800     1.6550    -0.1640 C.ar  1 <1>   0.0830 
 18 C       -6.5440     2.1060     1.1120 C.3   1 <1>   0.2090 
 19 C       -6.0590     4.5470     0.9820 C.3   1 <1>   0.2090 
 20 O        5.7740     1.2620    -0.2850 O.3   1 <1>  -0.3630 
 21 N       -6.9390     3.4280     0.5580 N.pl3 1 <1>  -0.8380 
 22 C        6.1100    -0.0950    -0.4560 C.3   1 <1>   0.1200 
 23 C       -7.8530     3.5620    -0.4710 C.ar  1 <1>   0.7200 
 24 C        7.6290    -0.1960    -0.5520 C.3   1 <1>  -0.2400 
 25 N       -8.2430     2.4490    -1.0920 N.ar  1 <1>  -0.6200 
 26 N       -8.2680     4.7960    -0.7580 N.ar  1 <1>  -0.6200 
 27 C       -9.1060     2.5940    -2.0670 C.ar  1 <1>   0.1600 
 28 C       -9.1310     4.9110    -1.7360 C.ar  1 <1>   0.1600 
 29 C       -9.5900     3.8240    -2.4360 C.ar  1 <1>  -0.1500 
 30 H       -1.9340     3.7940     1.9480 H     1 <1>   0.0800 
 31 H       -2.6410     1.5800     0.8000 H     1 <1>   0.3600 
 32 H       -1.4930     5.4490     0.3950 H     1 <1>   0.0800 
 33 H       -2.0150     4.3970    -0.9220 H     1 <1>   0.0800 
 34 H        1.2780     0.5920    -0.1010 H     1 <1>   0.1500 
 35 H        2.8130     4.5520     0.2770 H     1 <1>   0.1500 
 36 H       -4.0840     2.9260     2.1330 H     1 <1>   0.0800 
 37 H        3.5300    -0.2720    -0.3390 H     1 <1>   0.1500 
 38 H        5.0940     3.6800     0.0400 H     1 <1>   0.1500 
 39 H       -4.8170     0.8530     1.1000 H     1 <1>   0.0800 
 40 H       -5.1260     1.6690    -0.4120 H     1 <1>   0.0800 
 41 H       -4.6040     4.2550    -0.5430 H     1 <1>   0.0800 
 42 H       -3.9970     5.0400     0.8950 H     1 <1>   0.0800 
 43 H       -6.5860     2.1520     2.1860 H     1 <1>   0.0800 
 44 H       -7.2160     1.3270     0.7950 H     1 <1>   0.0800 
 45 H       -6.3770     5.4860     0.5630 H     1 <1>   0.0800 
 46 H       -6.1010     4.6370     2.0540 H     1 <1>   0.0800 
 47 H        5.6480    -0.4500    -1.3610 H     1 <1>   0.0800 
 48 H        5.7450    -0.6460     0.3940 H     1 <1>   0.0800 
 49 H        7.9840     0.3720    -1.3930 H     1 <1>   0.0800 
 50 H        7.9190    -1.2220    -0.6830 H     1 <1>   0.0800 
 51 H        8.0810     0.1770     0.3500 H     1 <1>   0.0800 
 52 H       -9.4340     1.7090    -2.5850 H     1 <1>   0.1500 
 53 H       -9.4810     5.8980    -1.9850 H     1 <1>   0.1500 
 54 H      -10.2970     3.9300    -3.2370 H     1 <1>   0.1500 
@<TRIPOS>BOND
  1   1   2  2   
  2   2   3  am  
  3   2   4  1   
  4   3   5  1   
  5   3   6  am  
  6   4   7  1   
  7   4   8  1   
  8   4  30  1   
  9   5   9  ar  
 10   5  10  ar  
 11   6   8  1   
 12   6  11  2   
 13   7  12  1   
 14   7  31  1   
 15   8  32  1   
 16   8  33  1   
 17   9  13  ar  
 18   9  34  1   
 19  10  14  ar  
 20  10  35  1   
 21  12  15  1   
 22  12  16  1   
 23  12  36  1   
 24  13  17  ar  
 25  13  37  1   
 26  14  17  ar  
 27  14  38  1   
 28  15  18  1   
 29  15  39  1   
 30  15  40  1   
 31  16  19  1   
 32  16  41  1   
 33  16  42  1   
 34  17  20  1   
 35  18  21  1   
 36  18  43  1   
 37  18  44  1   
 38  19  21  1   
 39  19  45  1   
 40  19  46  1   
 41  20  22  1   
 42  21  23  1   
 43  22  24  1   
 44  22  47  1   
 45  22  48  1   
 46  23  25  ar  
 47  23  26  ar  
 48  24  49  1   
 49  24  50  1   
 50  24  51  1   
 51  25  27  ar  
 52  26  28  ar  
 53  27  29  ar  
 54  27  52  1   
 55  28  29  ar  
 56  28  53  1   
 57  29  54  1   
@<TRIPOS>SUBSTRUCTURE
  1 ****   4 GROUP 4 **** **** 0

# MOE 2024.06 (io_trps.svl 2023.06)
