@<TRIPOS>MOLECULE
NONAME
29 29 1 0 0 
SMALL
USER_CHARGES


@<TRIPOS>ATOM
  1 O       -4.8050    -0.0480    -0.4980 O.co2 1 <1>  -0.9000 
  2 C       -5.7200    -0.8910    -0.3400 C.2   1 <1>   1.0320 
  3 O       -5.4310    -2.0900    -0.4140 O.co2 1 <1>  -0.9000 
  4 C       -7.0680    -0.3830    -0.1190 C.2   1 <1>  -0.0920 
  5 O       -8.1430    -1.1640    -0.1570 O.3   1 <1>  -0.2800 
  6 C       -7.4860     0.8930     0.1330 C.2   1 <1>  -0.1810 
  7 C       -9.2240    -0.4430     0.0620 C.2   1 <1>  -0.0400 
  8 C       -8.8790     0.8500     0.2500 C.2   1 <1>  -0.1500 
  9 C       -6.6220     2.1250     0.2740 C.3   1 <1>   0.5240 
 10 C      -10.5850    -1.1440     0.0700 C.3   1 <1>   0.1800 
 11 N       -5.8800     2.2850    -0.9800 N.4   1 <1>  -0.8530 
 12 C      -10.8230    -1.8060    -1.2940 C.3   1 <1>  -0.2400 
 13 C      -11.7150    -0.1420     0.3410 C.3   1 <1>  -0.2400 
 14 C      -10.5970    -2.2160     1.1670 C.3   1 <1>  -0.2400 
 15 H       -9.5290     1.6820     0.4520 H     1 <1>   0.1500 
 16 H       -5.9340     1.9900     1.0940 H     1 <1>   0.0800 
 17 H       -7.2390     2.9880     0.4630 H     1 <1>   0.0800 
 18 H       -5.2450     1.4490    -0.9970 H     1 <1>   0.4500 
 19 H       -5.2940     3.1140    -1.0280 H     1 <1>   0.4500 
 20 H       -6.4960     2.1670    -1.7840 H     1 <1>   0.4500 
 21 H      -10.7990    -1.0680    -2.0750 H     1 <1>   0.0800 
 22 H      -11.7750    -2.3060    -1.3150 H     1 <1>   0.0800 
 23 H      -10.0520    -2.5300    -1.4930 H     1 <1>   0.0800 
 24 H      -12.6680    -0.6410     0.3460 H     1 <1>   0.0800 
 25 H      -11.7340     0.6170    -0.4210 H     1 <1>   0.0800 
 26 H      -11.5750     0.3300     1.2970 H     1 <1>   0.0800 
 27 H      -11.5440    -2.7240     1.1970 H     1 <1>   0.0800 
 28 H      -10.4110    -1.7680     2.1260 H     1 <1>   0.0800 
 29 H       -9.8250    -2.9430     0.9820 H     1 <1>   0.0800 
@<TRIPOS>BOND
  1   1   2  ar  
  2   2   3  ar  
  3   2   4  1   
  4   4   5  1   
  5   4   6  2   
  6   5   7  1   
  7   6   8  1   
  8   6   9  1   
  9   7   8  2   
 10   7  10  1   
 11   8  15  1   
 12   9  11  1   
 13   9  16  1   
 14   9  17  1   
 15  10  12  1   
 16  10  13  1   
 17  10  14  1   
 18  11  18  1   
 19  11  19  1   
 20  11  20  1   
 21  12  21  1   
 22  12  22  1   
 23  12  23  1   
 24  13  24  1   
 25  13  25  1   
 26  13  26  1   
 27  14  27  1   
 28  14  28  1   
 29  14  29  1   
@<TRIPOS>SUBSTRUCTURE
  1 ****   5 GROUP 4 **** **** 0

# MOE 2024.06 (io_trps.svl 2023.06)
