@<TRIPOS>MOLECULE
NONAME
25 24 1 0 0 
SMALL
USER_CHARGES


@<TRIPOS>ATOM
  1 O       -0.2770    -0.0970    -0.1610 O.2   1 <1>  -0.5700 
  2 C       -1.3570    -0.6590    -0.0100 C.2   1 <1>   0.7060 
  3 O       -1.3140    -1.9750     0.2760 O.3   1 <1>  -0.4300 
  4 C       -2.6210    -0.0320    -0.1330 C.2   1 <1>   0.0290 
  5 C       -0.0910    -2.6690     0.4290 C.3   1 <1>   0.0400 
  6 C       -2.8060     1.2620    -0.6280 C.2   1 <1>   0.2000 
  7 C       -3.7110    -0.8320     0.2520 C.2   1 <1>   0.7060 
  8 N       -3.9520     1.9650    -0.6500 N.pl3 1 <1>  -0.8690 
  9 N       -1.8140     1.9780    -1.1640 N.pl3 1 <1>  -0.9000 
 10 O       -3.9960    -1.0770     1.4170 O.2   1 <1>  -0.5700 
 11 O       -4.4820    -1.3620    -0.7130 O.3   1 <1>  -0.4300 
 12 C       -5.1600     1.8100     0.2030 C.3   1 <1>   0.1290 
 13 C       -5.5720    -2.2080    -0.4020 C.3   1 <1>   0.0400 
 14 H       -0.3090    -3.6960     0.6600 H     1 <1>   0.0800 
 15 H        0.4670    -2.2190     1.2320 H     1 <1>   0.0800 
 16 H        0.4640    -2.6060    -0.4920 H     1 <1>   0.0800 
 17 H       -3.9860     2.7850    -1.2610 H     1 <1>   0.4000 
 18 H       -0.8440     1.6300    -1.1380 H     1 <1>   0.4000 
 19 H       -1.9040     2.9550    -1.4410 H     1 <1>   0.4000 
 20 H       -5.8600     1.1430    -0.2730 H     1 <1>   0.0800 
 21 H       -5.6290     2.7680     0.3450 H     1 <1>   0.0800 
 22 H       -4.8900     1.4170     1.1680 H     1 <1>   0.0800 
 23 H       -6.0380    -2.5140    -1.3220 H     1 <1>   0.0800 
 24 H       -6.2730    -1.6650     0.2070 H     1 <1>   0.0800 
 25 H       -5.2030    -3.0680     0.1300 H     1 <1>   0.0800 
@<TRIPOS>BOND
  1   1   2  2   
  2   2   3  1   
  3   2   4  1   
  4   3   5  1   
  5   4   6  2   
  6   4   7  1   
  7   5  14  1   
  8   5  15  1   
  9   5  16  1   
 10   6   8  1   
 11   6   9  1   
 12   7  10  2   
 13   7  11  1   
 14   8  12  1   
 15   8  17  1   
 16   9  18  1   
 17   9  19  1   
 18  11  13  1   
 19  12  20  1   
 20  12  21  1   
 21  12  22  1   
 22  13  23  1   
 23  13  24  1   
 24  13  25  1   
@<TRIPOS>SUBSTRUCTURE
  1 ****   4 GROUP 4 **** **** 0

# MOE 2024.06 (io_trps.svl 2023.06)
