@<TRIPOS>MOLECULE
NONAME
51 54 1 0 0 
SMALL
USER_CHARGES


@<TRIPOS>ATOM
  1 N        0.8500    -0.0830    -0.6460 N.4   1 <1>  -0.9590 
  2 C        1.8570     0.6460     0.1570 C.3   1 <1>   0.4230 
  3 C       -0.3770     0.7620    -0.6400 C.3   1 <1>   0.3430 
  4 C        0.5500    -1.4730    -0.1760 C.3   1 <1>   0.2630 
  5 C        1.6140     2.1080    -0.2100 C.3   1 <1>  -0.1600 
  6 C        3.2850     0.1620    -0.1460 C.3   1 <1>  -0.1600 
  7 C        0.1300     2.1970    -0.5720 C.3   1 <1>  -0.1600 
  8 C        4.3320     0.9570     0.6440 C.3   1 <1>   0.3430 
  9 N        5.6960     0.4740     0.3060 N.4   1 <1>  -0.9060 
 10 C        6.7880     1.1970     1.0090 C.3   1 <1>   0.4230 
 11 C        6.9100     2.6540     0.4990 C.3   1 <1>  -0.0800 
 12 C        8.1210     0.4560     0.7610 C.3   1 <1>  -0.0800 
 13 C        7.2870     2.6850    -1.0010 C.3   1 <1>  -0.1600 
 14 C        8.0270     3.3580     1.2980 C.3   1 <1>  -0.1600 
 15 C        8.5010     0.4840    -0.7390 C.3   1 <1>  -0.1600 
 16 C        9.2320     1.1670     1.5600 C.3   1 <1>  -0.1600 
 17 C        8.6200     1.9420    -1.2230 C.3   1 <1>  -0.0800 
 18 C        9.3670     2.6280     1.0910 C.3   1 <1>  -0.0800 
 19 C        9.7210     2.6450    -0.4080 C.3   1 <1>  -0.1600 
 20 H        1.1740    -0.1160    -1.6230 H     1 <1>   0.4500 
 21 H        1.6310     0.5100     1.2040 H     1 <1>   0.0800 
 22 H       -0.9670     0.5500     0.2380 H     1 <1>   0.0800 
 23 H       -0.9790     0.5940    -1.5200 H     1 <1>   0.0800 
 24 H        0.1920    -1.4580     0.8410 H     1 <1>   0.0800 
 25 H        1.4330    -2.0890    -0.2240 H     1 <1>   0.0800 
 26 H       -0.2090    -1.9210    -0.7980 H     1 <1>   0.0800 
 27 H        2.2060     2.3910    -1.0640 H     1 <1>   0.0800 
 28 H        1.8550     2.7630     0.6100 H     1 <1>   0.0800 
 29 H        3.4790     0.2710    -1.1980 H     1 <1>   0.0800 
 30 H        3.3640    -0.8760     0.1240 H     1 <1>   0.0800 
 31 H       -0.4270     2.7420     0.1710 H     1 <1>   0.0800 
 32 H       -0.0060     2.6870    -1.5220 H     1 <1>   0.0800 
 33 H        4.1590     0.8420     1.7030 H     1 <1>   0.0800 
 34 H        4.2500     2.0040     0.4010 H     1 <1>   0.0800 
 35 H        5.8980     0.5830    -0.6950 H     1 <1>   0.4500 
 36 H        5.8040    -0.5240     0.5230 H     1 <1>   0.4500 
 37 H        6.5930     1.2090     2.0690 H     1 <1>   0.0800 
 38 H        5.9960     3.1960     0.6630 H     1 <1>   0.0800 
 39 H        8.0510    -0.5610     1.1080 H     1 <1>   0.0800 
 40 H        6.5170     2.2500    -1.6100 H     1 <1>   0.0800 
 41 H        7.3980     3.7080    -1.3220 H     1 <1>   0.0800 
 42 H        7.7820     3.3770     2.3470 H     1 <1>   0.0800 
 43 H        8.1220     4.3810     0.9740 H     1 <1>   0.0800 
 44 H        7.7830    -0.0480    -1.3380 H     1 <1>   0.0800 
 45 H        9.4470    -0.0120    -0.8770 H     1 <1>   0.0800 
 46 H        9.0110     1.1420     2.6140 H     1 <1>   0.0800 
 47 H       10.1700     0.6560     1.4190 H     1 <1>   0.0800 
 48 H        8.8820     1.9610    -2.2680 H     1 <1>   0.0800 
 49 H       10.1440     3.1220     1.6520 H     1 <1>   0.0800 
 50 H        9.8340     3.6620    -0.7440 H     1 <1>   0.0800 
 51 H       10.6650     2.1500    -0.5640 H     1 <1>   0.0800 
@<TRIPOS>BOND
  1   1   2  1   
  2   1   3  1   
  3   1   4  1   
  4   1  20  1   
  5   2   5  1   
  6   2   6  1   
  7   2  21  1   
  8   3   7  1   
  9   3  22  1   
 10   3  23  1   
 11   4  24  1   
 12   4  25  1   
 13   4  26  1   
 14   5   7  1   
 15   5  27  1   
 16   5  28  1   
 17   6   8  1   
 18   6  29  1   
 19   6  30  1   
 20   7  31  1   
 21   7  32  1   
 22   8   9  1   
 23   8  33  1   
 24   8  34  1   
 25   9  10  1   
 26   9  35  1   
 27   9  36  1   
 28  10  11  1   
 29  10  12  1   
 30  10  37  1   
 31  11  13  1   
 32  11  14  1   
 33  11  38  1   
 34  12  15  1   
 35  12  16  1   
 36  12  39  1   
 37  13  17  1   
 38  13  40  1   
 39  13  41  1   
 40  14  18  1   
 41  14  42  1   
 42  14  43  1   
 43  15  17  1   
 44  15  44  1   
 45  15  45  1   
 46  16  18  1   
 47  16  46  1   
 48  16  47  1   
 49  17  19  1   
 50  17  48  1   
 51  18  19  1   
 52  18  49  1   
 53  19  50  1   
 54  19  51  1   
@<TRIPOS>SUBSTRUCTURE
  1 ****   9 GROUP 4 **** **** 0

# MOE 2024.06 (io_trps.svl 2023.06)
