@<TRIPOS>MOLECULE
NONAME
32 33 1 0 0 
SMALL
USER_CHARGES


@<TRIPOS>ATOM
  1 S        0.0940     0.2380     0.8200 S.o2  1 <1>   1.4470 
  2 O       -0.1120     0.5130     2.2250 O.2   1 <1>  -0.6500 
  3 O       -0.2050    -1.0780     0.3000 O.2   1 <1>  -0.6500 
  4 N       -0.8610     1.3390    -0.0450 N.am  1 <1>  -0.8490 
  5 C        1.7830     0.6960     0.3390 C.ar  1 <1>  -0.0090 
  6 C       -2.2660     0.9060    -0.0970 C.3   1 <1>   0.1960 
  7 C       -0.7960     2.7040     0.5030 C.3   1 <1>   0.1960 
  8 C        2.1220     0.8550    -0.9990 C.ar  1 <1>  -0.1500 
  9 C        2.7800     0.8940     1.2910 C.ar  1 <1>  -0.1500 
 10 C       -3.1300     1.9120    -0.8790 C.3   1 <1>   0.1200 
 11 C       -1.6860     3.6650    -0.3060 C.3   1 <1>   0.1200 
 12 C        3.4100     1.2080    -1.3480 C.ar  1 <1>   0.1900 
 13 C        4.0740     1.2470     0.9360 C.ar  1 <1>  -0.1500 
 14 O       -3.0050     3.1980    -0.3380 O.3   1 <1>  -0.5600 
 15 F        3.6780     1.3530    -2.6210 F     1 <1>  -0.1900 
 16 C        4.4100     1.4130    -0.4040 C.ar  1 <1>   0.0820 
 17 O        5.6560     1.7600    -0.8270 O.3   1 <1>  -0.3630 
 18 C        6.7250     1.9320     0.0760 C.3   1 <1>   0.0400 
 19 H       -2.6580     0.8020     0.9020 H     1 <1>   0.0800 
 20 H       -2.3310    -0.0540    -0.5810 H     1 <1>   0.0800 
 21 H        0.2200     3.0600     0.4730 H     1 <1>   0.0800 
 22 H       -1.1240     2.7130     1.5300 H     1 <1>   0.0800 
 23 H        1.3840     0.7050    -1.7680 H     1 <1>   0.1500 
 24 H        2.5380     0.7700     2.3350 H     1 <1>   0.1500 
 25 H       -4.1670     1.6330    -0.8250 H     1 <1>   0.0800 
 26 H       -2.8310     1.9420    -1.9120 H     1 <1>   0.0800 
 27 H       -1.3270     3.7560    -1.3160 H     1 <1>   0.0800 
 28 H       -1.6950     4.6390     0.1500 H     1 <1>   0.0800 
 29 H        4.8010     1.3880     1.7150 H     1 <1>   0.1500 
 30 H        7.6030     2.1820    -0.4920 H     1 <1>   0.0800 
 31 H        6.8850     1.0110     0.6080 H     1 <1>   0.0800 
 32 H        6.4870     2.7340     0.7520 H     1 <1>   0.0800 
@<TRIPOS>BOND
  1   1   2  2   
  2   1   3  2   
  3   1   4  am  
  4   1   5  1   
  5   4   6  1   
  6   4   7  1   
  7   5   8  ar  
  8   5   9  ar  
  9   6  10  1   
 10   6  19  1   
 11   6  20  1   
 12   7  11  1   
 13   7  21  1   
 14   7  22  1   
 15   8  12  ar  
 16   8  23  1   
 17   9  13  ar  
 18   9  24  1   
 19  10  14  1   
 20  10  25  1   
 21  10  26  1   
 22  11  14  1   
 23  11  27  1   
 24  11  28  1   
 25  12  15  1   
 26  12  16  ar  
 27  13  16  ar  
 28  13  29  1   
 29  16  17  1   
 30  17  18  1   
 31  18  30  1   
 32  18  31  1   
 33  18  32  1   
@<TRIPOS>SUBSTRUCTURE
  1 ****   5 GROUP 4 **** **** 0

# MOE 2024.06 (io_trps.svl 2023.06)
