@<TRIPOS>MOLECULE
NONAME
39 41 1 0 0 
SMALL
USER_CHARGES


@<TRIPOS>ATOM
  1 O        0.5730    -0.1210    -0.9890 O.2   1 <1>  -0.5700 
  2 C        1.6520    -0.6460    -0.8460 C.2   1 <1>   0.4950 
  3 C        2.8300    -0.0770    -1.3230 C.2   1 <1>  -0.1360 
  4 C        1.7060    -1.9970    -0.1580 C.3   1 <1>  -0.0990 
  5 C        4.0170    -0.6380    -1.0740 C.2   1 <1>  -0.0380 
  6 C        2.9520    -2.8650     0.3560 C.3   1 <1>   0.0000 
  7 N        5.1980    -0.1050    -1.5510 N.pl3 1 <1>  -0.6000 
  8 C        4.1010    -1.9040    -0.2230 C.3   1 <1>  -0.0220 
  9 C        1.9070    -3.9140     0.9930 C.3   1 <1>  -0.2400 
 10 C        4.1040    -3.8400     0.9250 C.3   1 <1>  -0.2400 
 11 C        6.5060    -0.5470    -1.3250 C.ar  1 <1>   0.1000 
 12 C        7.0920    -0.4190    -0.0720 C.ar  1 <1>  -0.1500 
 13 C        7.2350    -1.1150    -2.3620 C.ar  1 <1>  -0.1500 
 14 C        8.3830    -0.8620     0.1440 C.ar  1 <1>   0.0830 
 15 C        8.5290    -1.5630    -2.1540 C.ar  1 <1>  -0.1500 
 16 O        8.9290    -0.7160     1.3790 O.3   1 <1>  -0.3620 
 17 C        9.1040    -1.4460    -0.9010 C.ar  1 <1>   0.0830 
 18 C       10.3310    -0.8820     1.4800 C.3   1 <1>   0.1200 
 19 O       10.3680    -1.9100    -0.7120 O.3   1 <1>  -0.3630 
 20 C       10.7880    -2.0750     0.6300 C.3   1 <1>   0.1200 
 21 H        2.7250     0.8270    -1.8910 H     1 <1>   0.1500 
 22 H        1.1680    -2.6000    -0.8710 H     1 <1>   0.0800 
 23 H        1.0620    -1.8000     0.6860 H     1 <1>   0.0800 
 24 H        5.1300     0.7010    -2.1810 H     1 <1>   0.4000 
 25 H        4.6550    -1.5410     0.6280 H     1 <1>   0.0800 
 26 H        4.7480    -2.5140    -0.8370 H     1 <1>   0.0800 
 27 H        0.8690    -3.8970     0.6950 H     1 <1>   0.0800 
 28 H        1.8660    -3.7740     2.0620 H     1 <1>   0.0800 
 29 H        2.1350    -4.9510     0.7970 H     1 <1>   0.0800 
 30 H        5.1270    -3.4970     0.9890 H     1 <1>   0.0800 
 31 H        4.1760    -4.7160     0.2990 H     1 <1>   0.0800 
 32 H        3.9520    -4.1620     1.9440 H     1 <1>   0.0800 
 33 H        6.5420     0.0300     0.7330 H     1 <1>   0.1500 
 34 H        6.7830    -1.2100    -3.3330 H     1 <1>   0.1500 
 35 H        9.0930    -2.0070    -2.9540 H     1 <1>   0.1500 
 36 H       10.5720    -1.0360     2.5160 H     1 <1>   0.0800 
 37 H       10.8010     0.0230     1.1380 H     1 <1>   0.0800 
 38 H       10.3590    -2.9880     1.0050 H     1 <1>   0.0800 
 39 H       11.8590    -2.1600     0.6330 H     1 <1>   0.0800 
@<TRIPOS>BOND
  1   1   2  2   
  2   2   3  1   
  3   2   4  1   
  4   3   5  2   
  5   3  21  1   
  6   4   6  1   
  7   4  22  1   
  8   4  23  1   
  9   5   7  1   
 10   5   8  1   
 11   6   8  1   
 12   6   9  1   
 13   6  10  1   
 14   7  11  1   
 15   7  24  1   
 16   8  25  1   
 17   8  26  1   
 18   9  27  1   
 19   9  28  1   
 20   9  29  1   
 21  10  30  1   
 22  10  31  1   
 23  10  32  1   
 24  11  12  ar  
 25  11  13  ar  
 26  12  14  ar  
 27  12  33  1   
 28  13  15  ar  
 29  13  34  1   
 30  14  16  1   
 31  14  17  ar  
 32  15  17  ar  
 33  15  35  1   
 34  16  18  1   
 35  17  19  1   
 36  18  20  1   
 37  18  36  1   
 38  18  37  1   
 39  19  20  1   
 40  20  38  1   
 41  20  39  1   
@<TRIPOS>SUBSTRUCTURE
  1 ****  11 GROUP 4 **** **** 0

# MOE 2024.06 (io_trps.svl 2023.06)
