@<TRIPOS>MOLECULE
NONAME
25 25 1 0 0 
SMALL
USER_CHARGES


@<TRIPOS>ATOM
  1 BR      -0.3220     0.2630     0.4310 Br    1 <1>  -0.1110 
  2 C        1.4350     1.0170     0.1960 C.ar  1 <1>   0.1110 
  3 C        2.5020     0.1670    -0.0060 C.ar  1 <1>  -0.1500 
  4 C        1.5800     2.3880     0.2360 C.ar  1 <1>  -0.1500 
  5 C        3.7670     0.7050    -0.1780 C.ar  1 <1>  -0.1440 
  6 C        2.8420     2.9340     0.0690 C.ar  1 <1>  -0.1440 
  7 C        3.9450     2.0950    -0.1390 C.ar  1 <1>   0.1170 
  8 C        4.9330    -0.2490    -0.4080 C.3   1 <1>  -0.0960 
  9 C        3.0010     4.4480     0.1310 C.3   1 <1>  -0.0960 
 10 N        5.2110     2.6700    -0.3300 N.am  1 <1>  -0.5470 
 11 C        6.2980     2.6040     0.4890 C.2   1 <1>   0.5690 
 12 O        6.3220     1.9860     1.5230 O.2   1 <1>  -0.5700 
 13 C        7.5320     3.3590     0.0670 C.3   1 <1>  -0.1790 
 14 H        2.3370    -0.8940    -0.0260 H     1 <1>   0.1500 
 15 H        0.7160     3.0070     0.3990 H     1 <1>   0.1500 
 16 H        4.5820    -1.2310    -0.6670 H     1 <1>   0.0800 
 17 H        5.5220    -0.3240     0.4880 H     1 <1>   0.0800 
 18 H        5.5580     0.1060    -1.2070 H     1 <1>   0.0800 
 19 H        2.0700     4.9240     0.3800 H     1 <1>   0.0800 
 20 H        3.3310     4.8250    -0.8200 H     1 <1>   0.0800 
 21 H        3.7230     4.7090     0.8840 H     1 <1>   0.0800 
 22 H        5.2810     3.2990    -1.1250 H     1 <1>   0.3700 
 23 H        7.3260     4.4120     0.0490 H     1 <1>   0.0800 
 24 H        7.8460     3.0330    -0.9070 H     1 <1>   0.0800 
 25 H        8.3260     3.1730     0.7670 H     1 <1>   0.0800 
@<TRIPOS>BOND
  1   1   2  1   
  2   2   3  ar  
  3   2   4  ar  
  4   3   5  ar  
  5   3  14  1   
  6   4   6  ar  
  7   4  15  1   
  8   5   7  ar  
  9   5   8  1   
 10   6   7  ar  
 11   6   9  1   
 12   7  10  1   
 13   8  16  1   
 14   8  17  1   
 15   8  18  1   
 16   9  19  1   
 17   9  20  1   
 18   9  21  1   
 19  10  11  am  
 20  10  22  1   
 21  11  12  2   
 22  11  13  1   
 23  13  23  1   
 24  13  24  1   
 25  13  25  1   
@<TRIPOS>SUBSTRUCTURE
  1 ****   7 GROUP 4 **** **** 0

# MOE 2024.06 (io_trps.svl 2023.06)
