@<TRIPOS>MOLECULE
NONAME
38 40 1 0 0 
SMALL
USER_CHARGES


@<TRIPOS>ATOM
  1 S       -0.1560    -1.3270    -2.0360 S.o   1 <1>   0.4980 
  2 O       -0.0130     0.2420    -2.2190 O.2   1 <1>  -0.5000 
  3 N        1.1920    -1.7930    -0.8940 N.am  1 <1>  -0.6020 
  4 C       -1.6180    -1.5990    -0.9310 C.ar  1 <1>   0.0640 
  5 C        2.4960    -1.5310    -1.5750 C.3   1 <1>   0.1100 
  6 C        1.0890    -0.9790     0.3690 C.3   1 <1>   0.1100 
  7 C       -2.4140    -0.5500    -0.5610 C.ar  1 <1>  -0.1500 
  8 C       -1.8670    -2.8990    -0.4760 C.ar  1 <1>  -0.1500 
  9 C        3.7080    -1.9010    -0.6920 C.3   1 <1>   0.3430 
 10 C        2.4260    -0.8300     1.1260 C.3   1 <1>   0.3430 
 11 C       -3.5060    -0.7560     0.3040 C.ar  1 <1>   0.0000 
 12 C       -2.9240    -3.1200     0.3630 C.ar  1 <1>  -0.1500 
 13 N        3.3640    -1.9450     0.7730 N.4   1 <1>  -0.9590 
 14 C       -3.7630    -2.0630     0.7770 C.ar  1 <1>   0.0000 
 15 C       -4.3510     0.2930     0.7180 C.ar  1 <1>  -0.1500 
 16 C        4.5770    -1.9800     1.6420 C.3   1 <1>   0.2630 
 17 C       -4.8530    -2.2640     1.6470 C.ar  1 <1>  -0.1500 
 18 C       -5.4010     0.0680     1.5640 C.ar  1 <1>  -0.1500 
 19 C       -5.6550    -1.2250     2.0340 C.ar  1 <1>  -0.1500 
 20 H        2.5530    -0.4870    -1.8350 H     1 <1>   0.0800 
 21 H        2.5420    -2.0910    -2.4940 H     1 <1>   0.0800 
 22 H        0.3790    -1.4580     1.0210 H     1 <1>   0.0800 
 23 H        0.7040     0.0030     0.1540 H     1 <1>   0.0800 
 24 H       -2.2180     0.4440    -0.9230 H     1 <1>   0.1500 
 25 H       -1.2250    -3.7030    -0.7920 H     1 <1>   0.1500 
 26 H        4.4920    -1.1830    -0.8680 H     1 <1>   0.0800 
 27 H        4.0790    -2.8660    -0.9990 H     1 <1>   0.0800 
 28 H        2.2320    -0.8190     2.1870 H     1 <1>   0.0800 
 29 H        2.8730     0.1150     0.8640 H     1 <1>   0.0800 
 30 H       -3.1370    -4.1110     0.7240 H     1 <1>   0.1500 
 31 H        2.8160    -2.8110     0.9010 H     1 <1>   0.4500 
 32 H       -4.1530     1.2850     0.3520 H     1 <1>   0.1500 
 33 H        5.1540    -1.0780     1.5180 H     1 <1>   0.0800 
 34 H        5.1970    -2.8240     1.3860 H     1 <1>   0.0800 
 35 H        4.2920    -2.0670     2.6790 H     1 <1>   0.0800 
 36 H       -5.0470    -3.2590     2.0060 H     1 <1>   0.1500 
 37 H       -6.0430     0.8730     1.8760 H     1 <1>   0.1500 
 38 H       -6.4850    -1.3860     2.6990 H     1 <1>   0.1500 
@<TRIPOS>BOND
  1   1   2  2   
  2   1   3  am  
  3   1   4  1   
  4   3   5  1   
  5   3   6  1   
  6   4   7  ar  
  7   4   8  ar  
  8   5   9  1   
  9   5  20  1   
 10   5  21  1   
 11   6  10  1   
 12   6  22  1   
 13   6  23  1   
 14   7  11  ar  
 15   7  24  1   
 16   8  12  ar  
 17   8  25  1   
 18   9  13  1   
 19   9  26  1   
 20   9  27  1   
 21  10  13  1   
 22  10  28  1   
 23  10  29  1   
 24  11  14  ar  
 25  11  15  ar  
 26  12  14  ar  
 27  12  30  1   
 28  13  16  1   
 29  13  31  1   
 30  14  17  ar  
 31  15  18  ar  
 32  15  32  1   
 33  16  33  1   
 34  16  34  1   
 35  16  35  1   
 36  17  19  ar  
 37  17  36  1   
 38  18  19  ar  
 39  18  37  1   
 40  19  38  1   
@<TRIPOS>SUBSTRUCTURE
  1 ****   4 GROUP 4 **** **** 0

# MOE 2024.06 (io_trps.svl 2023.06)
