@<TRIPOS>MOLECULE
NONAME
51 52 1 0 0 
SMALL
USER_CHARGES


@<TRIPOS>ATOM
  1 S       -0.0290     0.1020     0.8630 S.o2  1 <1>   1.4470 
  2 O        0.1160    -0.0860     2.2910 O.2   1 <1>  -0.6500 
  3 O        0.0820    -1.0390    -0.0190 O.2   1 <1>  -0.6500 
  4 N       -1.5730     0.7660     0.6220 N.am  1 <1>  -0.8490 
  5 C        1.0780     1.4170     0.2830 C.ar  1 <1>  -0.0090 
  6 C       -1.8460     1.8670     1.5510 C.3   1 <1>   0.1960 
  7 C       -2.6090    -0.2660     0.7110 C.3   1 <1>   0.1960 
  8 C        1.0160     1.8730    -1.0290 C.ar  1 <1>  -0.1500 
  9 C        2.0060     2.0120     1.1330 C.ar  1 <1>  -0.1500 
 10 C       -3.1660     2.5440     1.1830 C.3   1 <1>  -0.1600 
 11 C       -3.9680     0.3200     0.3200 C.3   1 <1>  -0.1600 
 12 C        1.8440     2.8880    -1.4760 C.ar  1 <1>  -0.1500 
 13 C        2.8390     3.0280     0.6960 C.ar  1 <1>  -0.1500 
 14 C       -4.3270     1.5350     1.1930 C.3   1 <1>  -0.0190 
 15 C        2.7590     3.4750    -0.6190 C.ar  1 <1>   0.0830 
 16 C       -5.6480     2.1780     0.7800 C.2   1 <1>   0.5690 
 17 O        3.5290     4.4640    -1.1320 O.3   1 <1>  -0.3630 
 18 O       -6.5490     2.2200     1.5810 O.2   1 <1>  -0.5700 
 19 N       -5.7800     2.6850    -0.4730 N.am  1 <1>  -0.7300 
 20 C        4.5120     5.1100    -0.3570 C.3   1 <1>   0.1200 
 21 C       -6.9790     3.4090    -0.9720 C.3   1 <1>   0.1400 
 22 C        5.1980     6.1510    -1.2360 C.3   1 <1>  -0.2400 
 23 C       -8.1360     2.4410    -1.2250 C.3   1 <1>   0.1200 
 24 O       -9.1500     3.1300    -1.8880 O.3   1 <1>  -0.5600 
 25 C      -10.3000     2.3750    -2.0910 C.3   1 <1>   0.0400 
 26 H       -1.0550     2.5960     1.4980 H     1 <1>   0.0800 
 27 H       -1.8920     1.4950     2.5630 H     1 <1>   0.0800 
 28 H       -2.6470    -0.6640     1.7130 H     1 <1>   0.0800 
 29 H       -2.3800    -1.0760     0.0380 H     1 <1>   0.0800 
 30 H        0.3090     1.4240    -1.7070 H     1 <1>   0.1500 
 31 H        2.0770     1.6740     2.1540 H     1 <1>   0.1500 
 32 H       -3.0640     2.9910     0.2100 H     1 <1>   0.0800 
 33 H       -3.3710     3.3320     1.8870 H     1 <1>   0.0800 
 34 H       -4.7260    -0.4360     0.4280 H     1 <1>   0.0800 
 35 H       -3.9310     0.6010    -0.7180 H     1 <1>   0.0800 
 36 H        1.7870     3.2310    -2.4940 H     1 <1>   0.1500 
 37 H        3.5390     3.4570     1.3880 H     1 <1>   0.1500 
 38 H       -4.4490     1.1860     2.2050 H     1 <1>   0.0800 
 39 H       -4.9940     2.6240    -1.1220 H     1 <1>   0.3700 
 40 H        5.2180     4.3720    -0.0190 H     1 <1>   0.0800 
 41 H        4.0290     5.5800     0.4830 H     1 <1>   0.0800 
 42 H       -6.7290     3.9160    -1.8880 H     1 <1>   0.0800 
 43 H       -7.2840     4.1370    -0.2400 H     1 <1>   0.0800 
 44 H        5.6630     5.6740    -2.0800 H     1 <1>   0.0800 
 45 H        5.9560     6.6630    -0.6710 H     1 <1>   0.0800 
 46 H        4.4810     6.8740    -1.5820 H     1 <1>   0.0800 
 47 H       -8.5180     2.0710    -0.2890 H     1 <1>   0.0800 
 48 H       -7.8150     1.6260    -1.8500 H     1 <1>   0.0800 
 49 H      -11.0150     2.9880    -2.6110 H     1 <1>   0.0800 
 50 H      -10.7030     2.0790    -1.1380 H     1 <1>   0.0800 
 51 H      -10.0590     1.5120    -2.6860 H     1 <1>   0.0800 
@<TRIPOS>BOND
  1   1   2  2   
  2   1   3  2   
  3   1   4  am  
  4   1   5  1   
  5   4   6  1   
  6   4   7  1   
  7   5   8  ar  
  8   5   9  ar  
  9   6  10  1   
 10   6  26  1   
 11   6  27  1   
 12   7  11  1   
 13   7  28  1   
 14   7  29  1   
 15   8  12  ar  
 16   8  30  1   
 17   9  13  ar  
 18   9  31  1   
 19  10  14  1   
 20  10  32  1   
 21  10  33  1   
 22  11  14  1   
 23  11  34  1   
 24  11  35  1   
 25  12  15  ar  
 26  12  36  1   
 27  13  15  ar  
 28  13  37  1   
 29  14  16  1   
 30  14  38  1   
 31  15  17  1   
 32  16  18  2   
 33  16  19  am  
 34  17  20  1   
 35  19  21  1   
 36  19  39  1   
 37  20  22  1   
 38  20  40  1   
 39  20  41  1   
 40  21  23  1   
 41  21  42  1   
 42  21  43  1   
 43  22  44  1   
 44  22  45  1   
 45  22  46  1   
 46  23  24  1   
 47  23  47  1   
 48  23  48  1   
 49  24  25  1   
 50  25  49  1   
 51  25  50  1   
 52  25  51  1   
@<TRIPOS>SUBSTRUCTURE
  1 ****   4 GROUP 4 **** **** 0

# MOE 2024.06 (io_trps.svl 2023.06)
