@<TRIPOS>MOLECULE
NONAME
29 30 1 0 0 
SMALL
USER_CHARGES


@<TRIPOS>ATOM
  1 O        2.8130     0.2430     0.9860 O.2   1 <1>  -0.5700 
  2 C        1.9830     0.8920     0.3970 C.2   1 <1>   0.5690 
  3 N        1.6390     2.1950     0.7130 N.am  1 <1>  -0.4770 
  4 C        1.3000     0.1950    -0.7620 C.3   1 <1>  -0.1790 
  5 C        0.3890     2.7520     0.3690 C.ar  1 <1>   0.1170 
  6 C        2.6200     3.2260     1.1790 C.3   1 <1>   0.2200 
  7 C        0.3140     4.0170    -0.2200 C.ar  1 <1>  -0.1440 
  8 C       -0.7920     2.0600     0.6200 C.ar  1 <1>  -0.1500 
  9 C        2.8600     4.1690    -0.0060 C.3   1 <1>  -0.1600 
 10 C        3.9540     2.7080     1.7270 C.3   1 <1>  -0.2400 
 11 C       -0.9160     4.5360    -0.5890 C.ar  1 <1>  -0.1500 
 12 C        1.5610     4.8680    -0.4380 C.3   1 <1>  -0.0170 
 13 C       -2.0170     2.5850     0.2530 C.ar  1 <1>  -0.1500 
 14 C       -2.0800     3.8230    -0.3600 C.ar  1 <1>  -0.1500 
 15 H        0.4410    -0.3420    -0.4080 H     1 <1>   0.0800 
 16 H        1.0000     0.9060    -1.5090 H     1 <1>   0.0800 
 17 H        1.9820    -0.5030    -1.2100 H     1 <1>   0.0800 
 18 H        2.1480     3.7840     1.9710 H     1 <1>   0.0800 
 19 H       -0.7520     1.1050     1.1110 H     1 <1>   0.1500 
 20 H        3.2520     3.5960    -0.8280 H     1 <1>   0.0800 
 21 H        3.5920     4.9130     0.2540 H     1 <1>   0.0800 
 22 H        4.5090     2.1890     0.9660 H     1 <1>   0.0800 
 23 H        3.7810     2.0480     2.5580 H     1 <1>   0.0800 
 24 H        4.5500     3.5310     2.0770 H     1 <1>   0.0800 
 25 H       -0.9770     5.5060    -1.0510 H     1 <1>   0.1500 
 26 H        1.4480     5.7670     0.1420 H     1 <1>   0.0800 
 27 H        1.6330     5.1520    -1.4730 H     1 <1>   0.0800 
 28 H       -2.9210     2.0330     0.4460 H     1 <1>   0.1500 
 29 H       -3.0310     4.2330    -0.6510 H     1 <1>   0.1500 
@<TRIPOS>BOND
  1   1   2  2   
  2   2   3  am  
  3   2   4  1   
  4   3   5  1   
  5   3   6  1   
  6   4  15  1   
  7   4  16  1   
  8   4  17  1   
  9   5   7  ar  
 10   5   8  ar  
 11   6   9  1   
 12   6  10  1   
 13   6  18  1   
 14   7  11  ar  
 15   7  12  1   
 16   8  13  ar  
 17   8  19  1   
 18   9  12  1   
 19   9  20  1   
 20   9  21  1   
 21  10  22  1   
 22  10  23  1   
 23  10  24  1   
 24  11  14  ar  
 25  11  25  1   
 26  12  26  1   
 27  12  27  1   
 28  13  14  ar  
 29  13  28  1   
 30  14  29  1   
@<TRIPOS>SUBSTRUCTURE
  1 ****   5 GROUP 4 **** **** 0

# MOE 2024.06 (io_trps.svl 2023.06)
