@<TRIPOS>MOLECULE
NONAME
35 35 1 0 0 
SMALL
USER_CHARGES


@<TRIPOS>ATOM
  1 S        0.2500     0.6500     0.2680 S.3   1 <1>  -0.3320 
  2 C       -1.4870     0.2020     0.0960 C.ar  1 <1>   0.1020 
  3 C        1.2030    -0.9330     0.2420 C.3   1 <1>   0.0700 
  4 C       -2.4120     1.2240     0.1930 C.ar  1 <1>  -0.1500 
  5 C       -1.8950    -1.1040    -0.1230 C.ar  1 <1>  -0.1500 
  6 C        2.6830    -0.5990     0.4170 C.3   1 <1>   0.1400 
  7 C       -3.7620     0.9400     0.0730 C.ar  1 <1>  -0.1500 
  8 C       -3.2470    -1.3810    -0.2420 C.ar  1 <1>  -0.1500 
  9 N        3.4700    -1.8410     0.6150 N.am  1 <1>  -0.7300 
 10 C       -4.1840    -0.3630    -0.1460 C.ar  1 <1>  -0.1430 
 11 C        3.7650    -2.7280    -0.3700 C.2   1 <1>   0.5690 
 12 C       -5.6650    -0.6720    -0.2750 C.3   1 <1>  -0.0970 
 13 O        3.3540    -2.5800    -1.4960 O.2   1 <1>  -0.5700 
 14 C        4.6300    -3.9460    -0.0280 C.3   1 <1>  -0.0190 
 15 C        5.9020    -3.9970    -0.8900 C.3   1 <1>  -0.2400 
 16 C        3.8380    -5.2550    -0.1790 C.3   1 <1>  -0.2400 
 17 H        1.0230    -1.4070    -0.7070 H     1 <1>   0.0800 
 18 H        0.8370    -1.5360     1.0540 H     1 <1>   0.0800 
 19 H       -2.0770     2.2320     0.3610 H     1 <1>   0.1500 
 20 H       -1.1890    -1.9060    -0.2060 H     1 <1>   0.1500 
 21 H        2.8140     0.0450     1.2690 H     1 <1>   0.0800 
 22 H        3.0380    -0.0870    -0.4620 H     1 <1>   0.0800 
 23 H       -4.4800     1.7370     0.1510 H     1 <1>   0.1500 
 24 H       -3.5670    -2.3940    -0.4110 H     1 <1>   0.1500 
 25 H        3.8230    -2.0000     1.5600 H     1 <1>   0.3700 
 26 H       -6.1880     0.1650    -0.7020 H     1 <1>   0.0800 
 27 H       -6.0780    -0.8820     0.6950 H     1 <1>   0.0800 
 28 H       -5.8170    -1.5250    -0.9110 H     1 <1>   0.0800 
 29 H        4.9350    -3.8620     1.0000 H     1 <1>   0.0800 
 30 H        5.6430    -4.0960    -1.9300 H     1 <1>   0.0800 
 31 H        6.5190    -4.8300    -0.6060 H     1 <1>   0.0800 
 32 H        6.4680    -3.0910    -0.7670 H     1 <1>   0.0800 
 33 H        3.5230    -5.3820    -1.2010 H     1 <1>   0.0800 
 34 H        2.9630    -5.2330     0.4460 H     1 <1>   0.0800 
 35 H        4.4430    -6.0980     0.1040 H     1 <1>   0.0800 
@<TRIPOS>BOND
  1   1   2  1   
  2   1   3  1   
  3   2   4  ar  
  4   2   5  ar  
  5   3   6  1   
  6   3  17  1   
  7   3  18  1   
  8   4   7  ar  
  9   4  19  1   
 10   5   8  ar  
 11   5  20  1   
 12   6   9  1   
 13   6  21  1   
 14   6  22  1   
 15   7  10  ar  
 16   7  23  1   
 17   8  10  ar  
 18   8  24  1   
 19   9  11  am  
 20   9  25  1   
 21  10  12  1   
 22  11  13  2   
 23  11  14  1   
 24  12  26  1   
 25  12  27  1   
 26  12  28  1   
 27  14  15  1   
 28  14  16  1   
 29  14  29  1   
 30  15  30  1   
 31  15  31  1   
 32  15  32  1   
 33  16  33  1   
 34  16  34  1   
 35  16  35  1   
@<TRIPOS>SUBSTRUCTURE
  1 ****   3 GROUP 4 **** **** 0

# MOE 2024.06 (io_trps.svl 2023.06)
