@<TRIPOS>MOLECULE
NONAME
44 44 1 0 0 
SMALL
USER_CHARGES


@<TRIPOS>ATOM
  1 O      -13.2530     0.5640     0.7990 O.3   1 <1>  -0.3630 
  2 C      -14.4810     0.2400     0.3320 C.ar  1 <1>   0.0820 
  3 C      -12.1970     0.3970    -0.1110 C.3   1 <1>   0.1200 
  4 C      -14.9420    -1.0750     0.4250 C.ar  1 <1>  -0.1440 
  5 C      -15.2660     1.2380    -0.2380 C.ar  1 <1>  -0.1440 
  6 C      -10.9060     0.8110     0.5970 C.3   1 <1>  -0.1600 
  7 C      -16.1860    -1.3940    -0.1110 C.ar  1 <1>  -0.1440 
  8 C      -14.0990    -2.1500     1.1100 C.3   1 <1>  -0.0960 
  9 C      -16.5030     0.9040    -0.7570 C.ar  1 <1>  -0.1500 
 10 C      -14.7960     2.6850    -0.2990 C.3   1 <1>  -0.0970 
 11 C       -9.6830     0.6620    -0.3190 C.3   1 <1>  -0.1600 
 12 C      -16.9550    -0.4010    -0.6980 C.ar  1 <1>  -0.1500 
 13 C      -16.7430    -2.8110    -0.0720 C.3   1 <1>  -0.0970 
 14 C       -8.4120     1.0810     0.4160 C.3   1 <1>   0.3430 
 15 N       -7.2520     0.9260    -0.4920 N.4   1 <1>  -0.9060 
 16 C       -5.9740     1.3200     0.1730 C.3   1 <1>   0.3430 
 17 C       -4.7690     1.1620    -0.7620 C.3   1 <1>   0.1200 
 18 O       -3.6470     1.5490    -0.0570 O.3   1 <1>  -0.6800 
 19 H      -12.3910     1.0150    -0.9710 H     1 <1>   0.0800 
 20 H      -12.1680    -0.6370    -0.4090 H     1 <1>   0.0800 
 21 H      -10.7860     0.1940     1.4720 H     1 <1>   0.0800 
 22 H      -11.0060     1.8360     0.9110 H     1 <1>   0.0800 
 23 H      -13.3460    -1.7170     1.7420 H     1 <1>   0.0800 
 24 H      -13.6200    -2.7640     0.3700 H     1 <1>   0.0800 
 25 H      -14.7150    -2.7700     1.7340 H     1 <1>   0.0800 
 26 H      -17.1240     1.6560    -1.2090 H     1 <1>   0.1500 
 27 H      -14.3390     2.9630     0.6340 H     1 <1>   0.0800 
 28 H      -15.6230     3.3470    -0.4770 H     1 <1>   0.0800 
 29 H      -14.0800     2.8050    -1.0900 H     1 <1>   0.0800 
 30 H       -9.8240     1.2810    -1.1890 H     1 <1>   0.0800 
 31 H       -9.6050    -0.3660    -0.6290 H     1 <1>   0.0800 
 32 H      -17.9190    -0.6360    -1.1120 H     1 <1>   0.1500 
 33 H      -16.0160    -3.5080    -0.4460 H     1 <1>   0.0800 
 34 H      -17.6270    -2.8950    -0.6790 H     1 <1>   0.0800 
 35 H      -16.9990    -3.0760     0.9380 H     1 <1>   0.0800 
 36 H       -8.2830     0.4650     1.2930 H     1 <1>   0.0800 
 37 H       -8.5010     2.1090     0.7340 H     1 <1>   0.0800 
 38 H       -7.4000     1.5040    -1.3290 H     1 <1>   0.4500 
 39 H       -7.1950    -0.0530    -0.8010 H     1 <1>   0.4500 
 40 H       -5.8130     0.7070     1.0450 H     1 <1>   0.0800 
 41 H       -6.0300     2.3500     0.4880 H     1 <1>   0.0800 
 42 H       -4.8560     1.8000    -1.6250 H     1 <1>   0.0800 
 43 H       -4.6360     0.1350    -1.0600 H     1 <1>   0.0800 
 44 H       -2.8290     1.4740    -0.5950 H     1 <1>   0.4000 
@<TRIPOS>BOND
  1   1   2  1   
  2   1   3  1   
  3   2   4  ar  
  4   2   5  ar  
  5   3   6  1   
  6   3  19  1   
  7   3  20  1   
  8   4   7  ar  
  9   4   8  1   
 10   5   9  ar  
 11   5  10  1   
 12   6  11  1   
 13   6  21  1   
 14   6  22  1   
 15   7  12  ar  
 16   7  13  1   
 17   8  23  1   
 18   8  24  1   
 19   8  25  1   
 20   9  12  ar  
 21   9  26  1   
 22  10  27  1   
 23  10  28  1   
 24  10  29  1   
 25  11  14  1   
 26  11  30  1   
 27  11  31  1   
 28  12  32  1   
 29  13  33  1   
 30  13  34  1   
 31  13  35  1   
 32  14  15  1   
 33  14  36  1   
 34  14  37  1   
 35  15  16  1   
 36  15  38  1   
 37  15  39  1   
 38  16  17  1   
 39  16  40  1   
 40  16  41  1   
 41  17  18  1   
 42  17  42  1   
 43  17  43  1   
 44  18  44  1   
@<TRIPOS>SUBSTRUCTURE
  1 ****   3 GROUP 4 **** **** 0

# MOE 2024.06 (io_trps.svl 2023.06)
