@<TRIPOS>MOLECULE
NONAME
52 53 1 0 0 
SMALL
USER_CHARGES


@<TRIPOS>ATOM
  1 O        2.6810    -3.1760     3.2080 O.2   1 <1>  -0.5700 
  2 C        2.6630    -2.5130     2.1990 C.2   1 <1>   0.5690 
  3 N        1.7530    -2.6790     1.1900 N.am  1 <1>  -0.5470 
  4 C        3.7220    -1.4320     2.0330 C.3   1 <1>   0.1810 
  5 C        0.6740    -3.5620     1.0160 C.ar  1 <1>   0.1170 
  6 O        3.5800    -0.7650     0.7840 O.3   1 <1>  -0.3630 
  7 C        0.1380    -4.3290     2.0460 C.ar  1 <1>  -0.1500 
  8 C        0.1070    -3.6720    -0.2480 C.ar  1 <1>  -0.1500 
  9 C        4.4140     0.2380     0.4020 C.ar  1 <1>   0.0830 
 10 C       -0.9300    -5.1770     1.8170 C.ar  1 <1>  -0.1500 
 11 C       -0.9610    -4.5200    -0.4780 C.ar  1 <1>  -0.1500 
 12 C        4.1950     0.8440    -0.8370 C.ar  1 <1>  -0.1430 
 13 C        5.4670     0.6690     1.2090 C.ar  1 <1>  -0.1500 
 14 C       -1.4950    -5.2790     0.5550 C.ar  1 <1>   0.1170 
 15 C        5.0420     1.8680    -1.2370 C.ar  1 <1>  -0.1500 
 16 C        3.0510     0.4110    -1.7640 C.3   1 <1>   0.0630 
 17 C        6.3030     1.6910     0.7950 C.ar  1 <1>  -0.1430 
 18 N       -2.5710    -6.1470     0.3410 N.am  1 <1>  -0.5470 
 19 C        6.0840     2.2890    -0.4310 C.ar  1 <1>  -0.1500 
 20 C        3.5960    -0.1340    -3.0890 C.3   1 <1>  -0.2400 
 21 C        2.0780     1.5690    -2.0140 C.3   1 <1>  -0.2400 
 22 C        7.4480     2.1590     1.6760 C.3   1 <1>  -0.0970 
 23 C       -3.7940    -5.9270    -0.2100 C.2   1 <1>   0.5690 
 24 O       -4.5390    -6.8590    -0.3760 O.2   1 <1>  -0.5700 
 25 C       -4.2350    -4.5240    -0.6150 C.3   1 <1>  -0.0990 
 26 C       -5.7240    -4.2450    -0.3520 C.3   1 <1>  -0.2400 
 27 H        1.9250    -2.0430     0.4090 H     1 <1>   0.3700 
 28 H        3.6180    -0.7090     2.8200 H     1 <1>   0.0800 
 29 H        4.6970    -1.8840     2.0690 H     1 <1>   0.0800 
 30 H        0.5480    -4.2660     3.0370 H     1 <1>   0.1500 
 31 H        0.5060    -3.0940    -1.0620 H     1 <1>   0.1500 
 32 H       -1.3300    -5.7610     2.6270 H     1 <1>   0.1500 
 33 H       -1.3780    -4.6010    -1.4660 H     1 <1>   0.1500 
 34 H        5.6550     0.2230     2.1650 H     1 <1>   0.1500 
 35 H        4.8970     2.3520    -2.1860 H     1 <1>   0.1500 
 36 H        2.4860    -0.3800    -1.3070 H     1 <1>   0.0800 
 37 H       -2.4520    -7.1090     0.6590 H     1 <1>   0.3700 
 38 H        6.7240     3.0870    -0.7670 H     1 <1>   0.1500 
 39 H        4.1160     0.6310    -3.6360 H     1 <1>   0.0800 
 40 H        2.7920    -0.5060    -3.6980 H     1 <1>   0.0800 
 41 H        4.2800    -0.9410    -2.8950 H     1 <1>   0.0800 
 42 H        1.7130     1.9450    -1.0740 H     1 <1>   0.0800 
 43 H        2.5590     2.3720    -2.5400 H     1 <1>   0.0800 
 44 H        1.2390     1.2320    -2.5960 H     1 <1>   0.0800 
 45 H        7.7790     1.3650     2.3220 H     1 <1>   0.0800 
 46 H        7.1270     2.9880     2.2800 H     1 <1>   0.0800 
 47 H        8.2810     2.4710     1.0720 H     1 <1>   0.0800 
 48 H       -4.0320    -4.4000    -1.6630 H     1 <1>   0.0800 
 49 H       -3.6580    -3.7960    -0.0750 H     1 <1>   0.0800 
 50 H       -6.3360    -4.9270    -0.9180 H     1 <1>   0.0800 
 51 H       -5.9730    -3.2390    -0.6400 H     1 <1>   0.0800 
 52 H       -5.9470    -4.3720     0.6930 H     1 <1>   0.0800 
@<TRIPOS>BOND
  1   1   2  2   
  2   2   3  am  
  3   2   4  1   
  4   3   5  1   
  5   3  27  1   
  6   4   6  1   
  7   4  28  1   
  8   4  29  1   
  9   5   7  ar  
 10   5   8  ar  
 11   6   9  1   
 12   7  10  ar  
 13   7  30  1   
 14   8  11  ar  
 15   8  31  1   
 16   9  12  ar  
 17   9  13  ar  
 18  10  14  ar  
 19  10  32  1   
 20  11  14  ar  
 21  11  33  1   
 22  12  15  ar  
 23  12  16  1   
 24  13  17  ar  
 25  13  34  1   
 26  14  18  1   
 27  15  19  ar  
 28  15  35  1   
 29  16  20  1   
 30  16  21  1   
 31  16  36  1   
 32  17  19  ar  
 33  17  22  1   
 34  18  23  am  
 35  18  37  1   
 36  19  38  1   
 37  20  39  1   
 38  20  40  1   
 39  20  41  1   
 40  21  42  1   
 41  21  43  1   
 42  21  44  1   
 43  22  45  1   
 44  22  46  1   
 45  22  47  1   
 46  23  24  2   
 47  23  25  1   
 48  25  26  1   
 49  25  48  1   
 50  25  49  1   
 51  26  50  1   
 52  26  51  1   
 53  26  52  1   
@<TRIPOS>SUBSTRUCTURE
  1 ****   3 GROUP 4 **** **** 0

# MOE 2024.06 (io_trps.svl 2023.06)
