@<TRIPOS>MOLECULE
NONAME
45 46 1 0 0 
SMALL
USER_CHARGES


@<TRIPOS>ATOM
  1 O       -1.9120     0.0310     1.5610 O.2   1 <1>  -0.5200 
  2 N       -1.0340     0.8340     1.9170 N.pl3 1 <1>   0.8000 
  3 O       -0.3660     0.6090     2.9400 O.2   1 <1>  -0.5200 
  4 C       -0.7480     1.9880     1.0220 C.3   1 <1>   0.4800 
  5 N       -0.0580     3.0400     1.8210 N.pl3 1 <1>   0.8000 
  6 C        0.1520     1.4820    -0.1380 C.3   1 <1>   0.1100 
  7 C       -2.0380     2.5950     0.3890 C.3   1 <1>  -0.1600 
  8 O       -0.5440     3.3980     2.9080 O.2   1 <1>  -0.5200 
  9 O        0.8150     3.7390     1.2770 O.2   1 <1>  -0.5200 
 10 N        1.4060     0.8400     0.3120 N.3   1 <1>  -0.8100 
 11 C       -3.1770     2.9300     1.3670 C.3   1 <1>   0.1400 
 12 C        1.3720    -0.6470     0.3640 C.3   1 <1>   0.1100 
 13 C        2.6040     1.3630    -0.3870 C.3   1 <1>   0.1100 
 14 N       -4.2260     3.6690     0.6360 N.am  1 <1>  -0.7300 
 15 C        2.1700    -1.3000    -0.7830 C.3   1 <1>   0.1200 
 16 C        3.7940     0.3940    -0.2730 C.3   1 <1>   0.1200 
 17 C       -5.1160     3.1090    -0.2410 C.2   1 <1>   0.5440 
 18 O        3.5030    -0.8560    -0.8450 O.3   1 <1>  -0.5600 
 19 O       -4.9810     1.9360    -0.5260 O.2   1 <1>  -0.5700 
 20 C       -6.1980     3.8970    -0.8080 C.ar  1 <1>   0.0860 
 21 C       -7.3890     3.2890    -1.2050 C.ar  1 <1>  -0.1500 
 22 C       -6.0960     5.2790    -0.9820 C.ar  1 <1>  -0.1500 
 23 C       -8.4340     4.0220    -1.7370 C.ar  1 <1>  -0.1500 
 24 C       -7.1380     6.0190    -1.5120 C.ar  1 <1>  -0.1500 
 25 C       -8.3110     5.3910    -1.8890 C.ar  1 <1>  -0.1500 
 26 H        0.3830     2.3220    -0.7710 H     1 <1>   0.0800 
 27 H       -0.4030     0.7890    -0.7480 H     1 <1>   0.0800 
 28 H       -2.4230     1.8950    -0.3330 H     1 <1>   0.0800 
 29 H       -1.7670     3.4860    -0.1500 H     1 <1>   0.0800 
 30 H       -2.8400     3.5450     2.1830 H     1 <1>   0.0800 
 31 H       -3.6050     2.0270     1.7740 H     1 <1>   0.0800 
 32 H        0.3590    -1.0110     0.3460 H     1 <1>   0.0800 
 33 H        1.8050    -0.9670     1.2970 H     1 <1>   0.0800 
 34 H        2.8740     2.3140     0.0390 H     1 <1>   0.0800 
 35 H        2.3940     1.5100    -1.4330 H     1 <1>   0.0800 
 36 H       -4.4350     4.6030     0.9960 H     1 <1>   0.3700 
 37 H        1.7050    -1.0740    -1.7250 H     1 <1>   0.0800 
 38 H        2.1900    -2.3690    -0.6610 H     1 <1>   0.0800 
 39 H        4.0440     0.2400     0.7620 H     1 <1>   0.0800 
 40 H        4.6550     0.7920    -0.7800 H     1 <1>   0.0800 
 41 H       -7.4920     2.2230    -1.0920 H     1 <1>   0.1500 
 42 H       -5.1890     5.7860    -0.7080 H     1 <1>   0.1500 
 43 H       -9.3430     3.5270    -2.0330 H     1 <1>   0.1500 
 44 H       -7.0390     7.0840    -1.6360 H     1 <1>   0.1500 
 45 H       -9.1230     5.9640    -2.3030 H     1 <1>   0.1500 
@<TRIPOS>BOND
  1   1   2  2   
  2   2   3  2   
  3   2   4  1   
  4   4   5  1   
  5   4   6  1   
  6   4   7  1   
  7   5   8  2   
  8   5   9  2   
  9   6  10  1   
 10   6  26  1   
 11   6  27  1   
 12   7  11  1   
 13   7  28  1   
 14   7  29  1   
 15  10  12  1   
 16  10  13  1   
 17  11  14  1   
 18  11  30  1   
 19  11  31  1   
 20  12  15  1   
 21  12  32  1   
 22  12  33  1   
 23  13  16  1   
 24  13  34  1   
 25  13  35  1   
 26  14  17  am  
 27  14  36  1   
 28  15  18  1   
 29  15  37  1   
 30  15  38  1   
 31  16  18  1   
 32  16  39  1   
 33  16  40  1   
 34  17  19  2   
 35  17  20  1   
 36  20  21  ar  
 37  20  22  ar  
 38  21  23  ar  
 39  21  41  1   
 40  22  24  ar  
 41  22  42  1   
 42  23  25  ar  
 43  23  43  1   
 44  24  25  ar  
 45  24  44  1   
 46  25  45  1   
@<TRIPOS>SUBSTRUCTURE
  1 ****   7 GROUP 4 **** **** 0

# MOE 2024.06 (io_trps.svl 2023.06)
