@<TRIPOS>MOLECULE
NONAME
51 52 1 0 0 
SMALL
USER_CHARGES


@<TRIPOS>ATOM
  1 S       -0.9800    -0.5520    -0.2070 S.3   1 <1>  -0.3320 
  2 C        0.7300    -1.1220    -0.1640 C.ar  1 <1>   0.1020 
  3 C       -1.7370    -1.0230     1.4290 C.3   1 <1>   0.1310 
  4 C        1.2630    -1.7840     0.9320 C.ar  1 <1>  -0.1500 
  5 C        1.5030    -0.8720    -1.2820 C.ar  1 <1>  -0.1500 
  6 C       -3.1920    -0.5830     1.5180 C.2   1 <1>   0.5690 
  7 C        2.5860    -2.1940     0.8970 C.ar  1 <1>  -0.1500 
  8 C        2.8240    -1.2850    -1.3080 C.ar  1 <1>  -0.1500 
  9 O       -3.8380    -0.9010     2.4860 O.2   1 <1>  -0.5700 
 10 N       -3.7460     0.1510     0.5160 N.am  1 <1>  -0.7300 
 11 C        3.3710    -1.9460    -0.2190 C.ar  1 <1>  -0.1430 
 12 C       -5.1290     0.6400     0.5170 C.3   1 <1>   0.2200 
 13 C        4.8190    -2.3990    -0.2510 C.3   1 <1>  -0.0970 
 14 C       -6.0080    -0.3660    -0.2160 C.3   1 <1>  -0.1600 
 15 C       -5.1910     1.9890    -0.1880 C.3   1 <1>  -0.1600 
 16 C       -7.4680     0.0960    -0.2910 C.3   1 <1>   0.5030 
 17 C       -6.6270     2.5270    -0.2680 C.3   1 <1>   0.5030 
 18 N       -7.5620     1.4940    -0.7480 N.4   1 <1>  -0.9060 
 19 C       -8.1950    -0.0710     1.0460 C.3   1 <1>  -0.2400 
 20 C       -8.2110    -0.7280    -1.3410 C.3   1 <1>  -0.2400 
 21 C       -6.6930     3.6510    -1.2990 C.3   1 <1>  -0.2400 
 22 C       -7.1070     3.0850     1.0750 C.3   1 <1>  -0.2400 
 23 H       -1.1610    -0.5470     2.2000 H     1 <1>   0.0800 
 24 H       -1.6700    -2.0920     1.5180 H     1 <1>   0.0800 
 25 H        0.6800    -1.9890     1.8070 H     1 <1>   0.1500 
 26 H        1.0760    -0.3590    -2.1250 H     1 <1>   0.1500 
 27 H        3.0030    -2.7090     1.7450 H     1 <1>   0.1500 
 28 H        3.4230    -1.0900    -2.1800 H     1 <1>   0.1500 
 29 H       -3.1580     0.3570    -0.2990 H     1 <1>   0.3700 
 30 H       -5.4540     0.7410     1.5390 H     1 <1>   0.0800 
 31 H        4.8830    -3.3850    -0.6750 H     1 <1>   0.0800 
 32 H        5.2310    -2.4210     0.7420 H     1 <1>   0.0800 
 33 H        5.4100    -1.7270    -0.8470 H     1 <1>   0.0800 
 34 H       -5.9620    -1.3130     0.2950 H     1 <1>   0.0800 
 35 H       -5.6220    -0.5150    -1.2090 H     1 <1>   0.0800 
 36 H       -4.7890     1.8860    -1.1810 H     1 <1>   0.0800 
 37 H       -4.5750     2.6950     0.3410 H     1 <1>   0.0800 
 38 H       -8.5120     1.8200    -0.5630 H     1 <1>   0.4500 
 39 H       -7.4630     1.4680    -1.7640 H     1 <1>   0.4500 
 40 H       -7.6570     0.3620     1.8650 H     1 <1>   0.0800 
 41 H       -8.2930    -1.1180     1.2730 H     1 <1>   0.0800 
 42 H       -9.1850     0.3470     1.0100 H     1 <1>   0.0800 
 43 H       -7.7580    -0.6290    -2.3120 H     1 <1>   0.0800 
 44 H       -9.2460    -0.4410    -1.4020 H     1 <1>   0.0800 
 45 H       -8.1790    -1.7710    -1.0750 H     1 <1>   0.0800 
 46 H       -6.3910     3.3100    -2.2740 H     1 <1>   0.0800 
 47 H       -6.0270     4.4480    -1.0160 H     1 <1>   0.0800 
 48 H       -7.6850     4.0640    -1.3630 H     1 <1>   0.0800 
 49 H       -6.9630     2.3970     1.8830 H     1 <1>   0.0800 
 50 H       -8.1430     3.3710     1.0320 H     1 <1>   0.0800 
 51 H       -6.5390     3.9650     1.3230 H     1 <1>   0.0800 
@<TRIPOS>BOND
  1   1   2  1   
  2   1   3  1   
  3   2   4  ar  
  4   2   5  ar  
  5   3   6  1   
  6   3  23  1   
  7   3  24  1   
  8   4   7  ar  
  9   4  25  1   
 10   5   8  ar  
 11   5  26  1   
 12   6   9  2   
 13   6  10  am  
 14   7  11  ar  
 15   7  27  1   
 16   8  11  ar  
 17   8  28  1   
 18  10  12  1   
 19  10  29  1   
 20  11  13  1   
 21  12  14  1   
 22  12  15  1   
 23  12  30  1   
 24  13  31  1   
 25  13  32  1   
 26  13  33  1   
 27  14  16  1   
 28  14  34  1   
 29  14  35  1   
 30  15  17  1   
 31  15  36  1   
 32  15  37  1   
 33  16  18  1   
 34  16  19  1   
 35  16  20  1   
 36  17  18  1   
 37  17  21  1   
 38  17  22  1   
 39  18  38  1   
 40  18  39  1   
 41  19  40  1   
 42  19  41  1   
 43  19  42  1   
 44  20  43  1   
 45  20  44  1   
 46  20  45  1   
 47  21  46  1   
 48  21  47  1   
 49  21  48  1   
 50  22  49  1   
 51  22  50  1   
 52  22  51  1   
@<TRIPOS>SUBSTRUCTURE
  1 ****  10 GROUP 4 **** **** 0

# MOE 2024.06 (io_trps.svl 2023.06)
