@<TRIPOS>MOLECULE
NONAME
35 36 1 0 0 
SMALL
USER_CHARGES


@<TRIPOS>ATOM
  1 CL       2.3160     2.6900     4.6730 Cl    1 <1>  -0.1770 
  2 C        1.9900     2.9760     2.9790 C.ar  1 <1>   0.1770 
  3 C        2.4470     2.0840     2.0200 C.ar  1 <1>  -0.1440 
  4 C        1.2730     4.1040     2.6320 C.ar  1 <1>  -0.1500 
  5 C        2.1690     2.3520     0.6900 C.ar  1 <1>  -0.1500 
  6 C        3.2380     0.8440     2.4100 C.3   1 <1>  -0.0960 
  7 C        0.9850     4.3760     1.3000 C.ar  1 <1>  -0.0090 
  8 C        1.4430     3.4860     0.3340 C.ar  1 <1>   0.0830 
  9 S        0.0400     5.8430     0.8260 S.o2  1 <1>   1.2950 
 10 O        1.1650     3.7580    -0.9630 O.3   1 <1>  -0.3630 
 11 O        0.8930     6.7030     0.0220 O.2   1 <1>  -0.6500 
 12 O       -0.5100     6.4310     2.0360 O.2   1 <1>  -0.6500 
 13 N       -1.2910     5.1510    -0.1650 N.pl3 1 <1>   0.5840 
 14 C        0.8070     2.7090    -1.8370 C.3   1 <1>   0.0400 
 15 N       -1.9110     3.9480     0.0940 N.2   1 <1>  -0.7070 
 16 C       -1.9050     5.7270    -1.2470 C.2   1 <1>  -0.3320 
 17 C       -2.8400     3.8220    -0.7930 C.2   1 <1>   0.1080 
 18 C       -2.8870     4.9010    -1.6610 C.2   1 <1>  -0.1500 
 19 C       -1.5200     7.0710    -1.8500 C.3   1 <1>  -0.0600 
 20 C       -3.7560     2.6210    -0.8420 C.3   1 <1>  -0.0590 
 21 H        0.9380     4.7700     3.4080 H     1 <1>   0.1500 
 22 H        2.5260     1.6810    -0.0690 H     1 <1>   0.1500 
 23 H        2.6490     0.2220     3.0600 H     1 <1>   0.0800 
 24 H        4.1370     1.1300     2.9270 H     1 <1>   0.0800 
 25 H        3.5120     0.2690     1.5440 H     1 <1>   0.0800 
 26 H        1.6860     2.1460    -2.0930 H     1 <1>   0.0800 
 27 H        0.3830     3.1450    -2.7240 H     1 <1>   0.0800 
 28 H        0.0750     2.0860    -1.3530 H     1 <1>   0.0800 
 29 H       -3.5750     5.0250    -2.4800 H     1 <1>   0.1500 
 30 H       -1.5730     7.8470    -1.1070 H     1 <1>   0.0800 
 31 H       -2.1890     7.3250    -2.6540 H     1 <1>   0.0800 
 32 H       -0.5180     7.0330    -2.2420 H     1 <1>   0.0800 
 33 H       -4.3120     2.5570     0.0750 H     1 <1>   0.0800 
 34 H       -3.1720     1.7260    -0.9580 H     1 <1>   0.0800 
 35 H       -4.4420     2.7030    -1.6650 H     1 <1>   0.0800 
@<TRIPOS>BOND
  1   1   2  1   
  2   2   3  ar  
  3   2   4  ar  
  4   3   5  ar  
  5   3   6  1   
  6   4   7  ar  
  7   4  21  1   
  8   5   8  ar  
  9   5  22  1   
 10   6  23  1   
 11   6  24  1   
 12   6  25  1   
 13   7   8  ar  
 14   7   9  1   
 15   8  10  1   
 16   9  11  2   
 17   9  12  2   
 18   9  13  1   
 19  10  14  1   
 20  13  15  1   
 21  13  16  1   
 22  14  26  1   
 23  14  27  1   
 24  14  28  1   
 25  15  17  2   
 26  16  18  2   
 27  16  19  1   
 28  17  18  1   
 29  17  20  1   
 30  18  29  1   
 31  19  30  1   
 32  19  31  1   
 33  19  32  1   
 34  20  33  1   
 35  20  34  1   
 36  20  35  1   
@<TRIPOS>SUBSTRUCTURE
  1 ****   7 GROUP 4 **** **** 0

# MOE 2024.06 (io_trps.svl 2023.06)
