@<TRIPOS>MOLECULE
NONAME
44 45 1 0 0 
SMALL
USER_CHARGES


@<TRIPOS>ATOM
  1 BR      -0.9720     0.0380     1.5120 Br    1 <1>  -0.1110 
  2 C       -0.3900    -1.7060     0.9470 C.ar  1 <1>   0.1110 
  3 C        0.9280    -2.0650     1.1460 C.ar  1 <1>  -0.1500 
  4 C       -1.3090    -2.5500     0.3560 C.ar  1 <1>  -0.1500 
  5 C        1.3870    -3.3230     0.7440 C.ar  1 <1>   0.0860 
  6 C       -0.8780    -3.8030    -0.0420 C.ar  1 <1>  -0.1500 
  7 C        0.4430    -4.1750     0.1530 C.ar  1 <1>   0.1770 
  8 C        2.7820    -3.6680     0.9590 C.2   1 <1>   0.5440 
  9 CL       0.8700    -5.7890    -0.3720 Cl    1 <1>  -0.1770 
 10 O        3.3900    -3.2000     1.9010 O.2   1 <1>  -0.5700 
 11 N        3.4740    -4.4860     0.1110 N.am  1 <1>  -0.7300 
 12 C        4.8470    -4.9460     0.3550 C.3   1 <1>   0.2200 
 13 C        5.8200    -3.9490    -0.2640 C.3   1 <1>  -0.1600 
 14 C        5.0450    -6.3190    -0.2770 C.3   1 <1>  -0.1600 
 15 C        7.2780    -4.3810    -0.0770 C.3   1 <1>   0.5030 
 16 C        6.4830    -6.8260    -0.0970 C.3   1 <1>   0.5030 
 17 N        7.4690    -5.7920    -0.4570 N.4   1 <1>  -0.9060 
 18 C        7.7690    -4.1480     1.3540 C.3   1 <1>  -0.2400 
 19 C        8.1710    -3.5780    -1.0210 C.3   1 <1>  -0.2400 
 20 C        6.7440    -7.3250     1.3270 C.3   1 <1>  -0.2400 
 21 C        6.7370    -7.9860    -1.0580 C.3   1 <1>  -0.2400 
 22 H        1.6020    -1.3700     1.6160 H     1 <1>   0.1500 
 23 H       -2.3290    -2.2350     0.2160 H     1 <1>   0.1500 
 24 H       -1.5660    -4.4920    -0.5020 H     1 <1>   0.1500 
 25 H        2.9580    -4.9510    -0.6410 H     1 <1>   0.3700 
 26 H        5.0030    -5.0050     1.4200 H     1 <1>   0.0800 
 27 H        5.6740    -2.9850     0.1930 H     1 <1>   0.0800 
 28 H        5.6000    -3.8470    -1.3120 H     1 <1>   0.0800 
 29 H        4.8120    -6.2600    -1.3250 H     1 <1>   0.0800 
 30 H        4.3610    -7.0190     0.1710 H     1 <1>   0.0800 
 31 H        8.3810    -6.0890    -0.1060 H     1 <1>   0.4500 
 32 H        7.5370    -5.8040    -1.4750 H     1 <1>   0.4500 
 33 H        7.1090    -4.5620     2.0890 H     1 <1>   0.0800 
 34 H        7.8110    -3.0910     1.5520 H     1 <1>   0.0800 
 35 H        8.7580    -4.5450     1.4990 H     1 <1>   0.0800 
 36 H        7.8880    -3.7230    -2.0490 H     1 <1>   0.0800 
 37 H        9.2070    -3.8450    -0.9000 H     1 <1>   0.0800 
 38 H        8.0790    -2.5270    -0.8060 H     1 <1>   0.0800 
 39 H        6.4580    -6.6110     2.0730 H     1 <1>   0.0800 
 40 H        7.7770    -7.5900     1.4660 H     1 <1>   0.0800 
 41 H        6.1560    -8.2080     1.5130 H     1 <1>   0.0800 
 42 H        6.5950    -7.6870    -2.0820 H     1 <1>   0.0800 
 43 H        6.0460    -8.7870    -0.8570 H     1 <1>   0.0800 
 44 H        7.7320    -8.3790    -0.9410 H     1 <1>   0.0800 
@<TRIPOS>BOND
  1   1   2  1   
  2   2   3  ar  
  3   2   4  ar  
  4   3   5  ar  
  5   3  22  1   
  6   4   6  ar  
  7   4  23  1   
  8   5   7  ar  
  9   5   8  1   
 10   6   7  ar  
 11   6  24  1   
 12   7   9  1   
 13   8  10  2   
 14   8  11  am  
 15  11  12  1   
 16  11  25  1   
 17  12  13  1   
 18  12  14  1   
 19  12  26  1   
 20  13  15  1   
 21  13  27  1   
 22  13  28  1   
 23  14  16  1   
 24  14  29  1   
 25  14  30  1   
 26  15  17  1   
 27  15  18  1   
 28  15  19  1   
 29  16  17  1   
 30  16  20  1   
 31  16  21  1   
 32  17  31  1   
 33  17  32  1   
 34  18  33  1   
 35  18  34  1   
 36  18  35  1   
 37  19  36  1   
 38  19  37  1   
 39  19  38  1   
 40  20  39  1   
 41  20  40  1   
 42  20  41  1   
 43  21  42  1   
 44  21  43  1   
 45  21  44  1   
@<TRIPOS>SUBSTRUCTURE
  1 ****  11 GROUP 4 **** **** 0

# MOE 2024.06 (io_trps.svl 2023.06)
