@<TRIPOS>MOLECULE
NONAME
37 39 1 0 0 
SMALL
USER_CHARGES


@<TRIPOS>ATOM
  1 S       -0.2030     0.3060    -0.6330 S.3   1 <1>  -0.0800 
  2 C       -0.1270    -1.3860    -0.1650 C.2   1 <1>   0.4620 
  3 C        1.5310     0.3830    -0.5600 C.2   1 <1>  -0.1100 
  4 N        1.0700    -1.8110     0.0140 N.2   1 <1>  -0.5650 
  5 N       -1.2920    -2.1060    -0.0330 N.pl3 1 <1>  -0.8220 
  6 C        2.0250    -0.8210    -0.2020 C.2   1 <1>   0.1730 
  7 C       -1.2580    -3.5700     0.2580 C.3   1 <1>   0.2090 
  8 C       -2.6540    -1.5330    -0.2540 C.3   1 <1>   0.2090 
  9 C        3.4310    -1.1480    -0.0320 C.ar  1 <1>   0.0540 
 10 C       -2.4330    -4.3010    -0.4310 C.3   1 <1>   0.2000 
 11 C       -3.7490    -2.4370     0.3560 C.3   1 <1>   0.2000 
 12 C        3.8930    -2.4600    -0.1760 C.ar  1 <1>  -0.1500 
 13 C        4.3680    -0.1580     0.2800 C.ar  1 <1>  -0.1500 
 14 O       -3.6930    -3.7540    -0.1280 O.3   1 <1>  -0.5600 
 15 C       -2.4940    -5.7800    -0.0550 C.3   1 <1>  -0.2400 
 16 C       -5.1550    -1.9200     0.0620 C.3   1 <1>  -0.2400 
 17 C        5.2320    -2.7780    -0.0230 C.ar  1 <1>  -0.1500 
 18 C        5.7110    -0.4560     0.4360 C.ar  1 <1>  -0.1500 
 19 C        6.1200    -1.7660     0.2800 C.ar  1 <1>   0.1900 
 20 F        7.3840    -2.0550     0.4250 F     1 <1>  -0.1900 
 21 H        2.0000     1.3180    -0.7960 H     1 <1>   0.1500 
 22 H       -1.3110    -3.7220     1.3220 H     1 <1>   0.0800 
 23 H       -0.3300    -3.9890    -0.0900 H     1 <1>   0.0800 
 24 H       -2.8270    -1.4230    -1.3100 H     1 <1>   0.0800 
 25 H       -2.7140    -0.5610     0.2030 H     1 <1>   0.0800 
 26 H       -2.3030    -4.2140    -1.4960 H     1 <1>   0.0800 
 27 H       -3.6050    -2.4820     1.4220 H     1 <1>   0.0800 
 28 H        3.1900    -3.2390    -0.4130 H     1 <1>   0.1500 
 29 H        4.0440     0.8590     0.4080 H     1 <1>   0.1500 
 30 H       -2.6530    -5.8880     1.0030 H     1 <1>   0.0800 
 31 H       -1.5730    -6.2660    -0.3190 H     1 <1>   0.0800 
 32 H       -3.2970    -6.2570    -0.5860 H     1 <1>   0.0800 
 33 H       -5.3300    -1.8990    -0.9990 H     1 <1>   0.0800 
 34 H       -5.2750    -0.9270     0.4540 H     1 <1>   0.0800 
 35 H       -5.8820    -2.5610     0.5270 H     1 <1>   0.0800 
 36 H        5.5820    -3.7880    -0.1360 H     1 <1>   0.1500 
 37 H        6.4300     0.3060     0.6750 H     1 <1>   0.1500 
@<TRIPOS>BOND
  1   1   2  1   
  2   1   3  1   
  3   2   4  2   
  4   2   5  1   
  5   3   6  2   
  6   3  21  1   
  7   4   6  1   
  8   5   7  1   
  9   5   8  1   
 10   6   9  1   
 11   7  10  1   
 12   7  22  1   
 13   7  23  1   
 14   8  11  1   
 15   8  24  1   
 16   8  25  1   
 17   9  12  ar  
 18   9  13  ar  
 19  10  14  1   
 20  10  15  1   
 21  10  26  1   
 22  11  14  1   
 23  11  16  1   
 24  11  27  1   
 25  12  17  ar  
 26  12  28  1   
 27  13  18  ar  
 28  13  29  1   
 29  15  30  1   
 30  15  31  1   
 31  15  32  1   
 32  16  33  1   
 33  16  34  1   
 34  16  35  1   
 35  17  19  ar  
 36  17  36  1   
 37  18  19  ar  
 38  18  37  1   
 39  19  20  1   
@<TRIPOS>SUBSTRUCTURE
  1 ****   4 GROUP 4 **** **** 0

# MOE 2024.06 (io_trps.svl 2023.06)
