@<TRIPOS>MOLECULE
NONAME
32 32 1 0 0 
SMALL
USER_CHARGES


@<TRIPOS>ATOM
  1 CL       1.4540     0.8920    -1.7260 Cl    1 <1>  -0.1770 
  2 C        0.6670     2.1990    -0.8770 C.ar  1 <1>   0.1770 
  3 C       -0.6740     2.4380    -1.0920 C.ar  1 <1>  -0.1500 
  4 C        1.4040     2.9730    -0.0040 C.ar  1 <1>  -0.1500 
  5 C       -1.3140     3.4770    -0.4220 C.ar  1 <1>   0.1170 
  6 C        0.7790     4.0100     0.6640 C.ar  1 <1>  -0.1500 
  7 N       -2.6760     3.7630    -0.6150 N.am  1 <1>  -0.5470 
  8 C       -0.5700     4.2670     0.4620 C.ar  1 <1>  -0.1430 
  9 C       -3.7040     3.0140    -1.1150 C.2   1 <1>   0.5690 
 10 C       -1.2110     5.4230     1.2240 C.3   1 <1>  -0.0960 
 11 O       -3.5960     1.8870    -1.5150 O.2   1 <1>  -0.5700 
 12 C       -5.0780     3.6370    -1.1470 C.3   1 <1>  -0.0990 
 13 C       -5.8530     3.4950     0.1930 C.3   1 <1>   0.2800 
 14 O       -5.0270     4.1340     1.1780 O.3   1 <1>  -0.6800 
 15 C       -7.2400     4.1950     0.0680 C.3   1 <1>   1.0200 
 16 C       -6.1500     2.0100     0.5710 C.3   1 <1>   1.0200 
 17 F       -7.9000     4.3230     1.2130 F     1 <1>  -0.3400 
 18 F       -7.1260     5.4330    -0.4040 F     1 <1>  -0.3400 
 19 F       -8.0650     3.5830    -0.7710 F     1 <1>  -0.3400 
 20 F       -5.0530     1.4010     1.0070 F     1 <1>  -0.3400 
 21 F       -7.0270     1.8550     1.5540 F     1 <1>  -0.3400 
 22 F       -6.6000     1.2790    -0.4400 F     1 <1>  -0.3400 
 23 H       -1.2020     1.8130    -1.7850 H     1 <1>   0.1500 
 24 H        2.4480     2.7650     0.1450 H     1 <1>   0.1500 
 25 H        1.3560     4.6140     1.3430 H     1 <1>   0.1500 
 26 H       -2.9500     4.6760    -0.2540 H     1 <1>   0.3700 
 27 H       -1.5490     6.1770     0.5370 H     1 <1>   0.0800 
 28 H       -0.5070     5.8770     1.8990 H     1 <1>   0.0800 
 29 H       -2.0450     5.0700     1.8040 H     1 <1>   0.0800 
 30 H       -5.6340     3.1730    -1.9430 H     1 <1>   0.0800 
 31 H       -4.9720     4.6740    -1.4100 H     1 <1>   0.0800 
 32 H       -4.4090     3.4850     1.5870 H     1 <1>   0.4000 
@<TRIPOS>BOND
  1   1   2  1   
  2   2   3  ar  
  3   2   4  ar  
  4   3   5  ar  
  5   3  23  1   
  6   4   6  ar  
  7   4  24  1   
  8   5   7  1   
  9   5   8  ar  
 10   6   8  ar  
 11   6  25  1   
 12   7   9  am  
 13   7  26  1   
 14   8  10  1   
 15   9  11  2   
 16   9  12  1   
 17  10  27  1   
 18  10  28  1   
 19  10  29  1   
 20  12  13  1   
 21  12  30  1   
 22  12  31  1   
 23  13  14  1   
 24  13  15  1   
 25  13  16  1   
 26  14  32  1   
 27  15  17  1   
 28  15  18  1   
 29  15  19  1   
 30  16  20  1   
 31  16  21  1   
 32  16  22  1   
@<TRIPOS>SUBSTRUCTURE
  1 ****   9 GROUP 4 **** **** 0

# MOE 2024.06 (io_trps.svl 2023.06)
