@<TRIPOS>MOLECULE
NONAME
50 51 1 0 0 
SMALL
USER_CHARGES


@<TRIPOS>ATOM
  1 S       -0.2340     0.5940    -0.2530 S.3   1 <1>  -0.3320 
  2 C       -1.6950    -0.4090     0.0610 C.ar  1 <1>   0.1020 
  3 C        0.3280     0.2120    -1.9710 C.3   1 <1>  -0.0100 
  4 C       -2.2610    -1.2170    -0.9110 C.ar  1 <1>  -0.1500 
  5 C       -2.2380    -0.3420     1.3290 C.ar  1 <1>  -0.1500 
  6 C       -3.3900    -1.9580    -0.6050 C.ar  1 <1>  -0.1500 
  7 C       -3.3650    -1.0840     1.6330 C.ar  1 <1>  -0.1500 
  8 C       -3.9540    -1.8870     0.6640 C.ar  1 <1>  -0.1430 
  9 C       -5.2090    -2.6700     0.9870 C.3   1 <1>   0.4860 
 10 N       -6.3640    -1.9760     0.3390 N.4   1 <1>  -0.9590 
 11 C       -6.5410    -0.6170     0.9620 C.3   1 <1>   0.4860 
 12 C       -7.6150    -2.8290     0.3460 C.3   1 <1>   0.3430 
 13 C       -7.7340     0.0720     0.3320 C.ar  1 <1>  -0.1430 
 14 C       -8.5400    -2.6410    -0.8980 C.3   1 <1>   0.3430 
 15 C       -8.9280     0.1780     1.0330 C.ar  1 <1>  -0.1500 
 16 C       -7.6440     0.5900    -0.9520 C.ar  1 <1>  -0.1500 
 17 N       -9.8620    -3.3660    -0.8250 N.4   1 <1>  -0.9590 
 18 C      -10.0300     0.7710     0.4430 C.ar  1 <1>  -0.1500 
 19 C       -8.7500     1.1780    -1.5410 C.ar  1 <1>  -0.1500 
 20 C      -10.5500    -3.2980    -2.1580 C.3   1 <1>   0.2630 
 21 C      -10.7800    -2.7850     0.2110 C.3   1 <1>   0.2630 
 22 C       -9.9430     1.2640    -0.8470 C.ar  1 <1>  -0.1500 
 23 H        1.2240     0.7790    -2.1510 H     1 <1>   0.0800 
 24 H       -0.4510     0.5070    -2.6510 H     1 <1>   0.0800 
 25 H        0.5280    -0.8420    -2.0290 H     1 <1>   0.0800 
 26 H       -1.8350    -1.2780    -1.8940 H     1 <1>   0.1500 
 27 H       -1.7720     0.2870     2.0690 H     1 <1>   0.1500 
 28 H       -3.8080    -2.5900    -1.3700 H     1 <1>   0.1500 
 29 H       -3.7640    -1.0230     2.6330 H     1 <1>   0.1500 
 30 H       -5.3470    -2.7270     2.0550 H     1 <1>   0.0800 
 31 H       -5.1050    -3.6720     0.6010 H     1 <1>   0.0800 
 32 H       -6.0510    -1.7920    -0.6230 H     1 <1>   0.4500 
 33 H       -5.6600    -0.0140     0.8040 H     1 <1>   0.0800 
 34 H       -6.6980    -0.7090     2.0240 H     1 <1>   0.0800 
 35 H       -8.1780    -2.6110     1.2380 H     1 <1>   0.0800 
 36 H       -7.3280    -3.8670     0.3820 H     1 <1>   0.0800 
 37 H       -8.0070    -2.9850    -1.7690 H     1 <1>   0.0800 
 38 H       -8.7470    -1.5940    -1.0350 H     1 <1>   0.0800 
 39 H       -9.0130    -0.1800     2.0460 H     1 <1>   0.1500 
 40 H       -6.7200     0.5570    -1.5070 H     1 <1>   0.1500 
 41 H       -9.7220    -4.3700    -0.6170 H     1 <1>   0.4500 
 42 H      -10.9550     0.8710     0.9890 H     1 <1>   0.1500 
 43 H       -8.6820     1.5870    -2.5370 H     1 <1>   0.1500 
 44 H      -10.7450    -2.2730    -2.4310 H     1 <1>   0.0800 
 45 H      -11.4910    -3.8260    -2.1220 H     1 <1>   0.0800 
 46 H       -9.9390    -3.7480    -2.9240 H     1 <1>   0.0800 
 47 H      -10.9630    -1.7410     0.0070 H     1 <1>   0.0800 
 48 H      -10.3540    -2.8740     1.1970 H     1 <1>   0.0800 
 49 H      -11.7270    -3.3020     0.2040 H     1 <1>   0.0800 
 50 H      -10.7980     1.7350    -1.3040 H     1 <1>   0.1500 
@<TRIPOS>BOND
  1   1   2  1   
  2   1   3  1   
  3   2   4  ar  
  4   2   5  ar  
  5   3  23  1   
  6   3  24  1   
  7   3  25  1   
  8   4   6  ar  
  9   4  26  1   
 10   5   7  ar  
 11   5  27  1   
 12   6   8  ar  
 13   6  28  1   
 14   7   8  ar  
 15   7  29  1   
 16   8   9  1   
 17   9  10  1   
 18   9  30  1   
 19   9  31  1   
 20  10  11  1   
 21  10  12  1   
 22  10  32  1   
 23  11  13  1   
 24  11  33  1   
 25  11  34  1   
 26  12  14  1   
 27  12  35  1   
 28  12  36  1   
 29  13  15  ar  
 30  13  16  ar  
 31  14  17  1   
 32  14  37  1   
 33  14  38  1   
 34  15  18  ar  
 35  15  39  1   
 36  16  19  ar  
 37  16  40  1   
 38  17  20  1   
 39  17  21  1   
 40  17  41  1   
 41  18  22  ar  
 42  18  42  1   
 43  19  22  ar  
 44  19  43  1   
 45  20  44  1   
 46  20  45  1   
 47  20  46  1   
 48  21  47  1   
 49  21  48  1   
 50  21  49  1   
 51  22  50  1   
@<TRIPOS>SUBSTRUCTURE
  1 ****  10 GROUP 4 **** **** 0

# MOE 2024.06 (io_trps.svl 2023.06)
