@<TRIPOS>MOLECULE
NONAME
35 38 1 0 0 
SMALL
USER_CHARGES


@<TRIPOS>ATOM
  1 N       -0.1260    -0.3600    -0.3990 N.pl3 1 <1>   0.0480 
  2 C       -1.2670     0.3970    -0.2510 C.ar  1 <1>  -0.1520 
  3 C        0.9270     0.5040    -0.3810 C.2   1 <1>  -0.3320 
  4 C        0.0430    -1.8160    -0.1440 C.3   1 <1>   0.3660 
  5 C       -0.9000     1.7390    -0.1430 C.ar  1 <1>   0.0000 
  6 C       -2.6120     0.0250    -0.1890 C.ar  1 <1>  -0.1500 
  7 C        0.5090     1.7710    -0.2130 C.2   1 <1>  -0.1810 
  8 C        2.3540     0.0280    -0.4740 C.3   1 <1>   0.1000 
  9 N        1.4200    -2.2680    -0.4640 N.3   1 <1>  -0.9000 
 10 C       -1.8860     2.7170     0.0200 C.ar  1 <1>  -0.1500 
 11 C       -3.5700     1.0000    -0.0280 C.ar  1 <1>  -0.1500 
 12 C        1.4630     2.9410    -0.0620 C.3   1 <1>   0.0210 
 13 C        2.4440    -1.3840     0.1390 C.3   1 <1>   0.1100 
 14 C        3.2460     1.0860     0.2020 C.3   1 <1>  -0.1600 
 15 C       -3.2130     2.3510     0.0760 C.ar  1 <1>  -0.1430 
 16 C        2.9220     2.5040    -0.3320 C.3   1 <1>  -0.1600 
 17 C       -4.3050     3.3890     0.2520 C.3   1 <1>  -0.0970 
 18 H       -0.6680    -2.3610    -0.7390 H     1 <1>   0.0800 
 19 H       -0.1630    -2.0010     0.8960 H     1 <1>   0.0800 
 20 H       -2.8890    -1.0100    -0.2700 H     1 <1>   0.1500 
 21 H        2.6230    -0.0370    -1.5140 H     1 <1>   0.0800 
 22 H        1.5170    -2.1830    -1.4820 H     1 <1>   0.3600 
 23 H       -1.5810     3.7430     0.0990 H     1 <1>   0.1500 
 24 H       -4.6090     0.7280     0.0190 H     1 <1>   0.1500 
 25 H        1.3800     3.3090     0.9450 H     1 <1>   0.0800 
 26 H        1.1820     3.7310    -0.7360 H     1 <1>   0.0800 
 27 H        2.2880    -1.3300     1.2040 H     1 <1>   0.0800 
 28 H        3.4230    -1.7940    -0.0390 H     1 <1>   0.0800 
 29 H        4.2800     0.8540     0.0200 H     1 <1>   0.0800 
 30 H        3.0780     1.0670     1.2650 H     1 <1>   0.0800 
 31 H        3.5930     3.2220     0.1060 H     1 <1>   0.0800 
 32 H        3.0860     2.5110    -1.3960 H     1 <1>   0.0800 
 33 H       -3.8870     4.3770     0.3160 H     1 <1>   0.0800 
 34 H       -4.8560     3.1900     1.1530 H     1 <1>   0.0800 
 35 H       -4.9780     3.3550    -0.5860 H     1 <1>   0.0800 
@<TRIPOS>BOND
  1   1   2  1   
  2   1   3  1   
  3   1   4  1   
  4   2   5  ar  
  5   2   6  ar  
  6   3   7  2   
  7   3   8  1   
  8   4   9  1   
  9   4  18  1   
 10   4  19  1   
 11   5   7  1   
 12   5  10  ar  
 13   6  11  ar  
 14   6  20  1   
 15   7  12  1   
 16   8  13  1   
 17   8  14  1   
 18   8  21  1   
 19   9  13  1   
 20   9  22  1   
 21  10  15  ar  
 22  10  23  1   
 23  11  15  ar  
 24  11  24  1   
 25  12  16  1   
 26  12  25  1   
 27  12  26  1   
 28  13  27  1   
 29  13  28  1   
 30  14  16  1   
 31  14  29  1   
 32  14  30  1   
 33  15  17  1   
 34  16  31  1   
 35  16  32  1   
 36  17  33  1   
 37  17  34  1   
 38  17  35  1   
@<TRIPOS>SUBSTRUCTURE
  1 ****   7 GROUP 4 **** **** 0

# MOE 2024.06 (io_trps.svl 2023.06)
