@<TRIPOS>MOLECULE
NONAME
41 42 1 0 0 
SMALL
USER_CHARGES


@<TRIPOS>ATOM
  1 O       -0.1240    -0.5760    -1.2060 O.2   1 <1>  -0.5700 
  2 C        0.0360    -1.4590    -0.3970 C.2   1 <1>   0.5690 
  3 N        1.2560    -1.8050     0.1270 N.am  1 <1>  -0.5470 
  4 C       -1.2270    -2.2140     0.0530 C.3   1 <1>   0.4040 
  5 C        2.5270    -1.2410    -0.0860 C.ar  1 <1>   0.1170 
  6 N       -2.5000    -1.4280    -0.1670 N.4   1 <1>  -0.9590 
  7 C        3.6740    -2.0360     0.0460 C.ar  1 <1>  -0.1430 
  8 C        2.6700     0.1080    -0.3920 C.ar  1 <1>  -0.1500 
  9 C       -2.5820    -0.2440     0.7390 C.3   1 <1>   0.3430 
 10 C       -3.7240    -2.2770    -0.1250 C.3   1 <1>   0.3430 
 11 C        4.9350    -1.4620    -0.1100 C.ar  1 <1>  -0.1430 
 12 C        3.5330    -3.5290     0.3610 C.3   1 <1>  -0.0970 
 13 C        3.9180     0.6680    -0.5610 C.ar  1 <1>  -0.1500 
 14 C       -3.7850     0.6170     0.3510 C.3   1 <1>  -0.1600 
 15 C       -4.9420    -1.4430    -0.5260 C.3   1 <1>  -0.1600 
 16 C        5.0450    -0.1150    -0.4170 C.ar  1 <1>  -0.1500 
 17 C        6.2280    -2.2540     0.0450 C.3   1 <1>  -0.0970 
 18 C       -5.0900    -0.1900     0.3480 C.3   1 <1>  -0.1600 
 19 H        1.3040    -2.6300     0.7220 H     1 <1>   0.3700 
 20 H       -1.1330    -2.4670     1.0950 H     1 <1>   0.0800 
 21 H       -1.2740    -3.1280    -0.5130 H     1 <1>   0.0800 
 22 H       -2.4080    -1.0300    -1.1180 H     1 <1>   0.4500 
 23 H        1.8080     0.7390    -0.4980 H     1 <1>   0.1500 
 24 H       -1.6830     0.3480     0.6580 H     1 <1>   0.0800 
 25 H       -2.6880    -0.5690     1.7620 H     1 <1>   0.0800 
 26 H       -3.8670    -2.6620     0.8720 H     1 <1>   0.0800 
 27 H       -3.6230    -3.1090    -0.8030 H     1 <1>   0.0800 
 28 H        3.3670    -3.6660     1.4140 H     1 <1>   0.0800 
 29 H        4.4080    -4.0840     0.0830 H     1 <1>   0.0800 
 30 H        2.7160    -3.9600    -0.1880 H     1 <1>   0.0800 
 31 H        4.0150     1.7130    -0.8020 H     1 <1>   0.1500 
 32 H       -3.6150     1.0450    -0.6220 H     1 <1>   0.0800 
 33 H       -3.8730     1.4330     1.0480 H     1 <1>   0.0800 
 34 H       -5.8280    -2.0470    -0.4330 H     1 <1>   0.0800 
 35 H       -4.8550    -1.1590    -1.5610 H     1 <1>   0.0800 
 36 H        6.0120     0.3380    -0.5480 H     1 <1>   0.1500 
 37 H        6.3290    -2.9540    -0.7650 H     1 <1>   0.0800 
 38 H        6.2280    -2.7880     0.9780 H     1 <1>   0.0800 
 39 H        7.0840    -1.6050     0.0360 H     1 <1>   0.0800 
 40 H       -5.8970     0.4210    -0.0230 H     1 <1>   0.0800 
 41 H       -5.3360    -0.4800     1.3560 H     1 <1>   0.0800 
@<TRIPOS>BOND
  1   1   2  2   
  2   2   3  am  
  3   2   4  1   
  4   3   5  1   
  5   3  19  1   
  6   4   6  1   
  7   4  20  1   
  8   4  21  1   
  9   5   7  ar  
 10   5   8  ar  
 11   6   9  1   
 12   6  10  1   
 13   6  22  1   
 14   7  11  ar  
 15   7  12  1   
 16   8  13  ar  
 17   8  23  1   
 18   9  14  1   
 19   9  24  1   
 20   9  25  1   
 21  10  15  1   
 22  10  26  1   
 23  10  27  1   
 24  11  16  ar  
 25  11  17  1   
 26  12  28  1   
 27  12  29  1   
 28  12  30  1   
 29  13  16  ar  
 30  13  31  1   
 31  14  18  1   
 32  14  32  1   
 33  14  33  1   
 34  15  18  1   
 35  15  34  1   
 36  15  35  1   
 37  16  36  1   
 38  17  37  1   
 39  17  38  1   
 40  17  39  1   
 41  18  40  1   
 42  18  41  1   
@<TRIPOS>SUBSTRUCTURE
  1 ****   2 GROUP 4 **** **** 0

# MOE 2024.06 (io_trps.svl 2023.06)
