@<TRIPOS>MOLECULE
NONAME
33 34 1 0 0 
SMALL
USER_CHARGES


@<TRIPOS>ATOM
  1 CL      -1.9080    -0.4600     1.2120 Cl    1 <1>  -0.1770 
  2 C       -1.1660    -1.3040    -0.1270 C.ar  1 <1>   0.1770 
  3 C        0.0800    -1.9020     0.0020 C.ar  1 <1>  -0.0090 
  4 C       -1.8920    -1.3500    -1.3050 C.ar  1 <1>  -0.1500 
  5 S        0.9760    -1.8180     1.5830 S.o2  1 <1>   1.4970 
  6 C        0.5680    -2.5770    -1.1180 C.ar  1 <1>  -0.1500 
  7 C       -1.3800    -2.0170    -2.4020 C.ar  1 <1>  -0.1500 
  8 O        0.2930    -2.7320     2.4840 O.2   1 <1>  -0.6500 
  9 O        1.0890    -0.4270     2.0090 O.2   1 <1>  -0.6500 
 10 N        2.4840    -2.4440     1.2680 N.2   1 <1>  -0.6380 
 11 C       -0.1460    -2.6320    -2.3040 C.ar  1 <1>  -0.1500 
 12 C        3.2320    -1.8050     0.4430 C.2   1 <1>   0.3610 
 13 O        4.2900    -2.3170     0.0540 O.3   1 <1>  -0.8610 
 14 N        2.9320    -0.5660    -0.0660 N.pl3 1 <1>  -0.8190 
 15 C        3.9720     0.1910    -0.7780 C.3   1 <1>   0.2890 
 16 C        4.7890     0.9800     0.2370 C.3   1 <1>  -0.1600 
 17 C        3.2870     1.2830    -1.5910 C.3   1 <1>  -0.1600 
 18 C        3.9540     2.2210     0.5750 C.3   1 <1>  -0.1600 
 19 C        2.9850     2.4140    -0.5990 C.3   1 <1>  -0.1600 
 20 H       -2.8510    -0.8680    -1.3570 H     1 <1>   0.1500 
 21 H        1.5300    -3.0630    -1.0700 H     1 <1>   0.1500 
 22 H       -1.9340    -2.0580    -3.3240 H     1 <1>   0.1500 
 23 H        0.2710    -3.1560    -3.1480 H     1 <1>   0.1500 
 24 H        2.5510     0.0190     0.6810 H     1 <1>   0.4000 
 25 H        4.5740    -0.4610    -1.3900 H     1 <1>   0.0800 
 26 H        5.7080     1.2830    -0.2320 H     1 <1>   0.0800 
 27 H        5.0260     0.3810     1.1000 H     1 <1>   0.0800 
 28 H        2.4060     0.9140    -2.0840 H     1 <1>   0.0800 
 29 H        3.9800     1.6370    -2.3320 H     1 <1>   0.0800 
 30 H        4.5830     3.0820     0.7190 H     1 <1>   0.0800 
 31 H        3.3940     2.0410     1.4780 H     1 <1>   0.0800 
 32 H        1.9720     2.3180    -0.2440 H     1 <1>   0.0800 
 33 H        3.1060     3.3770    -1.0620 H     1 <1>   0.0800 
@<TRIPOS>BOND
  1   1   2  1   
  2   2   3  ar  
  3   2   4  ar  
  4   3   5  1   
  5   3   6  ar  
  6   4   7  ar  
  7   4  20  1   
  8   5   8  2   
  9   5   9  2   
 10   5  10  1   
 11   6  11  ar  
 12   6  21  1   
 13   7  11  ar  
 14   7  22  1   
 15  10  12  2   
 16  11  23  1   
 17  12  13  1   
 18  12  14  1   
 19  14  15  1   
 20  14  24  1   
 21  15  16  1   
 22  15  17  1   
 23  15  25  1   
 24  16  18  1   
 25  16  26  1   
 26  16  27  1   
 27  17  19  1   
 28  17  28  1   
 29  17  29  1   
 30  18  19  1   
 31  18  30  1   
 32  18  31  1   
 33  19  32  1   
 34  19  33  1   
@<TRIPOS>SUBSTRUCTURE
  1 ****  14 GROUP 4 **** **** 0

# MOE 2024.06 (io_trps.svl 2023.06)
