@<TRIPOS>MOLECULE
NONAME
40 41 1 0 0 
SMALL
USER_CHARGES


@<TRIPOS>ATOM
  1 O        0.8640     1.8020     1.8970 O.2   1 <1>  -0.5700 
  2 C        0.3400     2.2700     0.9030 C.2   1 <1>   0.5440 
  3 N        1.0840     2.3950    -0.2550 N.am  1 <1>  -0.6600 
  4 C       -1.0500     2.6830     0.9570 C.ar  1 <1>   0.0860 
  5 C        1.9360     1.2860    -0.7660 C.3   1 <1>   0.2200 
  6 C        1.3490     3.7140    -0.9000 C.3   1 <1>   0.2200 
  7 C       -1.9300     2.4530    -0.0780 C.ar  1 <1>  -0.1500 
  8 C       -1.5530     3.3350     2.1020 C.ar  1 <1>  -0.1500 
  9 C        1.2030    -0.0550    -0.6810 C.3   1 <1>  -0.2400 
 10 C        3.2730     1.2420    -0.0230 C.3   1 <1>  -0.2400 
 11 C        1.2660     4.8750     0.0930 C.3   1 <1>  -0.2400 
 12 C        0.4040     3.9260    -2.0810 C.3   1 <1>  -0.2400 
 13 C       -3.2750     2.8630    -0.0390 C.ar  1 <1>   0.0000 
 14 C       -2.8550     3.7440     2.1760 C.ar  1 <1>  -0.1500 
 15 C       -3.7500     3.5260     1.1110 C.ar  1 <1>   0.0000 
 16 C       -4.1680     2.6380    -1.1080 C.ar  1 <1>  -0.1500 
 17 C       -5.0960     3.9410     1.1490 C.ar  1 <1>  -0.1500 
 18 C       -5.4700     3.0510    -1.0440 C.ar  1 <1>  -0.1500 
 19 C       -5.9400     3.7100     0.0970 C.ar  1 <1>  -0.1500 
 20 H        2.1380     1.4710    -1.8080 H     1 <1>   0.0800 
 21 H        2.3570     3.7010    -1.2810 H     1 <1>   0.0800 
 22 H       -1.5810     1.9400    -0.9550 H     1 <1>   0.1500 
 23 H       -0.8770     3.5000     2.9230 H     1 <1>   0.1500 
 24 H        1.0420    -0.3400     0.3430 H     1 <1>   0.0800 
 25 H        1.7910    -0.8210    -1.1520 H     1 <1>   0.0800 
 26 H        0.2580     0.0070    -1.1880 H     1 <1>   0.0800 
 27 H        3.1230     1.0000     1.0130 H     1 <1>   0.0800 
 28 H        3.7730     2.1900    -0.0920 H     1 <1>   0.0800 
 29 H        3.9070     0.4900    -0.4560 H     1 <1>   0.0800 
 30 H        0.2570     5.0370     0.4250 H     1 <1>   0.0800 
 31 H        1.6070     5.7780    -0.3790 H     1 <1>   0.0800 
 32 H        1.8980     4.6810     0.9420 H     1 <1>   0.0800 
 33 H       -0.6030     4.0870    -1.7430 H     1 <1>   0.0800 
 34 H        0.4310     3.0780    -2.7410 H     1 <1>   0.0800 
 35 H        0.7090     4.7950    -2.6340 H     1 <1>   0.0800 
 36 H       -3.2190     4.2400     3.0580 H     1 <1>   0.1500 
 37 H       -3.8030     2.1300    -1.9820 H     1 <1>   0.1500 
 38 H       -5.4520     4.4460     2.0290 H     1 <1>   0.1500 
 39 H       -6.1470     2.8760    -1.8630 H     1 <1>   0.1500 
 40 H       -6.9670     4.0290     0.1320 H     1 <1>   0.1500 
@<TRIPOS>BOND
  1   1   2  2   
  2   2   3  am  
  3   2   4  1   
  4   3   5  1   
  5   3   6  1   
  6   4   7  ar  
  7   4   8  ar  
  8   5   9  1   
  9   5  10  1   
 10   5  20  1   
 11   6  11  1   
 12   6  12  1   
 13   6  21  1   
 14   7  13  ar  
 15   7  22  1   
 16   8  14  ar  
 17   8  23  1   
 18   9  24  1   
 19   9  25  1   
 20   9  26  1   
 21  10  27  1   
 22  10  28  1   
 23  10  29  1   
 24  11  30  1   
 25  11  31  1   
 26  11  32  1   
 27  12  33  1   
 28  12  34  1   
 29  12  35  1   
 30  13  15  ar  
 31  13  16  ar  
 32  14  15  ar  
 33  14  36  1   
 34  15  17  ar  
 35  16  18  ar  
 36  16  37  1   
 37  17  19  ar  
 38  17  38  1   
 39  18  19  ar  
 40  18  39  1   
 41  19  40  1   
@<TRIPOS>SUBSTRUCTURE
  1 ****   4 GROUP 4 **** **** 0

# MOE 2024.06 (io_trps.svl 2023.06)
