@<TRIPOS>MOLECULE
NONAME
41 42 1 0 0 
SMALL
USER_CHARGES


@<TRIPOS>ATOM
  1 O        0.1270     0.3090     0.7950 O.2   1 <1>  -0.5700 
  2 C        0.6540     1.3350     0.4100 C.2   1 <1>   0.5440 
  3 N       -0.1570     2.3810     0.0810 N.am  1 <1>  -0.7300 
  4 C        2.0980     1.4380     0.2890 C.ar  1 <1>   0.0860 
  5 C       -1.6230     2.3660     0.2030 C.3   1 <1>   0.2840 
  6 C        2.8850     0.2970     0.1200 C.ar  1 <1>  -0.1500 
  7 C        2.7640     2.6670     0.3370 C.ar  1 <1>  -0.1500 
  8 C       -2.1100     3.8000     0.1290 C.ar  1 <1>  -0.1440 
  9 C        4.2590     0.3770    -0.0080 C.ar  1 <1>  -0.1500 
 10 C        4.1380     2.7560     0.2100 C.ar  1 <1>  -0.1500 
 11 C       -2.5780     4.3560    -1.0450 C.ar  1 <1>  -0.1500 
 12 C       -2.1010     4.6260     1.2350 C.ar  1 <1>  -0.1500 
 13 C        4.8990     1.6040     0.0340 C.ar  1 <1>   0.0830 
 14 C       -3.0020     5.6750    -1.0550 C.ar  1 <1>   0.1600 
 15 C       -2.5480     5.9310     1.1180 C.ar  1 <1>   0.1600 
 16 O        6.2440     1.6000    -0.1000 O.3   1 <1>  -0.3630 
 17 N       -2.9960     6.4750    -0.0020 N.ar  1 <1>  -0.6200 
 18 C        7.0010     2.7870    -0.0570 C.3   1 <1>   0.1200 
 19 C        8.4750     2.4210    -0.2320 C.3   1 <1>  -0.1600 
 20 C        9.3660     3.6690    -0.1960 C.3   1 <1>  -0.1600 
 21 C       10.8410     3.2960    -0.3710 C.3   1 <1>  -0.2400 
 22 H        0.2270     3.2290    -0.3340 H     1 <1>   0.3700 
 23 H       -1.9050     1.9190     1.1410 H     1 <1>   0.0800 
 24 H       -2.0430     1.7790    -0.5960 H     1 <1>   0.0800 
 25 H        2.4050    -0.6670     0.0880 H     1 <1>   0.1500 
 26 H        2.1990     3.5690     0.4850 H     1 <1>   0.1500 
 27 H        4.8470    -0.5140    -0.1390 H     1 <1>   0.1500 
 28 H        4.6010     3.7240     0.2530 H     1 <1>   0.1500 
 29 H       -2.6160     3.7790    -1.9510 H     1 <1>   0.1500 
 30 H       -1.7490     4.2640     2.1850 H     1 <1>   0.1500 
 31 H       -3.3650     6.0930    -1.9790 H     1 <1>   0.1500 
 32 H       -2.5350     6.5610     1.9910 H     1 <1>   0.1500 
 33 H        6.8370     3.2600     0.8950 H     1 <1>   0.0800 
 34 H        6.6710     3.4290    -0.8560 H     1 <1>   0.0800 
 35 H        8.6010     1.9180    -1.1750 H     1 <1>   0.0800 
 36 H        8.7650     1.7510     0.5580 H     1 <1>   0.0800 
 37 H        9.2410     4.1780     0.7450 H     1 <1>   0.0800 
 38 H        9.0780     4.3450    -0.9840 H     1 <1>   0.0800 
 39 H       11.1590     2.6380     0.4180 H     1 <1>   0.0800 
 40 H       11.4510     4.1820    -0.3430 H     1 <1>   0.0800 
 41 H       10.9950     2.8040    -1.3160 H     1 <1>   0.0800 
@<TRIPOS>BOND
  1   1   2  2   
  2   2   3  am  
  3   2   4  1   
  4   3   5  1   
  5   3  22  1   
  6   4   6  ar  
  7   4   7  ar  
  8   5   8  1   
  9   5  23  1   
 10   5  24  1   
 11   6   9  ar  
 12   6  25  1   
 13   7  10  ar  
 14   7  26  1   
 15   8  11  ar  
 16   8  12  ar  
 17   9  13  ar  
 18   9  27  1   
 19  10  13  ar  
 20  10  28  1   
 21  11  14  ar  
 22  11  29  1   
 23  12  15  ar  
 24  12  30  1   
 25  13  16  1   
 26  14  17  ar  
 27  14  31  1   
 28  15  17  ar  
 29  15  32  1   
 30  16  18  1   
 31  18  19  1   
 32  18  33  1   
 33  18  34  1   
 34  19  20  1   
 35  19  35  1   
 36  19  36  1   
 37  20  21  1   
 38  20  37  1   
 39  20  38  1   
 40  21  39  1   
 41  21  40  1   
 42  21  41  1   
@<TRIPOS>SUBSTRUCTURE
  1 ****   7 GROUP 4 **** **** 0

# MOE 2024.06 (io_trps.svl 2023.06)
