@<TRIPOS>MOLECULE
NONAME
45 47 1 0 0 
SMALL
USER_CHARGES


@<TRIPOS>ATOM
  1 O       -0.1430    -0.5710     1.1210 O.2   1 <1>  -0.5700 
  2 C        0.4200    -1.3440     0.3640 C.2   1 <1>   0.5440 
  3 N        1.6280    -0.9770    -0.1580 N.am  1 <1>  -0.7300 
  4 C       -0.1810    -2.6140    -0.0040 C.ar  1 <1>   0.0860 
  5 C        2.3430     0.2790     0.1230 C.3   1 <1>   0.2200 
  6 C       -1.5710    -2.7490    -0.1840 C.ar  1 <1>   0.1170 
  7 C        0.6240    -3.7390    -0.2010 C.ar  1 <1>  -0.1500 
  8 C        2.2740     1.1760    -1.1170 C.3   1 <1>  -0.1600 
  9 C        3.7930    -0.0510     0.4920 C.3   1 <1>  -0.1600 
 10 N       -2.4030    -1.6440     0.0420 N.am  1 <1>  -0.5470 
 11 C       -2.0920    -3.9850    -0.5620 C.ar  1 <1>  -0.1500 
 12 C        0.0920    -4.9560    -0.5790 C.ar  1 <1>  -0.1500 
 13 C        3.0980     2.4580    -0.9210 C.3   1 <1>  -0.1600 
 14 C        4.6200     1.2280     0.6910 C.3   1 <1>  -0.1600 
 15 C       -3.6160    -1.2590    -0.4810 C.2   1 <1>   0.5440 
 16 C       -1.2730    -5.0780    -0.7620 C.ar  1 <1>  -0.1500 
 17 C        4.5510     2.1320    -0.5480 C.3   1 <1>  -0.1600 
 18 O       -4.1990    -1.9900    -1.2550 O.2   1 <1>  -0.5700 
 19 C       -4.1960     0.0180    -0.1140 C.ar  1 <1>   0.0860 
 20 C       -3.4180     1.0930     0.3240 C.ar  1 <1>   0.1600 
 21 C       -5.5670     0.2340    -0.1890 C.ar  1 <1>  -0.1500 
 22 N       -3.8700     2.2860     0.6820 N.ar  1 <1>  -0.6200 
 23 C       -6.0590     1.4680     0.1770 C.ar  1 <1>  -0.1500 
 24 C       -5.1800     2.4470     0.6020 C.ar  1 <1>   0.1600 
 25 H        2.0450    -1.5480    -0.8930 H     1 <1>   0.3700 
 26 H        1.8790     0.7880     0.9530 H     1 <1>   0.0800 
 27 H        1.6870    -3.6630    -0.0500 H     1 <1>   0.1500 
 28 H        1.2480     1.4400    -1.3050 H     1 <1>   0.0800 
 29 H        2.6530     0.6440    -1.9710 H     1 <1>   0.0800 
 30 H        4.2410    -0.6370    -0.2910 H     1 <1>   0.0800 
 31 H        3.8050    -0.6260     1.4010 H     1 <1>   0.0800 
 32 H       -1.9490    -0.9500     0.6520 H     1 <1>   0.3700 
 33 H       -3.1520    -4.0990    -0.6960 H     1 <1>   0.1500 
 34 H        0.7310    -5.8100    -0.7280 H     1 <1>   0.1500 
 35 H        2.6530     3.0490    -0.1380 H     1 <1>   0.0800 
 36 H        3.0790     3.0410    -1.8250 H     1 <1>   0.0800 
 37 H        5.6450     0.9680     0.8910 H     1 <1>   0.0800 
 38 H        4.2440     1.7660     1.5440 H     1 <1>   0.0800 
 39 H       -1.6980    -6.0220    -1.0560 H     1 <1>   0.1500 
 40 H        5.0870     3.0460    -0.3570 H     1 <1>   0.0800 
 41 H        5.0290     1.6380    -1.3770 H     1 <1>   0.0800 
 42 H       -2.3500     0.9660     0.3790 H     1 <1>   0.1500 
 43 H       -6.2240    -0.5500    -0.5280 H     1 <1>   0.1500 
 44 H       -7.1140     1.6720     0.1340 H     1 <1>   0.1500 
 45 H       -5.5710     3.4090     0.8880 H     1 <1>   0.1500 
@<TRIPOS>BOND
  1   1   2  2   
  2   2   3  am  
  3   2   4  1   
  4   3   5  1   
  5   3  25  1   
  6   4   6  ar  
  7   4   7  ar  
  8   5   8  1   
  9   5   9  1   
 10   5  26  1   
 11   6  10  1   
 12   6  11  ar  
 13   7  12  ar  
 14   7  27  1   
 15   8  13  1   
 16   8  28  1   
 17   8  29  1   
 18   9  14  1   
 19   9  30  1   
 20   9  31  1   
 21  10  15  am  
 22  10  32  1   
 23  11  16  ar  
 24  11  33  1   
 25  12  16  ar  
 26  12  34  1   
 27  13  17  1   
 28  13  35  1   
 29  13  36  1   
 30  14  17  1   
 31  14  37  1   
 32  14  38  1   
 33  15  18  2   
 34  15  19  1   
 35  16  39  1   
 36  17  40  1   
 37  17  41  1   
 38  19  20  ar  
 39  19  21  ar  
 40  20  22  ar  
 41  20  42  1   
 42  21  23  ar  
 43  21  43  1   
 44  22  24  ar  
 45  23  24  ar  
 46  23  44  1   
 47  24  45  1   
@<TRIPOS>SUBSTRUCTURE
  1 ****   1 GROUP 4 **** **** 0

# MOE 2024.06 (io_trps.svl 2023.06)
