@<TRIPOS>MOLECULE
NONAME
41 41 1 0 0 
SMALL
USER_CHARGES


@<TRIPOS>ATOM
  1 BR      -0.0310     0.9020    -1.9580 Br    1 <1>  -0.1110 
  2 C        0.8600     2.1640    -0.8030 C.ar  1 <1>   0.1110 
  3 C        0.1770     3.2810    -0.3470 C.ar  1 <1>   0.0820 
  4 C        2.1720     1.8990    -0.4540 C.ar  1 <1>  -0.1500 
  5 O       -1.1150     3.4670    -0.7110 O.3   1 <1>  -0.3630 
  6 C        0.8590     4.1770     0.4820 C.ar  1 <1>   0.0830 
  7 C        2.8370     2.7830     0.3850 C.ar  1 <1>  -0.1440 
  8 C       -2.0780     3.1800     0.2790 C.3   1 <1>   0.3200 
  9 O        0.3160     5.3200     0.9720 O.3   1 <1>  -0.3620 
 10 C        2.1700     3.9110     0.8500 C.ar  1 <1>  -0.1500 
 11 C        4.2760     2.5370     0.7810 C.3   1 <1>   0.4870 
 12 C       -3.4090     3.6320    -0.2140 C.1   1 <1>  -0.2000 
 13 C       -0.3340     6.2030     0.0780 C.3   1 <1>   0.0400 
 14 N        5.1050     3.3770    -0.0980 N.4   1 <1>  -0.9060 
 15 C       -4.4710     3.9950    -0.6100 C.1   1 <1>  -0.1770 
 16 C        6.5520     3.3760     0.1930 C.3   1 <1>   0.4230 
 17 C        7.1180     4.7690    -0.1720 C.3   1 <1>   0.1200 
 18 C        7.2270     2.2290    -0.5710 C.3   1 <1>  -0.1600 
 19 O        6.1580     5.7520     0.0990 O.3   1 <1>  -0.6800 
 20 C        8.7220     2.0970    -0.2440 C.3   1 <1>  -0.2400 
 21 H        2.6430     1.0110    -0.8390 H     1 <1>   0.1500 
 22 H       -1.8180     3.7020     1.1840 H     1 <1>   0.0800 
 23 H       -2.0780     2.1180     0.4540 H     1 <1>   0.0800 
 24 H        2.6560     4.6140     1.5060 H     1 <1>   0.1500 
 25 H        4.5240     1.4950     0.6560 H     1 <1>   0.0800 
 26 H        4.4230     2.8110     1.8140 H     1 <1>   0.0800 
 27 H       -0.3410     7.1830     0.5210 H     1 <1>   0.0800 
 28 H       -1.3450     5.8740    -0.0770 H     1 <1>   0.0800 
 29 H        0.2010     6.2240    -0.8550 H     1 <1>   0.0800 
 30 H        4.8290     4.3670     0.0310 H     1 <1>   0.4500 
 31 H        4.9170     3.1710    -1.0820 H     1 <1>   0.4500 
 32 H       -5.4280     4.3220    -0.9750 H     1 <1>   0.1770 
 33 H        6.7030     3.2310     1.2510 H     1 <1>   0.0800 
 34 H        7.3630     4.8210    -1.2200 H     1 <1>   0.0800 
 35 H        8.0040     4.9780     0.4040 H     1 <1>   0.0800 
 36 H        7.1190     2.3790    -1.6320 H     1 <1>   0.0800 
 37 H        6.7510     1.2990    -0.3120 H     1 <1>   0.0800 
 38 H        6.5270     6.6540    -0.0460 H     1 <1>   0.4000 
 39 H        9.2730     2.9670    -0.5570 H     1 <1>   0.0800 
 40 H        9.1350     1.2460    -0.7600 H     1 <1>   0.0800 
 41 H        8.8750     1.9510     0.8120 H     1 <1>   0.0800 
@<TRIPOS>BOND
  1   1   2  1   
  2   2   3  ar  
  3   2   4  ar  
  4   3   5  1   
  5   3   6  ar  
  6   4   7  ar  
  7   4  21  1   
  8   5   8  1   
  9   6   9  1   
 10   6  10  ar  
 11   7  10  ar  
 12   7  11  1   
 13   8  12  1   
 14   8  22  1   
 15   8  23  1   
 16   9  13  1   
 17  10  24  1   
 18  11  14  1   
 19  11  25  1   
 20  11  26  1   
 21  12  15  3   
 22  13  27  1   
 23  13  28  1   
 24  13  29  1   
 25  14  16  1   
 26  14  30  1   
 27  14  31  1   
 28  15  32  1   
 29  16  17  1   
 30  16  18  1   
 31  16  33  1   
 32  17  19  1   
 33  17  34  1   
 34  17  35  1   
 35  18  20  1   
 36  18  36  1   
 37  18  37  1   
 38  19  38  1   
 39  20  39  1   
 40  20  40  1   
 41  20  41  1   
@<TRIPOS>SUBSTRUCTURE
  1 ****  10 GROUP 4 **** **** 0

# MOE 2024.06 (io_trps.svl 2023.06)
