@<TRIPOS>MOLECULE
NONAME
48 49 1 0 0 
SMALL
USER_CHARGES


@<TRIPOS>ATOM
  1 O        1.1680     2.4550     2.1400 O.2   1 <1>  -0.5700 
  2 C        0.8260     2.4770     0.9830 C.2   1 <1>   0.5690 
  3 N        1.5310     1.8760    -0.0190 N.am  1 <1>  -0.5470 
  4 C       -0.4520     3.2040     0.6130 C.3   1 <1>  -0.0990 
  5 C        2.7340     1.1400     0.0380 C.ar  1 <1>   0.1170 
  6 C       -1.6140     2.2300     0.3470 C.3   1 <1>  -0.1600 
  7 C        3.8700     1.5620     0.7530 C.ar  1 <1>   0.1170 
  8 C        2.7960    -0.0480    -0.6780 C.ar  1 <1>  -0.1500 
  9 C       -2.8980     2.9550    -0.0840 C.3   1 <1>  -0.0800 
 10 N        3.8660     2.7660     1.4750 N.am  1 <1>  -0.5470 
 11 C        5.0090     0.7670     0.7490 C.ar  1 <1>  -0.1500 
 12 C        3.9420    -0.8220    -0.6850 C.ar  1 <1>  -0.1500 
 13 C       -3.4850     3.8780     0.9840 C.3   1 <1>  -0.1600 
 14 C       -4.0410     1.9880    -0.3820 C.3   1 <1>  -0.1600 
 15 C        4.6950     3.8420     1.4470 C.2   1 <1>   0.5690 
 16 C        5.0510    -0.4150     0.0330 C.ar  1 <1>  -0.1500 
 17 C       -4.9700     4.0100     0.6370 C.3   1 <1>  -0.1600 
 18 C       -5.3040     2.8450    -0.3020 C.3   1 <1>  -0.1600 
 19 O        4.4820     4.7810     2.1730 O.2   1 <1>  -0.5700 
 20 C        5.8890     3.8800     0.4980 C.3   1 <1>  -0.0990 
 21 C        6.2180     5.2920    -0.0180 C.3   1 <1>  -0.1600 
 22 C        7.3970     5.2700    -0.9970 C.3   1 <1>  -0.2400 
 23 H        1.0830     1.8930    -0.9330 H     1 <1>   0.3700 
 24 H       -0.2700     3.8100    -0.2560 H     1 <1>   0.0800 
 25 H       -0.7080     3.8620     1.4230 H     1 <1>   0.0800 
 26 H       -1.8030     1.6580     1.2410 H     1 <1>   0.0800 
 27 H       -1.3310     1.5380    -0.4270 H     1 <1>   0.0800 
 28 H        1.9370    -0.3810    -1.2320 H     1 <1>   0.1500 
 29 H       -2.7080     3.5340    -0.9730 H     1 <1>   0.0800 
 30 H        3.0150     2.9120     2.0380 H     1 <1>   0.3700 
 31 H        5.8690     1.0730     1.3160 H     1 <1>   0.1500 
 32 H        3.9710    -1.7430    -1.2430 H     1 <1>   0.1500 
 33 H       -2.9950     4.8360     1.0020 H     1 <1>   0.0800 
 34 H       -3.3910     3.4190     1.9530 H     1 <1>   0.0800 
 35 H       -4.0850     1.2280     0.3800 H     1 <1>   0.0800 
 36 H       -3.9340     1.5180    -1.3440 H     1 <1>   0.0800 
 37 H        5.9430    -1.0190     0.0380 H     1 <1>   0.1500 
 38 H       -5.1530     4.9450     0.1340 H     1 <1>   0.0800 
 39 H       -5.5700     3.9730     1.5290 H     1 <1>   0.0800 
 40 H       -6.1410     2.2720     0.0570 H     1 <1>   0.0800 
 41 H       -5.5400     3.2310    -1.2800 H     1 <1>   0.0800 
 42 H        5.6880     3.2490    -0.3470 H     1 <1>   0.0800 
 43 H        6.7400     3.4850     1.0210 H     1 <1>   0.0800 
 44 H        6.4580     5.9320     0.8150 H     1 <1>   0.0800 
 45 H        5.3520     5.7040    -0.5080 H     1 <1>   0.0800 
 46 H        8.2780     4.8830    -0.5160 H     1 <1>   0.0800 
 47 H        7.6060     6.2680    -1.3390 H     1 <1>   0.0800 
 48 H        7.1680     4.6570    -1.8510 H     1 <1>   0.0800 
@<TRIPOS>BOND
  1   1   2  2   
  2   2   3  am  
  3   2   4  1   
  4   3   5  1   
  5   3  23  1   
  6   4   6  1   
  7   4  24  1   
  8   4  25  1   
  9   5   7  ar  
 10   5   8  ar  
 11   6   9  1   
 12   6  26  1   
 13   6  27  1   
 14   7  10  1   
 15   7  11  ar  
 16   8  12  ar  
 17   8  28  1   
 18   9  13  1   
 19   9  14  1   
 20   9  29  1   
 21  10  15  am  
 22  10  30  1   
 23  11  16  ar  
 24  11  31  1   
 25  12  16  ar  
 26  12  32  1   
 27  13  17  1   
 28  13  33  1   
 29  13  34  1   
 30  14  18  1   
 31  14  35  1   
 32  14  36  1   
 33  15  19  2   
 34  15  20  1   
 35  16  37  1   
 36  17  18  1   
 37  17  38  1   
 38  17  39  1   
 39  18  40  1   
 40  18  41  1   
 41  20  21  1   
 42  20  42  1   
 43  20  43  1   
 44  21  22  1   
 45  21  44  1   
 46  21  45  1   
 47  22  46  1   
 48  22  47  1   
 49  22  48  1   
@<TRIPOS>SUBSTRUCTURE
  1 ****   3 GROUP 4 **** **** 0

# MOE 2024.06 (io_trps.svl 2023.06)
