@<TRIPOS>MOLECULE
NONAME
60 63 1 0 0 
SMALL
USER_CHARGES


@<TRIPOS>ATOM
  1 O       -0.1660     1.0270     1.1960 O.3   1 <1>  -0.3630 
  2 C       -1.1890     1.1890     0.2960 C.ar  1 <1>   0.0830 
  3 C       -0.2050    -0.0010     2.1640 C.3   1 <1>   0.0400 
  4 C       -1.0940     2.2330    -0.6440 C.ar  1 <1>   0.1000 
  5 C       -2.3060     0.3590     0.2890 C.ar  1 <1>  -0.1500 
  6 N       -0.0120     3.1220    -0.7190 N.pl3 1 <1>  -0.8380 
  7 C       -2.1230     2.4040    -1.5590 C.ar  1 <1>  -0.1500 
  8 C       -3.3200     0.5510    -0.6350 C.ar  1 <1>  -0.1500 
  9 C        1.2690     2.4910    -1.1390 C.3   1 <1>   0.2090 
 10 C        0.1120     4.0320     0.4520 C.3   1 <1>   0.2090 
 11 C       -3.2290     1.5740    -1.5590 C.ar  1 <1>  -0.1500 
 12 C        2.3630     3.5570    -1.3470 C.3   1 <1>   0.3430 
 13 C        1.2230     5.0750     0.2210 C.3   1 <1>   0.3430 
 14 N        2.5660     4.4540    -0.1350 N.4   1 <1>  -0.9590 
 15 C        3.6600     5.4640    -0.3180 C.3   1 <1>   0.4230 
 16 C        4.9870     4.7680    -0.6620 C.3   1 <1>  -0.1600 
 17 C        3.8380     6.3070     0.9570 C.3   1 <1>  -0.1600 
 18 C        6.1490     5.7570    -0.7500 C.3   1 <1>   0.3430 
 19 C        5.0170     7.2770     0.8510 C.3   1 <1>   0.3430 
 20 N        6.2580     6.5310     0.5180 N.4   1 <1>  -0.9590 
 21 C        7.4450     7.4420     0.4880 C.3   1 <1>   0.4860 
 22 C        8.6890     6.5840     0.3880 C.ar  1 <1>  -0.1430 
 23 C        9.1360     5.8660     1.4880 C.ar  1 <1>  -0.1500 
 24 C        9.3860     6.5030    -0.8100 C.ar  1 <1>  -0.1500 
 25 C       10.2560     5.0590     1.3840 C.ar  1 <1>  -0.1500 
 26 C       10.5050     5.6950    -0.9110 C.ar  1 <1>  -0.1500 
 27 C       10.9380     4.9710     0.1850 C.ar  1 <1>  -0.1500 
 28 H        0.6900     0.0600     2.7570 H     1 <1>   0.0800 
 29 H       -0.2460    -0.9520     1.6640 H     1 <1>   0.0800 
 30 H       -1.0660     0.1420     2.7930 H     1 <1>   0.0800 
 31 H       -2.4170    -0.4470     0.9880 H     1 <1>   0.1500 
 32 H       -2.0530     3.1990    -2.2780 H     1 <1>   0.1500 
 33 H       -4.1810    -0.0960    -0.6340 H     1 <1>   0.1500 
 34 H        1.1080     1.9580    -2.0610 H     1 <1>   0.0800 
 35 H        1.5900     1.7780    -0.4010 H     1 <1>   0.0800 
 36 H        0.3230     3.4650     1.3410 H     1 <1>   0.0800 
 37 H       -0.8280     4.5360     0.6010 H     1 <1>   0.0800 
 38 H       -4.0160     1.7250    -2.2770 H     1 <1>   0.1500 
 39 H        2.0820     4.1550    -2.1980 H     1 <1>   0.0800 
 40 H        3.2770     3.0440    -1.5900 H     1 <1>   0.0800 
 41 H        1.3090     5.6660     1.1160 H     1 <1>   0.0800 
 42 H        0.9020     5.7260    -0.5760 H     1 <1>   0.0800 
 43 H        2.8030     3.8250     0.6440 H     1 <1>   0.4500 
 44 H        3.3950     6.1220    -1.1320 H     1 <1>   0.0800 
 45 H        4.9200     4.2870    -1.6200 H     1 <1>   0.0800 
 46 H        5.2240     4.0200     0.0750 H     1 <1>   0.0800 
 47 H        3.9890     5.6690     1.8110 H     1 <1>   0.0800 
 48 H        2.9620     6.9030     1.1340 H     1 <1>   0.0800 
 49 H        5.9970     6.4310    -1.5780 H     1 <1>   0.0800 
 50 H        7.0650     5.2120    -0.9290 H     1 <1>   0.0800 
 51 H        5.1400     7.7970     1.7890 H     1 <1>   0.0800 
 52 H        4.8170     8.0110     0.0860 H     1 <1>   0.0800 
 53 H        6.4760     5.8620     1.2710 H     1 <1>   0.4500 
 54 H        7.4940     8.0280     1.3920 H     1 <1>   0.0800 
 55 H        7.3900     8.1140    -0.3530 H     1 <1>   0.0800 
 56 H        8.6350     5.9250     2.4390 H     1 <1>   0.1500 
 57 H        9.0780     7.0630    -1.6770 H     1 <1>   0.1500 
 58 H       10.6040     4.5000     2.2370 H     1 <1>   0.1500 
 59 H       11.0470     5.6310    -1.8400 H     1 <1>   0.1500 
 60 H       11.8110     4.3440     0.1060 H     1 <1>   0.1500 
@<TRIPOS>BOND
  1   1   2  1   
  2   1   3  1   
  3   2   4  ar  
  4   2   5  ar  
  5   3  28  1   
  6   3  29  1   
  7   3  30  1   
  8   4   6  1   
  9   4   7  ar  
 10   5   8  ar  
 11   5  31  1   
 12   6   9  1   
 13   6  10  1   
 14   7  11  ar  
 15   7  32  1   
 16   8  11  ar  
 17   8  33  1   
 18   9  12  1   
 19   9  34  1   
 20   9  35  1   
 21  10  13  1   
 22  10  36  1   
 23  10  37  1   
 24  11  38  1   
 25  12  14  1   
 26  12  39  1   
 27  12  40  1   
 28  13  14  1   
 29  13  41  1   
 30  13  42  1   
 31  14  15  1   
 32  14  43  1   
 33  15  16  1   
 34  15  17  1   
 35  15  44  1   
 36  16  18  1   
 37  16  45  1   
 38  16  46  1   
 39  17  19  1   
 40  17  47  1   
 41  17  48  1   
 42  18  20  1   
 43  18  49  1   
 44  18  50  1   
 45  19  20  1   
 46  19  51  1   
 47  19  52  1   
 48  20  21  1   
 49  20  53  1   
 50  21  22  1   
 51  21  54  1   
 52  21  55  1   
 53  22  23  ar  
 54  22  24  ar  
 55  23  25  ar  
 56  23  56  1   
 57  24  26  ar  
 58  24  57  1   
 59  25  27  ar  
 60  25  58  1   
 61  26  27  ar  
 62  26  59  1   
 63  27  60  1   
@<TRIPOS>SUBSTRUCTURE
  1 ****  14 GROUP 4 **** **** 0

# MOE 2024.06 (io_trps.svl 2023.06)
