@<TRIPOS>MOLECULE
NONAME
46 48 1 0 0 
SMALL
USER_CHARGES


@<TRIPOS>ATOM
  1 S       -1.0120     6.4680    -1.4130 S.3   1 <1>  -0.2030 
  2 C       -0.1190     7.2580    -0.0640 C.ar  1 <1>   0.1020 
  3 C       -2.1730     5.3260    -0.6430 C.ar  1 <1>   0.1020 
  4 C        0.5280     6.5220     0.9250 C.ar  1 <1>  -0.1440 
  5 C       -0.1150     8.6420    -0.0530 C.ar  1 <1>  -0.1500 
  6 C       -3.0740     5.7400     0.3340 C.ar  1 <1>  -0.1440 
  7 C       -2.1260     4.0110    -1.0710 C.ar  1 <1>  -0.1500 
  8 C        1.1180     7.2120     1.9760 C.ar  1 <1>  -0.1500 
  9 C        0.6590     5.0080     0.8770 C.3   1 <1>   0.4870 
 10 C        0.4900     9.3120     0.9940 C.ar  1 <1>  -0.1500 
 11 C       -3.8930     4.7840     0.9210 C.ar  1 <1>  -0.1500 
 12 C       -3.2360     7.1910     0.7440 C.3   1 <1>   0.4870 
 13 C       -2.9550     3.0750    -0.4830 C.ar  1 <1>  -0.1500 
 14 C        1.0950     8.5960     2.0110 C.ar  1 <1>  -0.1500 
 15 N        2.0480     4.6610     0.4770 N.4   1 <1>  -0.9590 
 16 C       -3.8290     3.4610     0.5180 C.ar  1 <1>  -0.1500 
 17 N       -3.9820     7.8680    -0.3360 N.4   1 <1>  -0.8530 
 18 C        2.4350     5.1750    -0.8820 C.3   1 <1>   0.3430 
 19 C        2.3650     3.1980     0.6010 C.3   1 <1>   0.3430 
 20 C        3.8970     4.8090    -1.2260 C.3   1 <1>   0.1200 
 21 C        3.8090     2.8910     0.1380 C.3   1 <1>   0.1200 
 22 O        4.4940     4.0680    -0.1940 O.3   1 <1>  -0.5600 
 23 H       -0.5750     9.2000    -0.8500 H     1 <1>   0.1500 
 24 H       -1.4530     3.7140    -1.8580 H     1 <1>   0.1500 
 25 H        1.6140     6.6880     2.7780 H     1 <1>   0.1500 
 26 H       -0.0340     4.5810     0.1770 H     1 <1>   0.0800 
 27 H        0.4470     4.6020     1.8540 H     1 <1>   0.0800 
 28 H        0.4990    10.3910     1.0190 H     1 <1>   0.1500 
 29 H       -4.5990     5.0490     1.6930 H     1 <1>   0.1500 
 30 H       -2.2790     7.6580     0.8960 H     1 <1>   0.0800 
 31 H       -3.7900     7.2480     1.6680 H     1 <1>   0.0800 
 32 H       -2.9290     2.0450    -0.8030 H     1 <1>   0.1500 
 33 H        1.5610     9.1230     2.8300 H     1 <1>   0.1500 
 34 H        2.7010     5.1360     1.1180 H     1 <1>   0.4500 
 35 H       -4.4700     2.7250     0.9780 H     1 <1>   0.1500 
 36 H       -3.4520     7.8030    -1.2120 H     1 <1>   0.4500 
 37 H       -4.1610     8.8540    -0.1220 H     1 <1>   0.4500 
 38 H       -4.8780     7.3910    -0.4880 H     1 <1>   0.4500 
 39 H        2.3290     6.2480    -0.9170 H     1 <1>   0.0800 
 40 H        1.7840     4.7620    -1.6350 H     1 <1>   0.0800 
 41 H        1.6800     2.6170     0.0060 H     1 <1>   0.0800 
 42 H        2.2550     2.8820     1.6250 H     1 <1>   0.0800 
 43 H        4.4790     5.7040    -1.3650 H     1 <1>   0.0800 
 44 H        3.9440     4.2350    -2.1360 H     1 <1>   0.0800 
 45 H        3.8070     2.2400    -0.7200 H     1 <1>   0.0800 
 46 H        4.3570     2.4040     0.9270 H     1 <1>   0.0800 
@<TRIPOS>BOND
  1   1   2  1   
  2   1   3  1   
  3   2   4  ar  
  4   2   5  ar  
  5   3   6  ar  
  6   3   7  ar  
  7   4   8  ar  
  8   4   9  1   
  9   5  10  ar  
 10   5  23  1   
 11   6  11  ar  
 12   6  12  1   
 13   7  13  ar  
 14   7  24  1   
 15   8  14  ar  
 16   8  25  1   
 17   9  15  1   
 18   9  26  1   
 19   9  27  1   
 20  10  14  ar  
 21  10  28  1   
 22  11  16  ar  
 23  11  29  1   
 24  12  17  1   
 25  12  30  1   
 26  12  31  1   
 27  13  16  ar  
 28  13  32  1   
 29  14  33  1   
 30  15  18  1   
 31  15  19  1   
 32  15  34  1   
 33  16  35  1   
 34  17  36  1   
 35  17  37  1   
 36  17  38  1   
 37  18  20  1   
 38  18  39  1   
 39  18  40  1   
 40  19  21  1   
 41  19  41  1   
 42  19  42  1   
 43  20  22  1   
 44  20  43  1   
 45  20  44  1   
 46  21  22  1   
 47  21  45  1   
 48  21  46  1   
@<TRIPOS>SUBSTRUCTURE
  1 ****   9 GROUP 4 **** **** 0

# MOE 2024.06 (io_trps.svl 2023.06)
