@<TRIPOS>MOLECULE
NONAME
50 53 1 0 0 
SMALL
USER_CHARGES


@<TRIPOS>ATOM
  1 O       -2.3570     1.0820     0.7390 O.3   1 <1>  -0.3630 
  2 C       -1.3850     1.8190     0.1480 C.ar  1 <1>   0.0820 
  3 C       -2.0780    -0.2910     0.9390 C.3   1 <1>   0.0400 
  4 C       -1.5760     2.2080    -1.1750 C.ar  1 <1>  -0.1440 
  5 C       -0.2390     2.2000     0.8440 C.ar  1 <1>  -0.1440 
  6 C       -0.5850     2.9210    -1.8280 C.ar  1 <1>  -0.1500 
  7 C       -2.8710     1.8780    -1.8890 C.3   1 <1>   0.4870 
  8 C        0.7550     2.9080     0.1730 C.ar  1 <1>   0.0820 
  9 C       -0.0530     1.8790     2.3280 C.3   1 <1>  -0.0970 
 10 C        0.5770     3.2610    -1.1620 C.ar  1 <1>  -0.1500 
 11 N       -3.9910     2.4620    -1.1150 N.4   1 <1>  -0.9590 
 12 O        1.8790     3.2330     0.8650 O.3   1 <1>  -0.3630 
 13 C       -5.3230     1.9620    -1.5440 C.3   1 <1>   0.5230 
 14 C       -3.9200     3.9600    -0.9990 C.3   1 <1>   0.3430 
 15 C        2.9800     3.8750     0.2600 C.3   1 <1>   0.0400 
 16 C       -6.3590     2.6330    -0.6730 C.2   1 <1>  -0.3320 
 17 C       -4.8270     4.4690     0.1320 C.3   1 <1>   0.0210 
 18 N       -7.6570     2.2230    -0.5180 N.pl3 1 <1>   0.0330 
 19 C       -6.1500     3.7400     0.0740 C.2   1 <1>  -0.1810 
 20 C       -8.2700     3.0870     0.3540 C.ar  1 <1>  -0.1520 
 21 C       -7.3480     4.0530     0.7470 C.ar  1 <1>   0.0000 
 22 C       -9.5790     3.1060     0.8420 C.ar  1 <1>  -0.1500 
 23 C       -7.7340     5.0540     1.6440 C.ar  1 <1>  -0.1500 
 24 C       -9.9450     4.0970     1.7230 C.ar  1 <1>  -0.1500 
 25 C       -9.0230     5.0710     2.1240 C.ar  1 <1>  -0.1500 
 26 H       -1.2260    -0.3960     1.5860 H     1 <1>   0.0800 
 27 H       -1.8720    -0.7510    -0.0110 H     1 <1>   0.0800 
 28 H       -2.9360    -0.7500     1.3960 H     1 <1>   0.0800 
 29 H       -0.7010     3.2210    -2.8570 H     1 <1>   0.1500 
 30 H       -2.9770     0.8060    -1.9420 H     1 <1>   0.0800 
 31 H       -2.8580     2.2770    -2.8900 H     1 <1>   0.0800 
 32 H       -0.9890     1.6550     2.8060 H     1 <1>   0.0800 
 33 H        0.3740     2.7220     2.8420 H     1 <1>   0.0800 
 34 H        0.6110     1.0420     2.4400 H     1 <1>   0.0800 
 35 H        1.3320     3.8070    -1.6970 H     1 <1>   0.1500 
 36 H       -3.8480     2.1090    -0.1530 H     1 <1>   0.4500 
 37 H       -5.3730     0.8920    -1.4170 H     1 <1>   0.0800 
 38 H       -5.5040     2.2050    -2.5790 H     1 <1>   0.0800 
 39 H       -4.2370     4.4040    -1.9280 H     1 <1>   0.0800 
 40 H       -2.9080     4.2750    -0.8010 H     1 <1>   0.0800 
 41 H        3.7490     3.9880     1.0020 H     1 <1>   0.0800 
 42 H        2.6710     4.8430    -0.0940 H     1 <1>   0.0800 
 43 H        3.3410     3.2640    -0.5480 H     1 <1>   0.0800 
 44 H       -4.9820     5.5270     0.0220 H     1 <1>   0.0800 
 45 H       -4.3600     4.2940     1.0850 H     1 <1>   0.0800 
 46 H       -8.1300     1.4210    -0.9500 H     1 <1>   0.2700 
 47 H      -10.2850     2.3560     0.5320 H     1 <1>   0.1500 
 48 H       -7.0200     5.7980     1.9470 H     1 <1>   0.1500 
 49 H      -10.9470     4.1340     2.1130 H     1 <1>   0.1500 
 50 H       -9.3370     5.8340     2.8140 H     1 <1>   0.1500 
@<TRIPOS>BOND
  1   1   2  1   
  2   1   3  1   
  3   2   4  ar  
  4   2   5  ar  
  5   3  26  1   
  6   3  27  1   
  7   3  28  1   
  8   4   6  ar  
  9   4   7  1   
 10   5   8  ar  
 11   5   9  1   
 12   6  10  ar  
 13   6  29  1   
 14   7  11  1   
 15   7  30  1   
 16   7  31  1   
 17   8  10  ar  
 18   8  12  1   
 19   9  32  1   
 20   9  33  1   
 21   9  34  1   
 22  10  35  1   
 23  11  13  1   
 24  11  14  1   
 25  11  36  1   
 26  12  15  1   
 27  13  16  1   
 28  13  37  1   
 29  13  38  1   
 30  14  17  1   
 31  14  39  1   
 32  14  40  1   
 33  15  41  1   
 34  15  42  1   
 35  15  43  1   
 36  16  18  1   
 37  16  19  2   
 38  17  19  1   
 39  17  44  1   
 40  17  45  1   
 41  18  20  1   
 42  18  46  1   
 43  19  21  1   
 44  20  21  ar  
 45  20  22  ar  
 46  21  23  ar  
 47  22  24  ar  
 48  22  47  1   
 49  23  25  ar  
 50  23  48  1   
 51  24  25  ar  
 52  24  49  1   
 53  25  50  1   
@<TRIPOS>SUBSTRUCTURE
  1 ****  11 GROUP 4 **** **** 0

# MOE 2024.06 (io_trps.svl 2023.06)
