@<TRIPOS>MOLECULE
NONAME
23 23 1 0 0 
SMALL
USER_CHARGES


@<TRIPOS>ATOM
  1 O        0.1740    -0.2430    -0.4720 O.co2 1 <1>  -0.9000 
  2 C        0.2030    -1.3550     0.0790 C.2   1 <1>   0.9060 
  3 O        1.2350    -1.7560     0.6360 O.co2 1 <1>  -0.9000 
  4 C       -1.0940    -2.1450     0.2810 C.3   1 <1>  -0.1860 
  5 C       -0.9990    -3.6930     0.1010 C.3   1 <1>  -0.1860 
  6 C       -2.2930    -1.5650    -0.4940 C.3   1 <1>  -0.0220 
  7 C       -0.6930    -4.2730    -1.2880 C.2   1 <1>   0.9060 
  8 C       -2.2780    -4.3480     0.6680 C.3   1 <1>  -0.0220 
  9 C       -3.5680    -2.3680    -0.2350 C.2   1 <1>  -0.2760 
 10 O       -0.2630    -5.4390    -1.3240 O.co2 1 <1>  -0.9000 
 11 O       -0.9310    -3.6660    -2.3400 O.co2 1 <1>  -0.9000 
 12 C       -3.5510    -3.5960     0.2920 C.2   1 <1>  -0.2880 
 13 C       -4.8380    -1.6520    -0.6500 C.3   1 <1>  -0.1020 
 14 H       -1.3140    -1.9840     1.3180 H     1 <1>   0.0800 
 15 H       -0.1790    -4.0230     0.7100 H     1 <1>   0.0800 
 16 H       -2.0740    -1.5590    -1.5480 H     1 <1>   0.0800 
 17 H       -2.4310    -0.5450    -0.1850 H     1 <1>   0.0800 
 18 H       -2.2070    -4.3800     1.7390 H     1 <1>   0.0800 
 19 H       -2.3410    -5.3620     0.3130 H     1 <1>   0.0800 
 20 H       -4.4400    -4.1660     0.4860 H     1 <1>   0.1500 
 21 H       -4.9410    -0.7360    -0.0980 H     1 <1>   0.0800 
 22 H       -5.6970    -2.2700    -0.4650 H     1 <1>   0.0800 
 23 H       -4.7940    -1.4260    -1.7010 H     1 <1>   0.0800 
@<TRIPOS>BOND
  1   1   2  ar  
  2   2   3  ar  
  3   2   4  1   
  4   4   5  1   
  5   4   6  1   
  6   4  14  1   
  7   5   7  1   
  8   5   8  1   
  9   5  15  1   
 10   6   9  1   
 11   6  16  1   
 12   6  17  1   
 13   7  10  ar  
 14   7  11  ar  
 15   8  12  1   
 16   8  18  1   
 17   8  19  1   
 18   9  12  2   
 19   9  13  1   
 20  12  20  1   
 21  13  21  1   
 22  13  22  1   
 23  13  23  1   
@<TRIPOS>SUBSTRUCTURE
  1 ****   4 GROUP 4 **** **** 0

# MOE 2024.06 (io_trps.svl 2023.06)
