@<TRIPOS>MOLECULE
NONAME
49 50 1 0 0 
SMALL
USER_CHARGES


@<TRIPOS>ATOM
  1 S        0.7700     1.5850    -2.0460 S.o2  1 <1>   1.3330 
  2 O       -0.1410     1.6640    -3.1590 O.2   1 <1>  -0.6500 
  3 O        2.1450     2.0030    -2.2080 O.2   1 <1>  -0.6500 
  4 N        0.1270     2.4790    -0.7070 N.am  1 <1>  -0.6930 
  5 C        0.7610    -0.0870    -1.4390 C.3   1 <1>  -0.1350 
  6 C       -1.2440     2.6140    -0.4740 C.ar  1 <1>   0.1990 
  7 C        1.0680     3.2830     0.1330 C.3   1 <1>   0.2570 
  8 C       -2.0210     3.4810    -1.2560 C.ar  1 <1>  -0.1440 
  9 C       -1.8610     1.9050     0.5660 C.ar  1 <1>  -0.1430 
 10 C        2.0430     2.4570     0.9800 C.2   1 <1>   0.5690 
 11 C       -3.3820     3.5860    -1.0290 C.ar  1 <1>  -0.1500 
 12 C       -1.4370     4.3440    -2.3710 C.3   1 <1>  -0.0970 
 13 C       -3.2240     2.0320     0.7770 C.ar  1 <1>  -0.1500 
 14 C       -1.0950     0.9980     1.5240 C.3   1 <1>  -0.0960 
 15 O        1.8340     2.3300     2.1640 O.2   1 <1>  -0.5700 
 16 N        3.1270     1.8910     0.3870 N.am  1 <1>  -0.7300 
 17 C       -3.9860     2.8620    -0.0200 C.ar  1 <1>  -0.1500 
 18 C        4.1840     1.1250     1.0610 C.3   1 <1>   0.2200 
 19 C        5.5410     1.7260     0.6810 C.3   1 <1>  -0.1600 
 20 C        4.0840    -0.3420     0.6300 C.3   1 <1>  -0.1600 
 21 C        6.6980     0.9000     1.2610 C.3   1 <1>  -0.1600 
 22 C        5.2400    -1.1720     1.2080 C.3   1 <1>  -0.1600 
 23 C        6.6000    -0.5700     0.8300 C.3   1 <1>  -0.1600 
 24 H        1.1660    -0.7480    -2.1790 H     1 <1>   0.0800 
 25 H       -0.2440    -0.3920    -1.2210 H     1 <1>   0.0800 
 26 H        1.3500    -0.1640    -0.5480 H     1 <1>   0.0800 
 27 H        0.4960     3.9030     0.8000 H     1 <1>   0.0800 
 28 H        1.6360     3.9350    -0.5050 H     1 <1>   0.0800 
 29 H       -3.9840     4.2380    -1.6380 H     1 <1>   0.1500 
 30 H       -1.5470     3.8410    -3.3150 H     1 <1>   0.0800 
 31 H       -0.3950     4.5500    -2.2100 H     1 <1>   0.0800 
 32 H       -1.9540     5.2850    -2.4260 H     1 <1>   0.0800 
 33 H       -3.7030     1.4860     1.5700 H     1 <1>   0.1500 
 34 H       -0.7640     1.5710     2.3710 H     1 <1>   0.0800 
 35 H       -0.2370     0.5550     1.0610 H     1 <1>   0.0800 
 36 H       -1.7260     0.2020     1.8780 H     1 <1>   0.0800 
 37 H        3.2310     1.9820    -0.6350 H     1 <1>   0.3700 
 38 H       -5.0450     2.9500     0.1480 H     1 <1>   0.1500 
 39 H        4.0560     1.1900     2.1290 H     1 <1>   0.0800 
 40 H        5.6010     2.7330     1.0560 H     1 <1>   0.0800 
 41 H        5.6350     1.7540    -0.3910 H     1 <1>   0.0800 
 42 H        4.1120    -0.4040    -0.4440 H     1 <1>   0.0800 
 43 H        3.1510    -0.7490     0.9770 H     1 <1>   0.0800 
 44 H        6.6730     0.9580     2.3370 H     1 <1>   0.0800 
 45 H        7.6360     1.3110     0.9310 H     1 <1>   0.0800 
 46 H        5.1780    -2.1820     0.8420 H     1 <1>   0.0800 
 47 H        5.1520    -1.2050     2.2810 H     1 <1>   0.0800 
 48 H        7.3870    -1.1360     1.2980 H     1 <1>   0.0800 
 49 H        6.7360    -0.6380    -0.2360 H     1 <1>   0.0800 
@<TRIPOS>BOND
  1   1   2  2   
  2   1   3  2   
  3   1   4  am  
  4   1   5  1   
  5   4   6  1   
  6   4   7  1   
  7   5  24  1   
  8   5  25  1   
  9   5  26  1   
 10   6   8  ar  
 11   6   9  ar  
 12   7  10  1   
 13   7  27  1   
 14   7  28  1   
 15   8  11  ar  
 16   8  12  1   
 17   9  13  ar  
 18   9  14  1   
 19  10  15  2   
 20  10  16  am  
 21  11  17  ar  
 22  11  29  1   
 23  12  30  1   
 24  12  31  1   
 25  12  32  1   
 26  13  17  ar  
 27  13  33  1   
 28  14  34  1   
 29  14  35  1   
 30  14  36  1   
 31  16  18  1   
 32  16  37  1   
 33  17  38  1   
 34  18  19  1   
 35  18  20  1   
 36  18  39  1   
 37  19  21  1   
 38  19  40  1   
 39  19  41  1   
 40  20  22  1   
 41  20  42  1   
 42  20  43  1   
 43  21  23  1   
 44  21  44  1   
 45  21  45  1   
 46  22  23  1   
 47  22  46  1   
 48  22  47  1   
 49  23  48  1   
 50  23  49  1   
@<TRIPOS>SUBSTRUCTURE
  1 ****   4 GROUP 4 **** **** 0

# MOE 2024.06 (io_trps.svl 2023.06)
