@<TRIPOS>MOLECULE
NONAME
36 37 1 0 0 
SMALL
USER_CHARGES


@<TRIPOS>ATOM
  1 CL      -0.2330     0.9350    -2.2790 Cl    1 <1>  -0.1770 
  2 C       -1.0440     1.9730    -1.1320 C.ar  1 <1>   0.1770 
  3 C       -2.4210     1.9750    -1.0780 C.ar  1 <1>  -0.1500 
  4 C       -0.2900     2.7750    -0.2970 C.ar  1 <1>  -0.1500 
  5 C       -3.0790     2.7970    -0.1700 C.ar  1 <1>   0.1000 
  6 C       -0.9380     3.5960     0.6100 C.ar  1 <1>  -0.1500 
  7 N       -4.4710     2.8030    -0.1110 N.pl3 1 <1>  -0.8380 
  8 C       -2.3230     3.6110     0.6780 C.ar  1 <1>  -0.1430 
  9 C       -5.1850     3.3570    -1.2970 C.3   1 <1>   0.2090 
 10 C       -5.1180     1.5590     0.3970 C.3   1 <1>   0.2090 
 11 C       -3.0160     4.5210     1.6820 C.3   1 <1>  -0.0970 
 12 C       -6.6860     3.5440    -1.0020 C.3   1 <1>   0.1100 
 13 C       -6.6210     1.7820     0.6530 C.3   1 <1>   0.1100 
 14 N       -7.3280     2.2870    -0.5520 N.3   1 <1>  -0.8100 
 15 C       -8.7750     2.5110    -0.2620 C.3   1 <1>   0.1710 
 16 C       -9.5960     1.2270    -0.0850 C.2   1 <1>   0.5690 
 17 O      -10.5790     1.2260     0.6110 O.2   1 <1>  -0.5700 
 18 N       -9.2060     0.1040    -0.7190 N.am  1 <1>  -0.8000 
 19 H       -2.9830     1.3430    -1.7380 H     1 <1>   0.1500 
 20 H        0.7830     2.7550    -0.3590 H     1 <1>   0.1500 
 21 H       -0.3550     4.2230     1.2620 H     1 <1>   0.1500 
 22 H       -5.0690     2.6910    -2.1340 H     1 <1>   0.0800 
 23 H       -4.7490     4.3050    -1.5590 H     1 <1>   0.0800 
 24 H       -4.6390     1.2610     1.3130 H     1 <1>   0.0800 
 25 H       -4.9950     0.7670    -0.3210 H     1 <1>   0.0800 
 26 H       -3.6610     5.2070     1.1620 H     1 <1>   0.0800 
 27 H       -2.3050     5.0840     2.2580 H     1 <1>   0.0800 
 28 H       -3.6140     3.9300     2.3510 H     1 <1>   0.0800 
 29 H       -7.1710     3.8920    -1.8970 H     1 <1>   0.0800 
 30 H       -6.7930     4.3020    -0.2450 H     1 <1>   0.0800 
 31 H       -6.7270     2.4860     1.4610 H     1 <1>   0.0800 
 32 H       -7.0580     0.8500     0.9660 H     1 <1>   0.0800 
 33 H       -9.2180     3.0520    -1.0790 H     1 <1>   0.0800 
 34 H       -8.8820     3.1110     0.6240 H     1 <1>   0.0800 
 35 H       -9.7300    -0.7650    -0.6220 H     1 <1>   0.3700 
 36 H       -8.3420     0.0980    -1.2650 H     1 <1>   0.3700 
@<TRIPOS>BOND
  1   1   2  1   
  2   2   3  ar  
  3   2   4  ar  
  4   3   5  ar  
  5   3  19  1   
  6   4   6  ar  
  7   4  20  1   
  8   5   7  1   
  9   5   8  ar  
 10   6   8  ar  
 11   6  21  1   
 12   7   9  1   
 13   7  10  1   
 14   8  11  1   
 15   9  12  1   
 16   9  22  1   
 17   9  23  1   
 18  10  13  1   
 19  10  24  1   
 20  10  25  1   
 21  11  26  1   
 22  11  27  1   
 23  11  28  1   
 24  12  14  1   
 25  12  29  1   
 26  12  30  1   
 27  13  14  1   
 28  13  31  1   
 29  13  32  1   
 30  14  15  1   
 31  15  16  1   
 32  15  33  1   
 33  15  34  1   
 34  16  17  2   
 35  16  18  am  
 36  18  35  1   
 37  18  36  1   
@<TRIPOS>SUBSTRUCTURE
  1 ****   7 GROUP 4 **** **** 0

# MOE 2024.06 (io_trps.svl 2023.06)
