@<TRIPOS>MOLECULE
NONAME
34 35 1 0 0 
SMALL
USER_CHARGES


@<TRIPOS>ATOM
  1 S       -0.0020     0.2530     0.3950 S.3   1 <1>  -0.3320 
  2 C       -1.5730     1.0670     0.1590 C.ar  1 <1>   0.7220 
  3 C        1.2620     1.3640    -0.4040 C.3   1 <1>   0.1500 
  4 N       -2.6010     0.4310     0.6920 N.ar  1 <1>  -0.6200 
  5 N       -1.5500     2.2070    -0.5150 N.ar  1 <1>  -0.6200 
  6 C        2.5270     0.5510    -0.7730 C.3   1 <1>   0.2000 
  7 C        1.5490     2.5140     0.5860 C.3   1 <1>  -0.1600 
  8 C       -3.7590     1.0220     0.5230 C.ar  1 <1>   0.1660 
  9 C       -2.7220     2.7750    -0.6680 C.ar  1 <1>   0.1660 
 10 O        2.1930    -0.7350    -1.1600 O.3   1 <1>  -0.6800 
 11 C        3.5090     0.4650     0.3980 C.3   1 <1>  -0.1600 
 12 C        3.0040     2.9960     0.4990 C.3   1 <1>  -0.1600 
 13 C       -3.8720     2.2130    -0.1600 C.ar  1 <1>  -0.1500 
 14 C       -4.9710     0.3340     1.1140 C.3   1 <1>  -0.0970 
 15 C       -2.7560     4.0820    -1.4320 C.3   1 <1>  -0.0970 
 16 C        3.9980     1.8640     0.8260 C.3   1 <1>  -0.1600 
 17 H        0.8260     1.7450    -1.3110 H     1 <1>   0.0800 
 18 H        3.0220     1.0160    -1.6080 H     1 <1>   0.0800 
 19 H        1.3650     2.1810     1.5930 H     1 <1>   0.0800 
 20 H        0.8790     3.3310     0.3840 H     1 <1>   0.0800 
 21 H        1.4820    -1.0590    -0.5670 H     1 <1>   0.4000 
 22 H        4.3540    -0.1430     0.1260 H     1 <1>   0.0800 
 23 H        3.0110     0.0000     1.2320 H     1 <1>   0.0800 
 24 H        3.1590     3.8180     1.1760 H     1 <1>   0.0800 
 25 H        3.1910     3.3580    -0.4980 H     1 <1>   0.0800 
 26 H       -4.8250     2.6870    -0.2910 H     1 <1>   0.1500 
 27 H       -5.0720    -0.6460     0.6850 H     1 <1>   0.0800 
 28 H       -5.8680     0.8940     0.9220 H     1 <1>   0.0800 
 29 H       -4.8440     0.2340     2.1760 H     1 <1>   0.0800 
 30 H       -2.3720     3.9280    -2.4240 H     1 <1>   0.0800 
 31 H       -2.1400     4.8070    -0.9310 H     1 <1>   0.0800 
 32 H       -3.7570     4.4640    -1.5010 H     1 <1>   0.0800 
 33 H        4.9340     2.0810     0.3400 H     1 <1>   0.0800 
 34 H        4.1860     1.8480     1.8870 H     1 <1>   0.0800 
@<TRIPOS>BOND
  1   1   2  1   
  2   1   3  1   
  3   2   4  ar  
  4   2   5  ar  
  5   3   6  1   
  6   3   7  1   
  7   3  17  1   
  8   4   8  ar  
  9   5   9  ar  
 10   6  10  1   
 11   6  11  1   
 12   6  18  1   
 13   7  12  1   
 14   7  19  1   
 15   7  20  1   
 16   8  13  ar  
 17   8  14  1   
 18   9  13  ar  
 19   9  15  1   
 20  10  21  1   
 21  11  16  1   
 22  11  22  1   
 23  11  23  1   
 24  12  16  1   
 25  12  24  1   
 26  12  25  1   
 27  13  26  1   
 28  14  27  1   
 29  14  28  1   
 30  14  29  1   
 31  15  30  1   
 32  15  31  1   
 33  15  32  1   
 34  16  33  1   
 35  16  34  1   
@<TRIPOS>SUBSTRUCTURE
  1 ****   2 GROUP 4 **** **** 0

# MOE 2024.06 (io_trps.svl 2023.06)
