@<TRIPOS>MOLECULE
NONAME
33 33 1 0 0 
SMALL
USER_CHARGES


@<TRIPOS>ATOM
  1 CL      -1.0060    -0.8280    -3.0220 Cl    1 <1>  -0.1770 
  2 C       -1.8550    -1.2840    -1.5590 C.ar  1 <1>   0.1770 
  3 C       -3.0470    -0.6310    -1.2840 C.ar  1 <1>   0.1770 
  4 C       -1.3480    -2.2540    -0.6990 C.ar  1 <1>  -0.0090 
  5 CL      -3.6450     0.5880    -2.3970 Cl    1 <1>  -0.1770 
  6 C       -3.7750    -0.9190    -0.1380 C.ar  1 <1>   0.0830 
  7 S        0.2130    -3.1370    -0.9630 S.o2  1 <1>   1.4470 
  8 C       -2.0880    -2.5260     0.4510 C.ar  1 <1>  -0.1500 
  9 O       -4.9360    -0.2480     0.0790 O.3   1 <1>  -0.3620 
 10 C       -3.2790    -1.8810     0.7350 C.ar  1 <1>  -0.1500 
 11 O        0.0730    -4.4270    -0.3220 O.2   1 <1>  -0.6500 
 12 O        0.6770    -3.1150    -2.3320 O.2   1 <1>  -0.6500 
 13 N        1.3310    -2.2500    -0.0400 N.am  1 <1>  -0.8490 
 14 C       -5.7400    -0.4900     1.2130 C.3   1 <1>   0.0400 
 15 C        1.6560    -0.9410    -0.6200 C.3   1 <1>   0.1960 
 16 C        2.5370    -3.0330     0.2520 C.3   1 <1>   0.1960 
 17 C        1.0750     0.1460     0.2780 C.3   1 <1>  -0.2400 
 18 C        3.2860    -2.4380     1.4450 C.3   1 <1>  -0.2400 
 19 H       -1.7190    -3.2660     1.1440 H     1 <1>   0.1500 
 20 H       -3.8020    -2.1400     1.6370 H     1 <1>   0.1500 
 21 H       -6.5980     0.1560     1.1560 H     1 <1>   0.0800 
 22 H       -5.1740    -0.2650     2.0990 H     1 <1>   0.0800 
 23 H       -6.0570    -1.5170     1.2060 H     1 <1>   0.0800 
 24 H        1.2610    -0.8390    -1.6160 H     1 <1>   0.0800 
 25 H        2.7210    -0.8030    -0.6960 H     1 <1>   0.0800 
 26 H        3.1710    -3.0820    -0.6180 H     1 <1>   0.0800 
 27 H        2.2670    -4.0420     0.5170 H     1 <1>   0.0800 
 28 H        0.0060     0.0600     0.3420 H     1 <1>   0.0800 
 29 H        1.3140     1.1130    -0.1250 H     1 <1>   0.0800 
 30 H        1.4950     0.0740     1.2650 H     1 <1>   0.0800 
 31 H        3.6840    -1.4670     1.2170 H     1 <1>   0.0800 
 32 H        4.1070    -3.0810     1.7060 H     1 <1>   0.0800 
 33 H        2.6280    -2.3670     2.2920 H     1 <1>   0.0800 
@<TRIPOS>BOND
  1   1   2  1   
  2   2   3  ar  
  3   2   4  ar  
  4   3   5  1   
  5   3   6  ar  
  6   4   7  1   
  7   4   8  ar  
  8   6   9  1   
  9   6  10  ar  
 10   7  11  2   
 11   7  12  2   
 12   7  13  am  
 13   8  10  ar  
 14   8  19  1   
 15   9  14  1   
 16  10  20  1   
 17  13  15  1   
 18  13  16  1   
 19  14  21  1   
 20  14  22  1   
 21  14  23  1   
 22  15  17  1   
 23  15  24  1   
 24  15  25  1   
 25  16  18  1   
 26  16  26  1   
 27  16  27  1   
 28  17  28  1   
 29  17  29  1   
 30  17  30  1   
 31  18  31  1   
 32  18  32  1   
 33  18  33  1   
@<TRIPOS>SUBSTRUCTURE
  1 ****   4 GROUP 4 **** **** 0

# MOE 2024.06 (io_trps.svl 2023.06)
