@<TRIPOS>MOLECULE
NONAME
37 38 1 0 0 
SMALL
USER_CHARGES


@<TRIPOS>ATOM
  1 O        1.2470     0.7960     2.7040 O.2   1 <1>  -0.5700 
  2 C        0.8400     1.5120     1.8190 C.2   1 <1>   0.5690 
  3 N        1.3260     1.4070     0.5370 N.am  1 <1>  -0.6600 
  4 C       -0.2250     2.5370     2.1930 C.3   1 <1>   0.0440 
  5 C        0.8570     2.2050    -0.6370 C.3   1 <1>   0.1400 
  6 C        2.3230     0.3570     0.1700 C.3   1 <1>   0.1400 
  7 C       -1.5500     2.3480     1.4560 C.ar  1 <1>  -0.1440 
  8 C        2.0440     2.6670    -1.5000 C.3   1 <1>   0.1200 
  9 C        3.4250     0.9360    -0.7310 C.3   1 <1>   0.1200 
 10 C       -2.2090     3.4390     0.9080 C.ar  1 <1>  -0.1500 
 11 C       -2.1080     1.0850     1.3270 C.ar  1 <1>  -0.1500 
 12 O        2.8680     1.5880    -1.8370 O.3   1 <1>  -0.5600 
 13 C       -3.4020     3.2640     0.2310 C.ar  1 <1>  -0.1500 
 14 C       -3.3020     0.9070     0.6500 C.ar  1 <1>  -0.1500 
 15 C       -3.9570     2.0030     0.0940 C.ar  1 <1>   0.0820 
 16 O       -5.1260     1.9200    -0.5870 O.3   1 <1>  -0.3630 
 17 C       -5.7870     0.6890    -0.7600 C.3   1 <1>   0.1200 
 18 C       -7.0660     0.9460    -1.5500 C.3   1 <1>  -0.2400 
 19 H        0.1720     3.5160     2.0080 H     1 <1>   0.0800 
 20 H       -0.4130     2.4640     3.2490 H     1 <1>   0.0800 
 21 H        0.3080     3.0710    -0.3210 H     1 <1>   0.0800 
 22 H        0.2000     1.5970    -1.2350 H     1 <1>   0.0800 
 23 H        1.8210    -0.4380    -0.3530 H     1 <1>   0.0800 
 24 H        2.7750    -0.0620     1.0520 H     1 <1>   0.0800 
 25 H        2.6330     3.3980    -0.9730 H     1 <1>   0.0800 
 26 H        1.6880     3.1050    -2.4150 H     1 <1>   0.0800 
 27 H        4.0560     0.1470    -1.0980 H     1 <1>   0.0800 
 28 H        4.0310     1.6370    -0.1830 H     1 <1>   0.0800 
 29 H       -1.8010     4.4300     1.0050 H     1 <1>   0.1500 
 30 H       -1.6120     0.2290     1.7540 H     1 <1>   0.1500 
 31 H       -3.9160     4.1070    -0.1960 H     1 <1>   0.1500 
 32 H       -3.7020    -0.0840     0.5680 H     1 <1>   0.1500 
 33 H       -6.0150     0.2850     0.2120 H     1 <1>   0.0800 
 34 H       -5.1340     0.0240    -1.2980 H     1 <1>   0.0800 
 35 H       -7.7030     1.6240    -1.0110 H     1 <1>   0.0800 
 36 H       -7.5950     0.0220    -1.6980 H     1 <1>   0.0800 
 37 H       -6.8280     1.3640    -2.5120 H     1 <1>   0.0800 
@<TRIPOS>BOND
  1   1   2  2   
  2   2   3  am  
  3   2   4  1   
  4   3   5  1   
  5   3   6  1   
  6   4   7  1   
  7   4  19  1   
  8   4  20  1   
  9   5   8  1   
 10   5  21  1   
 11   5  22  1   
 12   6   9  1   
 13   6  23  1   
 14   6  24  1   
 15   7  10  ar  
 16   7  11  ar  
 17   8  12  1   
 18   8  25  1   
 19   8  26  1   
 20   9  12  1   
 21   9  27  1   
 22   9  28  1   
 23  10  13  ar  
 24  10  29  1   
 25  11  14  ar  
 26  11  30  1   
 27  13  15  ar  
 28  13  31  1   
 29  14  15  ar  
 30  14  32  1   
 31  15  16  1   
 32  16  17  1   
 33  17  18  1   
 34  17  33  1   
 35  17  34  1   
 36  18  35  1   
 37  18  36  1   
 38  18  37  1   
@<TRIPOS>SUBSTRUCTURE
  1 ****   7 GROUP 4 **** **** 0

# MOE 2024.06 (io_trps.svl 2023.06)
