@<TRIPOS>MOLECULE
NONAME
52 54 1 0 0 
SMALL
USER_CHARGES


@<TRIPOS>ATOM
  1 O       -1.7980    -0.1490    -1.3910 O.3   1 <1>  -0.3630 
  2 C       -2.3590    -0.6250    -0.2410 C.ar  1 <1>   0.0830 
  3 C       -0.5720     0.5420    -1.2630 C.3   1 <1>   0.0400 
  4 C       -3.6130    -0.1560     0.1770 C.ar  1 <1>   0.0830 
  5 C       -1.7080    -1.6010     0.5220 C.ar  1 <1>   0.0830 
  6 O       -4.3270     0.7750    -0.5200 O.3   1 <1>  -0.3630 
  7 C       -4.1900    -0.6510     1.3450 C.ar  1 <1>  -0.1430 
  8 O       -0.5200    -2.1470     0.1620 O.3   1 <1>  -0.3630 
  9 C       -2.2740    -2.0590     1.6980 C.ar  1 <1>  -0.1500 
 10 C       -3.7050     1.9790    -0.9090 C.3   1 <1>   0.0400 
 11 C       -3.5080    -1.5900     2.1060 C.ar  1 <1>  -0.1500 
 12 C       -5.5620    -0.1720     1.8110 C.3   1 <1>   0.2530 
 13 C       -0.5500    -3.0140    -0.9510 C.3   1 <1>   0.0400 
 14 N       -6.6570    -0.6750     0.9420 N.3   1 <1>  -0.8100 
 15 C       -8.0160    -0.2200     1.3190 C.3   1 <1>   0.1900 
 16 C       -6.6160    -2.1430     0.7750 C.3   1 <1>   0.1100 
 17 C       -9.0900    -0.7160     0.2960 C.3   1 <1>   0.4230 
 18 C       -8.0710     1.3100     1.4520 C.3   1 <1>  -0.2400 
 19 C       -7.6020    -2.6040    -0.3100 C.3   1 <1>   0.3430 
 20 N       -9.0190    -2.1770    -0.0270 N.4   1 <1>  -0.9590 
 21 C       -9.0520    -0.0500    -1.0800 C.3   1 <1>  -0.1600 
 22 C       -9.8610    -2.3530    -1.2370 C.3   1 <1>   0.3430 
 23 C       -9.7140    -1.0540    -2.0280 C.3   1 <1>  -0.1600 
 24 H       -0.3860     1.0680    -2.1820 H     1 <1>   0.0800 
 25 H        0.2190    -0.1620    -1.0830 H     1 <1>   0.0800 
 26 H       -0.6450     1.2390    -0.4470 H     1 <1>   0.0800 
 27 H       -1.7460    -2.7900     2.2840 H     1 <1>   0.1500 
 28 H       -3.2060     1.8240    -1.8490 H     1 <1>   0.0800 
 29 H       -3.0050     2.2780    -0.1490 H     1 <1>   0.0800 
 30 H       -4.4680     2.7270    -1.0250 H     1 <1>   0.0800 
 31 H       -3.9340    -1.9650     3.0210 H     1 <1>   0.1500 
 32 H       -5.5430     0.9030     1.7900 H     1 <1>   0.0800 
 33 H       -5.7350    -0.4810     2.8270 H     1 <1>   0.0800 
 34 H        0.4410    -3.4010    -1.1030 H     1 <1>   0.0800 
 35 H       -0.8680    -2.4670    -1.8200 H     1 <1>   0.0800 
 36 H       -1.2330    -3.8180    -0.7450 H     1 <1>   0.0800 
 37 H       -8.2650    -0.6390     2.2800 H     1 <1>   0.0800 
 38 H       -6.8300    -2.6330     1.7090 H     1 <1>   0.0800 
 39 H       -5.6350    -2.4500     0.4560 H     1 <1>   0.0800 
 40 H      -10.0600    -0.5120     0.7190 H     1 <1>   0.0800 
 41 H       -7.6300     1.7830     0.5900 H     1 <1>   0.0800 
 42 H       -7.5530     1.6360     2.3350 H     1 <1>   0.0800 
 43 H       -9.0890     1.6430     1.5430 H     1 <1>   0.0800 
 44 H       -7.5530    -3.6760    -0.4040 H     1 <1>   0.0800 
 45 H       -7.2770    -2.1760    -1.2440 H     1 <1>   0.0800 
 46 H       -9.3790    -2.7190     0.7650 H     1 <1>   0.4500 
 47 H       -8.0300     0.1220    -1.3730 H     1 <1>   0.0800 
 48 H       -9.5670     0.8950    -1.0690 H     1 <1>   0.0800 
 49 H      -10.8920    -2.4780    -0.9470 H     1 <1>   0.0800 
 50 H       -9.5520    -3.2080    -1.8170 H     1 <1>   0.0800 
 51 H       -9.1020    -1.2110    -2.9000 H     1 <1>   0.0800 
 52 H      -10.6830    -0.7110    -2.3490 H     1 <1>   0.0800 
@<TRIPOS>BOND
  1   1   2  1   
  2   1   3  1   
  3   2   4  ar  
  4   2   5  ar  
  5   3  24  1   
  6   3  25  1   
  7   3  26  1   
  8   4   6  1   
  9   4   7  ar  
 10   5   8  1   
 11   5   9  ar  
 12   6  10  1   
 13   7  11  ar  
 14   7  12  1   
 15   8  13  1   
 16   9  11  ar  
 17   9  27  1   
 18  10  28  1   
 19  10  29  1   
 20  10  30  1   
 21  11  31  1   
 22  12  14  1   
 23  12  32  1   
 24  12  33  1   
 25  13  34  1   
 26  13  35  1   
 27  13  36  1   
 28  14  15  1   
 29  14  16  1   
 30  15  17  1   
 31  15  18  1   
 32  15  37  1   
 33  16  19  1   
 34  16  38  1   
 35  16  39  1   
 36  17  20  1   
 37  17  21  1   
 38  17  40  1   
 39  18  41  1   
 40  18  42  1   
 41  18  43  1   
 42  19  20  1   
 43  19  44  1   
 44  19  45  1   
 45  20  22  1   
 46  20  46  1   
 47  21  23  1   
 48  21  47  1   
 49  21  48  1   
 50  22  23  1   
 51  22  49  1   
 52  22  50  1   
 53  23  51  1   
 54  23  52  1   
@<TRIPOS>SUBSTRUCTURE
  1 ****   7 GROUP 4 **** **** 0

# MOE 2024.06 (io_trps.svl 2023.06)
