@<TRIPOS>MOLECULE
NONAME
39 40 1 0 0 
SMALL
USER_CHARGES


@<TRIPOS>ATOM
  1 BR       0.2070     0.0060     0.1260 Br    1 <1>  -0.1110 
  2 C       -1.4810     0.9320     0.0270 C.ar  1 <1>   0.1110 
  3 C       -2.6510     0.2240    -0.1810 C.ar  1 <1>  -0.1440 
  4 C       -1.4680     2.3040     0.1660 C.ar  1 <1>  -0.1500 
  5 C       -3.8330     0.9440    -0.2400 C.ar  1 <1>  -0.1500 
  6 C       -2.6520    -1.2880    -0.3430 C.3   1 <1>  -0.0960 
  7 C       -2.6610     3.0080     0.1020 C.ar  1 <1>  -0.1430 
  8 C       -3.8720     2.3320    -0.0900 C.ar  1 <1>  -0.0090 
  9 C       -2.6080     4.5250     0.2410 C.3   1 <1>  -0.0960 
 10 S       -5.4660     3.2110    -0.1830 S.o2  1 <1>   1.4470 
 11 O       -5.6160     4.1490     0.9040 O.2   1 <1>  -0.6500 
 12 O       -5.7220     3.6430    -1.5380 O.2   1 <1>  -0.6500 
 13 N       -6.6260     2.0550     0.1850 N.am  1 <1>  -0.9140 
 14 C       -7.9390     2.3990    -0.3230 C.3   1 <1>   0.1960 
 15 C       -8.9410     1.3630     0.1760 C.3   1 <1>  -0.1600 
 16 C      -10.3400     1.6440    -0.3850 C.3   1 <1>   0.0960 
 17 N      -11.3000     0.6420     0.1140 N.pl3 1 <1>   0.0480 
 18 C      -12.1200     0.7400     1.1840 C.2   1 <1>   0.0360 
 19 C      -11.5460    -0.5790    -0.3930 C.2   1 <1>  -0.3020 
 20 N      -12.8500    -0.3080     1.3860 N.2   1 <1>  -0.5650 
 21 C      -12.4900    -1.1420     0.3920 C.2   1 <1>   0.0770 
 22 H       -0.5300     2.8070     0.3190 H     1 <1>   0.1500 
 23 H       -4.7530     0.4110    -0.4110 H     1 <1>   0.1500 
 24 H       -2.0510    -1.5670    -1.1900 H     1 <1>   0.0800 
 25 H       -3.6490    -1.6600    -0.4970 H     1 <1>   0.0800 
 26 H       -2.2480    -1.7530     0.5390 H     1 <1>   0.0800 
 27 H       -1.5930     4.8800     0.2160 H     1 <1>   0.0800 
 28 H       -3.0450     4.8280     1.1770 H     1 <1>   0.0800 
 29 H       -3.1420     4.9990    -0.5640 H     1 <1>   0.0800 
 30 H       -6.6730     2.1030     1.2020 H     1 <1>   0.4200 
 31 H       -7.9180     2.3980    -1.4020 H     1 <1>   0.0800 
 32 H       -8.2180     3.3850     0.0160 H     1 <1>   0.0800 
 33 H       -8.9780     1.3880     1.2510 H     1 <1>   0.0800 
 34 H       -8.6240     0.3850    -0.1450 H     1 <1>   0.0800 
 35 H      -10.3280     1.6000    -1.4600 H     1 <1>   0.0800 
 36 H      -10.6750     2.6210    -0.0860 H     1 <1>   0.0800 
 37 H      -12.1500     1.6190     1.8030 H     1 <1>   0.1500 
 38 H      -11.0520    -0.9750    -1.2610 H     1 <1>   0.1500 
 39 H      -12.9370    -2.1170     0.2940 H     1 <1>   0.1500 
@<TRIPOS>BOND
  1   1   2  1   
  2   2   3  ar  
  3   2   4  ar  
  4   3   5  ar  
  5   3   6  1   
  6   4   7  ar  
  7   4  22  1   
  8   5   8  ar  
  9   5  23  1   
 10   6  24  1   
 11   6  25  1   
 12   6  26  1   
 13   7   8  ar  
 14   7   9  1   
 15   8  10  1   
 16   9  27  1   
 17   9  28  1   
 18   9  29  1   
 19  10  11  2   
 20  10  12  2   
 21  10  13  am  
 22  13  14  1   
 23  13  30  1   
 24  14  15  1   
 25  14  31  1   
 26  14  32  1   
 27  15  16  1   
 28  15  33  1   
 29  15  34  1   
 30  16  17  1   
 31  16  35  1   
 32  16  36  1   
 33  17  18  1   
 34  17  19  1   
 35  18  20  2   
 36  18  37  1   
 37  19  21  2   
 38  19  38  1   
 39  20  21  1   
 40  21  39  1   
@<TRIPOS>SUBSTRUCTURE
  1 ****  13 GROUP 4 **** **** 0

# MOE 2024.06 (io_trps.svl 2023.06)
