@<TRIPOS>MOLECULE
NONAME
35 37 1 0 0 
SMALL
USER_CHARGES


@<TRIPOS>ATOM
  1 S       -0.1800    -0.1290     1.7810 S.3   1 <1>  -0.1970 
  2 C        1.3740    -0.7980     1.3570 C.2   1 <1>   0.2420 
  3 C       -0.9580    -1.2670     0.6380 C.2   1 <1>   0.5050 
  4 N        2.5990    -0.5980     1.6930 N.2   1 <1>  -0.3380 
  5 N        1.1870    -1.7480     0.4610 N.pl3 1 <1>   0.5050 
  6 N       -0.1110    -2.0300     0.0410 N.2   1 <1>  -0.6520 
  7 C       -2.4000    -1.2320     0.4910 C.ar  1 <1>   0.0860 
  8 N        3.2970    -1.4880     0.9610 N.2   1 <1>  -0.3380 
  9 C        2.4490    -2.1570     0.2410 C.2   1 <1>   0.0060 
 10 C       -3.0320    -2.1070    -0.3910 C.ar  1 <1>  -0.1500 
 11 C       -3.2290    -0.3560     1.1950 C.ar  1 <1>  -0.1500 
 12 C        2.8060    -3.2630    -0.7320 C.3   1 <1>  -0.0600 
 13 C       -4.4040    -2.1080    -0.5620 C.ar  1 <1>  -0.1500 
 14 C       -4.6020    -0.3560     1.0250 C.ar  1 <1>  -0.1500 
 15 C       -5.2220    -1.2330     0.1420 C.ar  1 <1>  -0.1430 
 16 C       -6.7500    -1.2710    -0.0820 C.3   1 <1>   0.1430 
 17 C       -7.0600    -0.9720    -1.5570 C.3   1 <1>  -0.2400 
 18 C       -7.5120    -0.2420     0.7700 C.3   1 <1>  -0.2400 
 19 C       -7.2880    -2.6630     0.2810 C.3   1 <1>  -0.2400 
 20 H       -2.4380    -2.8030    -0.9580 H     1 <1>   0.1500 
 21 H       -2.8120     0.3470     1.8930 H     1 <1>   0.1500 
 22 H        2.4840    -2.9990    -1.7230 H     1 <1>   0.0800 
 23 H        2.3250    -4.1790    -0.4390 H     1 <1>   0.0800 
 24 H        3.8700    -3.4160    -0.7410 H     1 <1>   0.0800 
 25 H       -4.8310    -2.8070    -1.2580 H     1 <1>   0.1500 
 26 H       -5.1720     0.3480     1.6020 H     1 <1>   0.1500 
 27 H       -6.6300    -1.7150    -2.2030 H     1 <1>   0.0800 
 28 H       -6.6580    -0.0130    -1.8300 H     1 <1>   0.0800 
 29 H       -8.1220    -0.9590    -1.7260 H     1 <1>   0.0800 
 30 H       -7.1920     0.7570     0.5330 H     1 <1>   0.0800 
 31 H       -7.3510    -0.4240     1.8170 H     1 <1>   0.0800 
 32 H       -8.5690    -0.3050     0.5820 H     1 <1>   0.0800 
 33 H       -7.0460    -2.8950     1.3030 H     1 <1>   0.0800 
 34 H       -6.8600    -3.4220    -0.3480 H     1 <1>   0.0800 
 35 H       -8.3560    -2.6990     0.1660 H     1 <1>   0.0800 
@<TRIPOS>BOND
  1   1   2  1   
  2   1   3  1   
  3   2   4  2   
  4   2   5  1   
  5   3   6  2   
  6   3   7  1   
  7   4   8  1   
  8   5   6  1   
  9   5   9  1   
 10   7  10  ar  
 11   7  11  ar  
 12   8   9  2   
 13   9  12  1   
 14  10  13  ar  
 15  10  20  1   
 16  11  14  ar  
 17  11  21  1   
 18  12  22  1   
 19  12  23  1   
 20  12  24  1   
 21  13  15  ar  
 22  13  25  1   
 23  14  15  ar  
 24  14  26  1   
 25  15  16  1   
 26  16  17  1   
 27  16  18  1   
 28  16  19  1   
 29  17  27  1   
 30  17  28  1   
 31  17  29  1   
 32  18  30  1   
 33  18  31  1   
 34  18  32  1   
 35  19  33  1   
 36  19  34  1   
 37  19  35  1   
@<TRIPOS>SUBSTRUCTURE
  1 ****   7 GROUP 4 **** **** 0

# MOE 2024.06 (io_trps.svl 2023.06)
