@<TRIPOS>MOLECULE
NONAME
48 50 1 0 0 
SMALL
USER_CHARGES


@<TRIPOS>ATOM
  1 O       -0.1650     1.5270    -2.4490 O.2   1 <1>  -0.5700 
  2 C       -0.1390     2.1970    -1.4350 C.2   1 <1>   0.5440 
  3 N        1.0510     2.4420    -0.7910 N.am  1 <1>  -0.5470 
  4 C       -1.3660     2.7460    -0.8950 C.ar  1 <1>   0.0860 
  5 C        2.3900     2.1060    -1.0620 C.ar  1 <1>   0.1170 
  6 C       -1.6000     2.9050     0.4790 C.ar  1 <1>   0.0830 
  7 C       -2.3840     3.1580    -1.7560 C.ar  1 <1>  -0.1500 
  8 C        3.3300     2.1120    -0.0230 C.ar  1 <1>  -0.1440 
  9 C        2.8090     1.7760    -2.3460 C.ar  1 <1>  -0.1500 
 10 O       -0.6970     2.5020     1.3990 O.3   1 <1>  -0.3630 
 11 C       -2.7670     3.4790     0.9530 C.ar  1 <1>  -0.1500 
 12 C       -3.5560     3.7300    -1.2990 C.ar  1 <1>   0.0830 
 13 C        4.6550     1.7650    -0.2840 C.ar  1 <1>  -0.1430 
 14 C        2.8910     2.4770     1.4000 C.3   1 <1>  -0.0170 
 15 C        4.1220     1.4390    -2.6030 C.ar  1 <1>  -0.1500 
 16 C       -0.7240     1.1310     1.7360 C.3   1 <1>   0.0400 
 17 C       -3.7650     3.8940     0.0790 C.ar  1 <1>   0.0830 
 18 O       -4.4480     4.0910    -2.2630 O.3   1 <1>  -0.3630 
 19 C        5.0410     1.4330    -1.5720 C.ar  1 <1>  -0.1500 
 20 C        5.7260     1.7430     0.8000 C.3   1 <1>  -0.0170 
 21 C        4.0540     2.7590     2.3570 C.3   1 <1>  -0.1600 
 22 O       -4.9320     4.4310     0.5270 O.3   1 <1>  -0.3630 
 23 C       -5.1010     5.3400    -2.1760 C.3   1 <1>   0.0400 
 24 C        5.1370     1.6920     2.2110 C.3   1 <1>  -0.1600 
 25 C       -5.2440     4.5320     1.9000 C.3   1 <1>   0.0400 
 26 H        0.9090     2.8640     0.1270 H     1 <1>   0.3700 
 27 H       -2.2510     3.0330    -2.8170 H     1 <1>   0.1500 
 28 H        2.1090     1.7820    -3.1600 H     1 <1>   0.1500 
 29 H       -2.8720     3.5850     2.0150 H     1 <1>   0.1500 
 30 H        2.3150     1.6570     1.7890 H     1 <1>   0.0800 
 31 H        2.2610     3.3490     1.3820 H     1 <1>   0.0800 
 32 H        4.4270     1.1840    -3.6020 H     1 <1>   0.1500 
 33 H       -0.0130     0.9600     2.5250 H     1 <1>   0.0800 
 34 H       -0.4590     0.5470     0.8710 H     1 <1>   0.0800 
 35 H       -1.7130     0.8720     2.0720 H     1 <1>   0.0800 
 36 H        6.0630     1.1680    -1.7810 H     1 <1>   0.1500 
 37 H        6.3260     2.6310     0.6990 H     1 <1>   0.0800 
 38 H        6.3700     0.8920     0.6580 H     1 <1>   0.0800 
 39 H        3.6900     2.7800     3.3700 H     1 <1>   0.0800 
 40 H        4.4730     3.7260     2.1330 H     1 <1>   0.0800 
 41 H       -5.4020     5.6290    -3.1660 H     1 <1>   0.0800 
 42 H       -4.4230     6.0670    -1.7670 H     1 <1>   0.0800 
 43 H       -5.9700     5.2350    -1.5510 H     1 <1>   0.0800 
 44 H        5.9180     1.8550     2.9340 H     1 <1>   0.0800 
 45 H        4.7130     0.7180     2.3880 H     1 <1>   0.0800 
 46 H       -6.2290     4.9530     1.9880 H     1 <1>   0.0800 
 47 H       -4.5270     5.1780     2.3750 H     1 <1>   0.0800 
 48 H       -5.2280     3.5480     2.3350 H     1 <1>   0.0800 
@<TRIPOS>BOND
  1   1   2  2   
  2   2   3  am  
  3   2   4  1   
  4   3   5  1   
  5   3  26  1   
  6   4   6  ar  
  7   4   7  ar  
  8   5   8  ar  
  9   5   9  ar  
 10   6  10  1   
 11   6  11  ar  
 12   7  12  ar  
 13   7  27  1   
 14   8  13  ar  
 15   8  14  1   
 16   9  15  ar  
 17   9  28  1   
 18  10  16  1   
 19  11  17  ar  
 20  11  29  1   
 21  12  17  ar  
 22  12  18  1   
 23  13  19  ar  
 24  13  20  1   
 25  14  21  1   
 26  14  30  1   
 27  14  31  1   
 28  15  19  ar  
 29  15  32  1   
 30  16  33  1   
 31  16  34  1   
 32  16  35  1   
 33  17  22  1   
 34  18  23  1   
 35  19  36  1   
 36  20  24  1   
 37  20  37  1   
 38  20  38  1   
 39  21  24  1   
 40  21  39  1   
 41  21  40  1   
 42  22  25  1   
 43  23  41  1   
 44  23  42  1   
 45  23  43  1   
 46  24  44  1   
 47  24  45  1   
 48  25  46  1   
 49  25  47  1   
 50  25  48  1   
@<TRIPOS>SUBSTRUCTURE
  1 ****   3 GROUP 4 **** **** 0

# MOE 2024.06 (io_trps.svl 2023.06)
