@<TRIPOS>MOLECULE
NONAME
42 44 1 0 0 
SMALL
USER_CHARGES


@<TRIPOS>ATOM
  1 O       -0.4370     0.4400    -0.1750 O.2   1 <1>  -0.5700 
  2 C       -0.2880     1.6210     0.0450 C.2   1 <1>   0.5690 
  3 N        0.9320     2.1090     0.4070 N.am  1 <1>  -0.7300 
  4 C       -1.4860     2.5980    -0.0600 C.3   1 <1>   0.0610 
  5 C        2.1690     1.3140     0.5400 C.3   1 <1>   0.1400 
  6 C       -2.6630     1.9250    -0.8080 C.3   1 <1>  -0.1600 
  7 C       -1.9100     3.0190     1.3700 C.3   1 <1>  -0.1600 
  8 C       -1.0870     3.8550    -0.8670 C.3   1 <1>  -0.1600 
  9 C        3.2780     1.9820    -0.2740 C.3   1 <1>  -0.1600 
 10 C       -3.8730     2.8350    -1.0870 C.3   1 <1>  -0.0800 
 11 C       -2.9220     4.1800     1.4550 C.3   1 <1>  -0.0800 
 12 C       -2.2540     4.8460    -0.9380 C.3   1 <1>  -0.0800 
 13 C        4.5920     1.2000    -0.1700 C.3   1 <1>  -0.2400 
 14 C       -4.8240     2.9190     0.1180 C.3   1 <1>  -0.1600 
 15 C       -3.4580     4.2070    -1.6480 C.3   1 <1>  -0.1600 
 16 C       -4.3880     3.7310     1.3480 C.3   1 <1>  -0.1600 
 17 C       -2.5930     5.3240     0.4790 C.3   1 <1>  -0.1600 
 18 H        1.0220     3.1040     0.6090 H     1 <1>   0.3700 
 19 H        2.0030     0.3110     0.1820 H     1 <1>   0.0800 
 20 H        2.4470     1.2620     1.5790 H     1 <1>   0.0800 
 21 H       -2.9830     1.0510    -0.2670 H     1 <1>   0.0800 
 22 H       -2.2920     1.5760    -1.7560 H     1 <1>   0.0800 
 23 H       -2.2940     2.1620     1.8960 H     1 <1>   0.0800 
 24 H       -1.0270     3.3330     1.8980 H     1 <1>   0.0800 
 25 H       -0.7950     3.5670    -1.8620 H     1 <1>   0.0800 
 26 H       -0.2460     4.3450    -0.4120 H     1 <1>   0.0800 
 27 H        3.4350     2.9840     0.0850 H     1 <1>   0.0800 
 28 H        2.9770     2.0270    -1.3070 H     1 <1>   0.0800 
 29 H       -4.4420     2.3470    -1.8600 H     1 <1>   0.0800 
 30 H       -2.8290     4.5950     2.4450 H     1 <1>   0.0800 
 31 H       -1.9440     5.7030    -1.5120 H     1 <1>   0.0800 
 32 H        4.9230     1.1520     0.8530 H     1 <1>   0.0800 
 33 H        5.3550     1.6850    -0.7540 H     1 <1>   0.0800 
 34 H        4.4630     0.1980    -0.5410 H     1 <1>   0.0800 
 35 H       -5.0380     1.9140     0.4400 H     1 <1>   0.0800 
 36 H       -5.7600     3.3240    -0.2260 H     1 <1>   0.0800 
 37 H       -4.2970     4.8810    -1.6290 H     1 <1>   0.0800 
 38 H       -3.1900     4.0700    -2.6810 H     1 <1>   0.0800 
 39 H       -5.0090     4.6090     1.4060 H     1 <1>   0.0800 
 40 H       -4.6210     3.1480     2.2230 H     1 <1>   0.0800 
 41 H       -1.7410     5.8570     0.8640 H     1 <1>   0.0800 
 42 H       -3.4070     6.0260     0.4410 H     1 <1>   0.0800 
@<TRIPOS>BOND
  1   1   2  2   
  2   2   3  am  
  3   2   4  1   
  4   3   5  1   
  5   3  18  1   
  6   4   6  1   
  7   4   7  1   
  8   4   8  1   
  9   5   9  1   
 10   5  19  1   
 11   5  20  1   
 12   6  10  1   
 13   6  21  1   
 14   6  22  1   
 15   7  11  1   
 16   7  23  1   
 17   7  24  1   
 18   8  12  1   
 19   8  25  1   
 20   8  26  1   
 21   9  13  1   
 22   9  27  1   
 23   9  28  1   
 24  10  14  1   
 25  10  15  1   
 26  10  29  1   
 27  11  16  1   
 28  11  17  1   
 29  11  30  1   
 30  12  15  1   
 31  12  17  1   
 32  12  31  1   
 33  13  32  1   
 34  13  33  1   
 35  13  34  1   
 36  14  16  1   
 37  14  35  1   
 38  14  36  1   
 39  15  37  1   
 40  15  38  1   
 41  16  39  1   
 42  16  40  1   
 43  17  41  1   
 44  17  42  1   
@<TRIPOS>SUBSTRUCTURE
  1 ****   4 GROUP 4 **** **** 0

# MOE 2024.06 (io_trps.svl 2023.06)
