@<TRIPOS>MOLECULE
NONAME
43 44 1 0 0 
SMALL
USER_CHARGES


@<TRIPOS>ATOM
  1 S        0.2990    -0.2130     0.4390 S.o2  1 <1>   1.3330 
  2 O       -0.0620     0.6580     1.5350 O.2   1 <1>  -0.6500 
  3 O       -0.2770     0.0000    -0.8690 O.2   1 <1>  -0.6500 
  4 N        1.9860    -0.1640     0.2620 N.am  1 <1>  -0.8490 
  5 C        0.0070    -1.9110     0.9590 C.3   1 <1>  -0.0550 
  6 C        2.5170     1.1840     0.4860 C.3   1 <1>   0.1960 
  7 C        2.4180    -0.6770    -1.0420 C.3   1 <1>   0.1960 
  8 C       -1.4710    -2.2550     1.2090 C.3   1 <1>  -0.2400 
  9 C        4.0460     1.1380     0.5300 C.3   1 <1>  -0.1600 
 10 C        3.9390    -0.8250    -1.0570 C.3   1 <1>  -0.1600 
 11 C        4.6320     0.5160    -0.7510 C.3   1 <1>  -0.0190 
 12 C        6.1460     0.3500    -0.6710 C.2   1 <1>   0.5690 
 13 O        6.8350     0.8980    -1.4940 O.2   1 <1>  -0.5700 
 14 N        6.6450    -0.4420     0.3270 N.am  1 <1>  -0.5470 
 15 C        7.9570    -0.8790     0.5730 C.ar  1 <1>   0.1170 
 16 C        8.2130    -2.1720     1.0430 C.ar  1 <1>  -0.1440 
 17 C        9.0280    -0.0150     0.3650 C.ar  1 <1>  -0.1500 
 18 C        9.5270    -2.5590     1.2930 C.ar  1 <1>  -0.1500 
 19 C        7.0570    -3.1540     1.2630 C.3   1 <1>   1.1630 
 20 C       10.3270    -0.4100     0.6150 C.ar  1 <1>  -0.1500 
 21 C       10.5780    -1.6850     1.0820 C.ar  1 <1>  -0.1500 
 22 F        7.4220    -4.2870     1.8510 F     1 <1>  -0.3400 
 23 F        6.4650    -3.5030     0.1280 F     1 <1>  -0.3400 
 24 F        6.0980    -2.6410     2.0300 F     1 <1>  -0.3400 
 25 H        0.5570    -2.0910     1.8630 H     1 <1>   0.0800 
 26 H        0.3880    -2.5770     0.2100 H     1 <1>   0.0800 
 27 H        2.1650     1.5690     1.4300 H     1 <1>   0.0800 
 28 H        2.1780     1.8480    -0.2930 H     1 <1>   0.0800 
 29 H        2.1030    -0.0070    -1.8270 H     1 <1>   0.0800 
 30 H        1.9710    -1.6390    -1.2260 H     1 <1>   0.0800 
 31 H       -1.8730    -1.6200     1.9800 H     1 <1>   0.0800 
 32 H       -1.5700    -3.2800     1.5180 H     1 <1>   0.0800 
 33 H       -2.0440    -2.1050     0.3100 H     1 <1>   0.0800 
 34 H        4.3350     0.5700     1.3960 H     1 <1>   0.0800 
 35 H        4.4260     2.1370     0.6510 H     1 <1>   0.0800 
 36 H        4.2520    -1.1770    -2.0240 H     1 <1>   0.0800 
 37 H        4.2130    -1.5700    -0.3320 H     1 <1>   0.0800 
 38 H        4.4250     1.1870    -1.5670 H     1 <1>   0.0800 
 39 H        5.9270    -0.8230     0.9470 H     1 <1>   0.3700 
 40 H        8.8460     0.9810     0.0010 H     1 <1>   0.1500 
 41 H        9.7540    -3.5490     1.6530 H     1 <1>   0.1500 
 42 H       11.1410     0.2740     0.4450 H     1 <1>   0.1500 
 43 H       11.5900    -1.9970     1.2780 H     1 <1>   0.1500 
@<TRIPOS>BOND
  1   1   2  2   
  2   1   3  2   
  3   1   4  am  
  4   1   5  1   
  5   4   6  1   
  6   4   7  1   
  7   5   8  1   
  8   5  25  1   
  9   5  26  1   
 10   6   9  1   
 11   6  27  1   
 12   6  28  1   
 13   7  10  1   
 14   7  29  1   
 15   7  30  1   
 16   8  31  1   
 17   8  32  1   
 18   8  33  1   
 19   9  11  1   
 20   9  34  1   
 21   9  35  1   
 22  10  11  1   
 23  10  36  1   
 24  10  37  1   
 25  11  12  1   
 26  11  38  1   
 27  12  13  2   
 28  12  14  am  
 29  14  15  1   
 30  14  39  1   
 31  15  16  ar  
 32  15  17  ar  
 33  16  18  ar  
 34  16  19  1   
 35  17  20  ar  
 36  17  40  1   
 37  18  21  ar  
 38  18  41  1   
 39  19  22  1   
 40  19  23  1   
 41  19  24  1   
 42  20  21  ar  
 43  20  42  1   
 44  21  43  1   
@<TRIPOS>SUBSTRUCTURE
  1 ****  14 GROUP 4 **** **** 0

# MOE 2024.06 (io_trps.svl 2023.06)
