@<TRIPOS>MOLECULE
NONAME
33 34 1 0 0 
SMALL
USER_CHARGES


@<TRIPOS>ATOM
  1 F        0.2910    -0.4990    -0.1990 F     1 <1>  -0.1900 
  2 C        1.5170    -0.9420    -0.2270 C.ar  1 <1>   0.1900 
  3 C        2.4140    -0.4900     0.7210 C.ar  1 <1>  -0.1500 
  4 C        1.8790    -1.8470    -1.2050 C.ar  1 <1>  -0.1500 
  5 C        3.7130    -0.9660     0.6850 C.ar  1 <1>  -0.1500 
  6 C        3.1830    -2.3120    -1.2250 C.ar  1 <1>  -0.1500 
  7 C        4.1260    -1.8910    -0.2820 C.ar  1 <1>   0.0860 
  8 C        5.4850    -2.4020    -0.3170 C.2   1 <1>   0.5440 
  9 O        5.9900    -2.7320    -1.3720 O.2   1 <1>  -0.5700 
 10 N        6.2050    -2.5300     0.8410 N.am  1 <1>  -0.7300 
 11 C        7.5970    -3.0340     0.9990 C.3   1 <1>   0.2200 
 12 C        8.6000    -2.4010     0.0050 C.3   1 <1>   0.2000 
 13 C        7.5690    -4.5610     0.9080 C.3   1 <1>  -0.2400 
 14 O        9.9050    -2.7170     0.3790 O.3   1 <1>  -0.5600 
 15 C        8.5960    -0.8760    -0.0360 C.3   1 <1>  -0.1600 
 16 C       10.7890    -1.8410    -0.2370 C.3   1 <1>   0.1200 
 17 C       10.0310    -0.5270    -0.4000 C.3   1 <1>  -0.1600 
 18 H        2.0960     0.2200     1.4630 H     1 <1>   0.1500 
 19 H        1.1580    -2.1750    -1.9320 H     1 <1>   0.1500 
 20 H        4.4200    -0.6060     1.4120 H     1 <1>   0.1500 
 21 H        3.4850    -3.0160    -1.9830 H     1 <1>   0.1500 
 22 H        5.7080    -2.4200     1.7240 H     1 <1>   0.3700 
 23 H        7.9260    -2.7600     1.9870 H     1 <1>   0.0800 
 24 H        8.4500    -2.8020    -0.9840 H     1 <1>   0.0800 
 25 H        7.2560    -4.8680    -0.0740 H     1 <1>   0.0800 
 26 H        6.9010    -4.9700     1.6420 H     1 <1>   0.0800 
 27 H        8.5540    -4.9520     1.0860 H     1 <1>   0.0800 
 28 H        8.3500    -0.4840     0.9350 H     1 <1>   0.0800 
 29 H        7.8860    -0.5110    -0.7570 H     1 <1>   0.0800 
 30 H       11.0570    -2.2580    -1.1930 H     1 <1>   0.0800 
 31 H       11.6640    -1.7390     0.3820 H     1 <1>   0.0800 
 32 H       10.4270     0.2270     0.2580 H     1 <1>   0.0800 
 33 H       10.1080    -0.1830    -1.4160 H     1 <1>   0.0800 
@<TRIPOS>BOND
  1   1   2  1   
  2   2   3  ar  
  3   2   4  ar  
  4   3   5  ar  
  5   3  18  1   
  6   4   6  ar  
  7   4  19  1   
  8   5   7  ar  
  9   5  20  1   
 10   6   7  ar  
 11   6  21  1   
 12   7   8  1   
 13   8   9  2   
 14   8  10  am  
 15  10  11  1   
 16  10  22  1   
 17  11  12  1   
 18  11  13  1   
 19  11  23  1   
 20  12  14  1   
 21  12  15  1   
 22  12  24  1   
 23  13  25  1   
 24  13  26  1   
 25  13  27  1   
 26  14  16  1   
 27  15  17  1   
 28  15  28  1   
 29  15  29  1   
 30  16  17  1   
 31  16  30  1   
 32  16  31  1   
 33  17  32  1   
 34  17  33  1   
@<TRIPOS>SUBSTRUCTURE
  1 ****   8 GROUP 4 **** **** 0

# MOE 2024.06 (io_trps.svl 2023.06)
