@<TRIPOS>MOLECULE
NONAME
38 40 1 0 0 
SMALL
USER_CHARGES


@<TRIPOS>ATOM
  1 O       -1.9010     0.7250    -0.1920 O.2   1 <1>  -0.5700 
  2 C       -1.4530     1.3350    -1.1400 C.2   1 <1>   0.6900 
  3 N       -1.2170     2.6610    -1.1420 N.am  1 <1>  -0.7300 
  4 N       -1.1780     0.6610    -2.2570 N.am  1 <1>  -0.8000 
  5 C       -1.5350     3.6240    -0.0850 C.3   1 <1>   0.4800 
  6 C       -3.0450     3.7200     0.0110 C.2   1 <1>  -0.3320 
  7 C       -0.9760     5.0000    -0.5170 C.3   1 <1>  -0.1600 
  8 C       -0.8880     3.2200     1.2440 C.3   1 <1>  -0.2400 
  9 N       -3.8490     2.7310     0.4990 N.pl3 1 <1>   0.0330 
 10 C       -3.8090     4.7600    -0.3950 C.2   1 <1>  -0.1810 
 11 C       -1.8370     5.7330    -1.5720 C.3   1 <1>  -0.1600 
 12 C       -5.1510     3.1630     0.4240 C.ar  1 <1>  -0.1520 
 13 C       -5.1580     4.4400    -0.1280 C.ar  1 <1>   0.0000 
 14 C       -3.2580     6.0110    -1.0440 C.3   1 <1>   0.0210 
 15 C       -6.3430     2.5350     0.7890 C.ar  1 <1>  -0.1500 
 16 C       -6.3740     5.1070    -0.3100 C.ar  1 <1>  -0.1500 
 17 C       -7.5310     3.2030     0.6020 C.ar  1 <1>  -0.1500 
 18 C       -7.5530     4.4930     0.0530 C.ar  1 <1>  -0.1430 
 19 C       -8.8880     5.1900    -0.1320 C.3   1 <1>  -0.0970 
 20 H       -1.2820     3.1010    -2.0520 H     1 <1>   0.3700 
 21 H       -1.2790    -0.3520    -2.2270 H     1 <1>   0.3700 
 22 H       -0.5590     1.0380    -2.9680 H     1 <1>   0.3700 
 23 H        0.0320     4.8840    -0.8720 H     1 <1>   0.0800 
 24 H       -0.9340     5.6360     0.3500 H     1 <1>   0.0800 
 25 H       -1.0930     3.9680     1.9870 H     1 <1>   0.0800 
 26 H       -1.2820     2.2920     1.6090 H     1 <1>   0.0800 
 27 H        0.1760     3.1300     1.1280 H     1 <1>   0.0800 
 28 H       -3.5220     1.7850     0.7410 H     1 <1>   0.2700 
 29 H       -1.9090     5.1270    -2.4580 H     1 <1>   0.0800 
 30 H       -1.3710     6.6630    -1.8440 H     1 <1>   0.0800 
 31 H       -3.2360     6.8000    -0.3130 H     1 <1>   0.0800 
 32 H       -3.8960     6.3130    -1.8550 H     1 <1>   0.0800 
 33 H       -6.3180     1.5450     1.2080 H     1 <1>   0.1500 
 34 H       -6.3610     6.0920    -0.7340 H     1 <1>   0.1500 
 35 H       -8.4580     2.7340     0.8790 H     1 <1>   0.1500 
 36 H       -8.7540     6.1670    -0.5590 H     1 <1>   0.0800 
 37 H       -9.3800     5.2940     0.8180 H     1 <1>   0.0800 
 38 H       -9.5140     4.6110    -0.7880 H     1 <1>   0.0800 
@<TRIPOS>BOND
  1   1   2  2   
  2   2   3  am  
  3   2   4  am  
  4   3   5  1   
  5   3  20  1   
  6   4  21  1   
  7   4  22  1   
  8   5   6  1   
  9   5   7  1   
 10   5   8  1   
 11   6   9  1   
 12   6  10  2   
 13   7  11  1   
 14   7  23  1   
 15   7  24  1   
 16   8  25  1   
 17   8  26  1   
 18   8  27  1   
 19   9  12  1   
 20   9  28  1   
 21  10  13  1   
 22  10  14  1   
 23  11  14  1   
 24  11  29  1   
 25  11  30  1   
 26  12  13  ar  
 27  12  15  ar  
 28  13  16  ar  
 29  14  31  1   
 30  14  32  1   
 31  15  17  ar  
 32  15  33  1   
 33  16  18  ar  
 34  16  34  1   
 35  17  18  ar  
 36  17  35  1   
 37  18  19  1   
 38  19  36  1   
 39  19  37  1   
 40  19  38  1   
@<TRIPOS>SUBSTRUCTURE
  1 ****   6 GROUP 4 **** **** 0

# MOE 2024.06 (io_trps.svl 2023.06)
