@<TRIPOS>MOLECULE
NONAME
37 38 1 0 0 
SMALL
USER_CHARGES


@<TRIPOS>ATOM
  1 BR      -0.0820     0.3330     0.0490 Br    1 <1>  -0.1110 
  2 C        1.8380     0.2320    -0.0190 C.ar  1 <1>   0.1110 
  3 C        2.5300    -0.1000     1.1300 C.ar  1 <1>  -0.1500 
  4 C        2.4770     0.4950    -1.2150 C.ar  1 <1>  -0.1500 
  5 C        3.9110    -0.1720     1.0720 C.ar  1 <1>  -0.1500 
  6 C        3.8590     0.4190    -1.2580 C.ar  1 <1>  -0.1500 
  7 C        4.5820     0.0820    -0.1190 C.ar  1 <1>  -0.1430 
  8 C        6.1060    -0.0170    -0.1720 C.3   1 <1>   0.0450 
  9 C        6.8530     1.1910     0.3940 C.2   1 <1>   0.5690 
 10 O        6.3000     1.8770     1.2220 O.2   1 <1>  -0.5700 
 11 N        8.1360     1.4770    -0.0110 N.am  1 <1>  -0.6600 
 12 C        8.8200     2.7370     0.4230 C.3   1 <1>   0.1400 
 13 C        9.0240     0.5910    -0.8270 C.3   1 <1>   0.1400 
 14 C       10.1800     2.4450     1.0790 C.3   1 <1>   0.1960 
 15 C       10.3760     0.3650    -0.1250 C.3   1 <1>   0.1960 
 16 N       11.0510     1.6330     0.2060 N.am  1 <1>  -0.8490 
 17 S       12.5800     1.3960     0.8940 S.o2  1 <1>   1.3330 
 18 O       12.9400     2.5890     1.6230 O.2   1 <1>  -0.6500 
 19 O       12.5740     0.1120     1.5560 O.2   1 <1>  -0.6500 
 20 C       13.6310     1.3010    -0.5390 C.3   1 <1>  -0.1350 
 21 H        2.0010    -0.2920     2.0450 H     1 <1>   0.1500 
 22 H        1.9060     0.7540    -2.0870 H     1 <1>   0.1500 
 23 H        4.4660    -0.4180     1.9610 H     1 <1>   0.1500 
 24 H        4.3660     0.6260    -2.1840 H     1 <1>   0.1500 
 25 H        6.3920    -0.1560    -1.1960 H     1 <1>   0.0800 
 26 H        6.4170    -0.8860     0.3770 H     1 <1>   0.0800 
 27 H        8.2090     3.2840     1.1200 H     1 <1>   0.0800 
 28 H        8.9740     3.3660    -0.4350 H     1 <1>   0.0800 
 29 H        9.1970     1.0520    -1.7840 H     1 <1>   0.0800 
 30 H        8.5670    -0.3660    -0.9950 H     1 <1>   0.0800 
 31 H       10.0230     1.9370     2.0170 H     1 <1>   0.0800 
 32 H       10.6550     3.3880     1.2910 H     1 <1>   0.0800 
 33 H       11.0080    -0.2200    -0.7710 H     1 <1>   0.0800 
 34 H       10.2070    -0.2060     0.7740 H     1 <1>   0.0800 
 35 H       13.5570     2.2070    -1.1080 H     1 <1>   0.0800 
 36 H       13.3460     0.4760    -1.1590 H     1 <1>   0.0800 
 37 H       14.6510     1.1680    -0.2350 H     1 <1>   0.0800 
@<TRIPOS>BOND
  1   1   2  1   
  2   2   3  ar  
  3   2   4  ar  
  4   3   5  ar  
  5   3  21  1   
  6   4   6  ar  
  7   4  22  1   
  8   5   7  ar  
  9   5  23  1   
 10   6   7  ar  
 11   6  24  1   
 12   7   8  1   
 13   8   9  1   
 14   8  25  1   
 15   8  26  1   
 16   9  10  2   
 17   9  11  am  
 18  11  12  1   
 19  11  13  1   
 20  12  14  1   
 21  12  27  1   
 22  12  28  1   
 23  13  15  1   
 24  13  29  1   
 25  13  30  1   
 26  14  16  1   
 27  14  31  1   
 28  14  32  1   
 29  15  16  1   
 30  15  33  1   
 31  15  34  1   
 32  16  17  am  
 33  17  18  2   
 34  17  19  2   
 35  17  20  1   
 36  20  35  1   
 37  20  36  1   
 38  20  37  1   
@<TRIPOS>SUBSTRUCTURE
  1 ****   9 GROUP 4 **** **** 0

# MOE 2024.06 (io_trps.svl 2023.06)
