@<TRIPOS>MOLECULE
NONAME
43 45 1 0 0 
SMALL
USER_CHARGES


@<TRIPOS>ATOM
  1 S       -0.0600    -0.6430     2.2560 S.3   1 <1>  -0.3320 
  2 C       -1.2460     0.5350     1.6000 C.ar  1 <1>   0.4120 
  3 C       -0.0210    -2.0420     1.0270 C.3   1 <1>   0.1310 
  4 N       -2.1800     0.0120     0.8240 N.ar  1 <1>  -0.6200 
  5 C       -1.1150     1.8780     1.9320 C.ar  1 <1>   0.0730 
  6 C        1.3680    -2.1960     0.4210 C.2   1 <1>   0.5690 
  7 C       -3.0630     0.8690     0.3380 C.ar  1 <1>   0.1660 
  8 C       -0.0410     2.3600     2.7450 C.1   1 <1>   0.4840 
  9 C       -2.0550     2.7500     1.4150 C.ar  1 <1>  -0.1500 
 10 O        1.9090    -3.2710     0.4850 O.2   1 <1>  -0.5700 
 11 N        2.0150    -1.1680    -0.2000 N.am  1 <1>  -0.5470 
 12 C       -3.0450     2.2380     0.6000 C.ar  1 <1>  -0.1440 
 13 C       -4.1190     0.2520    -0.5700 C.3   1 <1>  -0.0160 
 14 N        0.8160     2.7990     3.3560 N.1   1 <1>  -0.5570 
 15 C        1.6090     0.1540    -0.4290 C.ar  1 <1>   0.1170 
 16 C       -4.0860     3.1910     0.0240 C.3   1 <1>  -0.0170 
 17 C       -5.3060     1.1810    -0.8580 C.3   1 <1>  -0.1600 
 18 C        2.2930     1.2440     0.1170 C.ar  1 <1>  -0.1430 
 19 C        0.4920     0.3820    -1.2250 C.ar  1 <1>  -0.1500 
 20 C       -4.8180     2.5950    -1.1820 C.3   1 <1>  -0.1600 
 21 C        1.8260     2.5320    -0.1380 C.ar  1 <1>  -0.1500 
 22 C        3.5380     1.0210     0.9870 C.3   1 <1>   1.1630 
 23 C        0.0410     1.6630    -1.4720 C.ar  1 <1>  -0.1500 
 24 C        0.7090     2.7420    -0.9270 C.ar  1 <1>  -0.1500 
 25 F        3.2700     0.3900     2.1210 F     1 <1>  -0.3400 
 26 F        4.4570     0.2900     0.3610 F     1 <1>  -0.3400 
 27 F        4.1510     2.1490     1.3270 F     1 <1>  -0.3400 
 28 H       -0.7400    -1.8600     0.2540 H     1 <1>   0.0800 
 29 H       -0.2920    -2.9310     1.5650 H     1 <1>   0.0800 
 30 H       -2.0080     3.8020     1.6400 H     1 <1>   0.1500 
 31 H        2.9710    -1.4160    -0.4670 H     1 <1>   0.3700 
 32 H       -4.4840    -0.6560    -0.1240 H     1 <1>   0.0800 
 33 H       -3.6420    -0.0100    -1.4970 H     1 <1>   0.0800 
 34 H       -3.6170     4.1140    -0.2700 H     1 <1>   0.0800 
 35 H       -4.8030     3.4170     0.7940 H     1 <1>   0.0800 
 36 H       -5.9490     1.2150     0.0060 H     1 <1>   0.0800 
 37 H       -5.8780     0.7890    -1.6810 H     1 <1>   0.0800 
 38 H       -0.0330    -0.4530    -1.6550 H     1 <1>   0.1500 
 39 H       -4.1530     2.5620    -2.0290 H     1 <1>   0.0800 
 40 H       -5.6550     3.2210    -1.4410 H     1 <1>   0.0800 
 41 H        2.3270     3.3920     0.2770 H     1 <1>   0.1500 
 42 H       -0.8300     1.8200    -2.0860 H     1 <1>   0.1500 
 43 H        0.3610     3.7430    -1.1160 H     1 <1>   0.1500 
@<TRIPOS>BOND
  1   1   2  1   
  2   1   3  1   
  3   2   4  ar  
  4   2   5  ar  
  5   3   6  1   
  6   3  28  1   
  7   3  29  1   
  8   4   7  ar  
  9   5   8  1   
 10   5   9  ar  
 11   6  10  2   
 12   6  11  am  
 13   7  12  ar  
 14   7  13  1   
 15   8  14  3   
 16   9  12  ar  
 17   9  30  1   
 18  11  15  1   
 19  11  31  1   
 20  12  16  1   
 21  13  17  1   
 22  13  32  1   
 23  13  33  1   
 24  15  18  ar  
 25  15  19  ar  
 26  16  20  1   
 27  16  34  1   
 28  16  35  1   
 29  17  20  1   
 30  17  36  1   
 31  17  37  1   
 32  18  21  ar  
 33  18  22  1   
 34  19  23  ar  
 35  19  38  1   
 36  20  39  1   
 37  20  40  1   
 38  21  24  ar  
 39  21  41  1   
 40  22  25  1   
 41  22  26  1   
 42  22  27  1   
 43  23  24  ar  
 44  23  42  1   
 45  24  43  1   
@<TRIPOS>SUBSTRUCTURE
  1 ****   2 GROUP 4 **** **** 0

# MOE 2024.06 (io_trps.svl 2023.06)
