@<TRIPOS>MOLECULE
NONAME
50 51 1 0 0 
SMALL
USER_CHARGES


@<TRIPOS>ATOM
  1 O       -0.1350    -0.1630     0.7040 O.2   1 <1>  -0.5700 
  2 C       -0.0940     0.9410     0.1980 C.2   1 <1>   0.6900 
  3 N       -1.2070     1.6420    -0.1480 N.am  1 <1>  -0.5470 
  4 N        1.1110     1.5150    -0.0480 N.am  1 <1>  -0.7300 
  5 C       -2.5850     1.3670    -0.0960 C.ar  1 <1>   0.1170 
  6 C        2.3870     0.8840     0.3070 C.3   1 <1>   0.2200 
  7 C       -3.4690     2.4130    -0.3840 C.ar  1 <1>   0.0830 
  8 C       -3.1080     0.1160     0.2170 C.ar  1 <1>  -0.1500 
  9 C        3.4350     1.9550     0.5920 C.3   1 <1>  -0.1600 
 10 C        2.8360    -0.0230    -0.8360 C.3   1 <1>  -0.1600 
 11 O       -2.9190     3.6270    -0.6950 O.3   1 <1>  -0.3630 
 12 C       -4.8420     2.1930    -0.3490 C.ar  1 <1>  -0.1500 
 13 C       -4.4750    -0.1020     0.2540 C.ar  1 <1>  -0.1430 
 14 C        4.7830     1.3030     0.8930 C.3   1 <1>   0.3430 
 15 C        4.1860    -0.6500    -0.5100 C.3   1 <1>   0.3430 
 16 C       -3.7330     4.7490    -0.9620 C.3   1 <1>   0.0400 
 17 C       -5.3400     0.9410    -0.0310 C.ar  1 <1>  -0.1500 
 18 C       -5.0160    -1.4770     0.6010 C.3   1 <1>  -0.0970 
 19 N        5.1930     0.4210    -0.2450 N.4   1 <1>  -0.9590 
 20 C        6.5360    -0.1860    -0.0260 C.3   1 <1>   0.3430 
 21 C        7.6330     0.8720    -0.1600 C.3   1 <1>  -0.1600 
 22 C        9.0230     0.2340    -0.0540 C.3   1 <1>  -0.2400 
 23 H       -1.0410     2.6040    -0.4340 H     1 <1>   0.3700 
 24 H        1.1400     2.3760    -0.5890 H     1 <1>   0.3700 
 25 H        2.2450     0.2870     1.1950 H     1 <1>   0.0800 
 26 H       -2.4470    -0.7010     0.4330 H     1 <1>   0.1500 
 27 H        3.1290     2.5310     1.4480 H     1 <1>   0.0800 
 28 H        3.5370     2.6210    -0.2460 H     1 <1>   0.0800 
 29 H        2.9010     0.5280    -1.7570 H     1 <1>   0.0800 
 30 H        2.1120    -0.8090    -0.9650 H     1 <1>   0.0800 
 31 H       -5.5430     2.9750    -0.5650 H     1 <1>   0.1500 
 32 H        4.7050     0.7190     1.7960 H     1 <1>   0.0800 
 33 H        5.5210     2.0730     1.0530 H     1 <1>   0.0800 
 34 H        4.5040    -1.2630    -1.3390 H     1 <1>   0.0800 
 35 H        4.0860    -1.2820     0.3590 H     1 <1>   0.0800 
 36 H       -3.0920     5.5880    -1.1630 H     1 <1>   0.0800 
 37 H       -4.3410     4.9530    -0.0980 H     1 <1>   0.0800 
 38 H       -4.3430     4.5410    -1.8230 H     1 <1>   0.0800 
 39 H       -6.4040     0.7810    -0.0080 H     1 <1>   0.1500 
 40 H       -4.3710    -1.9630     1.3120 H     1 <1>   0.0800 
 41 H       -5.0700    -2.0800    -0.2870 H     1 <1>   0.0800 
 42 H       -5.9980    -1.4010     1.0320 H     1 <1>   0.0800 
 43 H        5.2520     1.0040    -1.0910 H     1 <1>   0.4500 
 44 H        6.7100    -0.9530    -0.7640 H     1 <1>   0.0800 
 45 H        6.5840    -0.6450     0.9490 H     1 <1>   0.0800 
 46 H        7.5430     1.6110     0.6160 H     1 <1>   0.0800 
 47 H        7.5550     1.3610    -1.1160 H     1 <1>   0.0800 
 48 H        9.1530    -0.2480     0.9000 H     1 <1>   0.0800 
 49 H        9.7830     0.9910    -0.1530 H     1 <1>   0.0800 
 50 H        9.1730    -0.4930    -0.8340 H     1 <1>   0.0800 
@<TRIPOS>BOND
  1   1   2  2   
  2   2   3  am  
  3   2   4  am  
  4   3   5  1   
  5   3  23  1   
  6   4   6  1   
  7   4  24  1   
  8   5   7  ar  
  9   5   8  ar  
 10   6   9  1   
 11   6  10  1   
 12   6  25  1   
 13   7  11  1   
 14   7  12  ar  
 15   8  13  ar  
 16   8  26  1   
 17   9  14  1   
 18   9  27  1   
 19   9  28  1   
 20  10  15  1   
 21  10  29  1   
 22  10  30  1   
 23  11  16  1   
 24  12  17  ar  
 25  12  31  1   
 26  13  17  ar  
 27  13  18  1   
 28  14  19  1   
 29  14  32  1   
 30  14  33  1   
 31  15  19  1   
 32  15  34  1   
 33  15  35  1   
 34  16  36  1   
 35  16  37  1   
 36  16  38  1   
 37  17  39  1   
 38  18  40  1   
 39  18  41  1   
 40  18  42  1   
 41  19  20  1   
 42  19  43  1   
 43  20  21  1   
 44  20  44  1   
 45  20  45  1   
 46  21  22  1   
 47  21  46  1   
 48  21  47  1   
 49  22  48  1   
 50  22  49  1   
 51  22  50  1   
@<TRIPOS>SUBSTRUCTURE
  1 ****   2 GROUP 4 **** **** 0

# MOE 2024.06 (io_trps.svl 2023.06)
