@<TRIPOS>MOLECULE
NONAME
39 41 1 0 0 
SMALL
USER_CHARGES


@<TRIPOS>ATOM
  1 O       -1.2540    -3.4020    -0.3210 O.2   1 <1>  -0.5700 
  2 C       -0.3920    -2.8540     0.3390 C.2   1 <1>   0.7150 
  3 N       -0.8020    -1.8660     1.1950 N.am  1 <1>  -0.7300 
  4 C        1.0090    -3.2070     0.2360 C.2   1 <1>   0.0550 
  5 C       -2.2220    -1.5230     1.4890 C.3   1 <1>   0.1400 
  6 O        1.3920    -4.1770    -0.6070 O.3   1 <1>  -0.2800 
  7 C        2.1030    -2.7120     0.8740 C.2   1 <1>  -0.1500 
  8 C       -2.9560    -0.9990     0.2320 C.3   1 <1>   0.3430 
  9 C        2.7130    -4.3100    -0.5190 C.ar  1 <1>   0.1400 
 10 C        3.2240    -3.4140     0.4000 C.ar  1 <1>   0.0000 
 11 N       -4.2770    -1.6710    -0.0090 N.4   1 <1>  -0.9590 
 12 C        3.5260    -5.1950    -1.2140 C.ar  1 <1>  -0.1500 
 13 C        4.5980    -3.3900     0.6440 C.ar  1 <1>  -0.1500 
 14 C       -4.0870    -3.0890    -0.4950 C.3   1 <1>   0.3430 
 15 C       -5.0900    -0.9090    -1.0180 C.3   1 <1>   0.3430 
 16 C        4.8840    -5.1670    -0.9690 C.ar  1 <1>  -0.1500 
 17 C        5.4170    -4.2650    -0.0410 C.ar  1 <1>  -0.1500 
 18 C       -5.4260    -3.7460    -0.8810 C.3   1 <1>   0.1200 
 19 C       -6.3980    -1.6470    -1.3620 C.3   1 <1>   0.1200 
 20 O       -6.1210    -2.9470    -1.7960 O.3   1 <1>  -0.5600 
 21 H       -0.0980    -1.4670     1.8220 H     1 <1>   0.3700 
 22 H       -2.2450    -0.7650     2.2530 H     1 <1>   0.0800 
 23 H       -2.7100    -2.4020     1.8720 H     1 <1>   0.0800 
 24 H        2.1650    -1.9330     1.6090 H     1 <1>   0.1500 
 25 H       -2.3230    -1.1510    -0.6270 H     1 <1>   0.0800 
 26 H       -3.1080     0.0610     0.3480 H     1 <1>   0.0800 
 27 H       -4.8160    -1.7080     0.8660 H     1 <1>   0.4500 
 28 H        3.0880    -5.8770    -1.9200 H     1 <1>   0.1500 
 29 H        5.0020    -2.6950     1.3580 H     1 <1>   0.1500 
 30 H       -3.6040    -3.6820     0.2640 H     1 <1>   0.0800 
 31 H       -3.4440    -3.0940    -1.3600 H     1 <1>   0.0800 
 32 H       -4.5230    -0.7870    -1.9260 H     1 <1>   0.0800 
 33 H       -5.3260     0.0720    -0.6390 H     1 <1>   0.0800 
 34 H        5.5420    -5.8400    -1.4910 H     1 <1>   0.1500 
 35 H        6.4790    -4.2610     0.1340 H     1 <1>   0.1500 
 36 H       -6.0470    -3.9030    -0.0160 H     1 <1>   0.0800 
 37 H       -5.2460    -4.6980    -1.3500 H     1 <1>   0.0800 
 38 H       -6.9110    -1.1410    -2.1620 H     1 <1>   0.0800 
 39 H       -7.0560    -1.6980    -0.5120 H     1 <1>   0.0800 
@<TRIPOS>BOND
  1   1   2  2   
  2   2   3  am  
  3   2   4  1   
  4   3   5  1   
  5   3  21  1   
  6   4   6  1   
  7   4   7  2   
  8   5   8  1   
  9   5  22  1   
 10   5  23  1   
 11   6   9  1   
 12   7  10  1   
 13   7  24  1   
 14   8  11  1   
 15   8  25  1   
 16   8  26  1   
 17   9  10  ar  
 18   9  12  ar  
 19  10  13  ar  
 20  11  14  1   
 21  11  15  1   
 22  11  27  1   
 23  12  16  ar  
 24  12  28  1   
 25  13  17  ar  
 26  13  29  1   
 27  14  18  1   
 28  14  30  1   
 29  14  31  1   
 30  15  19  1   
 31  15  32  1   
 32  15  33  1   
 33  16  17  ar  
 34  16  34  1   
 35  17  35  1   
 36  18  20  1   
 37  18  36  1   
 38  18  37  1   
 39  19  20  1   
 40  19  38  1   
 41  19  39  1   
@<TRIPOS>SUBSTRUCTURE
  1 ****   2 GROUP 4 **** **** 0

# MOE 2024.06 (io_trps.svl 2023.06)
