@<TRIPOS>MOLECULE
NONAME
31 32 1 0 0 
SMALL
USER_CHARGES


@<TRIPOS>ATOM
  1 CL      -1.3970     0.3370    -1.8290 Cl    1 <1>  -0.1770 
  2 C       -0.7470     1.6640    -0.8880 C.ar  1 <1>   0.1770 
  3 C       -1.6250     2.5340    -0.2370 C.ar  1 <1>   0.1170 
  4 C        0.6240     1.8110    -0.8240 C.ar  1 <1>  -0.1500 
  5 N       -3.0130     2.3260    -0.3480 N.am  1 <1>  -0.5470 
  6 C       -1.0690     3.5880     0.4880 C.ar  1 <1>  -0.1500 
  7 C        1.1370     2.8620    -0.0900 C.ar  1 <1>   0.1770 
  8 C       -4.0580     2.7520     0.4160 C.2   1 <1>   0.6900 
  9 C        0.3050     3.7510     0.5650 C.ar  1 <1>  -0.1500 
 10 CL       2.8680     3.0720     0.0100 Cl    1 <1>  -0.1770 
 11 O       -3.8940     3.3910     1.4350 O.2   1 <1>  -0.5700 
 12 N       -5.3030     2.4230     0.0010 N.am  1 <1>  -0.7300 
 13 C       -6.5510     2.7840     0.6950 C.3   1 <1>   0.2200 
 14 C       -7.4090     1.5330     0.8400 C.3   1 <1>  -0.1600 
 15 C       -7.3810     3.6740    -0.2200 C.3   1 <1>  -0.1600 
 16 C       -8.1170     1.3520    -0.5080 C.3   1 <1>  -0.1600 
 17 C       -8.0990     2.7270    -1.1890 C.3   1 <1>  -0.1600 
 18 H        1.2780     1.1270    -1.3310 H     1 <1>   0.1500 
 19 H       -3.2760     1.6270    -1.0370 H     1 <1>   0.3700 
 20 H       -1.7060     4.2900     0.9960 H     1 <1>   0.1500 
 21 H        0.7290     4.5640     1.1290 H     1 <1>   0.1500 
 22 H       -5.4450     1.9860    -0.9040 H     1 <1>   0.3700 
 23 H       -6.3440     3.2510     1.6450 H     1 <1>   0.0800 
 24 H       -8.1480     1.7180     1.6000 H     1 <1>   0.0800 
 25 H       -6.8300     0.6730     1.1290 H     1 <1>   0.0800 
 26 H       -6.7820     4.4130    -0.7230 H     1 <1>   0.0800 
 27 H       -8.1170     4.1820     0.3790 H     1 <1>   0.0800 
 28 H       -9.1230     0.9960    -0.3660 H     1 <1>   0.0800 
 29 H       -7.5800     0.6400    -1.1110 H     1 <1>   0.0800 
 30 H       -7.5530     2.6660    -2.1150 H     1 <1>   0.0800 
 31 H       -9.0960     3.0760    -1.3970 H     1 <1>   0.0800 
@<TRIPOS>BOND
  1   1   2  1   
  2   2   3  ar  
  3   2   4  ar  
  4   3   5  1   
  5   3   6  ar  
  6   4   7  ar  
  7   4  18  1   
  8   5   8  am  
  9   5  19  1   
 10   6   9  ar  
 11   6  20  1   
 12   7   9  ar  
 13   7  10  1   
 14   8  11  2   
 15   8  12  am  
 16   9  21  1   
 17  12  13  1   
 18  12  22  1   
 19  13  14  1   
 20  13  15  1   
 21  13  23  1   
 22  14  16  1   
 23  14  24  1   
 24  14  25  1   
 25  15  17  1   
 26  15  26  1   
 27  15  27  1   
 28  16  17  1   
 29  16  28  1   
 30  16  29  1   
 31  17  30  1   
 32  17  31  1   
@<TRIPOS>SUBSTRUCTURE
  1 ****   5 GROUP 4 **** **** 0

# MOE 2024.06 (io_trps.svl 2023.06)
