@<TRIPOS>MOLECULE
NONAME
44 45 1 0 0 
SMALL
USER_CHARGES


@<TRIPOS>ATOM
  1 O       -0.7710     0.0620    -0.3480 O.2   1 <1>  -0.5700 
  2 C       -0.6210     1.1130     0.2430 C.2   1 <1>   0.6900 
  3 N        0.6040     1.6500     0.4270 N.am  1 <1>  -0.7300 
  4 N       -1.6790     1.7940     0.7340 N.am  1 <1>  -0.7300 
  5 C        1.8670     1.0510    -0.0290 C.3   1 <1>   0.2200 
  6 C       -3.0890     1.3560     0.6160 C.3   1 <1>   0.1400 
  7 C        2.6920     0.6400     1.1960 C.3   1 <1>  -0.1600 
  8 C        2.6170     2.0730    -0.8890 C.3   1 <1>  -0.1600 
  9 C       -3.7180     1.9540    -0.6410 C.3   1 <1>  -0.0170 
 10 C        4.0710     0.1070     0.7820 C.3   1 <1>  -0.1600 
 11 C        3.9970     1.5410    -1.3060 C.3   1 <1>  -0.1600 
 12 C       -5.1860     1.5570    -0.7380 C.ar  1 <1>  -0.1430 
 13 C        4.8250     1.1270    -0.0820 C.3   1 <1>  -0.1600 
 14 C       -6.1640     2.2240    -0.0030 C.ar  1 <1>   0.0820 
 15 C       -5.5490     0.5080    -1.5690 C.ar  1 <1>  -0.1500 
 16 O       -5.7640     3.2390     0.8100 O.3   1 <1>  -0.3620 
 17 C       -7.4970     1.8330    -0.1190 C.ar  1 <1>  -0.1500 
 18 C       -6.8730     0.1240    -1.6780 C.ar  1 <1>  -0.1500 
 19 C       -6.6880     3.9920     1.5640 C.3   1 <1>   0.0400 
 20 C       -7.8470     0.7870    -0.9540 C.ar  1 <1>  -0.1500 
 21 H        0.6940     2.4760     1.0080 H     1 <1>   0.3700 
 22 H       -1.5320     2.7320     1.0950 H     1 <1>   0.3700 
 23 H        1.6620     0.1750    -0.6240 H     1 <1>   0.0800 
 24 H       -3.6350     1.6730     1.4880 H     1 <1>   0.0800 
 25 H       -3.1330     0.2810     0.5630 H     1 <1>   0.0800 
 26 H        2.1630    -0.1240     1.7370 H     1 <1>   0.0800 
 27 H        2.8250     1.4890     1.8430 H     1 <1>   0.0800 
 28 H        2.7470     2.9850    -0.3340 H     1 <1>   0.0800 
 29 H        2.0370     2.2870    -1.7690 H     1 <1>   0.0800 
 30 H       -3.1840     1.5980    -1.5040 H     1 <1>   0.0800 
 31 H       -3.6360     3.0260    -0.6170 H     1 <1>   0.0800 
 32 H        3.9460    -0.8070     0.2260 H     1 <1>   0.0800 
 33 H        4.6500    -0.1200     1.6610 H     1 <1>   0.0800 
 34 H        4.5240     2.2990    -1.8600 H     1 <1>   0.0800 
 35 H        3.8680     0.6900    -1.9540 H     1 <1>   0.0800 
 36 H        5.7590     0.7020    -0.4080 H     1 <1>   0.0800 
 37 H        5.0490     1.9980     0.5090 H     1 <1>   0.0800 
 38 H       -4.7990    -0.0170    -2.1350 H     1 <1>   0.1500 
 39 H       -8.2740     2.3260     0.4310 H     1 <1>   0.1500 
 40 H       -7.1440    -0.6910    -2.3270 H     1 <1>   0.1500 
 41 H       -6.1420     4.7400     2.1100 H     1 <1>   0.0800 
 42 H       -7.1950     3.3370     2.2490 H     1 <1>   0.0800 
 43 H       -7.3830     4.4640     0.8930 H     1 <1>   0.0800 
 44 H       -8.8770     0.4880    -1.0410 H     1 <1>   0.1500 
@<TRIPOS>BOND
  1   1   2  2   
  2   2   3  am  
  3   2   4  am  
  4   3   5  1   
  5   3  21  1   
  6   4   6  1   
  7   4  22  1   
  8   5   7  1   
  9   5   8  1   
 10   5  23  1   
 11   6   9  1   
 12   6  24  1   
 13   6  25  1   
 14   7  10  1   
 15   7  26  1   
 16   7  27  1   
 17   8  11  1   
 18   8  28  1   
 19   8  29  1   
 20   9  12  1   
 21   9  30  1   
 22   9  31  1   
 23  10  13  1   
 24  10  32  1   
 25  10  33  1   
 26  11  13  1   
 27  11  34  1   
 28  11  35  1   
 29  12  14  ar  
 30  12  15  ar  
 31  13  36  1   
 32  13  37  1   
 33  14  16  1   
 34  14  17  ar  
 35  15  18  ar  
 36  15  38  1   
 37  16  19  1   
 38  17  20  ar  
 39  17  39  1   
 40  18  20  ar  
 41  18  40  1   
 42  19  41  1   
 43  19  42  1   
 44  19  43  1   
 45  20  44  1   
@<TRIPOS>SUBSTRUCTURE
  1 ****   4 GROUP 4 **** **** 0

# MOE 2024.06 (io_trps.svl 2023.06)
