@<TRIPOS>MOLECULE
NONAME
50 52 1 0 0 
SMALL
USER_CHARGES


@<TRIPOS>ATOM
  1 O       -2.1470     0.3630    -1.6430 O.3   1 <1>  -0.3630 
  2 C       -2.5050     1.0580    -0.5360 C.ar  1 <1>   0.0830 
  3 C       -1.5440    -0.9000    -1.4590 C.3   1 <1>   0.1200 
  4 C       -1.7510     2.1480    -0.0970 C.ar  1 <1>   0.0830 
  5 C       -3.6590     0.6860     0.1330 C.ar  1 <1>  -0.1500 
  6 C       -0.0740    -0.7220    -1.0840 C.3   1 <1>  -0.2400 
  7 O       -0.6340     2.4830    -0.8010 O.3   1 <1>  -0.3620 
  8 C       -2.1680     2.8400     1.0350 C.ar  1 <1>  -0.1500 
  9 C       -4.0800     1.3920     1.2500 C.ar  1 <1>  -0.1440 
 10 C        0.2210     3.5270    -0.3920 C.3   1 <1>   0.0400 
 11 C       -3.3230     2.4640     1.7020 C.ar  1 <1>  -0.1500 
 12 C       -5.3660     1.0080     1.9550 C.3   1 <1>   0.4860 
 13 N       -6.5100     1.3360     1.0640 N.4   1 <1>  -0.9590 
 14 C       -6.5700     2.8110     0.7400 C.3   1 <1>   0.3430 
 15 C       -7.8220     0.8550     1.6260 C.3   1 <1>   0.3430 
 16 C       -7.7570     3.1650    -0.1780 C.3   1 <1>   0.2090 
 17 C       -9.0150     1.1960     0.7100 C.3   1 <1>   0.2090 
 18 N       -9.0470     2.6500     0.3710 N.pl3 1 <1>  -0.8380 
 19 C      -10.1510     3.0290    -0.3610 C.ar  1 <1>   0.4100 
 20 N      -10.2690     2.4840    -1.5640 N.ar  1 <1>  -0.6200 
 21 C      -11.0610     3.9360     0.1720 C.ar  1 <1>  -0.1500 
 22 C      -11.3320     2.8590    -2.2580 C.ar  1 <1>   0.1600 
 23 C      -12.1600     4.3160    -0.5610 C.ar  1 <1>  -0.1500 
 24 C      -12.2910     3.7530    -1.8150 C.ar  1 <1>  -0.1500 
 25 H       -1.6250    -1.4310    -2.3920 H     1 <1>   0.0800 
 26 H       -2.0790    -1.4410    -0.6980 H     1 <1>   0.0800 
 27 H       -4.2120    -0.1560    -0.2430 H     1 <1>   0.1500 
 28 H        0.4270    -0.1340    -1.8320 H     1 <1>   0.0800 
 29 H        0.4050    -1.6820    -1.0220 H     1 <1>   0.0800 
 30 H        0.0160    -0.2360    -0.1290 H     1 <1>   0.0800 
 31 H       -1.6070     3.6760     1.4090 H     1 <1>   0.1500 
 32 H        1.0360     3.5820    -1.0910 H     1 <1>   0.0800 
 33 H        0.5980     3.3060     0.5910 H     1 <1>   0.0800 
 34 H       -0.3270     4.4520    -0.3990 H     1 <1>   0.0800 
 35 H       -3.6180     3.0210     2.5750 H     1 <1>   0.1500 
 36 H       -5.4510     1.5470     2.8850 H     1 <1>   0.0800 
 37 H       -5.3520    -0.0480     2.1710 H     1 <1>   0.0800 
 38 H       -6.3470     0.8560     0.1700 H     1 <1>   0.4500 
 39 H       -5.6560     3.1190     0.2580 H     1 <1>   0.0800 
 40 H       -6.6700     3.3770     1.6510 H     1 <1>   0.0800 
 41 H       -7.9960     1.3180     2.5830 H     1 <1>   0.0800 
 42 H       -7.7910    -0.2120     1.7740 H     1 <1>   0.0800 
 43 H       -7.5920     2.7520    -1.1590 H     1 <1>   0.0800 
 44 H       -7.8200     4.2350    -0.2820 H     1 <1>   0.0800 
 45 H       -9.9330     0.9310     1.2060 H     1 <1>   0.0800 
 46 H       -8.9540     0.6150    -0.1950 H     1 <1>   0.0800 
 47 H      -10.8900     4.3300     1.1550 H     1 <1>   0.1500 
 48 H      -11.4480     2.4280    -3.2380 H     1 <1>   0.1500 
 49 H      -12.8840     5.0150    -0.1790 H     1 <1>   0.1500 
 50 H      -13.1270     4.0050    -2.4410 H     1 <1>   0.1500 
@<TRIPOS>BOND
  1   1   2  1   
  2   1   3  1   
  3   2   4  ar  
  4   2   5  ar  
  5   3   6  1   
  6   3  25  1   
  7   3  26  1   
  8   4   7  1   
  9   4   8  ar  
 10   5   9  ar  
 11   5  27  1   
 12   6  28  1   
 13   6  29  1   
 14   6  30  1   
 15   7  10  1   
 16   8  11  ar  
 17   8  31  1   
 18   9  11  ar  
 19   9  12  1   
 20  10  32  1   
 21  10  33  1   
 22  10  34  1   
 23  11  35  1   
 24  12  13  1   
 25  12  36  1   
 26  12  37  1   
 27  13  14  1   
 28  13  15  1   
 29  13  38  1   
 30  14  16  1   
 31  14  39  1   
 32  14  40  1   
 33  15  17  1   
 34  15  41  1   
 35  15  42  1   
 36  16  18  1   
 37  16  43  1   
 38  16  44  1   
 39  17  18  1   
 40  17  45  1   
 41  17  46  1   
 42  18  19  1   
 43  19  20  ar  
 44  19  21  ar  
 45  20  22  ar  
 46  21  23  ar  
 47  21  47  1   
 48  22  24  ar  
 49  22  48  1   
 50  23  24  ar  
 51  23  49  1   
 52  24  50  1   
@<TRIPOS>SUBSTRUCTURE
  1 ****  14 GROUP 4 **** **** 0

# MOE 2024.06 (io_trps.svl 2023.06)
