@<TRIPOS>MOLECULE
NONAME
47 48 1 0 0 
SMALL
USER_CHARGES


@<TRIPOS>ATOM
  1 O        0.4060    -2.6000    -2.2290 O.2   1 <1>  -0.5700 
  2 C        0.3410    -2.3950    -1.0460 C.2   1 <1>   0.6590 
  3 O       -0.6190    -1.6690    -0.4950 O.3   1 <1>  -0.4300 
  4 C        1.3850    -2.9580    -0.0850 C.3   1 <1>  -0.0190 
  5 C       -1.6390    -1.0870    -1.2750 C.3   1 <1>   0.1200 
  6 C        2.6960    -2.1540    -0.1730 C.3   1 <1>  -0.1600 
  7 C        1.6600    -4.4500    -0.3570 C.3   1 <1>  -0.1600 
  8 C       -2.5700    -0.3210    -0.3410 C.3   1 <1>  -0.2400 
  9 C        3.7940    -2.7460     0.7080 C.3   1 <1>   0.3430 
 10 C        2.7740    -4.9990     0.5320 C.3   1 <1>   0.3430 
 11 N        4.0040    -4.1800     0.3510 N.4   1 <1>  -0.9590 
 12 C        5.1610    -4.7680     1.0830 C.3   1 <1>   0.4860 
 13 C        6.4190    -4.0090     0.7030 C.ar  1 <1>  -0.1440 
 14 C        6.9510    -4.1280    -0.5720 C.ar  1 <1>  -0.1500 
 15 C        7.0450    -3.1800     1.6230 C.ar  1 <1>  -0.1500 
 16 C        8.0790    -3.4120    -0.9250 C.ar  1 <1>  -0.1500 
 17 C        8.1750    -2.4680     1.2640 C.ar  1 <1>  -0.1500 
 18 C        8.7040    -2.5640    -0.0170 C.ar  1 <1>   0.1170 
 19 N        9.8460    -1.8210    -0.3470 N.am  1 <1>  -0.5470 
 20 C       10.2350    -1.3120    -1.5530 C.2   1 <1>   0.5690 
 21 O        9.5860    -1.4100    -2.5640 O.2   1 <1>  -0.5700 
 22 C       11.5480    -0.5730    -1.6050 C.3   1 <1>  -0.1790 
 23 H        0.9920    -2.8620     0.9130 H     1 <1>   0.0800 
 24 H       -2.1670    -1.8720    -1.7890 H     1 <1>   0.0800 
 25 H       -1.1850    -0.4260    -1.9950 H     1 <1>   0.0800 
 26 H        2.5120    -1.1380     0.1320 H     1 <1>   0.0800 
 27 H        3.0390    -2.1220    -1.1940 H     1 <1>   0.0800 
 28 H        1.9300    -4.5950    -1.3890 H     1 <1>   0.0800 
 29 H        0.7600    -5.0150    -0.1820 H     1 <1>   0.0800 
 30 H       -3.0100    -0.9900     0.3770 H     1 <1>   0.0800 
 31 H       -3.3600     0.1330    -0.9110 H     1 <1>   0.0800 
 32 H       -2.0300     0.4540     0.1710 H     1 <1>   0.0800 
 33 H        3.5130    -2.6620     1.7450 H     1 <1>   0.0800 
 34 H        4.7060    -2.1880     0.5580 H     1 <1>   0.0800 
 35 H        2.9690    -6.0260     0.2650 H     1 <1>   0.0800 
 36 H        2.4610    -4.9690     1.5630 H     1 <1>   0.0800 
 37 H        4.2580    -4.1940    -0.6460 H     1 <1>   0.4500 
 38 H        5.2820    -5.8060     0.8150 H     1 <1>   0.0800 
 39 H        5.0020    -4.7060     2.1470 H     1 <1>   0.0800 
 40 H        6.5050    -4.7750    -1.3080 H     1 <1>   0.1500 
 41 H        6.6650    -3.0780     2.6260 H     1 <1>   0.1500 
 42 H        8.4820    -3.5140    -1.9180 H     1 <1>   0.1500 
 43 H        8.6510    -1.8260     1.9840 H     1 <1>   0.1500 
 44 H       10.4550    -1.5900     0.4350 H     1 <1>   0.3700 
 45 H       11.4970     0.3050    -0.9890 H     1 <1>   0.0800 
 46 H       11.7540    -0.2740    -2.6170 H     1 <1>   0.0800 
 47 H       12.3410    -1.2110    -1.2640 H     1 <1>   0.0800 
@<TRIPOS>BOND
  1   1   2  2   
  2   2   3  1   
  3   2   4  1   
  4   3   5  1   
  5   4   6  1   
  6   4   7  1   
  7   4  23  1   
  8   5   8  1   
  9   5  24  1   
 10   5  25  1   
 11   6   9  1   
 12   6  26  1   
 13   6  27  1   
 14   7  10  1   
 15   7  28  1   
 16   7  29  1   
 17   8  30  1   
 18   8  31  1   
 19   8  32  1   
 20   9  11  1   
 21   9  33  1   
 22   9  34  1   
 23  10  11  1   
 24  10  35  1   
 25  10  36  1   
 26  11  12  1   
 27  11  37  1   
 28  12  13  1   
 29  12  38  1   
 30  12  39  1   
 31  13  14  ar  
 32  13  15  ar  
 33  14  16  ar  
 34  14  40  1   
 35  15  17  ar  
 36  15  41  1   
 37  16  18  ar  
 38  16  42  1   
 39  17  18  ar  
 40  17  43  1   
 41  18  19  1   
 42  19  20  am  
 43  19  44  1   
 44  20  21  2   
 45  20  22  1   
 46  22  45  1   
 47  22  46  1   
 48  22  47  1   
@<TRIPOS>SUBSTRUCTURE
  1 ****   9 GROUP 4 **** **** 0

# MOE 2024.06 (io_trps.svl 2023.06)
