@<TRIPOS>MOLECULE
NONAME
45 45 1 0 0 
SMALL
USER_CHARGES


@<TRIPOS>ATOM
  1 S       -0.3140     0.3790     0.7560 S.o2  1 <1>   1.4470 
  2 O        0.1550     0.6940     2.0860 O.2   1 <1>  -0.6500 
  3 O       -1.0820     1.3440     0.0040 O.2   1 <1>  -0.6500 
  4 N        0.9830     0.0270    -0.2530 N.am  1 <1>  -0.9140 
  5 C       -1.2210    -1.1910     0.8040 C.ar  1 <1>  -0.0090 
  6 C        2.2160     0.7590    -0.1310 C.3   1 <1>   0.3560 
  7 C       -2.6040    -1.2240     0.6950 C.ar  1 <1>  -0.1500 
  8 C       -0.5590    -2.3990     0.9690 C.ar  1 <1>  -0.1500 
  9 C        2.9840     0.4480    -1.4140 C.3   1 <1>  -0.2400 
 10 C        3.0300     0.2370     1.0540 C.3   1 <1>  -0.2400 
 11 C        1.9920     2.2710    -0.0500 C.3   1 <1>  -0.2400 
 12 C       -3.3380    -2.4100     0.7320 C.ar  1 <1>   0.0860 
 13 C       -1.2540    -3.5930     1.0120 C.ar  1 <1>  -0.1500 
 14 C       -2.6330    -3.6080     0.8930 C.ar  1 <1>  -0.1430 
 15 C       -4.7820    -2.3530     0.5970 C.2   1 <1>   0.5440 
 16 C       -3.3620    -4.9460     0.9410 C.3   1 <1>  -0.0970 
 17 O       -5.5050    -2.8380     1.4450 O.2   1 <1>  -0.5700 
 18 N       -5.3250    -1.7400    -0.5010 N.am  1 <1>  -0.7300 
 19 C       -6.7460    -1.5630    -0.8580 C.3   1 <1>   0.2200 
 20 C       -7.4580    -0.7200     0.1980 C.3   1 <1>  -0.2400 
 21 C       -7.4130    -2.9210    -1.0600 C.3   1 <1>  -0.2400 
 22 H        0.6190     0.2770    -1.1670 H     1 <1>   0.4200 
 23 H       -3.1370    -0.2950     0.5840 H     1 <1>   0.1500 
 24 H        0.5140    -2.4040     1.0670 H     1 <1>   0.1500 
 25 H        2.4490     0.8020    -2.2770 H     1 <1>   0.0800 
 26 H        3.1440    -0.6120    -1.5100 H     1 <1>   0.0800 
 27 H        3.9450     0.9290    -1.3990 H     1 <1>   0.0800 
 28 H        3.1130    -0.8340     1.0100 H     1 <1>   0.0800 
 29 H        2.5880     0.5150     1.9920 H     1 <1>   0.0800 
 30 H        4.0190     0.6540     1.0330 H     1 <1>   0.0800 
 31 H        1.3700     2.6120    -0.8580 H     1 <1>   0.0800 
 32 H        2.9350     2.7830    -0.1120 H     1 <1>   0.0800 
 33 H        1.5420     2.5510     0.8850 H     1 <1>   0.0800 
 34 H       -0.7100    -4.5120     1.1420 H     1 <1>   0.1500 
 35 H       -4.0360    -5.0350     0.1070 H     1 <1>   0.0800 
 36 H       -3.9320    -5.0180     1.8510 H     1 <1>   0.0800 
 37 H       -2.6710    -5.7690     0.9060 H     1 <1>   0.0800 
 38 H       -4.6780    -1.3910    -1.2070 H     1 <1>   0.3700 
 39 H       -6.7860    -1.0280    -1.7930 H     1 <1>   0.0800 
 40 H       -7.4920    -1.2370     1.1400 H     1 <1>   0.0800 
 41 H       -8.4680    -0.5220    -0.1130 H     1 <1>   0.0800 
 42 H       -6.9510     0.2190     0.3270 H     1 <1>   0.0800 
 43 H       -7.4460    -3.4700    -0.1360 H     1 <1>   0.0800 
 44 H       -6.8760    -3.4940    -1.7930 H     1 <1>   0.0800 
 45 H       -8.4220    -2.7840    -1.4050 H     1 <1>   0.0800 
@<TRIPOS>BOND
  1   1   2  2   
  2   1   3  2   
  3   1   4  am  
  4   1   5  1   
  5   4   6  1   
  6   4  22  1   
  7   5   7  ar  
  8   5   8  ar  
  9   6   9  1   
 10   6  10  1   
 11   6  11  1   
 12   7  12  ar  
 13   7  23  1   
 14   8  13  ar  
 15   8  24  1   
 16   9  25  1   
 17   9  26  1   
 18   9  27  1   
 19  10  28  1   
 20  10  29  1   
 21  10  30  1   
 22  11  31  1   
 23  11  32  1   
 24  11  33  1   
 25  12  14  ar  
 26  12  15  1   
 27  13  14  ar  
 28  13  34  1   
 29  14  16  1   
 30  15  17  2   
 31  15  18  am  
 32  16  35  1   
 33  16  36  1   
 34  16  37  1   
 35  18  19  1   
 36  18  38  1   
 37  19  20  1   
 38  19  21  1   
 39  19  39  1   
 40  20  40  1   
 41  20  41  1   
 42  20  42  1   
 43  21  43  1   
 44  21  44  1   
 45  21  45  1   
@<TRIPOS>SUBSTRUCTURE
  1 ****   7 GROUP 4 **** **** 0

# MOE 2024.06 (io_trps.svl 2023.06)
