@<TRIPOS>MOLECULE
NONAME
38 40 1 0 0 
SMALL
USER_CHARGES


@<TRIPOS>ATOM
  1 CL      -0.8660    -1.5100     1.6720 Cl    1 <1>  -0.1770 
  2 C        0.3290    -2.6040     1.0140 C.ar  1 <1>   0.1770 
  3 C        0.0030    -3.5590     0.0450 C.ar  1 <1>   0.0860 
  4 C        1.6160    -2.4640     1.4980 C.ar  1 <1>  -0.1500 
  5 C       -1.3300    -3.7630    -0.4930 C.2   1 <1>   0.5440 
  6 C        1.0530    -4.3540    -0.4210 C.ar  1 <1>  -0.1500 
  7 C        2.6290    -3.2740     1.0200 C.ar  1 <1>  -0.1500 
  8 O       -1.4610    -4.1370    -1.6410 O.2   1 <1>  -0.5700 
  9 N       -2.4520    -3.5860     0.2650 N.am  1 <1>  -0.7300 
 10 C        2.3560    -4.2300     0.0480 C.ar  1 <1>  -0.0230 
 11 C       -3.8410    -3.7450    -0.1950 C.3   1 <1>   0.2200 
 12 N        3.3900    -5.0640    -0.4550 N.pl3 1 <1>   0.3260 
 13 C       -4.5070    -2.3660    -0.2340 C.3   1 <1>  -0.1600 
 14 C       -4.5730    -4.6890     0.7640 C.3   1 <1>  -0.1600 
 15 C        3.3810    -6.3850    -0.6820 C.2   1 <1>   0.0370 
 16 C        4.6420    -4.7440    -0.8100 C.2   1 <1>   0.0360 
 17 C       -5.9940    -2.4780    -0.6000 C.3   1 <1>  -0.1600 
 18 C       -6.0610    -4.8060     0.3990 C.3   1 <1>  -0.1600 
 19 N        4.5100    -6.8190    -1.1240 N.2   1 <1>  -0.3380 
 20 N        5.3210    -5.7630    -1.2060 N.2   1 <1>  -0.3380 
 21 C       -6.7310    -3.4260     0.3560 C.3   1 <1>  -0.1600 
 22 H        1.8220    -1.7180     2.2460 H     1 <1>   0.1500 
 23 H        0.8340    -5.0880    -1.1810 H     1 <1>   0.1500 
 24 H        3.6280    -3.1590     1.4090 H     1 <1>   0.1500 
 25 H       -2.3620    -3.1680     1.1920 H     1 <1>   0.3700 
 26 H       -3.8540    -4.1710    -1.1860 H     1 <1>   0.0800 
 27 H       -4.0070    -1.7530    -0.9630 H     1 <1>   0.0800 
 28 H       -4.4180    -1.8940     0.7290 H     1 <1>   0.0800 
 29 H       -4.4890    -4.3190     1.7700 H     1 <1>   0.0800 
 30 H       -4.1190    -5.6630     0.7170 H     1 <1>   0.0800 
 31 H        2.5160    -6.9960    -0.5040 H     1 <1>   0.1500 
 32 H        5.0160    -3.7380    -0.7630 H     1 <1>   0.1500 
 33 H       -6.0850    -2.8470    -1.6080 H     1 <1>   0.0800 
 34 H       -6.4490    -1.5030    -0.5640 H     1 <1>   0.0800 
 35 H       -6.5610    -5.4290     1.1200 H     1 <1>   0.0800 
 36 H       -6.1540    -5.2780    -0.5650 H     1 <1>   0.0800 
 37 H       -7.7550    -3.5330     0.0390 H     1 <1>   0.0800 
 38 H       -6.7360    -3.0010     1.3450 H     1 <1>   0.0800 
@<TRIPOS>BOND
  1   1   2  1   
  2   2   3  ar  
  3   2   4  ar  
  4   3   5  1   
  5   3   6  ar  
  6   4   7  ar  
  7   4  22  1   
  8   5   8  2   
  9   5   9  am  
 10   6  10  ar  
 11   6  23  1   
 12   7  10  ar  
 13   7  24  1   
 14   9  11  1   
 15   9  25  1   
 16  10  12  1   
 17  11  13  1   
 18  11  14  1   
 19  11  26  1   
 20  12  15  1   
 21  12  16  1   
 22  13  17  1   
 23  13  27  1   
 24  13  28  1   
 25  14  18  1   
 26  14  29  1   
 27  14  30  1   
 28  15  19  2   
 29  15  31  1   
 30  16  20  2   
 31  16  32  1   
 32  17  21  1   
 33  17  33  1   
 34  17  34  1   
 35  18  21  1   
 36  18  35  1   
 37  18  36  1   
 38  19  20  1   
 39  21  37  1   
 40  21  38  1   
@<TRIPOS>SUBSTRUCTURE
  1 ****   3 GROUP 4 **** **** 0

# MOE 2024.06 (io_trps.svl 2023.06)
