@<TRIPOS>MOLECULE
NONAME
42 44 1 0 0 
SMALL
USER_CHARGES


@<TRIPOS>ATOM
  1 S        0.0990    -0.1080     0.4160 S.o2  1 <1>   1.4470 
  2 O        0.1970     0.3200     1.7930 O.2   1 <1>  -0.6500 
  3 O       -0.1690     0.8920    -0.5940 O.2   1 <1>  -0.6500 
  4 N        1.5800    -0.8220     0.0010 N.am  1 <1>  -0.8490 
  5 C       -1.1020    -1.4450     0.1870 C.ar  1 <1>  -0.0090 
  6 C        2.1300    -1.6660     1.0890 C.3   1 <1>   0.1960 
  7 C        2.5810     0.2050    -0.3690 C.3   1 <1>   0.1960 
  8 C       -1.4310    -2.3370     1.2010 C.ar  1 <1>   0.1900 
  9 C       -1.7240    -1.6390    -1.0430 C.ar  1 <1>  -0.1500 
 10 C        3.4540    -2.3470     0.6930 C.3   1 <1>   0.2090 
 11 C        3.9300    -0.4030    -0.8000 C.3   1 <1>   0.2090 
 12 F       -0.8670    -2.2250     2.3720 F     1 <1>  -0.1900 
 13 C       -2.3390    -3.3740     1.0440 C.ar  1 <1>  -0.1500 
 14 C       -2.6270    -2.6740    -1.2050 C.ar  1 <1>   0.1900 
 15 N        4.4460    -1.3350     0.2390 N.pl3 1 <1>  -0.8380 
 16 C       -2.9520    -3.5480    -0.1840 C.ar  1 <1>  -0.1500 
 17 F       -3.1960    -2.8320    -2.3690 F     1 <1>  -0.1900 
 18 C        5.8120    -1.6060     0.2980 C.ar  1 <1>   0.1000 
 19 C        6.4460    -2.5880    -0.4710 C.ar  1 <1>  -0.1440 
 20 C        6.5750    -0.8450     1.1740 C.ar  1 <1>  -0.1500 
 21 C        7.8120    -2.7840    -0.3390 C.ar  1 <1>  -0.1500 
 22 C        5.6860    -3.4620    -1.4600 C.3   1 <1>  -0.0970 
 23 C        7.9370    -1.0440     1.2990 C.ar  1 <1>  -0.1500 
 24 C        8.5580    -2.0180     0.5400 C.ar  1 <1>  -0.1500 
 25 H        1.4240    -2.4340     1.3460 H     1 <1>   0.0800 
 26 H        2.3050    -1.0680     1.9680 H     1 <1>   0.0800 
 27 H        2.7490     0.8650     0.4660 H     1 <1>   0.0800 
 28 H        2.2080     0.7980    -1.1860 H     1 <1>   0.0800 
 29 H       -1.5080    -0.9880    -1.8740 H     1 <1>   0.1500 
 30 H        3.2640    -3.0480    -0.0980 H     1 <1>   0.0800 
 31 H        3.8550    -2.8840     1.5360 H     1 <1>   0.0800 
 32 H        4.6460     0.3830    -0.9630 H     1 <1>   0.0800 
 33 H        3.7960    -0.9320    -1.7260 H     1 <1>   0.0800 
 34 H       -2.5570    -4.0300     1.8690 H     1 <1>   0.1500 
 35 H       -3.6620    -4.3390    -0.3520 H     1 <1>   0.1500 
 36 H        6.0840    -0.0920     1.7610 H     1 <1>   0.1500 
 37 H        8.3100    -3.5390    -0.9220 H     1 <1>   0.1500 
 38 H        4.9800    -2.8750    -2.0150 H     1 <1>   0.0800 
 39 H        5.1610    -4.2350    -0.9300 H     1 <1>   0.0800 
 40 H        6.3590    -3.9230    -2.1600 H     1 <1>   0.0800 
 41 H        8.5100    -0.4450     1.9840 H     1 <1>   0.1500 
 42 H        9.6170    -2.1800     0.6320 H     1 <1>   0.1500 
@<TRIPOS>BOND
  1   1   2  2   
  2   1   3  2   
  3   1   4  am  
  4   1   5  1   
  5   4   6  1   
  6   4   7  1   
  7   5   8  ar  
  8   5   9  ar  
  9   6  10  1   
 10   6  25  1   
 11   6  26  1   
 12   7  11  1   
 13   7  27  1   
 14   7  28  1   
 15   8  12  1   
 16   8  13  ar  
 17   9  14  ar  
 18   9  29  1   
 19  10  15  1   
 20  10  30  1   
 21  10  31  1   
 22  11  15  1   
 23  11  32  1   
 24  11  33  1   
 25  13  16  ar  
 26  13  34  1   
 27  14  16  ar  
 28  14  17  1   
 29  15  18  1   
 30  16  35  1   
 31  18  19  ar  
 32  18  20  ar  
 33  19  21  ar  
 34  19  22  1   
 35  20  23  ar  
 36  20  36  1   
 37  21  24  ar  
 38  21  37  1   
 39  22  38  1   
 40  22  39  1   
 41  22  40  1   
 42  23  24  ar  
 43  23  41  1   
 44  24  42  1   
@<TRIPOS>SUBSTRUCTURE
  1 ****   6 GROUP 4 **** **** 0

# MOE 2024.06 (io_trps.svl 2023.06)
