@<TRIPOS>MOLECULE
NONAME
38 39 1 0 0 
SMALL
USER_CHARGES


@<TRIPOS>ATOM
  1 F        0.7310     1.3270     2.4250 F     1 <1>  -0.1900 
  2 C        1.5050     2.1860     1.8150 C.ar  1 <1>   0.1900 
  3 C        2.4660     2.8550     2.5480 C.ar  1 <1>  -0.1500 
  4 C        1.3350     2.3950     0.4600 C.ar  1 <1>  -0.1500 
  5 C        3.2820     3.7630     1.8950 C.ar  1 <1>  -0.1500 
  6 C        2.1590     3.3060    -0.1780 C.ar  1 <1>  -0.1500 
  7 C        3.1420     3.9990     0.5280 C.ar  1 <1>   0.1170 
  8 N        4.0000     4.9310    -0.0710 N.am  1 <1>  -0.5470 
  9 C        4.2540     5.2880    -1.3640 C.2   1 <1>   0.5690 
 10 O        3.7090     4.8100    -2.3310 O.2   1 <1>  -0.5700 
 11 C        5.3170     6.3720    -1.5610 C.3   1 <1>   0.1710 
 12 N        6.2200     6.5320    -0.3800 N.3   1 <1>  -0.8100 
 13 C        6.8610     7.8520    -0.3670 C.3   1 <1>   0.1100 
 14 C        7.2180     5.4500    -0.3210 C.3   1 <1>   0.1100 
 15 C        7.6250     8.0340     0.9470 C.3   1 <1>  -0.1600 
 16 C        7.9900     5.5410     0.9960 C.3   1 <1>  -0.1600 
 17 C        8.6630     6.9160     1.1580 C.3   1 <1>  -0.0190 
 18 C        9.3530     7.0490     2.5140 C.2   1 <1>   0.5690 
 19 O        8.7410     6.8690     3.5350 O.2   1 <1>  -0.5700 
 20 N       10.6590     7.3720     2.5700 N.am  1 <1>  -0.8000 
 21 H        2.5680     2.6670     3.6010 H     1 <1>   0.1500 
 22 H        0.5770     1.8570    -0.0800 H     1 <1>   0.1500 
 23 H        4.0350     4.2920     2.4510 H     1 <1>   0.1500 
 24 H        2.0310     3.4750    -1.2320 H     1 <1>   0.1500 
 25 H        4.6350     5.4330     0.5620 H     1 <1>   0.3700 
 26 H        4.7910     7.2920    -1.7380 H     1 <1>   0.0800 
 27 H        5.8930     6.1460    -2.4420 H     1 <1>   0.0800 
 28 H        6.1100     8.6210    -0.4410 H     1 <1>   0.0800 
 29 H        7.5310     7.9470    -1.2050 H     1 <1>   0.0800 
 30 H        7.8970     5.5290    -1.1550 H     1 <1>   0.0800 
 31 H        6.7300     4.4910    -0.3740 H     1 <1>   0.0800 
 32 H        6.9200     8.0290     1.7610 H     1 <1>   0.0800 
 33 H        8.1170     8.9900     0.9470 H     1 <1>   0.0800 
 34 H        8.7350     4.7670     1.0300 H     1 <1>   0.0800 
 35 H        7.3060     5.3720     1.8100 H     1 <1>   0.0800 
 36 H        9.4100     7.0090     0.3910 H     1 <1>   0.0800 
 37 H       11.1040     7.4590     3.4850 H     1 <1>   0.3700 
 38 H       11.2470     7.5450     1.7570 H     1 <1>   0.3700 
@<TRIPOS>BOND
  1   1   2  1   
  2   2   3  ar  
  3   2   4  ar  
  4   3   5  ar  
  5   3  21  1   
  6   4   6  ar  
  7   4  22  1   
  8   5   7  ar  
  9   5  23  1   
 10   6   7  ar  
 11   6  24  1   
 12   7   8  1   
 13   8   9  am  
 14   8  25  1   
 15   9  10  2   
 16   9  11  1   
 17  11  12  1   
 18  11  26  1   
 19  11  27  1   
 20  12  13  1   
 21  12  14  1   
 22  13  15  1   
 23  13  28  1   
 24  13  29  1   
 25  14  16  1   
 26  14  30  1   
 27  14  31  1   
 28  15  17  1   
 29  15  32  1   
 30  15  33  1   
 31  16  17  1   
 32  16  34  1   
 33  16  35  1   
 34  17  18  1   
 35  17  36  1   
 36  18  19  2   
 37  18  20  am  
 38  20  37  1   
 39  20  38  1   
@<TRIPOS>SUBSTRUCTURE
  1 ****   8 GROUP 4 **** **** 0

# MOE 2024.06 (io_trps.svl 2023.06)
