@<TRIPOS>MOLECULE
NONAME
48 49 1 0 0 
SMALL
USER_CHARGES


@<TRIPOS>ATOM
  1 O        0.1680    -4.0850     0.3820 O.2   1 <1>  -0.5700 
  2 C        0.4230    -3.1740     1.1310 C.2   1 <1>   0.5690 
  3 N       -0.4120    -2.8360     2.1560 N.am  1 <1>  -0.7300 
  4 C        1.6910    -2.3430     0.9270 C.3   1 <1>  -0.0190 
  5 C       -1.6080    -3.5540     2.7210 C.3   1 <1>   0.1400 
  6 C        1.4070    -1.1040     0.0570 C.3   1 <1>  -0.1600 
  7 C        2.8460    -3.1600     0.3120 C.3   1 <1>  -0.1600 
  8 C       -2.3130    -4.5940     1.8140 C.3   1 <1>   0.3430 
  9 C        2.6700    -0.2620    -0.1550 C.3   1 <1>   0.1400 
 10 C        4.0960    -2.3020     0.0990 C.3   1 <1>   0.1400 
 11 N       -2.5510    -4.1130     0.4200 N.4   1 <1>  -0.9590 
 12 N        3.7490    -1.1120    -0.7270 N.am  1 <1>  -0.6600 
 13 C       -3.3390    -2.8550     0.3150 C.3   1 <1>   0.3430 
 14 C       -3.0670    -5.1980    -0.4570 C.3   1 <1>   0.3430 
 15 C        4.3690    -0.7620    -1.9020 C.2   1 <1>   0.5690 
 16 C       -3.3110    -2.3550    -1.1300 C.3   1 <1>  -0.1600 
 17 C       -3.0360    -4.7330    -1.9140 C.3   1 <1>  -0.1600 
 18 O        4.0800     0.2410    -2.5090 O.2   1 <1>  -0.5700 
 19 C        5.4570    -1.6300    -2.4920 C.3   1 <1>  -0.1790 
 20 C       -3.8090    -3.4230    -2.1130 C.3   1 <1>  -0.1600 
 21 H       -0.1030    -2.0530     2.7420 H     1 <1>   0.3700 
 22 H        2.0170    -2.0040     1.8950 H     1 <1>   0.0800 
 23 H       -2.3350    -2.8170     3.0130 H     1 <1>   0.0800 
 24 H       -1.3010    -4.0570     3.6230 H     1 <1>   0.0800 
 25 H        0.6550    -0.4920     0.5200 H     1 <1>   0.0800 
 26 H        1.0360    -1.4110    -0.9060 H     1 <1>   0.0800 
 27 H        2.5450    -3.5670    -0.6380 H     1 <1>   0.0800 
 28 H        3.0890    -3.9860     0.9570 H     1 <1>   0.0800 
 29 H       -3.2480    -4.8790     2.2660 H     1 <1>   0.0800 
 30 H       -1.6890    -5.4720     1.7750 H     1 <1>   0.0800 
 31 H        3.0070     0.1470     0.7810 H     1 <1>   0.0800 
 32 H        2.4440     0.5610    -0.8120 H     1 <1>   0.0800 
 33 H        4.8590    -2.8970    -0.3700 H     1 <1>   0.0800 
 34 H        4.4770    -1.9670     1.0480 H     1 <1>   0.0800 
 35 H       -1.5900    -3.9070     0.0730 H     1 <1>   0.4500 
 36 H       -2.9170    -2.0990     0.9580 H     1 <1>   0.0800 
 37 H       -4.3580    -3.0350     0.6170 H     1 <1>   0.0800 
 38 H       -4.0780    -5.4450    -0.1770 H     1 <1>   0.0800 
 39 H       -2.4550    -6.0800    -0.3520 H     1 <1>   0.0800 
 40 H       -2.3060    -2.0650    -1.3840 H     1 <1>   0.0800 
 41 H       -3.9300    -1.4780    -1.2120 H     1 <1>   0.0800 
 42 H       -3.4630    -5.4990    -2.5380 H     1 <1>   0.0800 
 43 H       -2.0110    -4.6040    -2.2200 H     1 <1>   0.0800 
 44 H        5.0710    -2.6110    -2.6920 H     1 <1>   0.0800 
 45 H        6.2850    -1.6900    -1.8120 H     1 <1>   0.0800 
 46 H        5.8000    -1.2010    -3.4150 H     1 <1>   0.0800 
 47 H       -3.6840    -3.0750    -3.1250 H     1 <1>   0.0800 
 48 H       -4.8600    -3.5970    -1.9540 H     1 <1>   0.0800 
@<TRIPOS>BOND
  1   1   2  2   
  2   2   3  am  
  3   2   4  1   
  4   3   5  1   
  5   3  21  1   
  6   4   6  1   
  7   4   7  1   
  8   4  22  1   
  9   5   8  1   
 10   5  23  1   
 11   5  24  1   
 12   6   9  1   
 13   6  25  1   
 14   6  26  1   
 15   7  10  1   
 16   7  27  1   
 17   7  28  1   
 18   8  11  1   
 19   8  29  1   
 20   8  30  1   
 21   9  12  1   
 22   9  31  1   
 23   9  32  1   
 24  10  12  1   
 25  10  33  1   
 26  10  34  1   
 27  11  13  1   
 28  11  14  1   
 29  11  35  1   
 30  12  15  am  
 31  13  16  1   
 32  13  36  1   
 33  13  37  1   
 34  14  17  1   
 35  14  38  1   
 36  14  39  1   
 37  15  18  2   
 38  15  19  1   
 39  16  20  1   
 40  16  40  1   
 41  16  41  1   
 42  17  20  1   
 43  17  42  1   
 44  17  43  1   
 45  19  44  1   
 46  19  45  1   
 47  19  46  1   
 48  20  47  1   
 49  20  48  1   
@<TRIPOS>SUBSTRUCTURE
  1 ****   2 GROUP 4 **** **** 0

# MOE 2024.06 (io_trps.svl 2023.06)
