@<TRIPOS>MOLECULE
NONAME
48 50 1 0 0 
SMALL
USER_CHARGES


@<TRIPOS>ATOM
  1 O        1.2950    -0.6730    -1.4330 O.2   1 <1>  -0.5700 
  2 C        1.3180    -1.5820    -0.6400 C.2   1 <1>   0.5690 
  3 N        0.1900    -1.9270     0.0220 N.am  1 <1>  -0.7300 
  4 C        2.6570    -2.3110    -0.4230 C.3   1 <1>   0.4040 
  5 C       -0.0550    -3.0280     0.9740 C.3   1 <1>   0.2200 
  6 N        3.8530    -1.5120    -0.8880 N.4   1 <1>  -0.9590 
  7 C       -0.8280    -4.2040     0.3300 C.3   1 <1>  -0.0800 
  8 C       -0.8120    -2.4380     2.1610 C.3   1 <1>  -0.2400 
  9 C        5.0760    -2.3460    -1.0550 C.3   1 <1>   0.3430 
 10 C        4.0780    -0.3140    -0.0270 C.3   1 <1>   0.3430 
 11 C       -0.0860    -4.9270    -0.8200 C.3   1 <1>  -0.0800 
 12 C       -2.1870    -3.8530    -0.3200 C.3   1 <1>  -0.1600 
 13 C        6.1910    -1.5040    -1.6780 C.3   1 <1>  -0.1600 
 14 C        5.1790     0.5550    -0.6340 C.3   1 <1>  -0.1600 
 15 C       -0.6610    -4.2770    -2.0720 C.3   1 <1>  -0.1600 
 16 C       -0.6890    -6.3370    -0.9450 C.3   1 <1>  -0.1600 
 17 C       -2.1080    -4.5360    -1.6960 C.3   1 <1>  -0.0800 
 18 C        6.4740    -0.2370    -0.8610 C.3   1 <1>  -0.1600 
 19 C       -2.1010    -6.0610    -1.4950 C.3   1 <1>  -0.1600 
 20 H       -0.6540    -1.4070    -0.2390 H     1 <1>   0.3700 
 21 H        2.6100    -3.2350    -0.9730 H     1 <1>   0.0800 
 22 H        2.7600    -2.5460     0.6210 H     1 <1>   0.0800 
 23 H        0.8840    -3.4070     1.3370 H     1 <1>   0.0800 
 24 H        3.5810    -1.1330    -1.8110 H     1 <1>   0.4500 
 25 H       -1.0040    -4.9150     1.1190 H     1 <1>   0.0800 
 26 H       -1.7630    -2.0410     1.8560 H     1 <1>   0.0800 
 27 H       -0.9880    -3.2000     2.9000 H     1 <1>   0.0800 
 28 H       -0.2360    -1.6550     2.6210 H     1 <1>   0.0800 
 29 H        4.8660    -3.1900    -1.6930 H     1 <1>   0.0800 
 30 H        5.4000    -2.7150    -0.0950 H     1 <1>   0.0800 
 31 H        4.3680    -0.6230     0.9640 H     1 <1>   0.0800 
 32 H        3.1690     0.2640     0.0460 H     1 <1>   0.0800 
 33 H        0.9860    -4.9300    -0.7440 H     1 <1>   0.0800 
 34 H       -2.3070    -2.7930    -0.4550 H     1 <1>   0.0800 
 35 H       -3.0150    -4.2230     0.2600 H     1 <1>   0.0800 
 36 H        5.9150    -1.2370    -2.6840 H     1 <1>   0.0800 
 37 H        7.0870    -2.0960    -1.7390 H     1 <1>   0.0800 
 38 H        5.3780     1.3830     0.0250 H     1 <1>   0.0800 
 39 H        4.8320     0.9660    -1.5670 H     1 <1>   0.0800 
 40 H       -0.3760    -4.7860    -2.9780 H     1 <1>   0.0800 
 41 H       -0.4470    -3.2280    -2.1670 H     1 <1>   0.0800 
 42 H       -0.7170    -6.8630    -0.0070 H     1 <1>   0.0800 
 43 H       -0.1270    -6.9220    -1.6540 H     1 <1>   0.0800 
 44 H       -2.8400    -4.1880    -2.4050 H     1 <1>   0.0800 
 45 H        7.1930     0.3780    -1.3770 H     1 <1>   0.0800 
 46 H        6.9000    -0.5090     0.0910 H     1 <1>   0.0800 
 47 H       -2.8700    -6.3770    -0.8110 H     1 <1>   0.0800 
 48 H       -2.2380    -6.5650    -2.4370 H     1 <1>   0.0800 
@<TRIPOS>BOND
  1   1   2  2   
  2   2   3  am  
  3   2   4  1   
  4   3   5  1   
  5   3  20  1   
  6   4   6  1   
  7   4  21  1   
  8   4  22  1   
  9   5   7  1   
 10   5   8  1   
 11   5  23  1   
 12   6   9  1   
 13   6  10  1   
 14   6  24  1   
 15   7  11  1   
 16   7  12  1   
 17   7  25  1   
 18   8  26  1   
 19   8  27  1   
 20   8  28  1   
 21   9  13  1   
 22   9  29  1   
 23   9  30  1   
 24  10  14  1   
 25  10  31  1   
 26  10  32  1   
 27  11  15  1   
 28  11  16  1   
 29  11  33  1   
 30  12  17  1   
 31  12  34  1   
 32  12  35  1   
 33  13  18  1   
 34  13  36  1   
 35  13  37  1   
 36  14  18  1   
 37  14  38  1   
 38  14  39  1   
 39  15  17  1   
 40  15  40  1   
 41  15  41  1   
 42  16  19  1   
 43  16  42  1   
 44  16  43  1   
 45  17  19  1   
 46  17  44  1   
 47  18  45  1   
 48  18  46  1   
 49  19  47  1   
 50  19  48  1   
@<TRIPOS>SUBSTRUCTURE
  1 ****   2 GROUP 4 **** **** 0

# MOE 2024.06 (io_trps.svl 2023.06)
