@<TRIPOS>MOLECULE
NONAME
47 48 1 0 0 
SMALL
USER_CHARGES


@<TRIPOS>ATOM
  1 S       -0.5960     0.9990    -0.2140 S.o2  1 <1>   1.4470 
  2 O       -0.9660     1.2990     1.1510 O.2   1 <1>  -0.6500 
  3 O       -1.2330    -0.1100    -0.8930 O.2   1 <1>  -0.6500 
  4 N       -0.9010     2.3820    -1.1420 N.am  1 <1>  -0.8490 
  5 C        1.2030     0.8050    -0.3400 C.ar  1 <1>  -0.0090 
  6 C       -2.3370     2.4840    -1.5370 C.3   1 <1>   0.2570 
  7 C       -0.3930     3.6020    -0.5030 C.3   1 <1>   0.1960 
  8 C        1.8330     0.7860    -1.5790 C.ar  1 <1>  -0.1500 
  9 C        1.9970     0.6750     0.7940 C.ar  1 <1>  -0.1500 
 10 C       -3.3540     2.8950    -0.4470 C.2   1 <1>   0.5690 
 11 C       -0.3150     4.7490    -1.5080 C.3   1 <1>  -0.2400 
 12 C        3.2060     0.6490    -1.6830 C.ar  1 <1>  -0.1500 
 13 C        3.3720     0.5370     0.7020 C.ar  1 <1>  -0.1500 
 14 O       -3.4660     4.0850    -0.2460 O.2   1 <1>  -0.5700 
 15 N       -4.1270     1.9850     0.2400 N.am  1 <1>  -0.6600 
 16 C        3.9850     0.5250    -0.5470 C.ar  1 <1>   0.0830 
 17 C       -4.1120     0.5020     0.0260 C.3   1 <1>   0.1400 
 18 C       -5.0650     2.4380     1.3050 C.3   1 <1>   0.1400 
 19 O        5.3210     0.3970    -0.7310 O.3   1 <1>  -0.3630 
 20 C       -5.4310    -0.1630     0.4560 C.3   1 <1>  -0.1600 
 21 C       -6.5090     2.0860     0.9130 C.3   1 <1>  -0.1600 
 22 C        6.2030     0.2400     0.3580 C.3   1 <1>   0.0400 
 23 C       -6.6380     0.7410     0.1730 C.3   1 <1>  -0.1600 
 24 H       -2.6480     1.5640    -1.9910 H     1 <1>   0.0800 
 25 H       -2.4160     3.2190    -2.3160 H     1 <1>   0.0800 
 26 H        0.6040     3.4210    -0.1350 H     1 <1>   0.0800 
 27 H       -1.0020     3.8770     0.3430 H     1 <1>   0.0800 
 28 H        1.2390     0.8820    -2.4730 H     1 <1>   0.1500 
 29 H        1.5320     0.6840     1.7660 H     1 <1>   0.1500 
 30 H       -1.2970     5.0880    -1.7830 H     1 <1>   0.0800 
 31 H        0.2260     4.4410    -2.3850 H     1 <1>   0.0800 
 32 H        0.2030     5.5770    -1.0600 H     1 <1>   0.0800 
 33 H        3.6810     0.6370    -2.6480 H     1 <1>   0.1500 
 34 H        3.9430     0.4410     1.6050 H     1 <1>   0.1500 
 35 H       -3.3050     0.0670     0.5890 H     1 <1>   0.0800 
 36 H       -3.9540     0.2880    -1.0150 H     1 <1>   0.0800 
 37 H       -4.9820     3.4970     1.4810 H     1 <1>   0.0800 
 38 H       -4.8040     1.9370     2.2220 H     1 <1>   0.0800 
 39 H       -5.3870    -0.3840     1.5090 H     1 <1>   0.0800 
 40 H       -5.5390    -1.0990    -0.0620 H     1 <1>   0.0800 
 41 H       -6.9020     2.8710     0.2910 H     1 <1>   0.0800 
 42 H       -7.1010     2.0640     1.8110 H     1 <1>   0.0800 
 43 H        7.2010     0.1500    -0.0320 H     1 <1>   0.0800 
 44 H        5.9380    -0.6530     0.8960 H     1 <1>   0.0800 
 45 H        6.1350     1.1070     0.9900 H     1 <1>   0.0800 
 46 H       -7.5520     0.2490     0.4600 H     1 <1>   0.0800 
 47 H       -6.6830     0.9290    -0.8860 H     1 <1>   0.0800 
@<TRIPOS>BOND
  1   1   2  2   
  2   1   3  2   
  3   1   4  am  
  4   1   5  1   
  5   4   6  1   
  6   4   7  1   
  7   5   8  ar  
  8   5   9  ar  
  9   6  10  1   
 10   6  24  1   
 11   6  25  1   
 12   7  11  1   
 13   7  26  1   
 14   7  27  1   
 15   8  12  ar  
 16   8  28  1   
 17   9  13  ar  
 18   9  29  1   
 19  10  14  2   
 20  10  15  am  
 21  11  30  1   
 22  11  31  1   
 23  11  32  1   
 24  12  16  ar  
 25  12  33  1   
 26  13  16  ar  
 27  13  34  1   
 28  15  17  1   
 29  15  18  1   
 30  16  19  1   
 31  17  20  1   
 32  17  35  1   
 33  17  36  1   
 34  18  21  1   
 35  18  37  1   
 36  18  38  1   
 37  19  22  1   
 38  20  23  1   
 39  20  39  1   
 40  20  40  1   
 41  21  23  1   
 42  21  41  1   
 43  21  42  1   
 44  22  43  1   
 45  22  44  1   
 46  22  45  1   
 47  23  46  1   
 48  23  47  1   
@<TRIPOS>SUBSTRUCTURE
  1 ****   1 GROUP 4 **** **** 0

# MOE 2024.06 (io_trps.svl 2023.06)
