@<TRIPOS>MOLECULE
NONAME
38 38 1 0 0 
SMALL
USER_CHARGES


@<TRIPOS>ATOM
  1 BR       0.0750    -0.4560    -1.1170 Br    1 <1>  -0.1110 
  2 C        1.8430    -1.0530    -0.6050 C.ar  1 <1>   0.1110 
  3 C        2.5970    -0.2540     0.2450 C.ar  1 <1>  -0.1440 
  4 C        2.3060    -2.2640    -1.1020 C.ar  1 <1>  -0.1440 
  5 C        3.8620    -0.6920     0.6050 C.ar  1 <1>  -0.1500 
  6 C        2.0630     1.0670     0.7790 C.3   1 <1>  -0.0960 
  7 C        3.5740    -2.6760    -0.7270 C.ar  1 <1>  -0.1500 
  8 C        1.4630    -3.1270    -2.0290 C.3   1 <1>  -0.0960 
  9 C        4.3550    -1.9010     0.1160 C.ar  1 <1>   0.0830 
 10 O        5.5850    -2.3880     0.4150 O.3   1 <1>  -0.3630 
 11 C        6.5240    -1.6140     1.1470 C.3   1 <1>   0.1810 
 12 C        7.8800    -2.3120     1.2340 C.2   1 <1>   0.5690 
 13 O        8.2360    -2.6790     2.3310 O.2   1 <1>  -0.5700 
 14 N        8.6800    -2.4780     0.1240 N.am  1 <1>  -0.6600 
 15 C        8.3020    -2.0550    -1.2510 C.3   1 <1>   0.1400 
 16 C        9.9990    -3.1550     0.2400 C.3   1 <1>   0.1400 
 17 C        8.8470    -0.6540    -1.5220 C.3   1 <1>  -0.2400 
 18 C        9.8340    -4.6470    -0.0390 C.3   1 <1>  -0.2400 
 19 H        4.4500    -0.0850     1.2660 H     1 <1>   0.1500 
 20 H        1.8400     1.7310    -0.0370 H     1 <1>   0.0800 
 21 H        2.7810     1.5460     1.4200 H     1 <1>   0.0800 
 22 H        1.1640     0.8980     1.3450 H     1 <1>   0.0800 
 23 H        3.9750    -3.6080    -1.0850 H     1 <1>   0.1500 
 24 H        1.2250    -2.5810    -2.9250 H     1 <1>   0.0800 
 25 H        0.5490    -3.4090    -1.5380 H     1 <1>   0.0800 
 26 H        1.9900    -4.0220    -2.3070 H     1 <1>   0.0800 
 27 H        6.1360    -1.4700     2.1380 H     1 <1>   0.0800 
 28 H        6.6410    -0.6650     0.6590 H     1 <1>   0.0800 
 29 H        7.2340    -2.0620    -1.3720 H     1 <1>   0.0800 
 30 H        8.7090    -2.7480    -1.9670 H     1 <1>   0.0800 
 31 H       10.3950    -3.0170     1.2330 H     1 <1>   0.0800 
 32 H       10.6970    -2.7210    -0.4550 H     1 <1>   0.0800 
 33 H        8.4410     0.0500    -0.8190 H     1 <1>   0.0800 
 34 H        8.5680    -0.3450    -2.5130 H     1 <1>   0.0800 
 35 H        9.9190    -0.6470    -1.4530 H     1 <1>   0.0800 
 36 H        9.1480    -5.0770     0.6700 H     1 <1>   0.0800 
 37 H       10.7820    -5.1410     0.0630 H     1 <1>   0.0800 
 38 H        9.4670    -4.8110    -1.0360 H     1 <1>   0.0800 
@<TRIPOS>BOND
  1   1   2  1   
  2   2   3  ar  
  3   2   4  ar  
  4   3   5  ar  
  5   3   6  1   
  6   4   7  ar  
  7   4   8  1   
  8   5   9  ar  
  9   5  19  1   
 10   6  20  1   
 11   6  21  1   
 12   6  22  1   
 13   7   9  ar  
 14   7  23  1   
 15   8  24  1   
 16   8  25  1   
 17   8  26  1   
 18   9  10  1   
 19  10  11  1   
 20  11  12  1   
 21  11  27  1   
 22  11  28  1   
 23  12  13  2   
 24  12  14  am  
 25  14  15  1   
 26  14  16  1   
 27  15  17  1   
 28  15  29  1   
 29  15  30  1   
 30  16  18  1   
 31  16  31  1   
 32  16  32  1   
 33  17  33  1   
 34  17  34  1   
 35  17  35  1   
 36  18  36  1   
 37  18  37  1   
 38  18  38  1   
@<TRIPOS>SUBSTRUCTURE
  1 ****  10 GROUP 4 **** **** 0

# MOE 2024.06 (io_trps.svl 2023.06)
