@<TRIPOS>MOLECULE
NONAME
40 41 1 0 0 
SMALL
USER_CHARGES


@<TRIPOS>ATOM
  1 O       -0.1810     0.0690    -0.3530 O.2   1 <1>  -0.5700 
  2 C       -0.7330    -0.9550     0.0050 C.2   1 <1>   0.6900 
  3 N       -2.0950    -0.9880     0.1710 N.am  1 <1>  -0.6600 
  4 N       -0.0260    -2.1040     0.2170 N.am  1 <1>  -0.5470 
  5 C       -2.9640     0.0680    -0.4150 C.3   1 <1>   0.1400 
  6 C       -2.8080    -1.9350     1.0700 C.3   1 <1>   0.1400 
  7 C        1.3510    -2.3710     0.2350 C.ar  1 <1>   0.1170 
  8 C       -4.1120    -0.5870    -1.1900 C.3   1 <1>  -0.1600 
  9 C       -3.9400    -2.6170     0.2960 C.3   1 <1>  -0.1600 
 10 C        1.8250    -3.6460    -0.1020 C.ar  1 <1>  -0.1430 
 11 C        2.2590    -1.3900     0.6170 C.ar  1 <1>  -0.1500 
 12 C       -4.8970    -1.5840    -0.3210 C.3   1 <1>  -0.0800 
 13 C        3.1920    -3.9170    -0.0330 C.ar  1 <1>  -0.1430 
 14 C        0.8240    -4.7170    -0.5440 C.3   1 <1>  -0.0970 
 15 C        3.6100    -1.6570     0.6730 C.ar  1 <1>  -0.1500 
 16 C       -5.9850    -2.2800    -1.1450 C.3   1 <1>  -0.2400 
 17 C        4.0730    -2.9180     0.3510 C.ar  1 <1>  -0.1500 
 18 C        3.7770    -5.2840    -0.3650 C.3   1 <1>  -0.0970 
 19 H       -0.6200    -2.9220     0.2200 H     1 <1>   0.3700 
 20 H       -2.3970     0.6980    -1.0800 H     1 <1>   0.0800 
 21 H       -3.3530     0.6820     0.3780 H     1 <1>   0.0800 
 22 H       -3.2190    -1.3800     1.8960 H     1 <1>   0.0800 
 23 H       -2.1370    -2.6730     1.4720 H     1 <1>   0.0800 
 24 H       -3.7000    -1.0920    -2.0470 H     1 <1>   0.0800 
 25 H       -4.7730     0.1810    -1.5500 H     1 <1>   0.0800 
 26 H       -4.4840    -3.2600     0.9650 H     1 <1>   0.0800 
 27 H       -3.5130    -3.2310    -0.4780 H     1 <1>   0.0800 
 28 H        1.9050    -0.4090     0.8770 H     1 <1>   0.1500 
 29 H       -5.3720    -1.0380     0.4780 H     1 <1>   0.0800 
 30 H        0.1270    -4.3050    -1.2520 H     1 <1>   0.0800 
 31 H        0.2840    -5.0830     0.3110 H     1 <1>   0.0800 
 32 H        1.2980    -5.5500    -1.0260 H     1 <1>   0.0800 
 33 H        4.2990    -0.8860     0.9680 H     1 <1>   0.1500 
 34 H       -5.5500    -2.8360    -1.9570 H     1 <1>   0.0800 
 35 H       -6.6650    -1.5530    -1.5540 H     1 <1>   0.0800 
 36 H       -6.5480    -2.9570    -0.5270 H     1 <1>   0.0800 
 37 H        5.1290    -3.1120     0.4030 H     1 <1>   0.1500 
 38 H        3.2870    -6.0470     0.2130 H     1 <1>   0.0800 
 39 H        4.8270    -5.3220    -0.1400 H     1 <1>   0.0800 
 40 H        3.6500    -5.4930    -1.4120 H     1 <1>   0.0800 
@<TRIPOS>BOND
  1   1   2  2   
  2   2   3  am  
  3   2   4  am  
  4   3   5  1   
  5   3   6  1   
  6   4   7  1   
  7   4  19  1   
  8   5   8  1   
  9   5  20  1   
 10   5  21  1   
 11   6   9  1   
 12   6  22  1   
 13   6  23  1   
 14   7  10  ar  
 15   7  11  ar  
 16   8  12  1   
 17   8  24  1   
 18   8  25  1   
 19   9  12  1   
 20   9  26  1   
 21   9  27  1   
 22  10  13  ar  
 23  10  14  1   
 24  11  15  ar  
 25  11  28  1   
 26  12  16  1   
 27  12  29  1   
 28  13  17  ar  
 29  13  18  1   
 30  14  30  1   
 31  14  31  1   
 32  14  32  1   
 33  15  17  ar  
 34  15  33  1   
 35  16  34  1   
 36  16  35  1   
 37  16  36  1   
 38  17  37  1   
 39  18  38  1   
 40  18  39  1   
 41  18  40  1   
@<TRIPOS>SUBSTRUCTURE
  1 ****   4 GROUP 4 **** **** 0

# MOE 2024.06 (io_trps.svl 2023.06)
