@<TRIPOS>MOLECULE
NONAME
41 42 1 0 0 
SMALL
USER_CHARGES


@<TRIPOS>ATOM
  1 O       -0.3690     0.3160    -0.6210 O.3   1 <1>  -0.3630 
  2 C        0.8550     0.7360    -0.1920 C.ar  1 <1>   0.0830 
  3 C       -1.5410     1.0260    -0.2750 C.3   1 <1>   0.1200 
  4 C        1.2450     2.0760    -0.0250 C.ar  1 <1>   0.0820 
  5 C        1.7560    -0.2790     0.0860 C.ar  1 <1>  -0.1500 
  6 C       -2.7270     0.0760    -0.3950 C.3   1 <1>   0.1200 
  7 O        0.3760     3.0800    -0.3410 O.3   1 <1>  -0.3630 
  8 C        2.5290     2.3490     0.4440 C.ar  1 <1>  -0.1500 
  9 C        3.0290     0.0060     0.5450 C.ar  1 <1>  -0.1500 
 10 O       -3.9020     0.7760    -0.0420 O.3   1 <1>  -0.3630 
 11 C        0.7610     4.4370    -0.3330 C.3   1 <1>   0.0400 
 12 C        3.4130     1.3210     0.7280 C.ar  1 <1>  -0.1500 
 13 C       -5.1130     0.1600    -0.0610 C.ar  1 <1>   0.0830 
 14 C       -5.3020    -1.1710    -0.4240 C.ar  1 <1>  -0.1500 
 15 C       -6.2060     0.9270     0.3080 C.ar  1 <1>  -0.1500 
 16 C       -6.5750    -1.7140    -0.4130 C.ar  1 <1>  -0.1500 
 17 C       -7.4790     0.3840     0.3190 C.ar  1 <1>  -0.1500 
 18 C       -7.6680    -0.9470    -0.0440 C.ar  1 <1>   0.0830 
 19 O       -8.8790    -1.5630    -0.0630 O.3   1 <1>  -0.3620 
 20 C      -10.0520    -0.8720     0.2940 C.3   1 <1>   0.1200 
 21 C      -11.2260    -1.8380     0.1670 C.3   1 <1>  -0.2400 
 22 H       -1.6520     1.8480    -0.9590 H     1 <1>   0.0800 
 23 H       -1.4410     1.3800     0.7350 H     1 <1>   0.0800 
 24 H        1.4520    -1.3000    -0.0570 H     1 <1>   0.1500 
 25 H       -2.6100    -0.7520     0.2810 H     1 <1>   0.0800 
 26 H       -2.8280    -0.2650    -1.4100 H     1 <1>   0.0800 
 27 H        2.8670     3.3550     0.5970 H     1 <1>   0.1500 
 28 H        3.7170    -0.7930     0.7600 H     1 <1>   0.1500 
 29 H       -0.0740     5.0220    -0.6730 H     1 <1>   0.0800 
 30 H        1.5940     4.5680    -1.0020 H     1 <1>   0.0800 
 31 H        1.0210     4.7220     0.6710 H     1 <1>   0.0800 
 32 H        4.4020     1.5460     1.0880 H     1 <1>   0.1500 
 33 H       -4.4800    -1.7960    -0.7160 H     1 <1>   0.1500 
 34 H       -6.0510     1.9530     0.5870 H     1 <1>   0.1500 
 35 H       -6.7310    -2.7410    -0.6920 H     1 <1>   0.1500 
 36 H       -8.3020     1.0080     0.6100 H     1 <1>   0.1500 
 37 H      -10.1730    -0.0370    -0.3750 H     1 <1>   0.0800 
 38 H       -9.9500    -0.5280     1.3090 H     1 <1>   0.0800 
 39 H      -11.3080    -2.1880    -0.8460 H     1 <1>   0.0800 
 40 H      -12.1400    -1.3390     0.4340 H     1 <1>   0.0800 
 41 H      -11.0870    -2.6760     0.8270 H     1 <1>   0.0800 
@<TRIPOS>BOND
  1   1   2  1   
  2   1   3  1   
  3   2   4  ar  
  4   2   5  ar  
  5   3   6  1   
  6   3  22  1   
  7   3  23  1   
  8   4   7  1   
  9   4   8  ar  
 10   5   9  ar  
 11   5  24  1   
 12   6  10  1   
 13   6  25  1   
 14   6  26  1   
 15   7  11  1   
 16   8  12  ar  
 17   8  27  1   
 18   9  12  ar  
 19   9  28  1   
 20  10  13  1   
 21  11  29  1   
 22  11  30  1   
 23  11  31  1   
 24  12  32  1   
 25  13  14  ar  
 26  13  15  ar  
 27  14  16  ar  
 28  14  33  1   
 29  15  17  ar  
 30  15  34  1   
 31  16  18  ar  
 32  16  35  1   
 33  17  18  ar  
 34  17  36  1   
 35  18  19  1   
 36  19  20  1   
 37  20  21  1   
 38  20  37  1   
 39  20  38  1   
 40  21  39  1   
 41  21  40  1   
 42  21  41  1   
@<TRIPOS>SUBSTRUCTURE
  1 ****   6 GROUP 4 **** **** 0

# MOE 2024.06 (io_trps.svl 2023.06)
