@<TRIPOS>MOLECULE
NONAME
36 37 1 0 0 
SMALL
USER_CHARGES


@<TRIPOS>ATOM
  1 S       -4.2470    -3.5730    -0.4950 S.3   1 <1>  -0.4600 
  2 C       -2.8080    -3.4080    -1.6240 C.3   1 <1>   0.2110 
  3 C       -4.6310    -5.3470    -0.4890 C.3   1 <1>   0.0700 
  4 C       -1.6680    -4.3320    -1.2240 C.2   1 <1>   0.5690 
  5 C       -2.2200    -2.0030    -1.4710 C.3   1 <1>  -0.0990 
  6 C       -5.9660    -5.5280     0.2360 C.3   1 <1>   0.3430 
  7 O       -1.7580    -5.5350    -1.2960 O.2   1 <1>  -0.5700 
  8 N       -0.5800    -3.6150    -0.8070 N.am  1 <1>  -0.2370 
  9 C       -0.8400    -2.2730    -0.9200 C.2   1 <1>   0.5690 
 10 N       -6.3190    -6.9710     0.3570 N.4   1 <1>  -0.8530 
 11 C        0.6300    -4.1710    -0.3280 C.ar  1 <1>   0.1170 
 12 O       -0.0930    -1.3750    -0.6360 O.2   1 <1>  -0.5700 
 13 C        1.2730    -5.1920    -1.0240 C.ar  1 <1>  -0.1500 
 14 C        1.2050    -3.7090     0.8540 C.ar  1 <1>  -0.1500 
 15 C        2.4560    -5.7350    -0.5570 C.ar  1 <1>  -0.1500 
 16 C        2.3890    -4.2470     1.3270 C.ar  1 <1>  -0.1500 
 17 C        3.0180    -5.2560     0.6150 C.ar  1 <1>   0.0820 
 18 O        4.1720    -5.7860     1.0750 O.3   1 <1>  -0.3620 
 19 C        5.3750    -5.1760     0.6520 C.3   1 <1>   1.3000 
 20 F        6.4130    -5.8140     1.1730 F     1 <1>  -0.3400 
 21 F        5.4420    -3.9100     1.0440 F     1 <1>  -0.3400 
 22 F        5.5010    -5.2130    -0.6690 F     1 <1>  -0.3400 
 23 H       -3.1430    -3.6070    -2.6260 H     1 <1>   0.0800 
 24 H       -3.8310    -5.8400     0.0350 H     1 <1>   0.0800 
 25 H       -4.6760    -5.6680    -1.5150 H     1 <1>   0.0800 
 26 H       -2.7780    -1.3880    -0.7890 H     1 <1>   0.0800 
 27 H       -2.1340    -1.5120    -2.4230 H     1 <1>   0.0800 
 28 H       -6.7360    -5.0040    -0.3080 H     1 <1>   0.0800 
 29 H       -5.8900    -5.0880     1.2180 H     1 <1>   0.0800 
 30 H       -6.4090    -7.4130    -0.5650 H     1 <1>   0.4500 
 31 H       -7.2140    -7.0880     0.8490 H     1 <1>   0.4500 
 32 H       -5.6030    -7.4830     0.8870 H     1 <1>   0.4500 
 33 H        0.8460    -5.5700    -1.9360 H     1 <1>   0.1500 
 34 H        0.7290    -2.9180     1.4070 H     1 <1>   0.1500 
 35 H        2.9410    -6.5270    -1.1000 H     1 <1>   0.1500 
 36 H        2.8210    -3.8830     2.2420 H     1 <1>   0.1500 
@<TRIPOS>BOND
  1   1   2  1   
  2   1   3  1   
  3   2   4  1   
  4   2   5  1   
  5   2  23  1   
  6   3   6  1   
  7   3  24  1   
  8   3  25  1   
  9   4   7  2   
 10   4   8  am  
 11   5   9  1   
 12   5  26  1   
 13   5  27  1   
 14   6  10  1   
 15   6  28  1   
 16   6  29  1   
 17   8   9  am  
 18   8  11  1   
 19   9  12  2   
 20  10  30  1   
 21  10  31  1   
 22  10  32  1   
 23  11  13  ar  
 24  11  14  ar  
 25  13  15  ar  
 26  13  33  1   
 27  14  16  ar  
 28  14  34  1   
 29  15  17  ar  
 30  15  35  1   
 31  16  17  ar  
 32  16  36  1   
 33  17  18  1   
 34  18  19  1   
 35  19  20  1   
 36  19  21  1   
 37  19  22  1   
@<TRIPOS>SUBSTRUCTURE
  1 ****  11 GROUP 4 **** **** 0

# MOE 2024.06 (io_trps.svl 2023.06)
