@<TRIPOS>MOLECULE
NONAME
40 42 1 0 0 
SMALL
USER_CHARGES


@<TRIPOS>ATOM
  1 CL       0.9420     1.5450     2.4750 Cl    1 <1>  -0.1770 
  2 C        1.9750     1.4820     1.0690 C.ar  1 <1>   0.1770 
  3 C        3.1880     0.8290     1.1510 C.ar  1 <1>  -0.1500 
  4 C        1.5590     2.0880    -0.1020 C.ar  1 <1>  -0.1500 
  5 C        4.0170     0.7720     0.0400 C.ar  1 <1>   0.1000 
  6 C        2.3820     2.0350    -1.2150 C.ar  1 <1>  -0.1500 
  7 N        5.2360     0.1130     0.1280 N.pl3 1 <1>  -0.8380 
  8 C        3.6010     1.3820    -1.1420 C.ar  1 <1>  -0.1500 
  9 C        6.4580     0.9690     0.1120 C.3   1 <1>   0.2090 
 10 C        5.3620    -1.1620    -0.6330 C.3   1 <1>   0.2090 
 11 C        7.6910     0.1640     0.5750 C.3   1 <1>   0.3430 
 12 C        6.6010    -1.9550    -0.1640 C.3   1 <1>   0.3430 
 13 N        7.8660    -1.1300    -0.1910 N.4   1 <1>  -0.9590 
 14 C        9.0360    -1.9050     0.3030 C.3   1 <1>   0.4860 
 15 C       10.2950    -1.0930     0.0630 C.ar  1 <1>  -0.1430 
 16 C       10.9290    -0.4610     1.1300 C.ar  1 <1>  -0.1500 
 17 C       10.8180    -0.9770    -1.2210 C.ar  1 <1>  -0.1500 
 18 C       12.0710     0.2920     0.9150 C.ar  1 <1>  -0.1500 
 19 C       11.9600    -0.2250    -1.4440 C.ar  1 <1>  -0.1500 
 20 C       12.5640     0.3980    -0.3700 C.ar  1 <1>   0.1900 
 21 F       13.6370     1.1100    -0.5770 F     1 <1>  -0.1900 
 22 H        3.4880     0.3660     2.0710 H     1 <1>   0.1500 
 23 H        0.6090     2.5900    -0.1380 H     1 <1>   0.1500 
 24 H        2.0710     2.5030    -2.1340 H     1 <1>   0.1500 
 25 H        4.2340     1.3460    -2.0080 H     1 <1>   0.1500 
 26 H        6.3110     1.8080     0.7720 H     1 <1>   0.0800 
 27 H        6.6210     1.3530    -0.8800 H     1 <1>   0.0800 
 28 H        5.4370    -0.9510    -1.6860 H     1 <1>   0.0800 
 29 H        4.4770    -1.7560    -0.4770 H     1 <1>   0.0800 
 30 H        7.5700    -0.0530     1.6240 H     1 <1>   0.0800 
 31 H        8.5690     0.7780     0.4650 H     1 <1>   0.0800 
 32 H        6.7150    -2.8270    -0.7870 H     1 <1>   0.0800 
 33 H        6.4130    -2.2910     0.8430 H     1 <1>   0.0800 
 34 H        8.0660    -0.8720    -1.1640 H     1 <1>   0.4500 
 35 H        9.1130    -2.8420    -0.2260 H     1 <1>   0.0800 
 36 H        8.9270    -2.1160     1.3550 H     1 <1>   0.0800 
 37 H       10.5500    -0.5500     2.1350 H     1 <1>   0.1500 
 38 H       10.3550    -1.4700    -2.0600 H     1 <1>   0.1500 
 39 H       12.5780     0.7890     1.7250 H     1 <1>   0.1500 
 40 H       12.3830    -0.1220    -2.4290 H     1 <1>   0.1500 
@<TRIPOS>BOND
  1   1   2  1   
  2   2   3  ar  
  3   2   4  ar  
  4   3   5  ar  
  5   3  22  1   
  6   4   6  ar  
  7   4  23  1   
  8   5   7  1   
  9   5   8  ar  
 10   6   8  ar  
 11   6  24  1   
 12   7   9  1   
 13   7  10  1   
 14   8  25  1   
 15   9  11  1   
 16   9  26  1   
 17   9  27  1   
 18  10  12  1   
 19  10  28  1   
 20  10  29  1   
 21  11  13  1   
 22  11  30  1   
 23  11  31  1   
 24  12  13  1   
 25  12  32  1   
 26  12  33  1   
 27  13  14  1   
 28  13  34  1   
 29  14  15  1   
 30  14  35  1   
 31  14  36  1   
 32  15  16  ar  
 33  15  17  ar  
 34  16  18  ar  
 35  16  37  1   
 36  17  19  ar  
 37  17  38  1   
 38  18  20  ar  
 39  18  39  1   
 40  19  20  ar  
 41  19  40  1   
 42  20  21  1   
@<TRIPOS>SUBSTRUCTURE
  1 ****  11 GROUP 4 **** **** 0

# MOE 2024.06 (io_trps.svl 2023.06)
