@<TRIPOS>MOLECULE
NONAME
54 57 1 0 0 
SMALL
USER_CHARGES


@<TRIPOS>ATOM
  1 O       -0.0650    -0.4330    -0.3540 O.2   1 <1>  -0.5700 
  2 C       -0.1630    -1.5920    -0.0240 C.2   1 <1>   0.4950 
  3 C        0.9490    -2.3880     0.4120 C.2   1 <1>   0.0290 
  4 C       -1.5630    -2.1710    -0.1210 C.3   1 <1>  -0.0990 
  5 C        0.6240    -3.6700     0.9770 C.2   1 <1>   0.4950 
  6 C        2.2200    -1.8440     0.2910 C.2   1 <1>  -0.0500 
  7 C       -1.5530    -3.6810    -0.3850 C.3   1 <1>   0.0000 
  8 O        1.3400    -4.2880     1.7300 O.2   1 <1>  -0.5700 
  9 C       -0.7150    -4.3440     0.7160 C.3   1 <1>  -0.0990 
 10 N        3.4910    -2.3400     0.4120 N.pl3 1 <1>  -0.8380 
 11 C       -2.9900    -4.2230    -0.3380 C.3   1 <1>  -0.2400 
 12 C       -0.9670    -3.9920    -1.7760 C.3   1 <1>  -0.2400 
 13 C        3.8520    -3.7950     0.5340 C.3   1 <1>   0.2090 
 14 C        4.6420    -1.3820     0.5170 C.3   1 <1>   0.2090 
 15 C        5.1210    -4.1760    -0.2560 C.3   1 <1>   0.3430 
 16 C        5.8610    -1.8240    -0.3150 C.3   1 <1>   0.3430 
 17 N        6.2720    -3.2410    -0.0120 N.4   1 <1>  -0.9590 
 18 C        7.4870    -3.6450    -0.7660 C.3   1 <1>   0.4860 
 19 C        8.6410    -2.7650    -0.3260 C.ar  1 <1>  -0.1430 
 20 C        9.0630    -1.7200    -1.1450 C.ar  1 <1>  -0.1500 
 21 C        9.2740    -2.9940     0.8980 C.ar  1 <1>  -0.1500 
 22 C       10.0990    -0.9250    -0.7010 C.ar  1 <1>   0.0830 
 23 C       10.3180    -2.1820     1.3220 C.ar  1 <1>  -0.1500 
 24 O       10.6510     0.1270    -1.3120 O.3   1 <1>  -0.3630 
 25 C       10.7100    -1.1470     0.4970 C.ar  1 <1>   0.0830 
 26 C       11.6960     0.5950    -0.4580 C.3   1 <1>   0.4000 
 27 O       11.6760    -0.2460     0.6950 O.3   1 <1>  -0.3620 
 28 H       -2.0760    -1.9550     0.8000 H     1 <1>   0.0800 
 29 H       -2.0940    -1.6690    -0.9110 H     1 <1>   0.0800 
 30 H        2.2160    -0.7910     0.0490 H     1 <1>   0.1500 
 31 H       -0.5430    -5.3770     0.4710 H     1 <1>   0.0800 
 32 H       -1.2610    -4.3270     1.6430 H     1 <1>   0.0800 
 33 H       -3.4480    -4.0210     0.6150 H     1 <1>   0.0800 
 34 H       -3.0000    -5.2870    -0.4960 H     1 <1>   0.0800 
 35 H       -3.5930    -3.7640    -1.1020 H     1 <1>   0.0800 
 36 H       -1.5470    -3.5070    -2.5430 H     1 <1>   0.0800 
 37 H       -0.9910    -5.0510    -1.9660 H     1 <1>   0.0800 
 38 H        0.0510    -3.6610    -1.8730 H     1 <1>   0.0800 
 39 H        3.9740    -4.0440     1.5750 H     1 <1>   0.0800 
 40 H        3.0560    -4.3970     0.1380 H     1 <1>   0.0800 
 41 H        4.3360    -0.4030     0.1910 H     1 <1>   0.0800 
 42 H        4.9300    -1.2980     1.5510 H     1 <1>   0.0800 
 43 H        4.8710    -4.1680    -1.3040 H     1 <1>   0.0800 
 44 H        5.4000    -5.1830     0.0070 H     1 <1>   0.0800 
 45 H        6.6780    -1.1510    -0.1110 H     1 <1>   0.0800 
 46 H        5.6100    -1.7320    -1.3590 H     1 <1>   0.0800 
 47 H        6.5080    -3.2720     0.9880 H     1 <1>   0.4500 
 48 H        7.7290    -4.6750    -0.5610 H     1 <1>   0.0800 
 49 H        7.3240    -3.5360    -1.8260 H     1 <1>   0.0800 
 50 H        8.6190    -1.5110    -2.1020 H     1 <1>   0.1500 
 51 H        8.9690    -3.8070     1.5350 H     1 <1>   0.1500 
 52 H       10.8210    -2.3410     2.2600 H     1 <1>   0.1500 
 53 H       12.6430     0.4980    -0.9580 H     1 <1>   0.0800 
 54 H       11.5000     1.6120    -0.1670 H     1 <1>   0.0800 
@<TRIPOS>BOND
  1   1   2  2   
  2   2   3  1   
  3   2   4  1   
  4   3   5  1   
  5   3   6  2   
  6   4   7  1   
  7   4  28  1   
  8   4  29  1   
  9   5   8  2   
 10   5   9  1   
 11   6  10  1   
 12   6  30  1   
 13   7   9  1   
 14   7  11  1   
 15   7  12  1   
 16   9  31  1   
 17   9  32  1   
 18  10  13  1   
 19  10  14  1   
 20  11  33  1   
 21  11  34  1   
 22  11  35  1   
 23  12  36  1   
 24  12  37  1   
 25  12  38  1   
 26  13  15  1   
 27  13  39  1   
 28  13  40  1   
 29  14  16  1   
 30  14  41  1   
 31  14  42  1   
 32  15  17  1   
 33  15  43  1   
 34  15  44  1   
 35  16  17  1   
 36  16  45  1   
 37  16  46  1   
 38  17  18  1   
 39  17  47  1   
 40  18  19  1   
 41  18  48  1   
 42  18  49  1   
 43  19  20  ar  
 44  19  21  ar  
 45  20  22  ar  
 46  20  50  1   
 47  21  23  ar  
 48  21  51  1   
 49  22  24  1   
 50  22  25  ar  
 51  23  25  ar  
 52  23  52  1   
 53  24  26  1   
 54  25  27  1   
 55  26  27  1   
 56  26  53  1   
 57  26  54  1   
@<TRIPOS>SUBSTRUCTURE
  1 ****  14 GROUP 4 **** **** 0

# MOE 2024.06 (io_trps.svl 2023.06)
