@<TRIPOS>MOLECULE
NONAME
47 48 1 0 0 
SMALL
USER_CHARGES


@<TRIPOS>ATOM
  1 O       -0.1260    -0.1920    -0.3900 O.3   1 <1>  -0.3630 
  2 C       -1.3480    -0.7780    -0.3160 C.ar  1 <1>   0.0830 
  3 C        1.0480    -0.9100    -0.0970 C.3   1 <1>   0.1200 
  4 C       -1.5510    -2.1080     0.0470 C.ar  1 <1>  -0.1500 
  5 C       -2.4390     0.0170    -0.6270 C.ar  1 <1>  -0.1500 
  6 C        2.2340     0.0390    -0.2770 C.3   1 <1>  -0.1600 
  7 C       -2.8340    -2.6310     0.0990 C.ar  1 <1>  -0.1440 
  8 C       -3.7200    -0.5020    -0.5780 C.ar  1 <1>  -0.1500 
  9 C        3.5670    -0.6600     0.0240 C.3   1 <1>  -0.1600 
 10 C       -3.9150    -1.8240    -0.2160 C.ar  1 <1>  -0.1500 
 11 C       -3.0570    -4.0800     0.4940 C.3   1 <1>  -0.0970 
 12 C        4.7450     0.3070    -0.1640 C.3   1 <1>  -0.1600 
 13 C        6.0760    -0.3880     0.1320 C.3   1 <1>   0.3430 
 14 N        7.2170     0.5200    -0.1650 N.4   1 <1>  -0.9590 
 15 C        8.4870    -0.2570    -0.2630 C.3   1 <1>   0.3430 
 16 C        7.3360     1.6310     0.8290 C.3   1 <1>   0.3430 
 17 C        9.6230     0.6620    -0.7170 C.3   1 <1>  -0.1600 
 18 C        8.4470     2.5910     0.4010 C.3   1 <1>  -0.1600 
 19 C        9.7870     1.8660     0.2200 C.3   1 <1>  -0.1600 
 20 H        1.1140    -1.7420    -0.7770 H     1 <1>   0.0800 
 21 H        0.9850    -1.2590     0.9200 H     1 <1>   0.0800 
 22 H       -0.7240    -2.7450     0.2910 H     1 <1>   0.1500 
 23 H       -2.2770     1.0420    -0.9060 H     1 <1>   0.1500 
 24 H        2.1060     0.8780     0.3850 H     1 <1>   0.0800 
 25 H        2.2340     0.3990    -1.2920 H     1 <1>   0.0800 
 26 H       -4.5620     0.1210    -0.8210 H     1 <1>   0.1500 
 27 H        3.6790    -1.5050    -0.6360 H     1 <1>   0.0800 
 28 H        3.5530    -1.0250     1.0380 H     1 <1>   0.0800 
 29 H       -4.9150    -2.2210    -0.1810 H     1 <1>   0.1500 
 30 H       -2.2620    -4.4260     1.1290 H     1 <1>   0.0800 
 31 H       -3.0910    -4.6950    -0.3870 H     1 <1>   0.0800 
 32 H       -3.9860    -4.1840     1.0260 H     1 <1>   0.0800 
 33 H        4.6070     1.1450     0.4970 H     1 <1>   0.0800 
 34 H        4.7420     0.6620    -1.1810 H     1 <1>   0.0800 
 35 H        6.1470    -1.2690    -0.4860 H     1 <1>   0.0800 
 36 H        6.1070    -0.7000     1.1640 H     1 <1>   0.0800 
 37 H        7.0550     0.9490    -1.0850 H     1 <1>   0.4500 
 38 H        8.3750    -1.0630    -0.9710 H     1 <1>   0.0800 
 39 H        8.7310    -0.6810     0.6980 H     1 <1>   0.0800 
 40 H        7.5640     1.2270     1.8020 H     1 <1>   0.0800 
 41 H        6.4070     2.1740     0.8970 H     1 <1>   0.0800 
 42 H        9.4310     1.0000    -1.7200 H     1 <1>   0.0800 
 43 H       10.5420     0.1010    -0.7380 H     1 <1>   0.0800 
 44 H        8.5570     3.3570     1.1490 H     1 <1>   0.0800 
 45 H        8.1650     3.0780    -0.5160 H     1 <1>   0.0800 
 46 H       10.5200     2.5460    -0.1820 H     1 <1>   0.0800 
 47 H       10.1460     1.5290     1.1790 H     1 <1>   0.0800 
@<TRIPOS>BOND
  1   1   2  1   
  2   1   3  1   
  3   2   4  ar  
  4   2   5  ar  
  5   3   6  1   
  6   3  20  1   
  7   3  21  1   
  8   4   7  ar  
  9   4  22  1   
 10   5   8  ar  
 11   5  23  1   
 12   6   9  1   
 13   6  24  1   
 14   6  25  1   
 15   7  10  ar  
 16   7  11  1   
 17   8  10  ar  
 18   8  26  1   
 19   9  12  1   
 20   9  27  1   
 21   9  28  1   
 22  10  29  1   
 23  11  30  1   
 24  11  31  1   
 25  11  32  1   
 26  12  13  1   
 27  12  33  1   
 28  12  34  1   
 29  13  14  1   
 30  13  35  1   
 31  13  36  1   
 32  14  15  1   
 33  14  16  1   
 34  14  37  1   
 35  15  17  1   
 36  15  38  1   
 37  15  39  1   
 38  16  18  1   
 39  16  40  1   
 40  16  41  1   
 41  17  19  1   
 42  17  42  1   
 43  17  43  1   
 44  18  19  1   
 45  18  44  1   
 46  18  45  1   
 47  19  46  1   
 48  19  47  1   
@<TRIPOS>SUBSTRUCTURE
  1 ****   6 GROUP 4 **** **** 0

# MOE 2024.06 (io_trps.svl 2023.06)
