@<TRIPOS>MOLECULE
NONAME
34 35 1 0 0 
SMALL
USER_CHARGES


@<TRIPOS>ATOM
  1 S        0.6720     0.1470    -1.2600 S.o2  1 <1>   1.3330 
  2 O        1.9550     0.2030    -1.9220 O.2   1 <1>  -0.6500 
  3 O        0.5320    -0.5870    -0.0300 O.2   1 <1>  -0.6500 
  4 N        0.2180     1.7900    -0.9580 N.am  1 <1>  -0.6930 
  5 C       -0.5590    -0.3770    -2.4330 C.3   1 <1>  -0.1350 
  6 C       -0.9130     2.0900    -0.2110 C.ar  1 <1>   0.1990 
  7 C        1.3210     2.8040    -0.9570 C.3   1 <1>   0.2570 
  8 C       -2.0290     2.6300    -0.8340 C.ar  1 <1>  -0.1500 
  9 C       -0.9490     1.8690     1.1650 C.ar  1 <1>  -0.1500 
 10 C        2.3130     2.6610     0.2020 C.2   1 <1>   0.5690 
 11 C       -3.1420     2.9230    -0.0740 C.ar  1 <1>   0.1900 
 12 C       -2.0760     2.1720     1.9120 C.ar  1 <1>  -0.1500 
 13 O        2.2770     3.4720     1.0980 O.2   1 <1>  -0.5700 
 14 N        3.2070     1.6350     0.1850 N.am  1 <1>  -0.5790 
 15 F       -4.1910     3.4270    -0.6680 F     1 <1>  -0.1900 
 16 C       -3.1920     2.7060     1.2900 C.ar  1 <1>  -0.1500 
 17 C        4.1500     1.2930     1.2550 C.3   1 <1>   0.0490 
 18 C        5.3390     0.4660     0.9000 C.3   1 <1>  -0.2000 
 19 C        4.2110    -0.1340     1.6850 C.3   1 <1>  -0.2000 
 20 H       -0.3740    -1.3910    -2.7290 H     1 <1>   0.0800 
 21 H       -0.5320     0.2470    -3.3040 H     1 <1>   0.0800 
 22 H       -1.5350    -0.3210    -1.9940 H     1 <1>   0.0800 
 23 H        0.8880     3.7870    -0.9010 H     1 <1>   0.0800 
 24 H        1.8620     2.7450    -1.8840 H     1 <1>   0.0800 
 25 H       -2.0290     2.8190    -1.8900 H     1 <1>   0.1500 
 26 H       -0.0820     1.4550     1.6510 H     1 <1>   0.1500 
 27 H       -2.0810     1.9920     2.9740 H     1 <1>   0.1500 
 28 H        3.1450     0.9410    -0.5730 H     1 <1>   0.3700 
 29 H       -4.0790     2.9490     1.8470 H     1 <1>   0.1500 
 30 H        4.2480     2.0640     2.0040 H     1 <1>   0.1000 
 31 H        6.2680     0.6530     1.4090 H     1 <1>   0.1000 
 32 H        5.4790     0.1650    -0.1230 H     1 <1>   0.1000 
 33 H        3.5490    -0.8390     1.2110 H     1 <1>   0.1000 
 34 H        4.3700    -0.3500     2.7260 H     1 <1>   0.1000 
@<TRIPOS>BOND
  1   1   2  2   
  2   1   3  2   
  3   1   4  am  
  4   1   5  1   
  5   4   6  1   
  6   4   7  1   
  7   5  20  1   
  8   5  21  1   
  9   5  22  1   
 10   6   8  ar  
 11   6   9  ar  
 12   7  10  1   
 13   7  23  1   
 14   7  24  1   
 15   8  11  ar  
 16   8  25  1   
 17   9  12  ar  
 18   9  26  1   
 19  10  13  2   
 20  10  14  am  
 21  11  15  1   
 22  11  16  ar  
 23  12  16  ar  
 24  12  27  1   
 25  14  17  1   
 26  14  28  1   
 27  16  29  1   
 28  17  18  1   
 29  17  19  1   
 30  17  30  1   
 31  18  19  1   
 32  18  31  1   
 33  18  32  1   
 34  19  33  1   
 35  19  34  1   
@<TRIPOS>SUBSTRUCTURE
  1 ****   4 GROUP 4 **** **** 0

# MOE 2024.06 (io_trps.svl 2023.06)
