@<TRIPOS>MOLECULE
NONAME
50 52 1 0 0 
SMALL
USER_CHARGES


@<TRIPOS>ATOM
  1 O        1.1650    -0.3200    -0.4190 O.3   1 <1>  -0.5600 
  2 C        0.0390    -0.3180     0.4030 C.3   1 <1>   0.1200 
  3 C        2.1870    -1.1550     0.0210 C.3   1 <1>   0.1200 
  4 C       -0.9680     0.6840    -0.1590 C.3   1 <1>   0.1200 
  5 C        3.3690    -0.9960    -0.9400 C.3   1 <1>   0.1100 
  6 O       -2.1350     0.6350     0.5910 O.3   1 <1>  -0.6800 
  7 N        4.5160    -1.8480    -0.5540 N.3   1 <1>  -0.8100 
  8 C        4.3020    -3.2740    -0.9080 C.3   1 <1>   0.1100 
  9 C        5.7620    -1.3480    -1.1880 C.3   1 <1>   0.1100 
 10 C        5.5020    -4.1680    -0.5070 C.3   1 <1>   0.3430 
 11 C        6.9940    -2.2300    -0.8680 C.3   1 <1>   0.3430 
 12 N        6.6260    -3.3550     0.0570 N.4   1 <1>  -0.9590 
 13 C        7.7780    -4.1620     0.5420 C.3   1 <1>   0.4860 
 14 C        8.7900    -3.2390     1.1950 C.ar  1 <1>  -0.1440 
 15 C        9.9030    -2.7520     0.4610 C.ar  1 <1>   0.0000 
 16 C        8.5930    -2.8720     2.5020 C.ar  1 <1>  -0.1500 
 17 C       10.7760    -1.8410     1.1010 C.ar  1 <1>   0.0000 
 18 C       10.1990    -3.1120    -0.8770 C.ar  1 <1>  -0.1500 
 19 C        9.4760    -1.9910     3.1320 C.ar  1 <1>  -0.1500 
 20 C       10.5380    -1.4860     2.4420 C.ar  1 <1>  -0.1500 
 21 C       11.8660    -1.3090     0.3840 C.ar  1 <1>  -0.1500 
 22 C       11.2670    -2.5830    -1.5470 C.ar  1 <1>  -0.1500 
 23 C       12.1080    -1.6660    -0.9120 C.ar  1 <1>  -0.1500 
 24 H        0.3340    -0.0230     1.3960 H     1 <1>   0.0800 
 25 H       -0.3790    -1.3090     0.4110 H     1 <1>   0.0800 
 26 H        1.8200    -2.1650     0.0220 H     1 <1>   0.0800 
 27 H        2.4760    -0.8560     1.0140 H     1 <1>   0.0800 
 28 H       -1.2120     0.4540    -1.1820 H     1 <1>   0.0800 
 29 H       -0.5740     1.6840    -0.0930 H     1 <1>   0.0800 
 30 H        3.6680     0.0390    -0.9080 H     1 <1>   0.0800 
 31 H        3.0540    -1.2270    -1.9430 H     1 <1>   0.0800 
 32 H       -2.6220    -0.1950     0.4210 H     1 <1>   0.4000 
 33 H        4.1370    -3.3640    -1.9690 H     1 <1>   0.0800 
 34 H        3.4210    -3.6440    -0.4140 H     1 <1>   0.0800 
 35 H        5.9590    -0.3480    -0.8390 H     1 <1>   0.0800 
 36 H        5.6370    -1.2950    -2.2560 H     1 <1>   0.0800 
 37 H        5.8380    -4.7150    -1.3720 H     1 <1>   0.0800 
 38 H        5.1680    -4.8850     0.2250 H     1 <1>   0.0800 
 39 H        7.7510    -1.6090    -0.4160 H     1 <1>   0.0800 
 40 H        7.3990    -2.6210    -1.7860 H     1 <1>   0.0800 
 41 H        6.2130    -2.8580     0.8600 H     1 <1>   0.4500 
 42 H        8.2290    -4.7060    -0.2690 H     1 <1>   0.0800 
 43 H        7.4370    -4.8770     1.2720 H     1 <1>   0.0800 
 44 H        7.7620    -3.2420     3.0780 H     1 <1>   0.1500 
 45 H        9.5860    -3.8220    -1.3960 H     1 <1>   0.1500 
 46 H        9.3060    -1.7180     4.1600 H     1 <1>   0.1500 
 47 H       11.2190    -0.8030     2.9200 H     1 <1>   0.1500 
 48 H       12.5150    -0.6090     0.8810 H     1 <1>   0.1500 
 49 H       11.4830    -2.8620    -2.5640 H     1 <1>   0.1500 
 50 H       12.9440    -1.2560    -1.4530 H     1 <1>   0.1500 
@<TRIPOS>BOND
  1   1   2  1   
  2   1   3  1   
  3   2   4  1   
  4   2  24  1   
  5   2  25  1   
  6   3   5  1   
  7   3  26  1   
  8   3  27  1   
  9   4   6  1   
 10   4  28  1   
 11   4  29  1   
 12   5   7  1   
 13   5  30  1   
 14   5  31  1   
 15   6  32  1   
 16   7   8  1   
 17   7   9  1   
 18   8  10  1   
 19   8  33  1   
 20   8  34  1   
 21   9  11  1   
 22   9  35  1   
 23   9  36  1   
 24  10  12  1   
 25  10  37  1   
 26  10  38  1   
 27  11  12  1   
 28  11  39  1   
 29  11  40  1   
 30  12  13  1   
 31  12  41  1   
 32  13  14  1   
 33  13  42  1   
 34  13  43  1   
 35  14  15  ar  
 36  14  16  ar  
 37  15  17  ar  
 38  15  18  ar  
 39  16  19  ar  
 40  16  44  1   
 41  17  20  ar  
 42  17  21  ar  
 43  18  22  ar  
 44  18  45  1   
 45  19  20  ar  
 46  19  46  1   
 47  20  47  1   
 48  21  23  ar  
 49  21  48  1   
 50  22  23  ar  
 51  22  49  1   
 52  23  50  1   
@<TRIPOS>SUBSTRUCTURE
  1 ****  11 GROUP 4 **** **** 0

# MOE 2024.06 (io_trps.svl 2023.06)
