@<TRIPOS>MOLECULE
NONAME
39 41 1 0 0 
SMALL
USER_CHARGES


@<TRIPOS>ATOM
  1 N        0.0930    -0.0680     0.6530 N.3   1 <1>  -0.8100 
  2 C        0.4170     0.3130    -0.7480 C.3   1 <1>   0.1100 
  3 C       -1.2580    -0.6680     0.7350 C.3   1 <1>   0.1100 
  4 C        1.1220    -0.9350     1.2670 C.3   1 <1>   0.2540 
  5 C       -0.6730     1.2050    -1.3890 C.3   1 <1>   0.3430 
  6 C       -2.3500     0.2700     0.1590 C.3   1 <1>   0.3430 
  7 C        2.4820    -0.2440     1.2580 C.ar  1 <1>  -0.1440 
  8 N       -1.7500     1.5300    -0.3970 N.4   1 <1>  -0.9590 
  9 C        3.4770    -0.5410     0.2850 C.ar  1 <1>   0.0000 
 10 C        2.7170     0.6990     2.2250 C.ar  1 <1>  -0.1500 
 11 C       -2.7580     2.5010    -0.9080 C.3   1 <1>   0.2630 
 12 C        4.6970     0.1750     0.3370 C.ar  1 <1>   0.0000 
 13 C        3.3340    -1.5030    -0.7450 C.ar  1 <1>  -0.1500 
 14 C        3.9290     1.3900     2.2780 C.ar  1 <1>  -0.1500 
 15 C        4.8950     1.1320     1.3500 C.ar  1 <1>  -0.1500 
 16 C        5.6930    -0.0800    -0.6270 C.ar  1 <1>  -0.1500 
 17 C        4.3180    -1.7320    -1.6660 C.ar  1 <1>  -0.1500 
 18 C        5.5130    -1.0110    -1.6100 C.ar  1 <1>  -0.1500 
 19 H        0.5510    -0.5690    -1.3510 H     1 <1>   0.0800 
 20 H        1.3440     0.8600    -0.7690 H     1 <1>   0.0800 
 21 H       -1.4930    -0.8800     1.7640 H     1 <1>   0.0800 
 22 H       -1.2770    -1.6020     0.2000 H     1 <1>   0.0800 
 23 H        1.1550    -1.8910     0.7790 H     1 <1>   0.0800 
 24 H        0.8490    -1.1190     2.2920 H     1 <1>   0.0800 
 25 H       -1.0960     0.6940    -2.2380 H     1 <1>   0.0800 
 26 H       -0.2140     2.1120    -1.7460 H     1 <1>   0.0800 
 27 H       -3.0470     0.5150     0.9430 H     1 <1>   0.0800 
 28 H       -2.8930    -0.2510    -0.6110 H     1 <1>   0.0800 
 29 H       -1.2250     1.9250     0.4020 H     1 <1>   0.4500 
 30 H        1.9680     0.9300     2.9630 H     1 <1>   0.1500 
 31 H       -3.2950     2.0800    -1.7420 H     1 <1>   0.0800 
 32 H       -2.2720     3.4070    -1.2310 H     1 <1>   0.0800 
 33 H       -3.4640     2.7490    -0.1320 H     1 <1>   0.0800 
 34 H        2.4350    -2.0800    -0.8180 H     1 <1>   0.1500 
 35 H        4.0840     2.1220     3.0520 H     1 <1>   0.1500 
 36 H        5.8300     1.6610     1.3810 H     1 <1>   0.1500 
 37 H        6.6110     0.4780    -0.5740 H     1 <1>   0.1500 
 38 H        4.1930    -2.4680    -2.4420 H     1 <1>   0.1500 
 39 H        6.2780    -1.2010    -2.3420 H     1 <1>   0.1500 
@<TRIPOS>BOND
  1   1   2  1   
  2   1   3  1   
  3   1   4  1   
  4   2   5  1   
  5   2  19  1   
  6   2  20  1   
  7   3   6  1   
  8   3  21  1   
  9   3  22  1   
 10   4   7  1   
 11   4  23  1   
 12   4  24  1   
 13   5   8  1   
 14   5  25  1   
 15   5  26  1   
 16   6   8  1   
 17   6  27  1   
 18   6  28  1   
 19   7   9  ar  
 20   7  10  ar  
 21   8  11  1   
 22   8  29  1   
 23   9  12  ar  
 24   9  13  ar  
 25  10  14  ar  
 26  10  30  1   
 27  11  31  1   
 28  11  32  1   
 29  11  33  1   
 30  12  15  ar  
 31  12  16  ar  
 32  13  17  ar  
 33  13  34  1   
 34  14  15  ar  
 35  14  35  1   
 36  15  36  1   
 37  16  18  ar  
 38  16  37  1   
 39  17  18  ar  
 40  17  38  1   
 41  18  39  1   
@<TRIPOS>SUBSTRUCTURE
  1 ****   7 GROUP 4 **** **** 0

# MOE 2024.06 (io_trps.svl 2023.06)
