@<TRIPOS>MOLECULE
NONAME
38 40 1 0 0 
SMALL
USER_CHARGES


@<TRIPOS>ATOM
  1 F        0.5550    -0.0500    -0.8960 F     1 <1>  -0.1900 
  2 C        1.6570    -0.6990    -0.6360 C.ar  1 <1>   0.1900 
  3 C        2.8490    -0.0340    -0.6380 C.ar  1 <1>  -0.1500 
  4 C        1.5640    -2.0620    -0.3630 C.ar  1 <1>  -0.1500 
  5 C        4.0380    -0.7240    -0.3590 C.ar  1 <1>   0.3100 
  6 C        2.7130    -2.7550    -0.0880 C.ar  1 <1>  -0.1500 
  7 N        5.1890    -0.0150    -0.3790 N.ar  1 <1>  -0.6200 
  8 C        3.9730    -2.1130    -0.0770 C.ar  1 <1>   0.0000 
  9 C        6.2950    -0.6560    -0.1240 C.ar  1 <1>   0.4100 
 10 C        5.1900    -2.7760     0.2040 C.ar  1 <1>  -0.1440 
 11 N        7.4830     0.0460    -0.1610 N.pl3 1 <1>  -0.8380 
 12 C        6.3280    -2.0310     0.1760 C.ar  1 <1>  -0.1500 
 13 C        5.2390    -4.2610     0.5310 C.3   1 <1>  -0.0970 
 14 C        7.4880     1.4770     0.2390 C.3   1 <1>   0.2090 
 15 C        8.5220    -0.3740    -1.1330 C.3   1 <1>   0.2090 
 16 C        8.7790     1.8590     0.9730 C.3   1 <1>  -0.1600 
 17 C        9.8280    -0.6580    -0.3870 C.3   1 <1>  -0.1600 
 18 C       10.0120     1.9170     0.0560 C.3   1 <1>  -0.1600 
 19 C       10.7260     0.5700    -0.1480 C.3   1 <1>  -0.1600 
 20 H        2.9010     1.0160    -0.8510 H     1 <1>   0.1500 
 21 H        0.5990    -2.5360    -0.3740 H     1 <1>   0.1500 
 22 H        2.6550    -3.8070     0.1250 H     1 <1>   0.1500 
 23 H        7.2870    -2.4590     0.3900 H     1 <1>   0.1500 
 24 H        4.8530    -4.8340    -0.2930 H     1 <1>   0.0800 
 25 H        4.6530    -4.4640     1.4100 H     1 <1>   0.0800 
 26 H        6.2500    -4.5770     0.7190 H     1 <1>   0.0800 
 27 H        6.6570     1.6580     0.9000 H     1 <1>   0.0800 
 28 H        7.3510     2.0930    -0.6330 H     1 <1>   0.0800 
 29 H        8.6620     0.3840    -1.8840 H     1 <1>   0.0800 
 30 H        8.1980    -1.2710    -1.6330 H     1 <1>   0.0800 
 31 H        8.9430     1.1890     1.7980 H     1 <1>   0.0800 
 32 H        8.6270     2.8400     1.3840 H     1 <1>   0.0800 
 33 H       10.3940    -1.3770    -0.9520 H     1 <1>   0.0800 
 34 H        9.5880    -1.1190     0.5560 H     1 <1>   0.0800 
 35 H       10.7240     2.6030     0.4810 H     1 <1>   0.0800 
 36 H        9.7240     2.3220    -0.8990 H     1 <1>   0.0800 
 37 H       11.3930     0.6770    -0.9860 H     1 <1>   0.0800 
 38 H       11.3380     0.3690     0.7150 H     1 <1>   0.0800 
@<TRIPOS>BOND
  1   1   2  1   
  2   2   3  ar  
  3   2   4  ar  
  4   3   5  ar  
  5   3  20  1   
  6   4   6  ar  
  7   4  21  1   
  8   5   7  ar  
  9   5   8  ar  
 10   6   8  ar  
 11   6  22  1   
 12   7   9  ar  
 13   8  10  ar  
 14   9  11  1   
 15   9  12  ar  
 16  10  12  ar  
 17  10  13  1   
 18  11  14  1   
 19  11  15  1   
 20  12  23  1   
 21  13  24  1   
 22  13  25  1   
 23  13  26  1   
 24  14  16  1   
 25  14  27  1   
 26  14  28  1   
 27  15  17  1   
 28  15  29  1   
 29  15  30  1   
 30  16  18  1   
 31  16  31  1   
 32  16  32  1   
 33  17  19  1   
 34  17  33  1   
 35  17  34  1   
 36  18  19  1   
 37  18  35  1   
 38  18  36  1   
 39  19  37  1   
 40  19  38  1   
@<TRIPOS>SUBSTRUCTURE
  1 ****   9 GROUP 4 **** **** 0

# MOE 2024.06 (io_trps.svl 2023.06)
