@<TRIPOS>MOLECULE
NONAME
43 44 1 0 0 
SMALL
USER_CHARGES


@<TRIPOS>ATOM
  1 N       -0.2630    -0.0670    -0.9960 N.ar  1 <1>  -0.6200 
  2 C        0.0400    -0.9990    -0.1050 C.ar  1 <1>   0.9310 
  3 C       -1.5440     0.0740    -1.2460 C.ar  1 <1>   0.1660 
  4 N       -0.7750    -1.7930     0.5540 N.ar  1 <1>  -0.6200 
  5 N        1.3280    -1.2220     0.2220 N.pl3 1 <1>  -0.8280 
  6 C       -2.4900    -0.7010    -0.6160 C.ar  1 <1>  -0.1500 
  7 C       -1.9440     1.1280    -2.2580 C.3   1 <1>  -0.0970 
  8 C       -2.0510    -1.6380     0.2910 C.ar  1 <1>   0.1670 
  9 C        2.4540    -0.6930    -0.1630 C.cat 1 <1>   1.2000 
 10 C       -3.0260    -2.5330     1.0290 C.3   1 <1>  -0.0970 
 11 N        2.4950     0.2570    -1.0410 N.pl3 1 <1>  -0.9670 
 12 N        3.5600    -1.1510     0.3680 N.pl3 1 <1>  -0.8440 
 13 C        4.9600    -0.7560     0.1200 C.3   1 <1>   0.2480 
 14 C        5.7440    -2.0050    -0.3020 C.3   1 <1>  -0.1600 
 15 C        5.4820    -0.0790     1.3950 C.3   1 <1>  -0.1600 
 16 C        6.9200    -1.6620    -1.2310 C.3   1 <1>  -0.1600 
 17 C        7.0090     0.0430     1.5300 C.3   1 <1>  -0.1600 
 18 C        8.1050    -0.9680    -0.5460 C.3   1 <1>  -0.1600 
 19 C        7.7600     0.3190     0.2190 C.3   1 <1>  -0.1600 
 20 H        1.3540    -1.9590     0.9050 H     1 <1>   0.4500 
 21 H       -3.5370    -0.5800    -0.8260 H     1 <1>   0.1500 
 22 H       -1.6140     2.0960    -1.9280 H     1 <1>   0.0800 
 23 H       -3.0110     1.1550    -2.3860 H     1 <1>   0.0800 
 24 H       -1.4900     0.9120    -3.2080 H     1 <1>   0.0800 
 25 H       -2.8110    -3.5630     0.8090 H     1 <1>   0.0800 
 26 H       -4.0400    -2.3240     0.7410 H     1 <1>   0.0800 
 27 H       -2.9300    -2.3790     2.0890 H     1 <1>   0.0800 
 28 H        3.3480     0.6970    -1.3630 H     1 <1>   0.4500 
 29 H        1.6120     0.5930    -1.4360 H     1 <1>   0.4500 
 30 H        3.4900    -1.8900     1.0590 H     1 <1>   0.4500 
 31 H        5.0040    -0.0440    -0.6870 H     1 <1>   0.0800 
 32 H        5.0930    -2.6590    -0.8570 H     1 <1>   0.0800 
 33 H        6.0990    -2.5460     0.5580 H     1 <1>   0.0800 
 34 H        5.1280    -0.6080     2.2620 H     1 <1>   0.0800 
 35 H        5.0660     0.9130     1.4300 H     1 <1>   0.0800 
 36 H        6.5730    -1.0500    -2.0460 H     1 <1>   0.0800 
 37 H        7.2850    -2.5780    -1.6660 H     1 <1>   0.0800 
 38 H        7.4030    -0.8530     1.9800 H     1 <1>   0.0800 
 39 H        7.2160     0.8450     2.2190 H     1 <1>   0.0800 
 40 H        8.8280    -0.7240    -1.3060 H     1 <1>   0.0800 
 41 H        8.5850    -1.6630     0.1230 H     1 <1>   0.0800 
 42 H        8.6920     0.7970     0.4730 H     1 <1>   0.0800 
 43 H        7.2170     1.0080    -0.4050 H     1 <1>   0.0800 
@<TRIPOS>BOND
  1   1   2  ar  
  2   1   3  ar  
  3   2   4  ar  
  4   2   5  1   
  5   3   6  ar  
  6   3   7  1   
  7   4   8  ar  
  8   5   9  ar  
  9   5  20  1   
 10   6   8  ar  
 11   6  21  1   
 12   7  22  1   
 13   7  23  1   
 14   7  24  1   
 15   8  10  1   
 16   9  11  ar  
 17   9  12  ar  
 18  10  25  1   
 19  10  26  1   
 20  10  27  1   
 21  11  28  1   
 22  11  29  1   
 23  12  13  1   
 24  12  30  1   
 25  13  14  1   
 26  13  15  1   
 27  13  31  1   
 28  14  16  1   
 29  14  32  1   
 30  14  33  1   
 31  15  17  1   
 32  15  34  1   
 33  15  35  1   
 34  16  18  1   
 35  16  36  1   
 36  16  37  1   
 37  17  19  1   
 38  17  38  1   
 39  17  39  1   
 40  18  19  1   
 41  18  40  1   
 42  18  41  1   
 43  19  42  1   
 44  19  43  1   
@<TRIPOS>SUBSTRUCTURE
  1 ****   9 GROUP 4 **** **** 0

# MOE 2024.06 (io_trps.svl 2023.06)
