@<TRIPOS>MOLECULE
NONAME
40 40 1 0 0 
SMALL
USER_CHARGES


@<TRIPOS>ATOM
  1 CL       0.3040     0.3940     0.4370 Cl    1 <1>  -0.1770 
  2 C        1.9610     0.9610     0.3510 C.ar  1 <1>   0.1770 
  3 C        2.2030     2.3210     0.2040 C.ar  1 <1>  -0.1440 
  4 C        2.9980     0.0400     0.4330 C.ar  1 <1>  -0.1440 
  5 C        3.5170     2.7560     0.1370 C.ar  1 <1>  -0.1500 
  6 C        1.0600     3.3220     0.1170 C.3   1 <1>  -0.0960 
  7 C        4.3050     0.4960     0.3640 C.ar  1 <1>  -0.1500 
  8 C        2.7110    -1.4460     0.5950 C.3   1 <1>  -0.0960 
  9 C        4.5680     1.8570     0.2150 C.ar  1 <1>   0.0830 
 10 O        5.8180     2.3800     0.1380 O.3   1 <1>  -0.3630 
 11 C        6.9600     1.5620     0.1640 C.3   1 <1>   0.1200 
 12 C        8.1780     2.4840     0.0470 C.3   1 <1>   0.3430 
 13 N        9.4850     1.7380     0.0710 N.4   1 <1>  -0.9590 
 14 C       10.6210     2.6740     0.3080 C.3   1 <1>   0.3430 
 15 C        9.6890     0.9590    -1.1820 C.3   1 <1>   0.3430 
 16 C       10.6590     3.0690     1.7800 C.3   1 <1>  -0.2400 
 17 C       10.7040    -0.1500    -0.9320 C.3   1 <1>  -0.2400 
 18 H        3.7360     3.8030     0.0240 H     1 <1>   0.1500 
 19 H        0.4630     3.2760     1.0100 H     1 <1>   0.0800 
 20 H        0.4360     3.0930    -0.7290 H     1 <1>   0.0800 
 21 H        1.4310     4.3250     0.0050 H     1 <1>   0.0800 
 22 H        5.1010    -0.2200     0.4290 H     1 <1>   0.1500 
 23 H        2.1540    -1.6150     1.5000 H     1 <1>   0.0800 
 24 H        3.6200    -2.0170     0.6450 H     1 <1>   0.0800 
 25 H        2.1320    -1.8010    -0.2380 H     1 <1>   0.0800 
 26 H        6.8970     0.8820    -0.6660 H     1 <1>   0.0800 
 27 H        6.9690     1.0320     1.1000 H     1 <1>   0.0800 
 28 H        8.1430     3.1760     0.8710 H     1 <1>   0.0800 
 29 H        8.1020     3.0500    -0.8680 H     1 <1>   0.0800 
 30 H        9.4710     1.0760     0.8580 H     1 <1>   0.4500 
 31 H       10.5210     3.5510    -0.3130 H     1 <1>   0.0800 
 32 H       11.5530     2.1930     0.0590 H     1 <1>   0.0800 
 33 H       10.0300     1.6070    -1.9750 H     1 <1>   0.0800 
 34 H        8.7610     0.5090    -1.4950 H     1 <1>   0.0800 
 35 H       11.5170     3.6950     1.9510 H     1 <1>   0.0800 
 36 H        9.7880     3.6300     2.0650 H     1 <1>   0.0800 
 37 H       10.7540     2.2010     2.4070 H     1 <1>   0.0800 
 38 H       10.8060    -0.7390    -1.8270 H     1 <1>   0.0800 
 39 H       11.6740     0.2450    -0.6920 H     1 <1>   0.0800 
 40 H       10.3730    -0.8030    -0.1440 H     1 <1>   0.0800 
@<TRIPOS>BOND
  1   1   2  1   
  2   2   3  ar  
  3   2   4  ar  
  4   3   5  ar  
  5   3   6  1   
  6   4   7  ar  
  7   4   8  1   
  8   5   9  ar  
  9   5  18  1   
 10   6  19  1   
 11   6  20  1   
 12   6  21  1   
 13   7   9  ar  
 14   7  22  1   
 15   8  23  1   
 16   8  24  1   
 17   8  25  1   
 18   9  10  1   
 19  10  11  1   
 20  11  12  1   
 21  11  26  1   
 22  11  27  1   
 23  12  13  1   
 24  12  28  1   
 25  12  29  1   
 26  13  14  1   
 27  13  15  1   
 28  13  30  1   
 29  14  16  1   
 30  14  31  1   
 31  14  32  1   
 32  15  17  1   
 33  15  33  1   
 34  15  34  1   
 35  16  35  1   
 36  16  36  1   
 37  16  37  1   
 38  17  38  1   
 39  17  39  1   
 40  17  40  1   
@<TRIPOS>SUBSTRUCTURE
  1 ****  10 GROUP 4 **** **** 0

# MOE 2024.06 (io_trps.svl 2023.06)
