@<TRIPOS>MOLECULE
NONAME
50 52 1 0 0 
SMALL
USER_CHARGES


@<TRIPOS>ATOM
  1 O       -0.7730    -0.8630     0.7540 O.3   1 <1>  -0.3630 
  2 C       -2.0110    -1.3500     0.5000 C.ar  1 <1>   0.0830 
  3 C        0.2250    -0.8220    -0.2430 C.3   1 <1>   0.0400 
  4 C       -2.4380    -1.7720    -0.7550 C.ar  1 <1>  -0.1500 
  5 C       -2.8820    -1.4240     1.5740 C.ar  1 <1>  -0.1500 
  6 C       -3.7250    -2.2540    -0.9250 C.ar  1 <1>  -0.1500 
  7 C       -4.1670    -1.9060     1.4060 C.ar  1 <1>  -0.1500 
  8 C       -4.5990    -2.3170     0.1520 C.ar  1 <1>  -0.1430 
  9 C       -6.0160    -2.8230    -0.0350 C.3   1 <1>   0.4860 
 10 N       -6.8150    -1.7580    -0.6980 N.4   1 <1>  -0.9590 
 11 C       -6.9010    -0.5090     0.1490 C.3   1 <1>   0.3430 
 12 C       -8.1890    -2.2430    -1.0860 C.3   1 <1>   0.3430 
 13 C       -7.7150     0.6160    -0.5240 C.3   1 <1>   0.2090 
 14 C       -9.0240    -1.1570    -1.7970 C.3   1 <1>   0.2090 
 15 N       -9.0280     0.1220    -1.0320 N.pl3 1 <1>  -0.8380 
 16 C      -10.1670     0.4190    -0.2840 C.ar  1 <1>   0.1000 
 17 C      -11.1010     1.3470    -0.7460 C.ar  1 <1>  -0.1430 
 18 C      -10.3890    -0.2120     0.9360 C.ar  1 <1>  -0.1500 
 19 C      -12.2260     1.6220     0.0110 C.ar  1 <1>  -0.1500 
 20 C      -10.8970     2.0630    -2.0740 C.3   1 <1>  -0.0970 
 21 C      -11.5140     0.0650     1.6920 C.ar  1 <1>  -0.1430 
 22 C      -12.4340     0.9860     1.2230 C.ar  1 <1>  -0.1500 
 23 C      -11.7590    -0.6220     3.0240 C.3   1 <1>  -0.0970 
 24 H        1.1220    -0.4280     0.1990 H     1 <1>   0.0800 
 25 H       -0.1020    -0.1780    -1.0400 H     1 <1>   0.0800 
 26 H        0.4030    -1.8210    -0.6010 H     1 <1>   0.0800 
 27 H       -1.7800    -1.7330    -1.6040 H     1 <1>   0.1500 
 28 H       -2.5370    -1.1030     2.5410 H     1 <1>   0.1500 
 29 H       -4.0270    -2.5800    -1.9050 H     1 <1>   0.1500 
 30 H       -4.8150    -1.9560     2.2650 H     1 <1>   0.1500 
 31 H       -6.4460    -3.0740     0.9200 H     1 <1>   0.0800 
 32 H       -5.9970    -3.7110    -0.6470 H     1 <1>   0.0800 
 33 H       -6.3120    -1.4920    -1.5530 H     1 <1>   0.4500 
 34 H       -5.9110    -0.1380     0.3600 H     1 <1>   0.0800 
 35 H       -7.3700    -0.7420     1.0890 H     1 <1>   0.0800 
 36 H       -8.7260    -2.5470    -0.2030 H     1 <1>   0.0800 
 37 H       -8.1100    -3.0990    -1.7350 H     1 <1>   0.0800 
 38 H       -7.1550     1.0290    -1.3450 H     1 <1>   0.0800 
 39 H       -7.8810     1.4090     0.1850 H     1 <1>   0.0800 
 40 H      -10.0370    -1.5050    -1.9140 H     1 <1>   0.0800 
 41 H       -8.6290    -0.9760    -2.7810 H     1 <1>   0.0800 
 42 H       -9.6770    -0.9240     1.2960 H     1 <1>   0.1500 
 43 H      -12.9530     2.3360    -0.3350 H     1 <1>   0.1500 
 44 H      -10.8680     1.3460    -2.8730 H     1 <1>   0.0800 
 45 H       -9.9680     2.6020    -2.0570 H     1 <1>   0.0800 
 46 H      -11.6930     2.7600    -2.2660 H     1 <1>   0.0800 
 47 H      -13.3150     1.2140     1.7970 H     1 <1>   0.1500 
 48 H      -10.9730    -1.3180     3.2530 H     1 <1>   0.0800 
 49 H      -12.6910    -1.1570     2.9930 H     1 <1>   0.0800 
 50 H      -11.8070     0.1120     3.8090 H     1 <1>   0.0800 
@<TRIPOS>BOND
  1   1   2  1   
  2   1   3  1   
  3   2   4  ar  
  4   2   5  ar  
  5   3  24  1   
  6   3  25  1   
  7   3  26  1   
  8   4   6  ar  
  9   4  27  1   
 10   5   7  ar  
 11   5  28  1   
 12   6   8  ar  
 13   6  29  1   
 14   7   8  ar  
 15   7  30  1   
 16   8   9  1   
 17   9  10  1   
 18   9  31  1   
 19   9  32  1   
 20  10  11  1   
 21  10  12  1   
 22  10  33  1   
 23  11  13  1   
 24  11  34  1   
 25  11  35  1   
 26  12  14  1   
 27  12  36  1   
 28  12  37  1   
 29  13  15  1   
 30  13  38  1   
 31  13  39  1   
 32  14  15  1   
 33  14  40  1   
 34  14  41  1   
 35  15  16  1   
 36  16  17  ar  
 37  16  18  ar  
 38  17  19  ar  
 39  17  20  1   
 40  18  21  ar  
 41  18  42  1   
 42  19  22  ar  
 43  19  43  1   
 44  20  44  1   
 45  20  45  1   
 46  20  46  1   
 47  21  22  ar  
 48  21  23  1   
 49  22  47  1   
 50  23  48  1   
 51  23  49  1   
 52  23  50  1   
@<TRIPOS>SUBSTRUCTURE
  1 ****  11 GROUP 4 **** **** 0

# MOE 2024.06 (io_trps.svl 2023.06)
