@<TRIPOS>MOLECULE
NONAME
49 52 1 0 0 
SMALL
USER_CHARGES


@<TRIPOS>ATOM
  1 O       -0.5740    -0.9930    -1.2540 O.2   1 <1>  -0.5700 
  2 C       -0.9760    -1.8370    -0.4930 C.2   1 <1>   0.5690 
  3 N       -0.2420    -2.7570     0.1780 N.am  1 <1>  -0.6600 
  4 C       -2.4360    -1.9880    -0.1760 C.3   1 <1>  -0.0990 
  5 C        1.2170    -3.0070     0.0860 C.3   1 <1>   0.2200 
  6 C       -1.0800    -3.6310     1.0160 C.3   1 <1>   0.1400 
  7 C       -2.4350    -2.9060     1.0630 C.3   1 <1>  -0.0190 
  8 C        2.0070    -1.7810     0.5590 C.3   1 <1>  -0.1600 
  9 C        1.6080    -3.4120    -1.3410 C.3   1 <1>  -0.1600 
 10 C       -3.6240    -3.8520     1.1610 C.2   1 <1>   0.5690 
 11 C        3.5200    -2.0280     0.4560 C.3   1 <1>  -0.1600 
 12 C        3.1210    -3.6620    -1.4460 C.3   1 <1>  -0.1600 
 13 O       -3.4370    -4.9780     1.5520 O.2   1 <1>  -0.5700 
 14 N       -4.8560    -3.3690     0.8110 N.am  1 <1>  -0.5470 
 15 C        3.9170    -2.4390    -0.9690 C.3   1 <1>  -0.1600 
 16 C       -6.1170    -3.9880     0.7800 C.ar  1 <1>   0.1170 
 17 C       -7.0960    -3.4420    -0.0410 C.ar  1 <1>  -0.1500 
 18 C       -6.4360    -5.1090     1.5450 C.ar  1 <1>  -0.1500 
 19 C       -8.3590    -4.0010    -0.1030 C.ar  1 <1>   0.0820 
 20 C       -7.6970    -5.6790     1.4830 C.ar  1 <1>  -0.1500 
 21 O       -9.2880    -3.4260    -0.9090 O.3   1 <1>  -0.3620 
 22 C       -8.6600    -5.1320     0.6550 C.ar  1 <1>   0.0820 
 23 C      -10.6330    -3.8260    -0.7210 C.3   1 <1>   0.1200 
 24 O       -9.8870    -5.7150     0.5960 O.3   1 <1>  -0.3630 
 25 C      -10.7120    -5.3420    -0.4920 C.3   1 <1>   0.1200 
 26 H       -2.9110    -2.4560    -1.0190 H     1 <1>   0.0800 
 27 H       -2.8810    -1.0320     0.0250 H     1 <1>   0.0800 
 28 H        1.4600    -3.8280     0.7390 H     1 <1>   0.0800 
 29 H       -0.6630    -3.7440     2.0030 H     1 <1>   0.0800 
 30 H       -1.1640    -4.5950     0.5430 H     1 <1>   0.0800 
 31 H       -2.4350    -2.2910     1.9450 H     1 <1>   0.0800 
 32 H        1.7480    -1.5570     1.5780 H     1 <1>   0.0800 
 33 H        1.7540    -0.9320    -0.0520 H     1 <1>   0.0800 
 34 H        1.3400    -2.6260    -2.0250 H     1 <1>   0.0800 
 35 H        1.0770    -4.3040    -1.6200 H     1 <1>   0.0800 
 36 H        3.8040    -2.8060     1.1440 H     1 <1>   0.0800 
 37 H        4.0500    -1.1330     0.7330 H     1 <1>   0.0800 
 38 H        3.3770    -3.8820    -2.4680 H     1 <1>   0.0800 
 39 H        3.3850    -4.5160    -0.8470 H     1 <1>   0.0800 
 40 H       -4.8610    -2.4140     0.4610 H     1 <1>   0.3700 
 41 H        4.9700    -2.6580    -1.0020 H     1 <1>   0.0800 
 42 H        3.7320    -1.6150    -1.6380 H     1 <1>   0.0800 
 43 H       -6.8870    -2.5780    -0.6410 H     1 <1>   0.1500 
 44 H       -5.7020    -5.5450     2.1970 H     1 <1>   0.1500 
 45 H       -7.9350    -6.5460     2.0710 H     1 <1>   0.1500 
 46 H      -11.1890    -3.5420    -1.5970 H     1 <1>   0.0800 
 47 H      -11.0230    -3.2990     0.1320 H     1 <1>   0.0800 
 48 H      -10.3730    -5.8700    -1.3650 H     1 <1>   0.0800 
 49 H      -11.7180    -5.6430    -0.2640 H     1 <1>   0.0800 
@<TRIPOS>BOND
  1   1   2  2   
  2   2   3  am  
  3   2   4  1   
  4   3   5  1   
  5   3   6  1   
  6   4   7  1   
  7   4  26  1   
  8   4  27  1   
  9   5   8  1   
 10   5   9  1   
 11   5  28  1   
 12   6   7  1   
 13   6  29  1   
 14   6  30  1   
 15   7  10  1   
 16   7  31  1   
 17   8  11  1   
 18   8  32  1   
 19   8  33  1   
 20   9  12  1   
 21   9  34  1   
 22   9  35  1   
 23  10  13  2   
 24  10  14  am  
 25  11  15  1   
 26  11  36  1   
 27  11  37  1   
 28  12  15  1   
 29  12  38  1   
 30  12  39  1   
 31  14  16  1   
 32  14  40  1   
 33  15  41  1   
 34  15  42  1   
 35  16  17  ar  
 36  16  18  ar  
 37  17  19  ar  
 38  17  43  1   
 39  18  20  ar  
 40  18  44  1   
 41  19  21  1   
 42  19  22  ar  
 43  20  22  ar  
 44  20  45  1   
 45  21  23  1   
 46  22  24  1   
 47  23  25  1   
 48  23  46  1   
 49  23  47  1   
 50  24  25  1   
 51  25  48  1   
 52  25  49  1   
@<TRIPOS>SUBSTRUCTURE
  1 ****  10 GROUP 4 **** **** 0

# MOE 2024.06 (io_trps.svl 2023.06)
