@<TRIPOS>MOLECULE
NONAME
23 23 1 0 0 
SMALL
USER_CHARGES


@<TRIPOS>ATOM
  1 F       -1.2210     0.4910    -0.1490 F     1 <1>  -0.3400 
  2 C       -1.5220    -0.4940     0.6940 C.3   1 <1>   1.0200 
  3 F       -0.3880    -1.1570     0.9070 F     1 <1>  -0.3400 
  4 F       -1.8190     0.0920     1.8510 F     1 <1>  -0.3400 
  5 C       -2.6780    -1.4230     0.1950 C.3   1 <1>   0.3440 
  6 O       -2.4170    -2.0790    -1.0190 O.3   1 <1>  -0.6800 
  7 C       -4.0220    -0.7140     0.0270 C.ar  1 <1>  -0.1440 
  8 C       -5.0520    -0.9530     0.9270 C.ar  1 <1>  -0.1500 
  9 C       -4.2360     0.1710    -1.0220 C.ar  1 <1>  -0.1500 
 10 C       -6.2760    -0.3220     0.7830 C.ar  1 <1>  -0.1500 
 11 C       -5.4580     0.8020    -1.1670 C.ar  1 <1>  -0.1500 
 12 C       -6.4850     0.5630    -0.2700 C.ar  1 <1>   0.0830 
 13 O       -7.6510     1.2220    -0.4850 O.3   1 <1>  -0.3630 
 14 C       -8.7500     1.0720     0.3850 C.3   1 <1>   0.0400 
 15 H       -2.7890    -2.1970     0.9320 H     1 <1>   0.0800 
 16 H       -3.2680    -2.3510    -1.4180 H     1 <1>   0.4000 
 17 H       -4.9130    -1.6330     1.7500 H     1 <1>   0.1500 
 18 H       -3.4530     0.3760    -1.7330 H     1 <1>   0.1500 
 19 H       -7.0510    -0.5290     1.4960 H     1 <1>   0.1500 
 20 H       -5.6240     1.4880    -1.9790 H     1 <1>   0.1500 
 21 H       -9.5490     1.6940     0.0230 H     1 <1>   0.0800 
 22 H       -8.4600     1.3880     1.3720 H     1 <1>   0.0800 
 23 H       -9.0600     0.0420     0.3840 H     1 <1>   0.0800 
@<TRIPOS>BOND
  1   1   2  1   
  2   2   3  1   
  3   2   4  1   
  4   2   5  1   
  5   5   6  1   
  6   5   7  1   
  7   5  15  1   
  8   6  16  1   
  9   7   8  ar  
 10   7   9  ar  
 11   8  10  ar  
 12   8  17  1   
 13   9  11  ar  
 14   9  18  1   
 15  10  12  ar  
 16  10  19  1   
 17  11  12  ar  
 18  11  20  1   
 19  12  13  1   
 20  13  14  1   
 21  14  21  1   
 22  14  22  1   
 23  14  23  1   
@<TRIPOS>SUBSTRUCTURE
  1 ****   7 GROUP 4 **** **** 0

# MOE 2024.06 (io_trps.svl 2023.06)
