@<TRIPOS>MOLECULE
NONAME
29 30 1 0 0 
SMALL
USER_CHARGES


@<TRIPOS>ATOM
  1 O       -0.1830     0.6730    -1.9410 O.2   1 <1>  -0.5700 
  2 C       -1.0710     1.1830    -1.2960 C.2   1 <1>   0.5690 
  3 N       -0.9750     2.4580    -0.7880 N.am  1 <1>  -0.2980 
  4 C       -2.3390     0.3940    -1.0650 C.3   1 <1>  -0.1790 
  5 N       -1.9770     3.1940    -0.1800 N.2   1 <1>  -0.5120 
  6 C        0.2680     3.2510    -0.9070 C.3   1 <1>   0.7240 
  7 C       -1.5660     4.3640     0.0280 C.2   1 <1>   0.3280 
  8 O        0.5750     3.3250    -2.2450 O.3   1 <1>  -0.6800 
  9 C        1.4350     2.6700    -0.1030 C.ar  1 <1>  -0.1440 
 10 C       -0.1480     4.6320    -0.4050 C.3   1 <1>  -0.0990 
 11 C       -2.3660     5.4770     0.6650 C.3   1 <1>  -0.1790 
 12 C        1.1950     2.1110     1.1470 C.ar  1 <1>   0.1600 
 13 C        2.7420     2.6970    -0.5630 C.ar  1 <1>  -0.1500 
 14 N        2.1170     1.6010     1.9480 N.ar  1 <1>  -0.6200 
 15 C        3.7140     2.1610     0.2540 C.ar  1 <1>  -0.1500 
 16 C        3.3530     1.6340     1.4810 C.ar  1 <1>   0.1600 
 17 H       -3.1630     0.8930    -1.5400 H     1 <1>   0.0800 
 18 H       -2.5300     0.3210    -0.0110 H     1 <1>   0.0800 
 19 H       -2.2400    -0.5930    -1.4750 H     1 <1>   0.0800 
 20 H        0.5830     2.3920    -2.5550 H     1 <1>   0.4000 
 21 H       -0.1110     5.3700    -1.1840 H     1 <1>   0.0800 
 22 H        0.4510     4.9420     0.4310 H     1 <1>   0.0800 
 23 H       -2.4560     6.3010    -0.0190 H     1 <1>   0.0800 
 24 H       -1.8810     5.8120     1.5640 H     1 <1>   0.0800 
 25 H       -3.3500     5.1230     0.9120 H     1 <1>   0.0800 
 26 H        0.1840     2.0820     1.5210 H     1 <1>   0.1500 
 27 H        3.0020     3.1170    -1.5200 H     1 <1>   0.1500 
 28 H        4.7430     2.1510    -0.0560 H     1 <1>   0.1500 
 29 H        4.1210     1.2170     2.1100 H     1 <1>   0.1500 
@<TRIPOS>BOND
  1   1   2  2   
  2   2   3  am  
  3   2   4  1   
  4   3   5  1   
  5   3   6  1   
  6   4  17  1   
  7   4  18  1   
  8   4  19  1   
  9   5   7  2   
 10   6   8  1   
 11   6   9  1   
 12   6  10  1   
 13   7  10  1   
 14   7  11  1   
 15   8  20  1   
 16   9  12  ar  
 17   9  13  ar  
 18  10  21  1   
 19  10  22  1   
 20  11  23  1   
 21  11  24  1   
 22  11  25  1   
 23  12  14  ar  
 24  12  26  1   
 25  13  15  ar  
 26  13  27  1   
 27  14  16  ar  
 28  15  16  ar  
 29  15  28  1   
 30  16  29  1   
@<TRIPOS>SUBSTRUCTURE
  1 ****   6 GROUP 4 **** **** 0

# MOE 2024.06 (io_trps.svl 2023.06)
