@<TRIPOS>MOLECULE
NONAME
35 36 1 0 0 
SMALL
USER_CHARGES


@<TRIPOS>ATOM
  1 I       -0.3490    -0.3100     0.3200 I     1 <1>  -0.0810 
  2 C       -0.1550     1.8190     0.0920 C.ar  1 <1>   0.0810 
  3 C        1.1010     2.3980     0.2400 C.ar  1 <1>   0.0830 
  4 C       -1.2860     2.5660    -0.1940 C.ar  1 <1>   0.0830 
  5 O        2.1690     1.6250     0.5310 O.3   1 <1>  -0.2320 
  6 C        1.2580     3.7850     0.0920 C.ar  1 <1>   0.0280 
  7 O       -2.4890     1.9490    -0.3390 O.3   1 <1>  -0.2320 
  8 C       -1.1350     3.9420    -0.3430 C.ar  1 <1>  -0.1500 
  9 C        3.3980     2.1050     0.7080 C.2   1 <1>   0.7060 
 10 C        2.5760     4.3480     0.2500 C.2   1 <1>  -0.1670 
 11 C        0.1060     4.5310    -0.1980 C.ar  1 <1>  -0.1500 
 12 C       -3.6910     2.4050     0.0090 C.2   1 <1>   0.6590 
 13 O        4.2710     1.3020     0.9740 O.2   1 <1>  -0.5700 
 14 C        3.6120     3.5230     0.5700 C.2   1 <1>  -0.1240 
 15 C        2.7240     5.8560     0.0310 C.3   1 <1>  -0.1020 
 16 O       -3.8720     3.4610     0.5570 O.2   1 <1>  -0.5700 
 17 C       -4.8550     1.4900    -0.3270 C.3   1 <1>  -0.0990 
 18 C        5.0490     4.0060     0.8020 C.3   1 <1>  -0.0220 
 19 C       -4.8510     0.1910     0.4960 C.3   1 <1>  -0.2400 
 20 C        5.8450     3.9950    -0.5060 C.3   1 <1>  -0.2400 
 21 H       -1.9860     4.5590    -0.5740 H     1 <1>   0.1500 
 22 H        0.1670     5.5970    -0.3140 H     1 <1>   0.1500 
 23 H        2.1930     6.3910     0.7990 H     1 <1>   0.0800 
 24 H        2.3180     6.1280    -0.9270 H     1 <1>   0.0800 
 25 H        3.7430     6.1880     0.0370 H     1 <1>   0.0800 
 26 H       -4.8140     1.2540    -1.3750 H     1 <1>   0.0800 
 27 H       -5.7710     2.0230    -0.1440 H     1 <1>   0.0800 
 28 H        5.5420     3.3730     1.5200 H     1 <1>   0.0800 
 29 H        5.0600     4.9920     1.2290 H     1 <1>   0.0800 
 30 H       -3.9560    -0.3760     0.3040 H     1 <1>   0.0800 
 31 H       -5.7020    -0.4150     0.2370 H     1 <1>   0.0800 
 32 H       -4.8980     0.4160     1.5480 H     1 <1>   0.0800 
 33 H        5.8940     2.9950    -0.9000 H     1 <1>   0.0800 
 34 H        6.8480     4.3420    -0.3300 H     1 <1>   0.0800 
 35 H        5.3800     4.6330    -1.2360 H     1 <1>   0.0800 
@<TRIPOS>BOND
  1   1   2  1   
  2   2   3  ar  
  3   2   4  ar  
  4   3   5  1   
  5   3   6  ar  
  6   4   7  1   
  7   4   8  ar  
  8   5   9  1   
  9   6  10  1   
 10   6  11  ar  
 11   7  12  1   
 12   8  11  ar  
 13   8  21  1   
 14   9  13  2   
 15   9  14  1   
 16  10  14  2   
 17  10  15  1   
 18  11  22  1   
 19  12  16  2   
 20  12  17  1   
 21  14  18  1   
 22  15  23  1   
 23  15  24  1   
 24  15  25  1   
 25  17  19  1   
 26  17  26  1   
 27  17  27  1   
 28  18  20  1   
 29  18  28  1   
 30  18  29  1   
 31  19  30  1   
 32  19  31  1   
 33  19  32  1   
 34  20  33  1   
 35  20  34  1   
 36  20  35  1   
@<TRIPOS>SUBSTRUCTURE
  1 ****   3 GROUP 4 **** **** 0

# MOE 2024.06 (io_trps.svl 2023.06)
