@<TRIPOS>MOLECULE
NONAME
39 41 1 0 0 
SMALL
USER_CHARGES


@<TRIPOS>ATOM
  1 S       -1.2020     0.1500    -0.4920 S.3   1 <1>  -0.0800 
  2 C       -1.4450     0.8390     1.1070 C.2   1 <1>  -0.1400 
  3 C        0.2790     1.0640    -0.7090 C.2   1 <1>  -0.1400 
  4 C       -0.4490     1.6930     1.4100 C.2   1 <1>  -0.1500 
  5 C       -2.6800     0.3970     1.8590 C.3   1 <1>   0.5230 
  6 C        0.5310     1.8190     0.3750 C.2   1 <1>  -0.1500 
  7 C        1.0260     0.8780    -2.0140 C.3   1 <1>  -0.0600 
  8 N       -3.8720     0.7600     1.0520 N.4   1 <1>  -0.9590 
  9 C       -3.9880     2.2530     0.8610 C.3   1 <1>   0.3430 
 10 C       -5.1430     0.1810     1.6130 C.3   1 <1>   0.3430 
 11 C       -5.2220     2.6440     0.0240 C.3   1 <1>   0.2090 
 12 C       -6.3810     0.5630     0.7770 C.3   1 <1>   0.2090 
 13 N       -6.4720     2.0400     0.5760 N.pl3 1 <1>  -0.8380 
 14 C       -7.6170     2.4470    -0.0720 C.ar  1 <1>   0.4100 
 15 N       -7.7680     2.0160    -1.3170 N.ar  1 <1>  -0.6200 
 16 C       -8.5330     3.2650     0.5820 C.ar  1 <1>  -0.1500 
 17 C       -8.8710     2.4170    -1.9290 C.ar  1 <1>   0.1600 
 18 C       -9.6740     3.6720    -0.0680 C.ar  1 <1>  -0.1500 
 19 C       -9.8390     3.2280    -1.3640 C.ar  1 <1>  -0.1500 
 20 H       -0.3400     2.2530     2.3230 H     1 <1>   0.1500 
 21 H       -2.7170     0.8800     2.8220 H     1 <1>   0.0800 
 22 H       -2.6400    -0.6700     2.0070 H     1 <1>   0.0800 
 23 H        1.3820     2.4700     0.4950 H     1 <1>   0.1500 
 24 H        1.3110    -0.1520    -2.1310 H     1 <1>   0.0800 
 25 H        1.9140     1.4850    -2.0240 H     1 <1>   0.0800 
 26 H        0.4020     1.1640    -2.8410 H     1 <1>   0.0800 
 27 H       -3.7180     0.3580     0.1160 H     1 <1>   0.4500 
 28 H       -3.1040     2.6310     0.3740 H     1 <1>   0.0800 
 29 H       -4.0680     2.7350     1.8210 H     1 <1>   0.0800 
 30 H       -5.2950     0.5460     2.6160 H     1 <1>   0.0800 
 31 H       -5.0720    -0.8930     1.6580 H     1 <1>   0.0800 
 32 H       -5.0860     2.3220    -0.9950 H     1 <1>   0.0800 
 33 H       -5.3220     3.7160     0.0160 H     1 <1>   0.0800 
 34 H       -7.2710     0.2220     1.2790 H     1 <1>   0.0800 
 35 H       -6.3380     0.0700    -0.1800 H     1 <1>   0.0800 
 36 H       -8.3330     3.5690     1.5910 H     1 <1>   0.1500 
 37 H       -9.0140     2.0780    -2.9420 H     1 <1>   0.1500 
 38 H      -10.4040     4.3050     0.4080 H     1 <1>   0.1500 
 39 H      -10.7090     3.5090    -1.9300 H     1 <1>   0.1500 
@<TRIPOS>BOND
  1   1   2  1   
  2   1   3  1   
  3   2   4  2   
  4   2   5  1   
  5   3   6  2   
  6   3   7  1   
  7   4   6  1   
  8   4  20  1   
  9   5   8  1   
 10   5  21  1   
 11   5  22  1   
 12   6  23  1   
 13   7  24  1   
 14   7  25  1   
 15   7  26  1   
 16   8   9  1   
 17   8  10  1   
 18   8  27  1   
 19   9  11  1   
 20   9  28  1   
 21   9  29  1   
 22  10  12  1   
 23  10  30  1   
 24  10  31  1   
 25  11  13  1   
 26  11  32  1   
 27  11  33  1   
 28  12  13  1   
 29  12  34  1   
 30  12  35  1   
 31  13  14  1   
 32  14  15  ar  
 33  14  16  ar  
 34  15  17  ar  
 35  16  18  ar  
 36  16  36  1   
 37  17  19  ar  
 38  17  37  1   
 39  18  19  ar  
 40  18  38  1   
 41  19  39  1   
@<TRIPOS>SUBSTRUCTURE
  1 ****   9 GROUP 4 **** **** 0

# MOE 2024.06 (io_trps.svl 2023.06)
