@<TRIPOS>MOLECULE
NONAME
21 21 1 0 0 
SMALL
USER_CHARGES


@<TRIPOS>ATOM
  1 O        0.0660    -0.3250     0.0150 O.3   1 <1>  -0.3630 
  2 C        0.0480    -1.6650     0.0340 C.ar  1 <1>   0.7020 
  3 C        1.2690     0.4110    -0.0140 C.3   1 <1>   0.1200 
  4 N       -1.1380    -2.2040     0.0650 N.ar  1 <1>  -0.6200 
  5 N        1.2000    -2.3100     0.0180 N.ar  1 <1>  -0.6200 
  6 C        0.9180     1.8960    -0.0270 C.3   1 <1>  -0.2400 
  7 C       -1.1090    -3.5030     0.0870 C.ar  1 <1>   0.7200 
  8 C        1.0720    -3.6080     0.0360 C.ar  1 <1>   0.4760 
  9 N       -0.0490    -4.2680     0.0670 N.ar  1 <1>  -0.6200 
 10 N       -2.2870    -4.1240     0.1180 N.pl3 1 <1>  -0.9000 
 11 C        2.3500    -4.4130     0.0180 C.3   1 <1>  -0.0970 
 12 H        1.8150     0.1370    -0.9020 H     1 <1>   0.0800 
 13 H        1.8440     0.1590     0.8610 H     1 <1>   0.0800 
 14 H        0.3340     2.1300    -0.8990 H     1 <1>   0.0800 
 15 H        1.8180     2.4820    -0.0490 H     1 <1>   0.0800 
 16 H        0.3630     2.1520     0.8570 H     1 <1>   0.0800 
 17 H       -2.3160    -5.1240    -0.0620 H     1 <1>   0.4000 
 18 H       -3.1250    -3.5750    -0.0510 H     1 <1>   0.4000 
 19 H        2.9570    -4.1420     0.8610 H     1 <1>   0.0800 
 20 H        2.8910    -4.2060    -0.8870 H     1 <1>   0.0800 
 21 H        2.1360    -5.4650     0.0650 H     1 <1>   0.0800 
@<TRIPOS>BOND
  1   1   2  1   
  2   1   3  1   
  3   2   4  ar  
  4   2   5  ar  
  5   3   6  1   
  6   3  12  1   
  7   3  13  1   
  8   4   7  ar  
  9   5   8  ar  
 10   6  14  1   
 11   6  15  1   
 12   6  16  1   
 13   7   9  ar  
 14   7  10  1   
 15   8   9  ar  
 16   8  11  1   
 17  10  17  1   
 18  10  18  1   
 19  11  19  1   
 20  11  20  1   
 21  11  21  1   
@<TRIPOS>SUBSTRUCTURE
  1 ****   2 GROUP 4 **** **** 0

# MOE 2024.06 (io_trps.svl 2023.06)
