@<TRIPOS>MOLECULE
NONAME
43 45 1 0 0 
SMALL
USER_CHARGES


@<TRIPOS>ATOM
  1 N        0.4860     1.2910    -0.7540 N.4   1 <1>  -0.9590 
  2 C        0.0900    -0.0940    -0.2880 C.3   1 <1>   0.3430 
  3 C       -0.4310     1.9100    -1.7570 C.3   1 <1>   0.3430 
  4 C        1.8910     1.3040    -1.2780 C.3   1 <1>   0.4860 
  5 C       -0.8730    -0.0930     0.9310 C.3   1 <1>   0.3430 
  6 C       -1.9180     1.7270    -1.4330 C.3   1 <1>  -0.1600 
  7 C        2.8110     1.0330    -0.1050 C.ar  1 <1>  -0.1440 
  8 N       -2.2470     0.5020     0.7070 N.4   1 <1>  -0.9590 
  9 C       -2.2970     1.8420     0.0450 C.3   1 <1>   0.3430 
 10 C        3.3580    -0.2600     0.1070 C.ar  1 <1>   0.0000 
 11 C        3.0770     2.0600     0.7650 C.ar  1 <1>  -0.1500 
 12 C       -2.9800     0.5650     2.0170 C.3   1 <1>   0.2630 
 13 C        4.1090    -0.4800     1.2840 C.ar  1 <1>   0.0000 
 14 C        3.1990    -1.3530    -0.7820 C.ar  1 <1>  -0.1500 
 15 C        3.8560     1.8420     1.9040 C.ar  1 <1>  -0.1500 
 16 C        4.3500     0.5960     2.1590 C.ar  1 <1>  -0.1500 
 17 C        4.6070    -1.7690     1.5560 C.ar  1 <1>  -0.1500 
 18 C        3.7000    -2.5920    -0.4950 C.ar  1 <1>  -0.1500 
 19 C        4.4060    -2.8060     0.6910 C.ar  1 <1>  -0.1500 
 20 H        0.5470     1.8990     0.0750 H     1 <1>   0.4500 
 21 H        0.9700    -0.6310     0.0220 H     1 <1>   0.0800 
 22 H       -0.3470    -0.6510    -1.1010 H     1 <1>   0.0800 
 23 H       -0.2420     1.4890    -2.7330 H     1 <1>   0.0800 
 24 H       -0.2160     2.9660    -1.8190 H     1 <1>   0.0800 
 25 H        2.1270     2.2760    -1.6830 H     1 <1>   0.0800 
 26 H        2.0230     0.5760    -2.0600 H     1 <1>   0.0800 
 27 H       -0.3850     0.4300     1.7380 H     1 <1>   0.0800 
 28 H       -0.9920    -1.1150     1.2560 H     1 <1>   0.0800 
 29 H       -2.2770     0.8010    -1.8450 H     1 <1>   0.0800 
 30 H       -2.4410     2.5050    -1.9620 H     1 <1>   0.0800 
 31 H       -2.7910    -0.1490     0.1150 H     1 <1>   0.4500 
 32 H       -3.3080     2.2160     0.1030 H     1 <1>   0.0800 
 33 H       -1.6590     2.5470     0.5540 H     1 <1>   0.0800 
 34 H        2.7050     3.0590     0.6080 H     1 <1>   0.1500 
 35 H       -2.4840     1.2370     2.6980 H     1 <1>   0.0800 
 36 H       -3.0260    -0.4120     2.4720 H     1 <1>   0.0800 
 37 H       -3.9900     0.9130     1.8670 H     1 <1>   0.0800 
 38 H        2.6880    -1.2300    -1.7160 H     1 <1>   0.1500 
 39 H        4.0620     2.6610     2.5730 H     1 <1>   0.1500 
 40 H        4.9470     0.4190     3.0380 H     1 <1>   0.1500 
 41 H        5.1630    -1.9260     2.4640 H     1 <1>   0.1500 
 42 H        3.5760    -3.4190    -1.1750 H     1 <1>   0.1500 
 43 H        4.7930    -3.7890     0.9040 H     1 <1>   0.1500 
@<TRIPOS>BOND
  1   1   2  1   
  2   1   3  1   
  3   1   4  1   
  4   1  20  1   
  5   2   5  1   
  6   2  21  1   
  7   2  22  1   
  8   3   6  1   
  9   3  23  1   
 10   3  24  1   
 11   4   7  1   
 12   4  25  1   
 13   4  26  1   
 14   5   8  1   
 15   5  27  1   
 16   5  28  1   
 17   6   9  1   
 18   6  29  1   
 19   6  30  1   
 20   7  10  ar  
 21   7  11  ar  
 22   8   9  1   
 23   8  12  1   
 24   8  31  1   
 25   9  32  1   
 26   9  33  1   
 27  10  13  ar  
 28  10  14  ar  
 29  11  15  ar  
 30  11  34  1   
 31  12  35  1   
 32  12  36  1   
 33  12  37  1   
 34  13  16  ar  
 35  13  17  ar  
 36  14  18  ar  
 37  14  38  1   
 38  15  16  ar  
 39  15  39  1   
 40  16  40  1   
 41  17  19  ar  
 42  17  41  1   
 43  18  19  ar  
 44  18  42  1   
 45  19  43  1   
@<TRIPOS>SUBSTRUCTURE
  1 ****   7 GROUP 4 **** **** 0

# MOE 2024.06 (io_trps.svl 2023.06)
