@<TRIPOS>MOLECULE
NONAME
34 34 1 0 0 
SMALL
USER_CHARGES


@<TRIPOS>ATOM
  1 O        0.4700     0.4770     0.1220 O.2   1 <1>  -0.5700 
  2 C        0.3550     1.5440     0.6970 C.2   1 <1>   0.6900 
  3 N       -0.7750     2.3090     0.5590 N.am  1 <1>  -0.6600 
  4 N        1.3760     2.0100     1.4560 N.am  1 <1>  -0.7300 
  5 C       -1.8160     1.9280    -0.4330 C.3   1 <1>   0.1400 
  6 C       -1.1530     3.3670     1.5330 C.3   1 <1>   0.1400 
  7 C        2.7140     1.3680     1.5520 C.3   1 <1>   0.1400 
  8 C       -1.4310     2.4610    -1.8120 C.3   1 <1>  -0.2400 
  9 C       -0.7670     4.7380     0.9860 C.3   1 <1>  -0.2400 
 10 C        3.4960     1.4770     0.2330 C.3   1 <1>   0.2000 
 11 O        4.8210     1.1200     0.4500 O.3   1 <1>  -0.5600 
 12 C        3.5900     2.8810    -0.3530 C.3   1 <1>  -0.1600 
 13 C        5.6140     1.6050    -0.5850 C.3   1 <1>   0.1200 
 14 C        4.9030     2.8470    -1.1190 C.3   1 <1>  -0.1600 
 15 H        1.3290     2.9930     1.7090 H     1 <1>   0.3700 
 16 H       -2.7730     2.3240    -0.1420 H     1 <1>   0.0800 
 17 H       -1.9010     0.8540    -0.4720 H     1 <1>   0.0800 
 18 H       -0.6570     3.1930     2.4730 H     1 <1>   0.0800 
 19 H       -2.2130     3.3290     1.7200 H     1 <1>   0.0800 
 20 H        2.5870     0.3270     1.7940 H     1 <1>   0.0800 
 21 H        3.2730     1.8420     2.3390 H     1 <1>   0.0800 
 22 H       -1.3560     3.5320    -1.7980 H     1 <1>   0.0800 
 23 H       -2.1790     2.1770    -2.5300 H     1 <1>   0.0800 
 24 H       -0.4900     2.0390    -2.1170 H     1 <1>   0.0800 
 25 H        0.2810     4.7700     0.7520 H     1 <1>   0.0800 
 26 H       -0.9790     5.4940     1.7210 H     1 <1>   0.0800 
 27 H       -1.3360     4.9600     0.1020 H     1 <1>   0.0800 
 28 H        3.0890     0.7920    -0.4930 H     1 <1>   0.0800 
 29 H        3.6420     3.6040     0.4410 H     1 <1>   0.0800 
 30 H        2.7450     3.1000    -0.9820 H     1 <1>   0.0800 
 31 H        5.6830     0.8400    -1.3400 H     1 <1>   0.0800 
 32 H        6.5910     1.8280    -0.1930 H     1 <1>   0.0800 
 33 H        5.4860     3.7330    -0.9420 H     1 <1>   0.0800 
 34 H        4.7340     2.7410    -2.1760 H     1 <1>   0.0800 
@<TRIPOS>BOND
  1   1   2  2   
  2   2   3  am  
  3   2   4  am  
  4   3   5  1   
  5   3   6  1   
  6   4   7  1   
  7   4  15  1   
  8   5   8  1   
  9   5  16  1   
 10   5  17  1   
 11   6   9  1   
 12   6  18  1   
 13   6  19  1   
 14   7  10  1   
 15   7  20  1   
 16   7  21  1   
 17   8  22  1   
 18   8  23  1   
 19   8  24  1   
 20   9  25  1   
 21   9  26  1   
 22   9  27  1   
 23  10  11  1   
 24  10  12  1   
 25  10  28  1   
 26  11  13  1   
 27  12  14  1   
 28  12  29  1   
 29  12  30  1   
 30  13  14  1   
 31  13  31  1   
 32  13  32  1   
 33  14  33  1   
 34  14  34  1   
@<TRIPOS>SUBSTRUCTURE
  1 ****   4 GROUP 4 **** **** 0

# MOE 2024.06 (io_trps.svl 2023.06)
