@<TRIPOS>MOLECULE
NONAME
34 34 1 0 0 
SMALL
USER_CHARGES


@<TRIPOS>ATOM
  1 O        0.2650     0.9300     0.7730 O.2   1 <1>  -0.5700 
  2 C        0.1700     1.5700    -0.2400 C.2   1 <1>   0.6590 
  3 O       -0.6000     2.6390    -0.3340 O.3   1 <1>  -0.4300 
  4 C        0.9280     1.1990    -1.4880 C.3   1 <1>  -0.1790 
  5 C       -1.3590     3.0780     0.7700 C.3   1 <1>   0.2640 
  6 C       -2.1180     4.3490     0.3770 C.ar  1 <1>  -0.1440 
  7 C       -1.5410     5.6130     0.5310 C.ar  1 <1>  -0.1440 
  8 C       -3.4070     4.2370    -0.1350 C.ar  1 <1>  -0.1440 
  9 C       -2.2800     6.7610     0.2270 C.ar  1 <1>  -0.1430 
 10 C       -0.0940     5.7330     1.0250 C.3   1 <1>  -0.0970 
 11 C       -4.1140     5.3790    -0.4600 C.ar  1 <1>  -0.1500 
 12 C       -4.0820     2.8900    -0.3650 C.3   1 <1>  -0.0970 
 13 C       -3.5690     6.6360    -0.2840 C.ar  1 <1>  -0.1430 
 14 C       -1.7040     8.1620     0.4620 C.3   1 <1>   0.3170 
 15 C       -4.4200     7.8400    -0.6740 C.3   1 <1>  -0.0970 
 16 N       -0.9770     8.6310    -0.7080 N.2   1 <1>  -0.1710 
 17 O       -1.3030     9.6590    -1.1640 O.2   1 <1>  -0.1620 
 18 H        1.5700     2.0110    -1.7710 H     1 <1>   0.0800 
 19 H        0.2330     1.0010    -2.2820 H     1 <1>   0.0800 
 20 H        1.5210     0.3230    -1.3070 H     1 <1>   0.0800 
 21 H       -0.6950     3.2550     1.5970 H     1 <1>   0.0800 
 22 H       -2.0270     2.2870     1.0570 H     1 <1>   0.0800 
 23 H        0.5030     4.9030     0.6970 H     1 <1>   0.0800 
 24 H       -0.0740     5.7740     2.0990 H     1 <1>   0.0800 
 25 H        0.3930     6.6050     0.6320 H     1 <1>   0.0800 
 26 H       -5.1090     5.2860    -0.8580 H     1 <1>   0.1500 
 27 H       -4.3150     2.4270     0.5770 H     1 <1>   0.0800 
 28 H       -3.4360     2.2420    -0.9300 H     1 <1>   0.0800 
 29 H       -4.9970     3.0050    -0.9190 H     1 <1>   0.0800 
 30 H       -1.0360     8.1570     1.3020 H     1 <1>   0.0800 
 31 H       -2.4860     8.8590     0.7010 H     1 <1>   0.0800 
 32 H       -4.7070     8.3930     0.2020 H     1 <1>   0.0800 
 33 H       -5.3150     7.5310    -1.1840 H     1 <1>   0.0800 
 34 H       -3.8730     8.4840    -1.3390 H     1 <1>   0.0800 
@<TRIPOS>BOND
  1   1   2  2   
  2   2   3  1   
  3   2   4  1   
  4   3   5  1   
  5   4  18  1   
  6   4  19  1   
  7   4  20  1   
  8   5   6  1   
  9   5  21  1   
 10   5  22  1   
 11   6   7  ar  
 12   6   8  ar  
 13   7   9  ar  
 14   7  10  1   
 15   8  11  ar  
 16   8  12  1   
 17   9  13  ar  
 18   9  14  1   
 19  10  23  1   
 20  10  24  1   
 21  10  25  1   
 22  11  13  ar  
 23  11  26  1   
 24  12  27  1   
 25  12  28  1   
 26  12  29  1   
 27  13  15  1   
 28  14  16  1   
 29  14  30  1   
 30  14  31  1   
 31  15  32  1   
 32  15  33  1   
 33  15  34  1   
 34  16  17  2   
@<TRIPOS>SUBSTRUCTURE
  1 ****   6 GROUP 4 **** **** 0

# MOE 2024.06 (io_trps.svl 2023.06)
