@<TRIPOS>MOLECULE
NONAME
30 31 1 0 0 
SMALL
USER_CHARGES


@<TRIPOS>ATOM
  1 S       -0.2140     0.2260    -0.4950 S.3   1 <1>  -0.4600 
  2 C       -0.4940     1.7370     0.4760 C.3   1 <1>   0.0700 
  3 C       -1.8870    -0.4770    -0.5870 C.3   1 <1>   0.0700 
  4 C       -1.6100     2.5540    -0.1810 C.3   1 <1>   0.1400 
  5 C       -2.8600     0.5840    -1.1150 C.3   1 <1>   0.1400 
  6 N       -2.8870     1.7770    -0.2150 N.am  1 <1>  -0.6600 
  7 C       -3.8880     2.0130     0.7070 C.2   1 <1>   0.5440 
  8 O       -3.6470     2.7270     1.6620 O.2   1 <1>  -0.5700 
  9 C       -5.2050     1.4190     0.5790 C.ar  1 <1>   0.0860 
 10 C       -5.9670     1.5750    -0.5790 C.ar  1 <1>  -0.1500 
 11 C       -5.7570     0.6700     1.6160 C.ar  1 <1>  -0.1500 
 12 C       -7.2150     0.9920    -0.7020 C.ar  1 <1>  -0.1500 
 13 C       -7.0040     0.0860     1.4980 C.ar  1 <1>  -0.1500 
 14 C       -7.7400     0.2390     0.3350 C.ar  1 <1>  -0.1430 
 15 C       -9.1110    -0.4000     0.2040 C.3   1 <1>  -0.0970 
 16 H        0.4320     2.2820     0.4920 H     1 <1>   0.0800 
 17 H       -0.7660     1.4450     1.4750 H     1 <1>   0.0800 
 18 H       -2.1610    -0.7980     0.4020 H     1 <1>   0.0800 
 19 H       -1.8380    -1.3250    -1.2460 H     1 <1>   0.0800 
 20 H       -1.3240     2.8140    -1.1850 H     1 <1>   0.0800 
 21 H       -1.7490     3.4700     0.3670 H     1 <1>   0.0800 
 22 H       -3.8370     0.1430    -1.1930 H     1 <1>   0.0800 
 23 H       -2.5570     0.8900    -2.1010 H     1 <1>   0.0800 
 24 H       -5.5710     2.1650    -1.3860 H     1 <1>   0.1500 
 25 H       -5.1940     0.5540     2.5260 H     1 <1>   0.1500 
 26 H       -7.7800     1.1300    -1.6080 H     1 <1>   0.1500 
 27 H       -7.4030    -0.4870     2.3170 H     1 <1>   0.1500 
 28 H       -9.8630     0.2770     0.5690 H     1 <1>   0.0800 
 29 H       -9.1580    -1.3100     0.7740 H     1 <1>   0.0800 
 30 H       -9.3230    -0.6320    -0.8240 H     1 <1>   0.0800 
@<TRIPOS>BOND
  1   1   2  1   
  2   1   3  1   
  3   2   4  1   
  4   2  16  1   
  5   2  17  1   
  6   3   5  1   
  7   3  18  1   
  8   3  19  1   
  9   4   6  1   
 10   4  20  1   
 11   4  21  1   
 12   5   6  1   
 13   5  22  1   
 14   5  23  1   
 15   6   7  am  
 16   7   8  2   
 17   7   9  1   
 18   9  10  ar  
 19   9  11  ar  
 20  10  12  ar  
 21  10  24  1   
 22  11  13  ar  
 23  11  25  1   
 24  12  14  ar  
 25  12  26  1   
 26  13  14  ar  
 27  13  27  1   
 28  14  15  1   
 29  15  28  1   
 30  15  29  1   
 31  15  30  1   
@<TRIPOS>SUBSTRUCTURE
  1 ****   9 GROUP 4 **** **** 0

# MOE 2024.06 (io_trps.svl 2023.06)
