@<TRIPOS>MOLECULE
NONAME
36 37 1 0 0 
SMALL
USER_CHARGES


@<TRIPOS>ATOM
  1 O        0.7380     1.4420    -3.2080 O.2   1 <1>  -0.5700 
  2 C        0.1030     1.0630    -2.2540 C.2   1 <1>   0.5690 
  3 N        0.6840     0.8120    -1.0530 N.am  1 <1>  -0.7300 
  4 C       -1.3990     0.8800    -2.3940 C.3   1 <1>   0.0440 
  5 C        2.1060     1.0660    -0.7030 C.3   1 <1>   0.1400 
  6 C       -2.1130     0.9090    -1.0450 C.ar  1 <1>  -0.1430 
  7 C        2.2530     2.3970     0.0470 C.3   1 <1>   0.2000 
  8 C       -2.2900     2.1160    -0.3850 C.ar  1 <1>  -0.1500 
  9 C       -2.5640    -0.2620    -0.4570 C.ar  1 <1>  -0.1500 
 10 O        3.5420     2.5040     0.5540 O.3   1 <1>  -0.5600 
 11 C        1.3630     2.5460     1.2760 C.3   1 <1>  -0.1600 
 12 C       -2.9040     2.1590     0.8560 C.ar  1 <1>  -0.1430 
 13 C       -3.1820    -0.2240     0.7800 C.ar  1 <1>  -0.1500 
 14 C        3.5740     3.4340     1.5900 C.3   1 <1>   0.1200 
 15 C        2.1580     3.4960     2.1580 C.3   1 <1>  -0.1600 
 16 C       -3.3500     0.9830     1.4350 C.ar  1 <1>  -0.1500 
 17 C       -3.0900     3.4840     1.5730 C.3   1 <1>  -0.0970 
 18 H        0.0640     0.5800    -0.2700 H     1 <1>   0.3700 
 19 H       -1.5800    -0.0530    -2.8940 H     1 <1>   0.0800 
 20 H       -1.7830     1.6650    -3.0190 H     1 <1>   0.0800 
 21 H        2.6990     1.1010    -1.6010 H     1 <1>   0.0800 
 22 H        2.4630     0.2620    -0.0840 H     1 <1>   0.0800 
 23 H        2.1040     3.2200    -0.6310 H     1 <1>   0.0800 
 24 H       -1.9440     3.0280    -0.8390 H     1 <1>   0.1500 
 25 H       -2.4360    -1.2080    -0.9550 H     1 <1>   0.1500 
 26 H        1.2540     1.5940     1.7640 H     1 <1>   0.0800 
 27 H        0.3910     2.9300     1.0210 H     1 <1>   0.0800 
 28 H       -3.5330    -1.1340     1.2350 H     1 <1>   0.1500 
 29 H        3.8740     4.3830     1.1790 H     1 <1>   0.0800 
 30 H        4.2920     3.1040     2.3210 H     1 <1>   0.0800 
 31 H        2.1380     3.1910     3.1890 H     1 <1>   0.0800 
 32 H        1.7820     4.5010     2.0810 H     1 <1>   0.0800 
 33 H       -3.8330     1.0020     2.3970 H     1 <1>   0.1500 
 34 H       -2.3130     4.1740     1.2980 H     1 <1>   0.0800 
 35 H       -3.0570     3.3430     2.6390 H     1 <1>   0.0800 
 36 H       -4.0420     3.9080     1.3090 H     1 <1>   0.0800 
@<TRIPOS>BOND
  1   1   2  2   
  2   2   3  am  
  3   2   4  1   
  4   3   5  1   
  5   3  18  1   
  6   4   6  1   
  7   4  19  1   
  8   4  20  1   
  9   5   7  1   
 10   5  21  1   
 11   5  22  1   
 12   6   8  ar  
 13   6   9  ar  
 14   7  10  1   
 15   7  11  1   
 16   7  23  1   
 17   8  12  ar  
 18   8  24  1   
 19   9  13  ar  
 20   9  25  1   
 21  10  14  1   
 22  11  15  1   
 23  11  26  1   
 24  11  27  1   
 25  12  16  ar  
 26  12  17  1   
 27  13  16  ar  
 28  13  28  1   
 29  14  15  1   
 30  14  29  1   
 31  14  30  1   
 32  15  31  1   
 33  15  32  1   
 34  16  33  1   
 35  17  34  1   
 36  17  35  1   
 37  17  36  1   
@<TRIPOS>SUBSTRUCTURE
  1 ****   3 GROUP 4 **** **** 0

# MOE 2024.06 (io_trps.svl 2023.06)
