@<TRIPOS>MOLECULE
NONAME
26 26 1 0 0 
SMALL
USER_CHARGES


@<TRIPOS>ATOM
  1 S        0.1980     0.3170    -0.7260 S.3   1 <1>  -0.0800 
  2 C       -0.5220    -1.2500    -0.3700 C.2   1 <1>   0.1040 
  3 C        1.7900    -0.2320    -0.2360 C.2   1 <1>  -0.1100 
  4 N       -1.8950    -1.4230    -0.4990 N.am  1 <1>  -0.4940 
  5 C        0.4350    -2.1240     0.0670 C.2   1 <1>  -0.0860 
  6 C        1.7380    -1.5170     0.1510 C.2   1 <1>  -0.1500 
  7 C       -2.8390    -0.7090    -1.1900 C.2   1 <1>   0.5690 
  8 C        0.2300    -3.5030     0.4080 C.2   1 <1>   0.7160 
  9 O       -2.5820     0.1560    -1.9870 O.2   1 <1>  -0.5700 
 10 C       -4.2940    -1.0680    -0.9520 C.3   1 <1>  -0.0990 
 11 O        0.9200    -4.0830     1.2190 O.2   1 <1>  -0.5700 
 12 N       -0.7350    -4.2370    -0.1890 N.am  1 <1>  -0.8000 
 13 C       -4.7750    -0.6600     0.4500 C.3   1 <1>  -0.1600 
 14 C       -6.2470    -1.0270     0.6610 C.3   1 <1>  -0.2400 
 15 H        2.5960     0.4780    -0.2900 H     1 <1>   0.1500 
 16 H       -2.2770    -2.1960     0.0440 H     1 <1>   0.3700 
 17 H        2.5800    -2.0900     0.5040 H     1 <1>   0.1500 
 18 H       -4.4200    -2.1260    -1.0940 H     1 <1>   0.0800 
 19 H       -4.8910    -0.5660    -1.6930 H     1 <1>   0.0800 
 20 H       -0.7390    -5.2370     0.0150 H     1 <1>   0.3700 
 21 H       -1.0750    -3.9740    -1.1140 H     1 <1>   0.3700 
 22 H       -4.6550     0.4050     0.5690 H     1 <1>   0.0800 
 23 H       -4.1790    -1.1450     1.2030 H     1 <1>   0.0800 
 24 H       -6.8680    -0.5270    -0.0630 H     1 <1>   0.0800 
 25 H       -6.5640    -0.7240     1.6440 H     1 <1>   0.0800 
 26 H       -6.3920    -2.0890     0.5680 H     1 <1>   0.0800 
@<TRIPOS>BOND
  1   1   2  1   
  2   1   3  1   
  3   2   4  1   
  4   2   5  2   
  5   3   6  2   
  6   3  15  1   
  7   4   7  am  
  8   4  16  1   
  9   5   6  1   
 10   5   8  1   
 11   6  17  1   
 12   7   9  2   
 13   7  10  1   
 14   8  11  2   
 15   8  12  am  
 16  10  13  1   
 17  10  18  1   
 18  10  19  1   
 19  12  20  1   
 20  12  21  1   
 21  13  14  1   
 22  13  22  1   
 23  13  23  1   
 24  14  24  1   
 25  14  25  1   
 26  14  26  1   
@<TRIPOS>SUBSTRUCTURE
  1 ****   4 GROUP 4 **** **** 0

# MOE 2024.06 (io_trps.svl 2023.06)
