@<TRIPOS>MOLECULE
NONAME
46 47 1 0 0 
SMALL
USER_CHARGES


@<TRIPOS>ATOM
  1 O        0.6310    -2.0180    -2.2470 O.2   1 <1>  -0.5700 
  2 C        0.1210    -2.2740    -1.1830 C.2   1 <1>   0.5690 
  3 N        0.8190    -2.7320    -0.1010 N.am  1 <1>  -0.5470 
  4 C       -1.3840    -2.0950    -1.0380 C.3   1 <1>   0.1810 
  5 C        2.1640    -3.1190     0.0030 C.ar  1 <1>   0.1170 
  6 O       -1.8460    -2.6400     0.1950 O.3   1 <1>  -0.3630 
  7 C        2.4600    -4.4490     0.3130 C.ar  1 <1>  -0.1430 
  8 C        3.2100    -2.2080    -0.1650 C.ar  1 <1>  -0.1430 
  9 C       -3.1870    -2.7560     0.3390 C.ar  1 <1>   0.0830 
 10 C        3.7780    -4.8520     0.4420 C.ar  1 <1>  -0.1500 
 11 C        1.3520    -5.4790     0.5030 C.3   1 <1>  -0.0970 
 12 C        4.5210    -2.6340    -0.0360 C.ar  1 <1>  -0.1500 
 13 C        2.9580    -0.7390    -0.4830 C.3   1 <1>  -0.0970 
 14 C       -3.9510    -3.6390    -0.4330 C.ar  1 <1>   0.0830 
 15 C       -3.8050    -1.9670     1.2950 C.ar  1 <1>  -0.1500 
 16 C        4.8140    -3.9520     0.2660 C.ar  1 <1>  -0.1430 
 17 O       -3.4000    -4.4640    -1.3590 O.3   1 <1>  -0.3630 
 18 C       -5.3250    -3.6810    -0.2670 C.ar  1 <1>  -0.1500 
 19 C       -5.1790    -2.0260     1.4650 C.ar  1 <1>  -0.1500 
 20 C        6.2560    -4.4030     0.4060 C.3   1 <1>  -0.0970 
 21 C       -2.5560    -5.4990    -0.9000 C.3   1 <1>   0.1200 
 22 C       -5.9390    -2.8790     0.6810 C.ar  1 <1>  -0.1500 
 23 C       -3.4130    -6.6680    -0.4160 C.3   1 <1>  -0.2400 
 24 H        0.2310    -2.9830     0.6940 H     1 <1>   0.3700 
 25 H       -1.8740    -2.5900    -1.8550 H     1 <1>   0.0800 
 26 H       -1.6300    -1.0500    -1.0580 H     1 <1>   0.0800 
 27 H        4.0060    -5.8750     0.6790 H     1 <1>   0.1500 
 28 H        0.7470    -5.5290    -0.3850 H     1 <1>   0.0800 
 29 H        0.7330    -5.2060     1.3380 H     1 <1>   0.0800 
 30 H        1.7610    -6.4560     0.6870 H     1 <1>   0.0800 
 31 H        5.3260    -1.9340    -0.1710 H     1 <1>   0.1500 
 32 H        2.1250    -0.3670     0.0850 H     1 <1>   0.0800 
 33 H        2.7440    -0.6280    -1.5310 H     1 <1>   0.0800 
 34 H        3.8180    -0.1410    -0.2450 H     1 <1>   0.0800 
 35 H       -3.2130    -1.3040     1.8990 H     1 <1>   0.1500 
 36 H       -5.9080    -4.3470    -0.8770 H     1 <1>   0.1500 
 37 H       -5.6570    -1.4080     2.2060 H     1 <1>   0.1500 
 38 H        6.3530    -5.4420     0.1480 H     1 <1>   0.0800 
 39 H        6.5830    -4.2640     1.4210 H     1 <1>   0.0800 
 40 H        6.8920    -3.8320    -0.2460 H     1 <1>   0.0800 
 41 H       -1.9260    -5.1280    -0.1120 H     1 <1>   0.0800 
 42 H       -1.9410    -5.8030    -1.7290 H     1 <1>   0.0800 
 43 H       -7.0070    -2.9190     0.8090 H     1 <1>   0.1500 
 44 H       -4.0100    -6.3710     0.4280 H     1 <1>   0.0800 
 45 H       -2.7780    -7.4810    -0.1130 H     1 <1>   0.0800 
 46 H       -4.0540    -7.0100    -1.2080 H     1 <1>   0.0800 
@<TRIPOS>BOND
  1   1   2  2   
  2   2   3  am  
  3   2   4  1   
  4   3   5  1   
  5   3  24  1   
  6   4   6  1   
  7   4  25  1   
  8   4  26  1   
  9   5   7  ar  
 10   5   8  ar  
 11   6   9  1   
 12   7  10  ar  
 13   7  11  1   
 14   8  12  ar  
 15   8  13  1   
 16   9  14  ar  
 17   9  15  ar  
 18  10  16  ar  
 19  10  27  1   
 20  11  28  1   
 21  11  29  1   
 22  11  30  1   
 23  12  16  ar  
 24  12  31  1   
 25  13  32  1   
 26  13  33  1   
 27  13  34  1   
 28  14  17  1   
 29  14  18  ar  
 30  15  19  ar  
 31  15  35  1   
 32  16  20  1   
 33  17  21  1   
 34  18  22  ar  
 35  18  36  1   
 36  19  22  ar  
 37  19  37  1   
 38  20  38  1   
 39  20  39  1   
 40  20  40  1   
 41  21  23  1   
 42  21  41  1   
 43  21  42  1   
 44  22  43  1   
 45  23  44  1   
 46  23  45  1   
 47  23  46  1   
@<TRIPOS>SUBSTRUCTURE
  1 ****   3 GROUP 4 **** **** 0

# MOE 2024.06 (io_trps.svl 2023.06)
