@<TRIPOS>MOLECULE
NONAME
52 53 1 0 0 
SMALL
USER_CHARGES


@<TRIPOS>ATOM
  1 S        0.5740    -0.0060    -1.4500 S.o2  1 <1>   1.4470 
  2 O        1.9040     0.3990    -1.8510 O.2   1 <1>  -0.6500 
  3 O       -0.2430    -0.6780    -2.4390 O.2   1 <1>  -0.6500 
  4 N        0.7810    -1.0980    -0.1680 N.am  1 <1>  -0.8490 
  5 C       -0.2640     1.4410    -0.7400 C.ar  1 <1>  -0.0090 
  6 C       -0.3980    -1.9440     0.0580 C.3   1 <1>   0.3390 
  7 C        2.0220    -1.8940    -0.3640 C.3   1 <1>   0.2570 
  8 C       -1.4150     1.9660    -1.3140 C.ar  1 <1>  -0.1500 
  9 C        0.2390     2.0690     0.3930 C.ar  1 <1>  -0.1500 
 10 C       -1.6160    -1.1250     0.4530 C.ar  1 <1>  -0.1440 
 11 C        2.2610    -3.0580     0.6080 C.2   1 <1>   0.5690 
 12 C       -2.0470     3.0730    -0.7720 C.ar  1 <1>  -0.1500 
 13 C       -0.3870     3.1760     0.9400 C.ar  1 <1>  -0.1500 
 14 C       -1.6340    -0.4480     1.6630 C.ar  1 <1>  -0.1500 
 15 C       -2.7190    -1.0490    -0.3860 C.ar  1 <1>  -0.1500 
 16 O        2.7370    -2.8360     1.6950 O.2   1 <1>  -0.5700 
 17 N        1.9200    -4.3210     0.2220 N.am  1 <1>  -0.7300 
 18 C       -1.5370     3.6830     0.3600 C.ar  1 <1>  -0.1430 
 19 C       -2.7390     0.3010     2.0290 C.ar  1 <1>  -0.1500 
 20 C       -3.8260    -0.3030    -0.0180 C.ar  1 <1>  -0.1500 
 21 C        2.1230    -5.5400     1.0410 C.3   1 <1>   0.1400 
 22 C       -2.2310     4.8940     0.9560 C.3   1 <1>  -0.0970 
 23 C       -3.8360     0.3720     1.1890 C.ar  1 <1>  -0.1500 
 24 C        2.8770    -6.6130     0.2390 C.3   1 <1>  -0.0800 
 25 C        2.9950    -7.8990     1.0670 C.3   1 <1>  -0.2400 
 26 C        4.2800    -6.1420    -0.1750 C.3   1 <1>  -0.2400 
 27 H       -0.2090    -2.6230     0.8720 H     1 <1>   0.0800 
 28 H       -0.6120    -2.5320    -0.8190 H     1 <1>   0.0800 
 29 H        2.8690    -1.2360    -0.2720 H     1 <1>   0.0800 
 30 H        2.0340    -2.2900    -1.3650 H     1 <1>   0.0800 
 31 H       -1.8270     1.5000    -2.1920 H     1 <1>   0.1500 
 32 H        1.1320     1.6820     0.8530 H     1 <1>   0.1500 
 33 H       -2.9400     3.4540    -1.2370 H     1 <1>   0.1500 
 34 H        0.0260     3.6380     1.8190 H     1 <1>   0.1500 
 35 H       -0.7810    -0.4960     2.3180 H     1 <1>   0.1500 
 36 H       -2.7190    -1.5630    -1.3320 H     1 <1>   0.1500 
 37 H        1.5610    -4.4940    -0.7180 H     1 <1>   0.3700 
 38 H       -2.7420     0.8300     2.9650 H     1 <1>   0.1500 
 39 H       -4.6770    -0.2460    -0.6730 H     1 <1>   0.1500 
 40 H        1.1620    -5.9190     1.3440 H     1 <1>   0.0800 
 41 H        2.6780    -5.2960     1.9320 H     1 <1>   0.0800 
 42 H       -3.2950     4.8200     0.8180 H     1 <1>   0.0800 
 43 H       -1.8790     5.7880     0.4750 H     1 <1>   0.0800 
 44 H       -2.0300     4.9630     2.0100 H     1 <1>   0.0800 
 45 H       -4.6930     0.9560     1.4730 H     1 <1>   0.1500 
 46 H        2.3090    -6.8430    -0.6470 H     1 <1>   0.0800 
 47 H        3.5600    -7.7210     1.9660 H     1 <1>   0.0800 
 48 H        3.4910    -8.6660     0.4990 H     1 <1>   0.0800 
 49 H        2.0200    -8.2620     1.3410 H     1 <1>   0.0800 
 50 H        4.8590    -5.8780     0.6930 H     1 <1>   0.0800 
 51 H        4.2200    -5.2810    -0.8170 H     1 <1>   0.0800 
 52 H        4.7960    -6.9210    -0.7080 H     1 <1>   0.0800 
@<TRIPOS>BOND
  1   1   2  2   
  2   1   3  2   
  3   1   4  am  
  4   1   5  1   
  5   4   6  1   
  6   4   7  1   
  7   5   8  ar  
  8   5   9  ar  
  9   6  10  1   
 10   6  27  1   
 11   6  28  1   
 12   7  11  1   
 13   7  29  1   
 14   7  30  1   
 15   8  12  ar  
 16   8  31  1   
 17   9  13  ar  
 18   9  32  1   
 19  10  14  ar  
 20  10  15  ar  
 21  11  16  2   
 22  11  17  am  
 23  12  18  ar  
 24  12  33  1   
 25  13  18  ar  
 26  13  34  1   
 27  14  19  ar  
 28  14  35  1   
 29  15  20  ar  
 30  15  36  1   
 31  17  21  1   
 32  17  37  1   
 33  18  22  1   
 34  19  23  ar  
 35  19  38  1   
 36  20  23  ar  
 37  20  39  1   
 38  21  24  1   
 39  21  40  1   
 40  21  41  1   
 41  22  42  1   
 42  22  43  1   
 43  22  44  1   
 44  23  45  1   
 45  24  25  1   
 46  24  26  1   
 47  24  46  1   
 48  25  47  1   
 49  25  48  1   
 50  25  49  1   
 51  26  50  1   
 52  26  51  1   
 53  26  52  1   
@<TRIPOS>SUBSTRUCTURE
  1 ****   4 GROUP 4 **** **** 0

# MOE 2024.06 (io_trps.svl 2023.06)
