@<TRIPOS>MOLECULE
NONAME
23 24 1 0 0 
SMALL
USER_CHARGES


@<TRIPOS>ATOM
  1 CL       0.3340     0.6620    -1.8970 Cl    1 <1>  -0.1770 
  2 C        1.7400     1.2620    -1.0580 C.ar  1 <1>   0.1770 
  3 C        2.9060     0.5230    -1.0690 C.ar  1 <1>  -0.1500 
  4 C        1.6700     2.4680    -0.3900 C.ar  1 <1>  -0.1500 
  5 C        4.0190     1.0060    -0.4010 C.ar  1 <1>  -0.1500 
  6 C        2.7910     2.9400     0.2740 C.ar  1 <1>  -0.1500 
  7 C        3.9840     2.2210     0.2800 C.ar  1 <1>  -0.0090 
  8 S        5.4550     2.8680     1.1190 S.o2  1 <1>   1.2860 
  9 O        5.0250     3.7870     2.1520 O.2   1 <1>  -0.6500 
 10 O        6.3200     1.7670     1.4810 O.2   1 <1>  -0.6500 
 11 C        6.2630     3.8280    -0.1790 C.3   1 <1>   0.1280 
 12 C        6.5820     2.9500    -1.3310 C.1   1 <1>   0.4520 
 13 C        5.8900     5.2540    -0.4880 C.3   1 <1>  -0.2000 
 14 C        7.2260     4.9450     0.1220 C.3   1 <1>  -0.2000 
 15 N        6.7920     2.2820    -2.2260 N.1   1 <1>  -0.5570 
 16 H        2.9400    -0.4150    -1.5950 H     1 <1>   0.1500 
 17 H        0.7500     3.0260    -0.3910 H     1 <1>   0.1500 
 18 H        4.9280     0.4240    -0.4110 H     1 <1>   0.1500 
 19 H        2.7320     3.8800     0.7990 H     1 <1>   0.1500 
 20 H        5.1600     5.7530     0.1270 H     1 <1>   0.1000 
 21 H        5.8590     5.5830    -1.5140 H     1 <1>   0.1000 
 22 H        8.1110     5.0540    -0.4820 H     1 <1>   0.1000 
 23 H        7.3950     5.2150     1.1510 H     1 <1>   0.1000 
@<TRIPOS>BOND
  1   1   2  1   
  2   2   3  ar  
  3   2   4  ar  
  4   3   5  ar  
  5   3  16  1   
  6   4   6  ar  
  7   4  17  1   
  8   5   7  ar  
  9   5  18  1   
 10   6   7  ar  
 11   6  19  1   
 12   7   8  1   
 13   8   9  2   
 14   8  10  2   
 15   8  11  1   
 16  11  12  1   
 17  11  13  1   
 18  11  14  1   
 19  12  15  3   
 20  13  14  1   
 21  13  20  1   
 22  13  21  1   
 23  14  22  1   
 24  14  23  1   
@<TRIPOS>SUBSTRUCTURE
  1 ****   7 GROUP 4 **** **** 0

# MOE 2024.06 (io_trps.svl 2023.06)
