@<TRIPOS>MOLECULE
NONAME
20 23 1 0 0 
SMALL
USER_CHARGES


@<TRIPOS>ATOM
  1 O        0.2610    -0.6660     1.4870 O.2   1 <1>  -0.5200 
  2 N        0.2850    -1.9010     1.4180 N.pl3 1 <1>   0.7990 
  3 O        0.4890    -2.6060     2.4180 O.2   1 <1>  -0.5200 
  4 C        0.0940    -2.5010     0.1050 C.3   1 <1>   0.2410 
  5 C       -0.4660    -3.8950     0.2820 C.3   1 <1>   0.6290 
  6 C       -1.3810    -2.2510    -0.3610 C.3   1 <1>   0.2100 
  7 C        1.3590    -3.3350    -0.2900 C.3   1 <1>   0.2100 
  8 N       -0.9990    -5.2120     0.5620 N.3   1 <1>  -0.6290 
  9 N       -1.4760    -3.6600    -0.7530 N.3   1 <1>  -0.6290 
 10 N        0.4830    -4.4410    -0.6920 N.3   1 <1>  -0.6290 
 11 C       -2.2330    -4.7530    -0.1300 C.3   1 <1>   0.4190 
 12 C        0.2620    -5.7340    -0.0320 C.3   1 <1>   0.4190 
 13 H       -1.4520    -1.6090    -1.2200 H     1 <1>   0.0000 
 14 H       -2.0750    -2.0070     0.4270 H     1 <1>   0.0000 
 15 H        2.0060    -3.6130     0.5260 H     1 <1>   0.0000 
 16 H        1.8810    -2.9340    -1.1400 H     1 <1>   0.0000 
 17 H       -2.9790    -4.3940     0.5580 H     1 <1>   0.0000 
 18 H       -2.5880    -5.4700    -0.8480 H     1 <1>   0.0000 
 19 H        0.0820    -6.5290    -0.7330 H     1 <1>   0.0000 
 20 H        1.0080    -5.9480     0.7130 H     1 <1>   0.0000 
@<TRIPOS>BOND
  1   1   2  2   
  2   2   3  2   
  3   2   4  1   
  4   4   5  1   
  5   4   6  1   
  6   4   7  1   
  7   5   8  1   
  8   5   9  1   
  9   5  10  1   
 10   6   9  1   
 11   6  13  1   
 12   6  14  1   
 13   7  10  1   
 14   7  15  1   
 15   7  16  1   
 16   8  11  1   
 17   8  12  1   
 18   9  11  1   
 19  10  12  1   
 20  11  17  1   
 21  11  18  1   
 22  12  19  1   
 23  12  20  1   
@<TRIPOS>SUBSTRUCTURE
  1 ****   5 GROUP 4 **** **** 0

# MOE 2024.06 (io_trps.svl 2023.06)
