@<TRIPOS>MOLECULE
NONAME
43 44 1 0 0 
SMALL
USER_CHARGES


@<TRIPOS>ATOM
  1 F       -1.8070     1.1280    -1.0820 F     1 <1>  -0.3400 
  2 C       -2.9090     1.2460    -1.8100 C.3   1 <1>   1.1640 
  3 F       -2.5570     0.9980    -3.0660 F     1 <1>  -0.3400 
  4 F       -3.2470     2.5300    -1.7680 F     1 <1>  -0.3400 
  5 C       -4.0290     0.3230    -1.3070 C.ar  1 <1>  -0.1440 
  6 C       -4.9260     0.7570    -0.3370 C.ar  1 <1>  -0.1500 
  7 C       -4.1620    -0.9700    -1.8060 C.ar  1 <1>  -0.1500 
  8 C       -5.9490    -0.0610     0.1260 C.ar  1 <1>   0.1170 
  9 C       -5.1700    -1.7990    -1.3480 C.ar  1 <1>  -0.1500 
 10 N       -6.8300     0.4300     1.0970 N.am  1 <1>  -0.5470 
 11 C       -6.0560    -1.3480    -0.3890 C.ar  1 <1>  -0.1500 
 12 C       -8.1660     0.2150     1.2210 C.2   1 <1>   0.6900 
 13 O       -8.7860    -0.4660     0.4280 O.2   1 <1>  -0.5700 
 14 N       -8.8360     0.8330     2.2240 N.am  1 <1>  -0.7300 
 15 C      -10.2640     0.5780     2.5900 C.3   1 <1>   0.1400 
 16 C      -11.2530     1.3410     1.6810 C.3   1 <1>   0.3430 
 17 N      -11.1650     0.8950     0.2590 N.4   1 <1>  -0.9590 
 18 C      -11.4140     1.9990    -0.7060 C.3   1 <1>   0.3430 
 19 C      -11.9910    -0.3130    -0.0200 C.3   1 <1>   0.3430 
 20 C      -11.1000     1.5210    -2.1240 C.3   1 <1>  -0.1600 
 21 C      -11.6960    -0.8240    -1.4320 C.3   1 <1>  -0.1600 
 22 C      -11.9020     0.2660    -2.4910 C.3   1 <1>  -0.1600 
 23 H       -4.8380     1.7510     0.0650 H     1 <1>   0.1500 
 24 H       -3.4820    -1.3420    -2.5550 H     1 <1>   0.1500 
 25 H       -5.2650    -2.7980    -1.7390 H     1 <1>   0.1500 
 26 H       -6.4390     1.1300     1.7200 H     1 <1>   0.3700 
 27 H       -6.8330    -2.0030    -0.0390 H     1 <1>   0.1500 
 28 H       -8.2730     1.2600     2.9630 H     1 <1>   0.3700 
 29 H      -10.4180     0.8880     3.6090 H     1 <1>   0.0800 
 30 H      -10.4640    -0.4790     2.5390 H     1 <1>   0.0800 
 31 H      -11.0220     2.3910     1.7470 H     1 <1>   0.0800 
 32 H      -12.2590     1.2020     2.0420 H     1 <1>   0.0800 
 33 H      -10.1820     0.5750     0.1160 H     1 <1>   0.4500 
 34 H      -10.7890     2.8450    -0.4690 H     1 <1>   0.0800 
 35 H      -12.4450     2.3090    -0.6490 H     1 <1>   0.0800 
 36 H      -13.0370    -0.0690     0.0650 H     1 <1>   0.0800 
 37 H      -11.7570    -1.0890     0.6900 H     1 <1>   0.0800 
 38 H      -10.0450     1.3160    -2.2030 H     1 <1>   0.0800 
 39 H      -11.3280     2.3080    -2.8220 H     1 <1>   0.0800 
 40 H      -12.3400    -1.6590    -1.6460 H     1 <1>   0.0800 
 41 H      -10.6820    -1.1840    -1.4710 H     1 <1>   0.0800 
 42 H      -11.5890    -0.0990    -3.4550 H     1 <1>   0.0800 
 43 H      -12.9490     0.5130    -2.5570 H     1 <1>   0.0800 
@<TRIPOS>BOND
  1   1   2  1   
  2   2   3  1   
  3   2   4  1   
  4   2   5  1   
  5   5   6  ar  
  6   5   7  ar  
  7   6   8  ar  
  8   6  23  1   
  9   7   9  ar  
 10   7  24  1   
 11   8  10  1   
 12   8  11  ar  
 13   9  11  ar  
 14   9  25  1   
 15  10  12  am  
 16  10  26  1   
 17  11  27  1   
 18  12  13  2   
 19  12  14  am  
 20  14  15  1   
 21  14  28  1   
 22  15  16  1   
 23  15  29  1   
 24  15  30  1   
 25  16  17  1   
 26  16  31  1   
 27  16  32  1   
 28  17  18  1   
 29  17  19  1   
 30  17  33  1   
 31  18  20  1   
 32  18  34  1   
 33  18  35  1   
 34  19  21  1   
 35  19  36  1   
 36  19  37  1   
 37  20  22  1   
 38  20  38  1   
 39  20  39  1   
 40  21  22  1   
 41  21  40  1   
 42  21  41  1   
 43  22  42  1   
 44  22  43  1   
@<TRIPOS>SUBSTRUCTURE
  1 ****  10 GROUP 4 **** **** 0

# MOE 2024.06 (io_trps.svl 2023.06)
