@<TRIPOS>MOLECULE
NONAME
43 44 1 0 0 
SMALL
USER_CHARGES


@<TRIPOS>ATOM
  1 O        0.7140    -0.9860    -0.5470 O.3   1 <1>  -0.3630 
  2 C       -0.5930    -1.3250    -0.3830 C.ar  1 <1>   0.0830 
  3 C        1.1170     0.0050    -1.4610 C.3   1 <1>   0.1200 
  4 C       -0.9100    -2.2270     0.6310 C.ar  1 <1>  -0.1440 
  5 C       -1.6090    -0.8050    -1.1830 C.ar  1 <1>  -0.1500 
  6 C        2.6280     0.1880    -1.3250 C.3   1 <1>  -0.1600 
  7 C       -2.2330    -2.5900     0.8340 C.ar  1 <1>  -0.1500 
  8 C        0.1670    -2.8240     1.5300 C.3   1 <1>  -0.0160 
  9 C       -2.9250    -1.1760    -0.9710 C.ar  1 <1>  -0.1500 
 10 C        3.1270     1.2780    -2.2780 C.3   1 <1>   0.1200 
 11 C       -3.2370    -2.0680     0.0380 C.ar  1 <1>  -0.1500 
 12 C        0.4660    -1.8930     2.7070 C.3   1 <1>  -0.2400 
 13 O        4.5280     1.4050    -2.1620 O.3   1 <1>  -0.3630 
 14 C        5.1230     2.1060    -1.1590 C.ar  1 <1>   0.0830 
 15 C        4.4330     2.8010    -0.1690 C.ar  1 <1>  -0.1500 
 16 C        6.5090     2.1120    -1.1510 C.ar  1 <1>  -0.1500 
 17 C        5.1330     3.4880     0.8080 C.ar  1 <1>  -0.1500 
 18 C        7.2090     2.7980    -0.1740 C.ar  1 <1>  -0.1500 
 19 C        6.5190     3.4930     0.8150 C.ar  1 <1>   0.0830 
 20 O        7.1220     4.1940     1.8100 O.3   1 <1>  -0.3620 
 21 C        8.5280     4.2650     1.8990 C.3   1 <1>   0.0400 
 22 H        0.5990     0.9170    -1.2200 H     1 <1>   0.0800 
 23 H        0.8590    -0.3250    -2.4520 H     1 <1>   0.0800 
 24 H       -1.4000    -0.1130    -1.9750 H     1 <1>   0.1500 
 25 H        3.1160    -0.7400    -1.5660 H     1 <1>   0.0800 
 26 H        2.8560     0.4540    -0.3090 H     1 <1>   0.0800 
 27 H       -2.4880    -3.2810     1.6170 H     1 <1>   0.1500 
 28 H        1.0670    -2.9930     0.9640 H     1 <1>   0.0800 
 29 H       -0.1580    -3.7790     1.9030 H     1 <1>   0.0800 
 30 H       -3.7060    -0.7730    -1.5910 H     1 <1>   0.1500 
 31 H        2.6670     2.2320    -2.0930 H     1 <1>   0.0800 
 32 H        2.9240     0.9950    -3.2960 H     1 <1>   0.0800 
 33 H       -4.2600    -2.3580     0.2050 H     1 <1>   0.1500 
 34 H        0.8180    -0.9440     2.3440 H     1 <1>   0.0800 
 35 H        1.2220    -2.3240     3.3380 H     1 <1>   0.0800 
 36 H       -0.4240    -1.7320     3.2880 H     1 <1>   0.0800 
 37 H        3.3620     2.8210    -0.1380 H     1 <1>   0.1500 
 38 H        7.0360     1.5730    -1.9180 H     1 <1>   0.1500 
 39 H        4.6080     4.0260     1.5760 H     1 <1>   0.1500 
 40 H        8.2820     2.7790    -0.2010 H     1 <1>   0.1500 
 41 H        8.7770     4.8680     2.7540 H     1 <1>   0.0800 
 42 H        8.9110     4.7230     1.0040 H     1 <1>   0.0800 
 43 H        8.9200     3.2720     2.0250 H     1 <1>   0.0800 
@<TRIPOS>BOND
  1   1   2  1   
  2   1   3  1   
  3   2   4  ar  
  4   2   5  ar  
  5   3   6  1   
  6   3  22  1   
  7   3  23  1   
  8   4   7  ar  
  9   4   8  1   
 10   5   9  ar  
 11   5  24  1   
 12   6  10  1   
 13   6  25  1   
 14   6  26  1   
 15   7  11  ar  
 16   7  27  1   
 17   8  12  1   
 18   8  28  1   
 19   8  29  1   
 20   9  11  ar  
 21   9  30  1   
 22  10  13  1   
 23  10  31  1   
 24  10  32  1   
 25  11  33  1   
 26  12  34  1   
 27  12  35  1   
 28  12  36  1   
 29  13  14  1   
 30  14  15  ar  
 31  14  16  ar  
 32  15  17  ar  
 33  15  37  1   
 34  16  18  ar  
 35  16  38  1   
 36  17  19  ar  
 37  17  39  1   
 38  18  19  ar  
 39  18  40  1   
 40  19  20  1   
 41  20  21  1   
 42  21  41  1   
 43  21  42  1   
 44  21  43  1   
@<TRIPOS>SUBSTRUCTURE
  1 ****   6 GROUP 4 **** **** 0

# MOE 2024.06 (io_trps.svl 2023.06)
