@<TRIPOS>MOLECULE
NONAME
42 46 1 0 0 
SMALL
USER_CHARGES


@<TRIPOS>ATOM
  1 S       -3.1970     4.2990     1.4850 S.3   1 <1>  -0.4600 
  2 C       -4.0250     3.4420     0.1460 C.3   1 <1>   0.7330 
  3 C       -1.6080     4.5790     0.6840 C.3   1 <1>   0.0700 
  4 N       -3.2590     3.9410    -1.0050 N.4   1 <1>  -0.9060 
  5 C       -5.5260     3.8340     0.0850 C.3   1 <1>  -0.0800 
  6 C       -3.9270     1.9040     0.3230 C.3   1 <1>  -0.0800 
  7 C       -1.7920     3.9710    -0.7060 C.3   1 <1>   0.3430 
  8 C       -6.2570     3.3820     1.3790 C.3   1 <1>  -0.1600 
  9 C       -6.2030     3.1270    -1.1220 C.3   1 <1>  -0.1600 
 10 C       -4.6660     1.4590     1.6110 C.3   1 <1>  -0.1600 
 11 C       -4.6070     1.1990    -0.8810 C.3   1 <1>  -0.1600 
 12 C       -6.1670     1.8420     1.5450 C.3   1 <1>  -0.0800 
 13 C       -6.1100     1.5840    -0.9590 C.3   1 <1>  -0.0800 
 14 C       -6.8490     1.1490     0.3360 C.3   1 <1>   0.7330 
 15 S       -6.8230    -0.6350     0.5150 S.3   1 <1>  -0.4600 
 16 N       -8.2970     1.3900     0.2720 N.4   1 <1>  -0.9060 
 17 C       -8.4640    -0.8580     1.2230 C.3   1 <1>   0.0700 
 18 C       -9.0270     0.5610     1.2840 C.3   1 <1>   0.3430 
 19 H       -0.8360     4.0910     1.2540 H     1 <1>   0.0800 
 20 H       -1.4390     5.6410     0.6480 H     1 <1>   0.0800 
 21 H       -3.5780     4.9020    -1.1600 H     1 <1>   0.4500 
 22 H       -3.4710     3.3860    -1.8360 H     1 <1>   0.4500 
 23 H       -5.6140     4.9030    -0.0110 H     1 <1>   0.0800 
 24 H       -2.8970     1.6010     0.3950 H     1 <1>   0.0800 
 25 H       -1.4010     2.9660    -0.7010 H     1 <1>   0.0800 
 26 H       -1.2520     4.5430    -1.4440 H     1 <1>   0.0800 
 27 H       -7.2830     3.7050     1.3530 H     1 <1>   0.0800 
 28 H       -5.8210     3.8590     2.2420 H     1 <1>   0.0800 
 29 H       -7.2310     3.4390    -1.1950 H     1 <1>   0.0800 
 30 H       -5.7360     3.4230    -2.0460 H     1 <1>   0.0800 
 31 H       -4.5530     0.3960     1.7440 H     1 <1>   0.0800 
 32 H       -4.2160     1.9130     2.4800 H     1 <1>   0.0800 
 33 H       -4.4980     0.1310    -0.7760 H     1 <1>   0.0800 
 34 H       -4.1140     1.4540    -1.8030 H     1 <1>   0.0800 
 35 H       -6.6400     1.5400     2.4630 H     1 <1>   0.0800 
 36 H       -6.5540     1.0910    -1.8080 H     1 <1>   0.0800 
 37 H       -8.5920     1.0940    -0.6630 H     1 <1>   0.4500 
 38 H       -8.4930     2.3870     0.3790 H     1 <1>   0.4500 
 39 H       -8.3690    -1.3110     2.1950 H     1 <1>   0.0800 
 40 H       -9.0260    -1.4940     0.5620 H     1 <1>   0.0800 
 41 H      -10.0890     0.5550     1.0930 H     1 <1>   0.0800 
 42 H       -8.8600     0.9610     2.2710 H     1 <1>   0.0800 
@<TRIPOS>BOND
  1   1   2  1   
  2   1   3  1   
  3   2   4  1   
  4   2   5  1   
  5   2   6  1   
  6   3   7  1   
  7   3  19  1   
  8   3  20  1   
  9   4   7  1   
 10   4  21  1   
 11   4  22  1   
 12   5   8  1   
 13   5   9  1   
 14   5  23  1   
 15   6  10  1   
 16   6  11  1   
 17   6  24  1   
 18   7  25  1   
 19   7  26  1   
 20   8  12  1   
 21   8  27  1   
 22   8  28  1   
 23   9  13  1   
 24   9  29  1   
 25   9  30  1   
 26  10  12  1   
 27  10  31  1   
 28  10  32  1   
 29  11  13  1   
 30  11  33  1   
 31  11  34  1   
 32  12  14  1   
 33  12  35  1   
 34  13  14  1   
 35  13  36  1   
 36  14  15  1   
 37  14  16  1   
 38  15  17  1   
 39  16  18  1   
 40  16  37  1   
 41  16  38  1   
 42  17  18  1   
 43  17  39  1   
 44  17  40  1   
 45  18  41  1   
 46  18  42  1   
@<TRIPOS>SUBSTRUCTURE
  1 ****   6 GROUP 4 **** **** 0

# MOE 2024.06 (io_trps.svl 2023.06)
