@<TRIPOS>MOLECULE
NONAME
45 46 1 0 0 
SMALL
USER_CHARGES


@<TRIPOS>ATOM
  1 O       -1.7070    -0.8480     1.2230 O.2   1 <1>  -0.5700 
  2 C       -1.4370    -1.4500     0.2030 C.2   1 <1>   0.5440 
  3 N       -2.0280    -1.0470    -0.9630 N.am  1 <1>  -0.7300 
  4 C       -0.5010    -2.5620     0.2170 C.ar  1 <1>   0.0860 
  5 C       -2.9450     0.1160    -1.0940 C.3   1 <1>   0.1400 
  6 C       -0.5700    -3.6010    -0.7140 C.ar  1 <1>  -0.1500 
  7 C        0.5120    -2.6330     1.1730 C.ar  1 <1>  -0.1500 
  8 C       -4.3000    -0.1900    -0.4560 C.3   1 <1>   0.1200 
  9 C        0.3340    -4.6470    -0.6980 C.ar  1 <1>  -0.1500 
 10 C        1.4180    -3.6770     1.1940 C.ar  1 <1>  -0.1500 
 11 O       -5.2090     0.8260    -0.8230 O.3   1 <1>  -0.3630 
 12 C        1.3350    -4.6920     0.2570 C.ar  1 <1>  -0.1430 
 13 C       -6.5000     0.7890    -0.4110 C.ar  1 <1>   0.0830 
 14 C        2.3310    -5.8380     0.2760 C.3   1 <1>  -0.0970 
 15 C       -7.3420     1.7730    -0.9040 C.ar  1 <1>  -0.1500 
 16 C       -7.0100    -0.1690     0.4610 C.ar  1 <1>  -0.1500 
 17 C       -8.6760     1.8040    -0.5380 C.ar  1 <1>  -0.1500 
 18 C       -8.3450    -0.1350     0.8250 C.ar  1 <1>  -0.1500 
 19 C       -9.1850     0.8500     0.3290 C.ar  1 <1>  -0.1430 
 20 C      -10.6510     0.8820     0.7300 C.3   1 <1>  -0.0170 
 21 C      -11.4910     0.0410    -0.2380 C.3   1 <1>  -0.1600 
 22 C      -12.9750     0.0530     0.1450 C.3   1 <1>  -0.2400 
 23 H       -1.7130    -1.4620    -1.8410 H     1 <1>   0.3700 
 24 H       -3.0820     0.3390    -2.1370 H     1 <1>   0.0800 
 25 H       -2.5070     0.9700    -0.6050 H     1 <1>   0.0800 
 26 H       -1.3460    -3.5980    -1.4580 H     1 <1>   0.1500 
 27 H        0.5850    -1.8520     1.9110 H     1 <1>   0.1500 
 28 H       -4.2120    -0.2010     0.6170 H     1 <1>   0.0800 
 29 H       -4.6830    -1.1280    -0.8170 H     1 <1>   0.0800 
 30 H        0.2560    -5.4310    -1.4320 H     1 <1>   0.1500 
 31 H        2.1880    -3.6960     1.9450 H     1 <1>   0.1500 
 32 H        1.8840    -6.7330    -0.1180 H     1 <1>   0.0800 
 33 H        2.6540    -6.0370     1.2820 H     1 <1>   0.0800 
 34 H        3.1890    -5.5860    -0.3200 H     1 <1>   0.0800 
 35 H       -6.9460     2.5130    -1.5750 H     1 <1>   0.1500 
 36 H       -6.3870    -0.9430     0.8670 H     1 <1>   0.1500 
 37 H       -9.3160     2.5740    -0.9320 H     1 <1>   0.1500 
 38 H       -8.7300    -0.8810     1.4980 H     1 <1>   0.1500 
 39 H      -11.0030     1.8980     0.7290 H     1 <1>   0.0800 
 40 H      -10.7590     0.5010     1.7310 H     1 <1>   0.0800 
 41 H      -11.1290    -0.9730    -0.2350 H     1 <1>   0.0800 
 42 H      -11.3760     0.4280    -1.2360 H     1 <1>   0.0800 
 43 H      -13.1120    -0.3530     1.1320 H     1 <1>   0.0800 
 44 H      -13.5380    -0.5440    -0.5510 H     1 <1>   0.0800 
 45 H      -13.3610     1.0570     0.1240 H     1 <1>   0.0800 
@<TRIPOS>BOND
  1   1   2  2   
  2   2   3  am  
  3   2   4  1   
  4   3   5  1   
  5   3  23  1   
  6   4   6  ar  
  7   4   7  ar  
  8   5   8  1   
  9   5  24  1   
 10   5  25  1   
 11   6   9  ar  
 12   6  26  1   
 13   7  10  ar  
 14   7  27  1   
 15   8  11  1   
 16   8  28  1   
 17   8  29  1   
 18   9  12  ar  
 19   9  30  1   
 20  10  12  ar  
 21  10  31  1   
 22  11  13  1   
 23  12  14  1   
 24  13  15  ar  
 25  13  16  ar  
 26  14  32  1   
 27  14  33  1   
 28  14  34  1   
 29  15  17  ar  
 30  15  35  1   
 31  16  18  ar  
 32  16  36  1   
 33  17  19  ar  
 34  17  37  1   
 35  18  19  ar  
 36  18  38  1   
 37  19  20  1   
 38  20  21  1   
 39  20  39  1   
 40  20  40  1   
 41  21  22  1   
 42  21  41  1   
 43  21  42  1   
 44  22  43  1   
 45  22  44  1   
 46  22  45  1   
@<TRIPOS>SUBSTRUCTURE
  1 ****   8 GROUP 4 **** **** 0

# MOE 2024.06 (io_trps.svl 2023.06)
