@<TRIPOS>MOLECULE
NONAME
48 50 1 0 0 
SMALL
USER_CHARGES


@<TRIPOS>ATOM
  1 O        3.4420     0.3110     1.5220 O.co2 1 <1>  -0.9000 
  2 C        3.7040    -0.8410     1.8810 C.2   1 <1>   0.9060 
  3 O        4.3620    -1.0690     2.9030 O.co2 1 <1>  -0.9000 
  4 C        3.2380    -2.0350     1.0700 C.3   1 <1>  -0.1860 
  5 C        4.3940    -2.7610     0.3450 C.3   1 <1>  -0.0190 
  6 C        2.1070    -1.7030     0.0860 C.3   1 <1>  -0.0220 
  7 C        5.0820    -1.9250    -0.7580 C.2   1 <1>   0.5690 
  8 C        3.8540    -4.1090    -0.1840 C.3   1 <1>  -0.0220 
  9 C        1.6930    -2.9280    -0.7300 C.2   1 <1>  -0.2760 
 10 O        4.7840    -2.1380    -1.9150 O.2   1 <1>  -0.5700 
 11 N        6.0580    -0.9960    -0.4770 N.am  1 <1>  -0.6600 
 12 C        2.4700    -4.0190    -0.8350 C.2   1 <1>  -0.2760 
 13 C        0.3350    -2.7080    -1.3850 C.3   1 <1>  -0.1020 
 14 C        6.5430    -0.0440    -1.5160 C.3   1 <1>   0.1400 
 15 C        6.6390    -0.6690     0.8630 C.3   1 <1>   0.1400 
 16 C        2.1390    -5.3000    -1.5920 C.3   1 <1>  -0.1020 
 17 C        8.0720    -0.0950    -1.6340 C.3   1 <1>   0.2090 
 18 C        8.1780    -0.6320     0.8350 C.3   1 <1>   0.2090 
 19 N        8.7510     0.1500    -0.3170 N.pl3 1 <1>  -0.8380 
 20 C        9.9960     0.7390    -0.2410 C.ar  1 <1>   0.7200 
 21 N       10.4360     1.3850    -1.3230 N.ar  1 <1>  -0.6200 
 22 N       10.6660     0.6080     0.9050 N.ar  1 <1>  -0.6200 
 23 C       11.6190     1.9390    -1.2360 C.ar  1 <1>   0.1600 
 24 C       11.8460     1.1730     0.9650 C.ar  1 <1>   0.1600 
 25 C       12.3790     1.8630    -0.0950 C.ar  1 <1>  -0.1500 
 26 H        2.8320    -2.7170     1.7940 H     1 <1>   0.0800 
 27 H        5.1400    -3.0100     1.0730 H     1 <1>   0.0800 
 28 H        2.4230    -0.9200    -0.5830 H     1 <1>   0.0800 
 29 H        1.2710    -1.3310     0.6520 H     1 <1>   0.0800 
 30 H        3.7870    -4.7970     0.6400 H     1 <1>   0.0800 
 31 H        4.5640    -4.5130    -0.8840 H     1 <1>   0.0800 
 32 H        0.3570    -1.7940    -1.9520 H     1 <1>   0.0800 
 33 H       -0.4240    -2.6250    -0.6290 H     1 <1>   0.0800 
 34 H        0.0620    -3.4970    -2.0550 H     1 <1>   0.0800 
 35 H        6.2420     0.9520    -1.2440 H     1 <1>   0.0800 
 36 H        6.1080    -0.2670    -2.4730 H     1 <1>   0.0800 
 37 H        6.3490    -1.3900     1.6010 H     1 <1>   0.0800 
 38 H        6.2620     0.2870     1.1840 H     1 <1>   0.0800 
 39 H        2.8130    -5.4100    -2.4230 H     1 <1>   0.0800 
 40 H        1.1370    -5.3110    -1.9680 H     1 <1>   0.0800 
 41 H        2.2520    -6.1470    -0.9400 H     1 <1>   0.0800 
 42 H        8.3710     0.6380    -2.3610 H     1 <1>   0.0800 
 43 H        8.3610    -1.0640    -2.0020 H     1 <1>   0.0800 
 44 H        8.5450    -1.6410     0.7790 H     1 <1>   0.0800 
 45 H        8.5080    -0.2160     1.7700 H     1 <1>   0.0800 
 46 H       11.9920     2.4680    -2.0960 H     1 <1>   0.1500 
 47 H       12.4010     1.0830     1.8820 H     1 <1>   0.1500 
 48 H       13.3470     2.3220    -0.0350 H     1 <1>   0.1500 
@<TRIPOS>BOND
  1   1   2  ar  
  2   2   3  ar  
  3   2   4  1   
  4   4   5  1   
  5   4   6  1   
  6   4  26  1   
  7   5   7  1   
  8   5   8  1   
  9   5  27  1   
 10   6   9  1   
 11   6  28  1   
 12   6  29  1   
 13   7  10  2   
 14   7  11  am  
 15   8  12  1   
 16   8  30  1   
 17   8  31  1   
 18   9  12  2   
 19   9  13  1   
 20  11  14  1   
 21  11  15  1   
 22  12  16  1   
 23  13  32  1   
 24  13  33  1   
 25  13  34  1   
 26  14  17  1   
 27  14  35  1   
 28  14  36  1   
 29  15  18  1   
 30  15  37  1   
 31  15  38  1   
 32  16  39  1   
 33  16  40  1   
 34  16  41  1   
 35  17  19  1   
 36  17  42  1   
 37  17  43  1   
 38  18  19  1   
 39  18  44  1   
 40  18  45  1   
 41  19  20  1   
 42  20  21  ar  
 43  20  22  ar  
 44  21  23  ar  
 45  22  24  ar  
 46  23  25  ar  
 47  23  46  1   
 48  24  25  ar  
 49  24  47  1   
 50  25  48  1   
@<TRIPOS>SUBSTRUCTURE
  1 ****  11 GROUP 4 **** **** 0

# MOE 2024.06 (io_trps.svl 2023.06)
