@<TRIPOS>MOLECULE
NONAME
47 49 1 0 0 
SMALL
USER_CHARGES


@<TRIPOS>ATOM
  1 F        0.4820    -2.0520     1.9890 F     1 <1>  -0.3400 
  2 C       -0.7390    -1.8900     1.4800 C.3   1 <1>   1.0200 
  3 F       -0.8470    -0.5950     1.2090 F     1 <1>  -0.3400 
  4 F       -1.5660    -2.0990     2.5010 F     1 <1>  -0.3400 
  5 C       -1.0200    -2.8490     0.2810 C.3   1 <1>   0.4990 
  6 N       -2.4360    -2.8560    -0.2710 N.am  1 <1>  -0.7300 
  7 C        0.0980    -2.5870    -0.7430 C.2   1 <1>   0.5690 
  8 C       -0.6910    -4.3110     0.6300 C.2   1 <1>  -0.1240 
  9 C       -3.0520    -1.8650    -0.9490 C.2   1 <1>   0.6300 
 10 O        0.3560    -1.5370    -1.2820 O.2   1 <1>  -0.5700 
 11 N        0.8390    -3.7240    -0.9200 N.am  1 <1>  -0.4690 
 12 C        0.3720    -4.7230    -0.0980 C.2   1 <1>  -0.0290 
 13 C       -1.4870    -4.9890     1.6020 C.2   1 <1>   0.7060 
 14 O       -2.4850    -0.8600    -1.2770 O.2   1 <1>  -0.5700 
 15 C       -4.5290    -2.0280    -1.2700 C.3   1 <1>  -0.1000 
 16 C        2.0430    -3.7580    -1.7940 C.3   1 <1>   0.2840 
 17 C        1.0480    -6.0870    -0.1010 C.3   1 <1>  -0.1020 
 18 O       -2.6540    -4.7140     1.7990 O.2   1 <1>  -0.5700 
 19 O       -0.9260    -5.9670     2.3150 O.3   1 <1>  -0.4300 
 20 C       -5.1580    -3.3690    -1.5320 C.3   1 <1>  -0.2000 
 21 C       -4.9610    -2.4020    -2.6580 C.3   1 <1>  -0.2000 
 22 C        3.3130    -3.7510    -0.9540 C.ar  1 <1>  -0.1430 
 23 C       -1.6430    -6.6670     3.3150 C.3   1 <1>   0.0400 
 24 C        3.5890    -2.6790    -0.1180 C.ar  1 <1>  -0.1500 
 25 C        4.2070    -4.8100    -1.0170 C.ar  1 <1>  -0.1500 
 26 C        4.7390    -2.6690     0.6520 C.ar  1 <1>  -0.1500 
 27 C        5.3580    -4.8010    -0.2470 C.ar  1 <1>  -0.1500 
 28 C        5.6240    -3.7310     0.5890 C.ar  1 <1>  -0.1500 
 29 H       -3.0320    -3.5700     0.1640 H     1 <1>   0.3700 
 30 H       -5.1190    -1.2860    -0.7640 H     1 <1>   0.1000 
 31 H        2.0470    -2.9000    -2.4450 H     1 <1>   0.0800 
 32 H        2.0060    -4.6360    -2.4130 H     1 <1>   0.0800 
 33 H        2.0190    -6.0140     0.3540 H     1 <1>   0.0800 
 34 H        1.1590    -6.4470    -1.1080 H     1 <1>   0.0800 
 35 H        0.4760    -6.8140     0.4420 H     1 <1>   0.0800 
 36 H       -6.1570    -3.5480    -1.1740 H     1 <1>   0.1000 
 37 H       -4.5540    -4.2600    -1.5270 H     1 <1>   0.1000 
 38 H       -4.1980    -2.5980    -3.3920 H     1 <1>   0.1000 
 39 H       -5.8170    -1.9030    -3.0780 H     1 <1>   0.1000 
 40 H       -0.9880    -7.3970     3.7560 H     1 <1>   0.0800 
 41 H       -2.4890    -7.1550     2.8620 H     1 <1>   0.0800 
 42 H       -1.9730    -5.9670     4.0620 H     1 <1>   0.0800 
 43 H        2.9090    -1.8450    -0.0640 H     1 <1>   0.1500 
 44 H        4.0160    -5.6490    -1.6630 H     1 <1>   0.1500 
 45 H        4.9440    -1.8350     1.3000 H     1 <1>   0.1500 
 46 H        6.0480    -5.6250    -0.2990 H     1 <1>   0.1500 
 47 H        6.5180    -3.7230     1.1880 H     1 <1>   0.1500 
@<TRIPOS>BOND
  1   1   2  1   
  2   2   3  1   
  3   2   4  1   
  4   2   5  1   
  5   5   6  1   
  6   5   7  1   
  7   5   8  1   
  8   6   9  am  
  9   6  29  1   
 10   7  10  2   
 11   7  11  am  
 12   8  12  2   
 13   8  13  1   
 14   9  14  2   
 15   9  15  1   
 16  11  12  1   
 17  11  16  1   
 18  12  17  1   
 19  13  18  2   
 20  13  19  1   
 21  15  20  1   
 22  15  21  1   
 23  15  30  1   
 24  16  22  1   
 25  16  31  1   
 26  16  32  1   
 27  17  33  1   
 28  17  34  1   
 29  17  35  1   
 30  19  23  1   
 31  20  21  1   
 32  20  36  1   
 33  20  37  1   
 34  21  38  1   
 35  21  39  1   
 36  22  24  ar  
 37  22  25  ar  
 38  23  40  1   
 39  23  41  1   
 40  23  42  1   
 41  24  26  ar  
 42  24  43  1   
 43  25  27  ar  
 44  25  44  1   
 45  26  28  ar  
 46  26  45  1   
 47  27  28  ar  
 48  27  46  1   
 49  28  47  1   
@<TRIPOS>SUBSTRUCTURE
  1 ****   5 GROUP 4 **** **** 0

# MOE 2024.06 (io_trps.svl 2023.06)
