@<TRIPOS>MOLECULE
NONAME
36 36 1 0 0 
SMALL
USER_CHARGES


@<TRIPOS>ATOM
  1 O        0.1420     0.2040    -1.7110 O.2   1 <1>  -0.5700 
  2 C       -0.2180    -0.5900    -0.8620 C.2   1 <1>   0.7800 
  3 O       -1.4830    -1.0180    -0.9160 O.3   1 <1>  -0.4300 
  4 N        0.6240    -1.0220     0.1160 N.am  1 <1>  -0.4300 
  5 C       -2.0570    -2.1710    -0.3390 C.3   1 <1>   0.2800 
  6 N        2.0900    -0.9200     0.0830 N.am  1 <1>  -0.4300 
  7 C       -1.2550    -3.4210    -0.7230 C.3   1 <1>  -0.2400 
  8 C       -2.1890    -1.9960     1.1790 C.3   1 <1>  -0.2400 
  9 C       -3.4530    -2.2630    -0.9540 C.3   1 <1>  -0.2400 
 10 C        2.9230    -1.9070    -0.3600 C.2   1 <1>   0.5440 
 11 O        2.4860    -3.0440    -0.4610 O.2   1 <1>  -0.5700 
 12 C        4.2970    -1.5850    -0.6920 C.ar  1 <1>   0.0860 
 13 C        5.3970    -2.2160    -0.0960 C.ar  1 <1>  -0.1430 
 14 C        4.5470    -0.5910    -1.6390 C.ar  1 <1>  -0.1500 
 15 C        6.6870    -1.8470    -0.4450 C.ar  1 <1>  -0.1500 
 16 C        5.2040    -3.3160     0.9410 C.3   1 <1>  -0.0970 
 17 C        5.8350    -0.2260    -1.9820 C.ar  1 <1>  -0.1500 
 18 C        6.9090    -0.8540    -1.3820 C.ar  1 <1>  -0.1500 
 19 H        0.2450    -1.6800     0.7960 H     1 <1>   0.3700 
 20 H        2.4770     0.0180     0.2330 H     1 <1>   0.3700 
 21 H       -0.2910    -3.4490    -0.2510 H     1 <1>   0.0800 
 22 H       -1.1210    -3.4640    -1.7900 H     1 <1>   0.0800 
 23 H       -1.7860    -4.3040    -0.4170 H     1 <1>   0.0800 
 24 H       -1.2420    -2.0420     1.6790 H     1 <1>   0.0800 
 25 H       -2.7960    -2.7870     1.5800 H     1 <1>   0.0800 
 26 H       -2.6680    -1.0600     1.4040 H     1 <1>   0.0800 
 27 H       -3.3830    -2.3550    -2.0240 H     1 <1>   0.0800 
 28 H       -4.0250    -1.3840    -0.7180 H     1 <1>   0.0800 
 29 H       -3.9780    -3.1220    -0.5750 H     1 <1>   0.0800 
 30 H        3.7160    -0.1030    -2.1210 H     1 <1>   0.1500 
 31 H        7.5330    -2.3320     0.0110 H     1 <1>   0.1500 
 32 H        4.5440    -2.9820     1.7220 H     1 <1>   0.0800 
 33 H        6.1390    -3.6000     1.3870 H     1 <1>   0.0800 
 34 H        4.7720    -4.1840     0.4740 H     1 <1>   0.0800 
 35 H        6.0030     0.5440    -2.7160 H     1 <1>   0.1500 
 36 H        7.9150    -0.5750    -1.6450 H     1 <1>   0.1500 
@<TRIPOS>BOND
  1   1   2  2   
  2   2   3  1   
  3   2   4  am  
  4   3   5  1   
  5   4   6  1   
  6   4  19  1   
  7   5   7  1   
  8   5   8  1   
  9   5   9  1   
 10   6  10  am  
 11   6  20  1   
 12   7  21  1   
 13   7  22  1   
 14   7  23  1   
 15   8  24  1   
 16   8  25  1   
 17   8  26  1   
 18   9  27  1   
 19   9  28  1   
 20   9  29  1   
 21  10  11  2   
 22  10  12  1   
 23  12  13  ar  
 24  12  14  ar  
 25  13  15  ar  
 26  13  16  1   
 27  14  17  ar  
 28  14  30  1   
 29  15  18  ar  
 30  15  31  1   
 31  16  32  1   
 32  16  33  1   
 33  16  34  1   
 34  17  18  ar  
 35  17  35  1   
 36  18  36  1   
@<TRIPOS>SUBSTRUCTURE
  1 ****   6 GROUP 4 **** **** 0

# MOE 2024.06 (io_trps.svl 2023.06)
