@<TRIPOS>MOLECULE
NONAME
32 32 1 0 0 
SMALL
USER_CHARGES


@<TRIPOS>ATOM
  1 BR      -0.2230    -1.0520    -0.2060 Br    1 <1>  -0.1110 
  2 C        1.6770    -1.3290    -0.0170 C.ar  1 <1>   0.1110 
  3 C        2.3230    -2.2660    -0.8100 C.ar  1 <1>  -0.1440 
  4 C        2.3430    -0.5650     0.9240 C.ar  1 <1>  -0.1500 
  5 C        3.6890    -2.4260    -0.6350 C.ar  1 <1>  -0.1500 
  6 C        1.5730    -3.0970    -1.8400 C.3   1 <1>  -0.0960 
  7 C        3.7060    -0.7380     1.0850 C.ar  1 <1>  -0.1500 
  8 C        4.3840    -1.6730     0.3020 C.ar  1 <1>   0.0830 
  9 O        5.7180    -1.9050     0.3960 O.3   1 <1>  -0.3630 
 10 C        6.5250    -1.1880     1.3230 C.3   1 <1>   0.1810 
 11 C        7.9860    -1.6160     1.2480 C.2   1 <1>   0.5690 
 12 O        8.7790    -1.0850     1.9890 O.2   1 <1>  -0.5700 
 13 N        8.3600    -2.5760     0.3590 N.am  1 <1>  -0.7300 
 14 C        9.7300    -3.0860     0.1580 C.3   1 <1>   0.1400 
 15 C       10.0980    -2.9540    -1.3200 C.3   1 <1>  -0.1600 
 16 C       11.5150    -3.4730    -1.5910 C.3   1 <1>  -0.2400 
 17 H        1.8000     0.1490     1.5160 H     1 <1>   0.1500 
 18 H        4.2330    -3.1400    -1.2270 H     1 <1>   0.1500 
 19 H        0.8100    -3.6810    -1.3560 H     1 <1>   0.0800 
 20 H        2.2380    -3.7650    -2.3550 H     1 <1>   0.0800 
 21 H        1.1090    -2.4520    -2.5650 H     1 <1>   0.0800 
 22 H        4.2140    -0.1400     1.8180 H     1 <1>   0.1500 
 23 H        6.1550    -1.3770     2.3140 H     1 <1>   0.0800 
 24 H        6.4550    -0.1400     1.0970 H     1 <1>   0.0800 
 25 H        7.6290    -2.9820    -0.2310 H     1 <1>   0.3700 
 26 H        9.7730    -4.1180     0.4620 H     1 <1>   0.0800 
 27 H       10.4240    -2.5240     0.7620 H     1 <1>   0.0800 
 28 H       10.0440    -1.9170    -1.6050 H     1 <1>   0.0800 
 29 H        9.3990    -3.5130    -1.9170 H     1 <1>   0.0800 
 30 H       12.2350    -2.9140    -1.0180 H     1 <1>   0.0800 
 31 H       11.7530    -3.3650    -2.6340 H     1 <1>   0.0800 
 32 H       11.5930    -4.5130    -1.3270 H     1 <1>   0.0800 
@<TRIPOS>BOND
  1   1   2  1   
  2   2   3  ar  
  3   2   4  ar  
  4   3   5  ar  
  5   3   6  1   
  6   4   7  ar  
  7   4  17  1   
  8   5   8  ar  
  9   5  18  1   
 10   6  19  1   
 11   6  20  1   
 12   6  21  1   
 13   7   8  ar  
 14   7  22  1   
 15   8   9  1   
 16   9  10  1   
 17  10  11  1   
 18  10  23  1   
 19  10  24  1   
 20  11  12  2   
 21  11  13  am  
 22  13  14  1   
 23  13  25  1   
 24  14  15  1   
 25  14  26  1   
 26  14  27  1   
 27  15  16  1   
 28  15  28  1   
 29  15  29  1   
 30  16  30  1   
 31  16  31  1   
 32  16  32  1   
@<TRIPOS>SUBSTRUCTURE
  1 ****   9 GROUP 4 **** **** 0

# MOE 2024.06 (io_trps.svl 2023.06)
