@<TRIPOS>MOLECULE
NONAME
40 41 1 0 0 
SMALL
USER_CHARGES


@<TRIPOS>ATOM
  1 F       -2.1890     0.6730     2.8060 F     1 <1>  -0.1900 
  2 C       -2.5240     1.0350     1.5950 C.ar  1 <1>   0.1900 
  3 C       -1.7330     1.9160     0.8780 C.ar  1 <1>   0.1900 
  4 C       -3.6870     0.5200     1.0510 C.ar  1 <1>  -0.1500 
  5 F       -0.6370     2.4000     1.4000 F     1 <1>  -0.1900 
  6 C       -2.0900     2.2990    -0.4010 C.ar  1 <1>  -0.1500 
  7 C       -4.0620     0.9050    -0.2330 C.ar  1 <1>  -0.1440 
  8 C       -3.2580     1.7880    -0.9530 C.ar  1 <1>  -0.1500 
  9 C       -5.3420     0.3630    -0.8470 C.3   1 <1>   0.4870 
 10 N       -6.5060     1.0240    -0.1950 N.4   1 <1>  -0.9590 
 11 C       -7.7850     0.3420    -0.5770 C.3   1 <1>   0.3430 
 12 C       -6.5420     2.4890    -0.4900 C.3   1 <1>   0.3430 
 13 C       -8.9890     0.9560     0.1460 C.3   1 <1>  -0.0190 
 14 C       -7.7050     3.1390     0.2630 C.3   1 <1>  -0.1600 
 15 C      -10.2490     0.2650    -0.3440 C.2   1 <1>   0.6590 
 16 C       -9.0500     2.4800    -0.0800 C.3   1 <1>  -0.1600 
 17 O      -10.2250    -0.4670    -1.2990 O.2   1 <1>  -0.5700 
 18 O      -11.3520     0.5160     0.3420 O.3   1 <1>  -0.4300 
 19 C      -12.5900    -0.0590    -0.0130 C.3   1 <1>   0.1200 
 20 C      -13.6410     0.4410     0.9720 C.3   1 <1>  -0.2400 
 21 H       -4.2690    -0.1700     1.6370 H     1 <1>   0.1500 
 22 H       -1.4620     2.9800    -0.9490 H     1 <1>   0.1500 
 23 H       -3.5250     2.0870    -1.9540 H     1 <1>   0.1500 
 24 H       -5.3840    -0.7030    -0.6880 H     1 <1>   0.0800 
 25 H       -5.3520     0.5490    -1.9090 H     1 <1>   0.0800 
 26 H       -6.3710     0.9280     0.8190 H     1 <1>   0.4500 
 27 H       -7.7320    -0.7090    -0.3390 H     1 <1>   0.0800 
 28 H       -7.9390     0.4300    -1.6410 H     1 <1>   0.0800 
 29 H       -6.6680     2.6470    -1.5490 H     1 <1>   0.0800 
 30 H       -5.6170     2.9540    -0.1860 H     1 <1>   0.0800 
 31 H       -8.9020     0.7530     1.1980 H     1 <1>   0.0800 
 32 H       -7.7480     4.1830     0.0040 H     1 <1>   0.0800 
 33 H       -7.5240     3.0810     1.3220 H     1 <1>   0.0800 
 34 H       -9.8300     2.9080     0.5280 H     1 <1>   0.0800 
 35 H       -9.2940     2.6810    -1.1100 H     1 <1>   0.0800 
 36 H      -12.4970    -1.1310     0.0340 H     1 <1>   0.0800 
 37 H      -12.8310     0.2390    -1.0200 H     1 <1>   0.0800 
 38 H      -13.3870     0.1450     1.9730 H     1 <1>   0.0800 
 39 H      -14.5980     0.0180     0.7240 H     1 <1>   0.0800 
 40 H      -13.7200     1.5130     0.9210 H     1 <1>   0.0800 
@<TRIPOS>BOND
  1   1   2  1   
  2   2   3  ar  
  3   2   4  ar  
  4   3   5  1   
  5   3   6  ar  
  6   4   7  ar  
  7   4  21  1   
  8   6   8  ar  
  9   6  22  1   
 10   7   8  ar  
 11   7   9  1   
 12   8  23  1   
 13   9  10  1   
 14   9  24  1   
 15   9  25  1   
 16  10  11  1   
 17  10  12  1   
 18  10  26  1   
 19  11  13  1   
 20  11  27  1   
 21  11  28  1   
 22  12  14  1   
 23  12  29  1   
 24  12  30  1   
 25  13  15  1   
 26  13  16  1   
 27  13  31  1   
 28  14  16  1   
 29  14  32  1   
 30  14  33  1   
 31  15  17  2   
 32  15  18  1   
 33  16  34  1   
 34  16  35  1   
 35  18  19  1   
 36  19  20  1   
 37  19  36  1   
 38  19  37  1   
 39  20  38  1   
 40  20  39  1   
 41  20  40  1   
@<TRIPOS>SUBSTRUCTURE
  1 ****  10 GROUP 4 **** **** 0

# MOE 2024.06 (io_trps.svl 2023.06)
