@<TRIPOS>MOLECULE
NONAME
32 33 1 0 0 
SMALL
USER_CHARGES


@<TRIPOS>ATOM
  1 BR      -0.6300    -0.2570    -0.4740 Br    1 <1>  -0.0580 
  2 C       -1.0570     1.5660    -0.0380 C.2   1 <1>   0.1980 
  3 O       -2.2660     1.9920    -0.3030 O.3   1 <1>  -0.2800 
  4 C       -0.2720     2.5070     0.5190 C.2   1 <1>  -0.1500 
  5 C       -2.3190     3.2700     0.0850 C.2   1 <1>   0.0550 
  6 C       -1.1030     3.6270     0.5990 C.2   1 <1>  -0.1500 
  7 C       -3.5310     4.0400    -0.0700 C.2   1 <1>   0.7150 
  8 O       -3.5870     5.2020     0.2900 O.2   1 <1>  -0.5700 
  9 N       -4.6350     3.4620    -0.6260 N.am  1 <1>  -0.7300 
 10 C       -5.9650     4.0860    -0.8050 C.3   1 <1>   0.1400 
 11 C       -7.0530     3.2490    -0.1140 C.3   1 <1>  -0.0800 
 12 C       -7.1570     1.8260    -0.7010 C.3   1 <1>  -0.1600 
 13 C       -8.4090     3.9710    -0.2190 C.3   1 <1>  -0.1600 
 14 C       -8.2850     1.0230    -0.0410 C.3   1 <1>  -0.1600 
 15 C       -9.5330     3.1660     0.4460 C.3   1 <1>  -0.1600 
 16 C       -9.6280     1.7550    -0.1480 C.3   1 <1>  -0.1600 
 17 H        0.7530     2.4350     0.8350 H     1 <1>   0.1500 
 18 H       -0.8280     4.5890     0.9950 H     1 <1>   0.1500 
 19 H       -4.5530     2.4830    -0.9070 H     1 <1>   0.3700 
 20 H       -6.1770     4.1680    -1.8570 H     1 <1>   0.0800 
 21 H       -5.9570     5.0800    -0.3880 H     1 <1>   0.0800 
 22 H       -6.8000     3.1750     0.9310 H     1 <1>   0.0800 
 23 H       -6.2320     1.2960    -0.5560 H     1 <1>   0.0800 
 24 H       -7.3410     1.8870    -1.7600 H     1 <1>   0.0800 
 25 H       -8.6550     4.1260    -1.2560 H     1 <1>   0.0800 
 26 H       -8.3430     4.9360     0.2530 H     1 <1>   0.0800 
 27 H       -8.0490     0.8650     0.9970 H     1 <1>   0.0800 
 28 H       -8.3640     0.0570    -0.5110 H     1 <1>   0.0800 
 29 H      -10.4710     3.6760     0.3110 H     1 <1>   0.0800 
 30 H       -9.3450     3.0950     1.5040 H     1 <1>   0.0800 
 31 H      -10.3870     1.1950     0.3720 H     1 <1>   0.0800 
 32 H       -9.9180     1.8220    -1.1830 H     1 <1>   0.0800 
@<TRIPOS>BOND
  1   1   2  1   
  2   2   3  1   
  3   2   4  2   
  4   3   5  1   
  5   4   6  1   
  6   4  17  1   
  7   5   6  2   
  8   5   7  1   
  9   6  18  1   
 10   7   8  2   
 11   7   9  am  
 12   9  10  1   
 13   9  19  1   
 14  10  11  1   
 15  10  20  1   
 16  10  21  1   
 17  11  12  1   
 18  11  13  1   
 19  11  22  1   
 20  12  14  1   
 21  12  23  1   
 22  12  24  1   
 23  13  15  1   
 24  13  25  1   
 25  13  26  1   
 26  14  16  1   
 27  14  27  1   
 28  14  28  1   
 29  15  16  1   
 30  15  29  1   
 31  15  30  1   
 32  16  31  1   
 33  16  32  1   
@<TRIPOS>SUBSTRUCTURE
  1 ****   9 GROUP 4 **** **** 0

# MOE 2024.06 (io_trps.svl 2023.06)
