@<TRIPOS>MOLECULE
NONAME
39 40 1 0 0 
SMALL
USER_CHARGES


@<TRIPOS>ATOM
  1 CL      -1.7120    -1.7990     2.4340 Cl    1 <1>  -0.1770 
  2 C       -2.1050    -1.5470     0.7510 C.ar  1 <1>   0.1770 
  3 C       -1.3250    -2.1430    -0.2340 C.ar  1 <1>  -0.1440 
  4 C       -3.1870    -0.7460     0.4390 C.ar  1 <1>  -0.1500 
  5 C       -1.6430    -1.9250    -1.5710 C.ar  1 <1>  -0.1500 
  6 C       -0.1550    -3.0310     0.1480 C.3   1 <1>   0.4870 
  7 C       -3.4740    -0.5500    -0.8960 C.ar  1 <1>   0.1900 
  8 C       -2.7240    -1.1230    -1.9060 C.ar  1 <1>  -0.1500 
  9 N        1.1180    -2.2660     0.0390 N.4   1 <1>  -0.9590 
 10 F       -4.4880     0.2050    -1.2160 F     1 <1>  -0.1900 
 11 C        2.3360    -3.1360     0.1680 C.3   1 <1>   0.3430 
 12 C        1.1990    -1.0960     0.9880 C.3   1 <1>   0.3430 
 13 C        3.6420    -2.3360    -0.0620 C.3   1 <1>   0.1960 
 14 C        2.5890    -0.4100     0.9690 C.3   1 <1>   0.1960 
 15 N        3.4330    -0.8720    -0.1570 N.am  1 <1>  -0.8490 
 16 S        4.9310    -0.0710    -0.2260 S.o2  1 <1>   1.3330 
 17 O        5.2990     0.1830     1.1470 O.2   1 <1>  -0.6500 
 18 O        5.7810    -0.8800    -1.0670 O.2   1 <1>  -0.6500 
 19 C        4.5620     1.4730    -1.0750 C.3   1 <1>  -0.0550 
 20 C        5.7790     2.3930    -1.2700 C.3   1 <1>  -0.2400 
 21 H       -3.7890    -0.2900     1.2050 H     1 <1>   0.1500 
 22 H       -1.0680    -2.3770    -2.3630 H     1 <1>   0.1500 
 23 H       -0.1310    -3.8790    -0.5180 H     1 <1>   0.0800 
 24 H       -0.2810    -3.4020     1.1520 H     1 <1>   0.0800 
 25 H       -2.9910    -0.9430    -2.9340 H     1 <1>   0.1500 
 26 H        1.1740    -1.8490    -0.9020 H     1 <1>   0.4500 
 27 H        2.2950    -3.9450    -0.5430 H     1 <1>   0.0800 
 28 H        2.3680    -3.5710     1.1530 H     1 <1>   0.0800 
 29 H        0.9880    -1.4200     1.9940 H     1 <1>   0.0800 
 30 H        0.4510    -0.3670     0.7230 H     1 <1>   0.0800 
 31 H        4.0970    -2.6870    -0.9750 H     1 <1>   0.0800 
 32 H        4.3330    -2.5570     0.7360 H     1 <1>   0.0800 
 33 H        3.0840    -0.6170     1.9050 H     1 <1>   0.0800 
 34 H        2.4510     0.6560     0.9150 H     1 <1>   0.0800 
 35 H        3.8180     2.0120    -0.5230 H     1 <1>   0.0800 
 36 H        4.1510     1.2460    -2.0410 H     1 <1>   0.0800 
 37 H        6.2010     2.6600    -0.3160 H     1 <1>   0.0800 
 38 H        5.4900     3.2920    -1.7840 H     1 <1>   0.0800 
 39 H        6.5350     1.8910    -1.8500 H     1 <1>   0.0800 
@<TRIPOS>BOND
  1   1   2  1   
  2   2   3  ar  
  3   2   4  ar  
  4   3   5  ar  
  5   3   6  1   
  6   4   7  ar  
  7   4  21  1   
  8   5   8  ar  
  9   5  22  1   
 10   6   9  1   
 11   6  23  1   
 12   6  24  1   
 13   7   8  ar  
 14   7  10  1   
 15   8  25  1   
 16   9  11  1   
 17   9  12  1   
 18   9  26  1   
 19  11  13  1   
 20  11  27  1   
 21  11  28  1   
 22  12  14  1   
 23  12  29  1   
 24  12  30  1   
 25  13  15  1   
 26  13  31  1   
 27  13  32  1   
 28  14  15  1   
 29  14  33  1   
 30  14  34  1   
 31  15  16  am  
 32  16  17  2   
 33  16  18  2   
 34  16  19  1   
 35  19  20  1   
 36  19  35  1   
 37  19  36  1   
 38  20  37  1   
 39  20  38  1   
 40  20  39  1   
@<TRIPOS>SUBSTRUCTURE
  1 ****  12 GROUP 4 **** **** 0

# MOE 2024.06 (io_trps.svl 2023.06)
