@<TRIPOS>MOLECULE
NONAME
30 30 1 0 0 
SMALL
USER_CHARGES


@<TRIPOS>ATOM
  1 O        0.2700     0.3830    -0.8180 O.2   1 <1>  -0.5700 
  2 C        0.1760    -0.7930    -0.5720 C.2   1 <1>   0.5690 
  3 N       -0.9780    -1.4170    -0.1900 N.am  1 <1>  -0.5470 
  4 C        1.4190    -1.6370    -0.6740 C.3   1 <1>  -0.0380 
  5 C       -2.2830    -0.9480     0.0240 C.ar  1 <1>   0.1170 
  6 C        1.5950    -2.3910     0.6190 C.2   1 <1>   0.4480 
  7 C       -3.1490    -1.6910     0.8290 C.ar  1 <1>  -0.1440 
  8 C       -2.7490     0.2290    -0.5540 C.ar  1 <1>  -0.1500 
  9 O        0.9680    -3.3840     0.8330 O.2   1 <1>  -0.5700 
 10 C        2.5620    -1.8300     1.6370 C.3   1 <1>  -0.1790 
 11 C       -4.4440    -1.2460     1.0390 C.ar  1 <1>  -0.1500 
 12 C       -2.6970    -2.9880     1.4900 C.3   1 <1>  -0.0970 
 13 C       -4.0420     0.6730    -0.3410 C.ar  1 <1>  -0.1430 
 14 C       -4.8900    -0.0720     0.4590 C.ar  1 <1>  -0.1500 
 15 C       -4.5300     1.9620    -0.9780 C.3   1 <1>  -0.0970 
 16 H       -0.8430    -2.3890     0.1040 H     1 <1>   0.3700 
 17 H        2.2730    -1.0170    -0.8710 H     1 <1>   0.0800 
 18 H        1.3040    -2.3320    -1.4840 H     1 <1>   0.0800 
 19 H       -2.0950     0.8040    -1.1820 H     1 <1>   0.1500 
 20 H        3.5580    -1.8200     1.2340 H     1 <1>   0.0800 
 21 H        2.5520    -2.4400     2.5220 H     1 <1>   0.0800 
 22 H        2.2740    -0.8290     1.9030 H     1 <1>   0.0800 
 23 H       -5.1200    -1.8110     1.6570 H     1 <1>   0.1500 
 24 H       -2.4570    -3.7220     0.7410 H     1 <1>   0.0800 
 25 H       -3.4690    -3.3900     2.1210 H     1 <1>   0.0800 
 26 H       -1.8270    -2.8110     2.0990 H     1 <1>   0.0800 
 27 H       -5.8990     0.2590     0.6330 H     1 <1>   0.1500 
 28 H       -3.6990     2.5880    -1.2480 H     1 <1>   0.0800 
 29 H       -5.1540     2.5040    -0.2900 H     1 <1>   0.0800 
 30 H       -5.0980     1.7370    -1.8630 H     1 <1>   0.0800 
@<TRIPOS>BOND
  1   1   2  2   
  2   2   3  am  
  3   2   4  1   
  4   3   5  1   
  5   3  16  1   
  6   4   6  1   
  7   4  17  1   
  8   4  18  1   
  9   5   7  ar  
 10   5   8  ar  
 11   6   9  2   
 12   6  10  1   
 13   7  11  ar  
 14   7  12  1   
 15   8  13  ar  
 16   8  19  1   
 17  10  20  1   
 18  10  21  1   
 19  10  22  1   
 20  11  14  ar  
 21  11  23  1   
 22  12  24  1   
 23  12  25  1   
 24  12  26  1   
 25  13  14  ar  
 26  13  15  1   
 27  14  27  1   
 28  15  28  1   
 29  15  29  1   
 30  15  30  1   
@<TRIPOS>SUBSTRUCTURE
  1 ****   3 GROUP 4 **** **** 0

# MOE 2024.06 (io_trps.svl 2023.06)
