@<TRIPOS>MOLECULE
NONAME
52 54 1 0 0 
SMALL
USER_CHARGES


@<TRIPOS>ATOM
  1 S        0.4900    -1.1200     1.1650 S.o2  1 <1>   1.4470 
  2 O        1.1110    -2.0500     2.0850 O.2   1 <1>  -0.6500 
  3 O       -0.1930     0.0440     1.6860 O.2   1 <1>  -0.6500 
  4 N        1.7230    -0.5480     0.1540 N.am  1 <1>  -0.8490 
  5 C       -0.6010    -2.0010     0.0140 C.ar  1 <1>  -0.0090 
  6 C        2.5510     0.4540     0.8450 C.3   1 <1>   0.1960 
  7 C        2.5790    -1.6350    -0.3510 C.3   1 <1>   0.1960 
  8 C       -0.9080    -3.3450     0.1930 C.ar  1 <1>  -0.1500 
  9 C       -1.1470    -1.3500    -1.0860 C.ar  1 <1>  -0.1500 
 10 C        3.6670     0.9950    -0.0690 C.3   1 <1>   0.1100 
 11 C        3.6910    -1.0980    -1.2700 C.3   1 <1>   0.1100 
 12 C       -1.7270    -4.0190    -0.6970 C.ar  1 <1>  -0.1500 
 13 C       -1.9670    -2.0150    -1.9810 C.ar  1 <1>  -0.1500 
 14 N        4.5300    -0.0930    -0.5760 N.3   1 <1>  -0.8100 
 15 C       -2.2560    -3.3530    -1.7870 C.ar  1 <1>  -0.1500 
 16 C        5.5870     0.4430    -1.4890 C.3   1 <1>   0.1710 
 17 C        6.7520    -0.5230    -1.7130 C.2   1 <1>   0.5690 
 18 O        7.4230    -0.4120    -2.7100 O.2   1 <1>  -0.5700 
 19 N        6.9470    -1.4580    -0.7370 N.am  1 <1>  -0.5470 
 20 C        7.8820    -2.4820    -0.5180 C.ar  1 <1>   0.1170 
 21 C        7.8100    -3.2380     0.6570 C.ar  1 <1>  -0.1430 
 22 C        8.8840    -2.7760    -1.4400 C.ar  1 <1>  -0.1500 
 23 C        8.7220    -4.2590     0.8770 C.ar  1 <1>  -0.1500 
 24 C        6.7490    -2.9780     1.7250 C.3   1 <1>  -0.0170 
 25 C        9.7900    -3.7930    -1.2100 C.ar  1 <1>  -0.1500 
 26 C        9.7100    -4.5380    -0.0500 C.ar  1 <1>  -0.1500 
 27 C        5.4410    -3.6930     1.3740 C.3   1 <1>  -0.2400 
 28 H        2.9940     0.0200     1.7270 H     1 <1>   0.0800 
 29 H        1.9330     1.2790     1.1560 H     1 <1>   0.0800 
 30 H        1.9810    -2.3370    -0.9070 H     1 <1>   0.0800 
 31 H        3.0330    -2.1610     0.4710 H     1 <1>   0.0800 
 32 H       -0.5030    -3.8730     1.0410 H     1 <1>   0.1500 
 33 H       -0.9250    -0.3070    -1.2410 H     1 <1>   0.1500 
 34 H        4.2640     1.6930     0.4910 H     1 <1>   0.0800 
 35 H        3.2160     1.5230    -0.8930 H     1 <1>   0.0800 
 36 H        3.2370    -0.6600    -2.1430 H     1 <1>   0.0800 
 37 H        4.3030    -1.9230    -1.5930 H     1 <1>   0.0800 
 38 H       -1.9530    -5.0600    -0.5410 H     1 <1>   0.1500 
 39 H       -2.3810    -1.4910    -2.8260 H     1 <1>   0.1500 
 40 H       -2.8940    -3.8740    -2.4810 H     1 <1>   0.1500 
 41 H        6.0040     1.3380    -1.0630 H     1 <1>   0.0800 
 42 H        5.1580     0.7010    -2.4420 H     1 <1>   0.0800 
 43 H        6.2120    -1.3920    -0.0280 H     1 <1>   0.3700 
 44 H        8.9630    -2.2110    -2.3490 H     1 <1>   0.1500 
 45 H        8.6690    -4.8470     1.7760 H     1 <1>   0.1500 
 46 H        6.5750    -1.9220     1.8330 H     1 <1>   0.0800 
 47 H        7.0980    -3.3340     2.6780 H     1 <1>   0.0800 
 48 H       10.5570    -4.0030    -1.9360 H     1 <1>   0.1500 
 49 H       10.4130    -5.3320     0.1320 H     1 <1>   0.1500 
 50 H        5.0920    -3.3810     0.4070 H     1 <1>   0.0800 
 51 H        4.6870    -3.4700     2.1080 H     1 <1>   0.0800 
 52 H        5.5990    -4.7560     1.3510 H     1 <1>   0.0800 
@<TRIPOS>BOND
  1   1   2  2   
  2   1   3  2   
  3   1   4  am  
  4   1   5  1   
  5   4   6  1   
  6   4   7  1   
  7   5   8  ar  
  8   5   9  ar  
  9   6  10  1   
 10   6  28  1   
 11   6  29  1   
 12   7  11  1   
 13   7  30  1   
 14   7  31  1   
 15   8  12  ar  
 16   8  32  1   
 17   9  13  ar  
 18   9  33  1   
 19  10  14  1   
 20  10  34  1   
 21  10  35  1   
 22  11  14  1   
 23  11  36  1   
 24  11  37  1   
 25  12  15  ar  
 26  12  38  1   
 27  13  15  ar  
 28  13  39  1   
 29  14  16  1   
 30  15  40  1   
 31  16  17  1   
 32  16  41  1   
 33  16  42  1   
 34  17  18  2   
 35  17  19  am  
 36  19  20  1   
 37  19  43  1   
 38  20  21  ar  
 39  20  22  ar  
 40  21  23  ar  
 41  21  24  1   
 42  22  25  ar  
 43  22  44  1   
 44  23  26  ar  
 45  23  45  1   
 46  24  27  1   
 47  24  46  1   
 48  24  47  1   
 49  25  26  ar  
 50  25  48  1   
 51  26  49  1   
 52  27  50  1   
 53  27  51  1   
 54  27  52  1   
@<TRIPOS>SUBSTRUCTURE
  1 ****   7 GROUP 4 **** **** 0

# MOE 2024.06 (io_trps.svl 2023.06)
