@<TRIPOS>MOLECULE
NONAME
42 44 1 0 0 
SMALL
USER_CHARGES


@<TRIPOS>ATOM
  1 CL      -0.5970    -0.0960    -0.9810 Cl    1 <1>  -0.1770 
  2 C       -0.3600    -1.7590    -0.4690 C.ar  1 <1>   0.1770 
  3 C       -1.4640    -2.5530    -0.2580 C.ar  1 <1>   0.0830 
  4 C        0.9600    -2.2260    -0.2850 C.ar  1 <1>   0.0000 
  5 O       -2.7010    -2.0230    -0.4560 O.3   1 <1>  -0.3620 
  6 C       -1.2760    -3.8850     0.1540 C.ar  1 <1>  -0.1500 
  7 C        1.1300    -3.5660     0.1330 C.ar  1 <1>   0.0000 
  8 C        2.1180    -1.4410    -0.4910 C.ar  1 <1>  -0.1500 
  9 C       -3.8760    -2.6790    -0.0560 C.3   1 <1>   0.1200 
 10 C       -0.0110    -4.3680     0.3420 C.ar  1 <1>  -0.1500 
 11 C        2.4350    -4.0620     0.3270 C.ar  1 <1>  -0.1500 
 12 C        3.3720    -1.9500    -0.2950 C.ar  1 <1>  -0.1500 
 13 C       -5.0310    -1.7110    -0.3140 C.3   1 <1>  -0.1600 
 14 C        3.5330    -3.2760     0.1190 C.ar  1 <1>  -0.1500 
 15 C       -6.3610    -2.3100     0.1380 C.3   1 <1>   0.3430 
 16 N       -7.4870    -1.4090    -0.2330 N.4   1 <1>  -0.9590 
 17 C       -7.4850    -0.0800     0.4740 C.3   1 <1>   0.3430 
 18 C       -8.8290    -2.0700    -0.0890 C.3   1 <1>   0.3430 
 19 C       -8.7040     0.7810     0.0690 C.3   1 <1>   0.1200 
 20 C       -9.9780    -1.1170    -0.4930 C.3   1 <1>   0.1200 
 21 O       -9.4850     0.1310    -0.8980 O.3   1 <1>  -0.5600 
 22 H       -2.1140    -4.5340     0.3200 H     1 <1>   0.1500 
 23 H        2.0060    -0.4210    -0.8100 H     1 <1>   0.1500 
 24 H       -3.7890    -2.9160     0.9910 H     1 <1>   0.0800 
 25 H       -3.9780    -3.5770    -0.6410 H     1 <1>   0.0800 
 26 H        0.1370    -5.3860     0.6570 H     1 <1>   0.1500 
 27 H        2.5540    -5.0820     0.6450 H     1 <1>   0.1500 
 28 H        4.2460    -1.3420    -0.4550 H     1 <1>   0.1500 
 29 H       -5.0660    -1.5010    -1.3690 H     1 <1>   0.0800 
 30 H       -4.8290    -0.8040     0.2260 H     1 <1>   0.0800 
 31 H        4.5270    -3.6600     0.2690 H     1 <1>   0.1500 
 32 H       -6.3490    -2.4680     1.2040 H     1 <1>   0.0800 
 33 H       -6.4940    -3.2660    -0.3440 H     1 <1>   0.0800 
 34 H       -7.4190    -1.1710    -1.2360 H     1 <1>   0.4500 
 35 H       -6.5860     0.4640     0.2370 H     1 <1>   0.0800 
 36 H       -7.5020    -0.2280     1.5410 H     1 <1>   0.0800 
 37 H       -8.9780    -2.3810     0.9320 H     1 <1>   0.0800 
 38 H       -8.8740    -2.9530    -0.7060 H     1 <1>   0.0800 
 39 H       -8.3750     1.7160    -0.3500 H     1 <1>   0.0800 
 40 H       -9.3220     0.9960     0.9240 H     1 <1>   0.0800 
 41 H      -10.6590    -0.9700     0.3270 H     1 <1>   0.0800 
 42 H      -10.5320    -1.5330    -1.3170 H     1 <1>   0.0800 
@<TRIPOS>BOND
  1   1   2  1   
  2   2   3  ar  
  3   2   4  ar  
  4   3   5  1   
  5   3   6  ar  
  6   4   7  ar  
  7   4   8  ar  
  8   5   9  1   
  9   6  10  ar  
 10   6  22  1   
 11   7  10  ar  
 12   7  11  ar  
 13   8  12  ar  
 14   8  23  1   
 15   9  13  1   
 16   9  24  1   
 17   9  25  1   
 18  10  26  1   
 19  11  14  ar  
 20  11  27  1   
 21  12  14  ar  
 22  12  28  1   
 23  13  15  1   
 24  13  29  1   
 25  13  30  1   
 26  14  31  1   
 27  15  16  1   
 28  15  32  1   
 29  15  33  1   
 30  16  17  1   
 31  16  18  1   
 32  16  34  1   
 33  17  19  1   
 34  17  35  1   
 35  17  36  1   
 36  18  20  1   
 37  18  37  1   
 38  18  38  1   
 39  19  21  1   
 40  19  39  1   
 41  19  40  1   
 42  20  21  1   
 43  20  41  1   
 44  20  42  1   
@<TRIPOS>SUBSTRUCTURE
  1 ****   5 GROUP 4 **** **** 0

# MOE 2024.06 (io_trps.svl 2023.06)
