@<TRIPOS>MOLECULE
NONAME
39 40 1 0 0 
SMALL
USER_CHARGES


@<TRIPOS>ATOM
  1 F       -1.9240    -2.8320     2.8620 F     1 <1>  -0.3400 
  2 C       -1.6840    -2.3030     1.6690 C.3   1 <1>   1.1640 
  3 F       -0.3800    -2.0550     1.6260 F     1 <1>  -0.3400 
  4 F       -2.2850    -1.1180     1.6600 F     1 <1>  -0.3400 
  5 C       -2.1610    -3.2170     0.5290 C.ar  1 <1>  -0.1440 
  6 C       -3.4780    -3.1640     0.0830 C.ar  1 <1>  -0.1500 
  7 C       -1.2930    -4.1230    -0.0730 C.ar  1 <1>  -0.1500 
  8 C       -3.9230    -3.9850    -0.9420 C.ar  1 <1>  -0.1440 
  9 C       -1.7310    -4.9480    -1.0930 C.ar  1 <1>  -0.1500 
 10 C       -3.0420    -4.8800    -1.5260 C.ar  1 <1>  -0.1500 
 11 C       -5.3660    -3.9070    -1.4120 C.3   1 <1>   0.3530 
 12 N       -6.1890    -4.7090    -0.4870 N.pl3 1 <1>  -0.8690 
 13 C       -7.5540    -4.8210    -0.4820 C.2   1 <1>  -0.0380 
 14 C       -8.3950    -4.1920    -1.3420 C.2   1 <1>  -0.1360 
 15 C       -8.1230    -5.7250     0.6060 C.3   1 <1>  -0.0220 
 16 C       -9.8060    -4.2940    -1.3140 C.2   1 <1>   0.4950 
 17 C       -9.5280    -6.2770     0.2600 C.3   1 <1>   0.0000 
 18 O      -10.5290    -3.7330    -2.1040 O.2   1 <1>  -0.5700 
 19 C      -10.4460    -5.1320    -0.2220 C.3   1 <1>  -0.0990 
 20 C       -9.4140    -7.3530    -0.8380 C.3   1 <1>  -0.2400 
 21 C      -10.1440    -6.9330     1.5070 C.3   1 <1>  -0.2400 
 22 H       -4.1750    -2.4780     0.5390 H     1 <1>   0.1500 
 23 H       -0.2670    -4.1950     0.2490 H     1 <1>   0.1500 
 24 H       -1.0500    -5.6460    -1.5500 H     1 <1>   0.1500 
 25 H       -3.3740    -5.5300    -2.3180 H     1 <1>   0.1500 
 26 H       -5.4600    -4.2990    -2.4100 H     1 <1>   0.0800 
 27 H       -5.7050    -2.8850    -1.4070 H     1 <1>   0.0800 
 28 H       -5.6120    -5.2220     0.1920 H     1 <1>   0.4000 
 29 H       -8.0150    -3.5580    -2.1170 H     1 <1>   0.1500 
 30 H       -8.1680    -5.1540     1.5160 H     1 <1>   0.0800 
 31 H       -7.4530    -6.5500     0.7740 H     1 <1>   0.0800 
 32 H      -11.3750    -5.5310    -0.5870 H     1 <1>   0.0800 
 33 H      -10.6720    -4.4740     0.5970 H     1 <1>   0.0800 
 34 H      -10.3840    -7.7420    -1.0900 H     1 <1>   0.0800 
 35 H       -8.9700    -6.9530    -1.7320 H     1 <1>   0.0800 
 36 H       -8.8010    -8.1710    -0.5020 H     1 <1>   0.0800 
 37 H       -9.5220    -7.7380     1.8570 H     1 <1>   0.0800 
 38 H      -10.2480    -6.2160     2.3030 H     1 <1>   0.0800 
 39 H      -11.1180    -7.3310     1.2830 H     1 <1>   0.0800 
@<TRIPOS>BOND
  1   1   2  1   
  2   2   3  1   
  3   2   4  1   
  4   2   5  1   
  5   5   6  ar  
  6   5   7  ar  
  7   6   8  ar  
  8   6  22  1   
  9   7   9  ar  
 10   7  23  1   
 11   8  10  ar  
 12   8  11  1   
 13   9  10  ar  
 14   9  24  1   
 15  10  25  1   
 16  11  12  1   
 17  11  26  1   
 18  11  27  1   
 19  12  13  1   
 20  12  28  1   
 21  13  14  2   
 22  13  15  1   
 23  14  16  1   
 24  14  29  1   
 25  15  17  1   
 26  15  30  1   
 27  15  31  1   
 28  16  18  2   
 29  16  19  1   
 30  17  19  1   
 31  17  20  1   
 32  17  21  1   
 33  19  32  1   
 34  19  33  1   
 35  20  34  1   
 36  20  35  1   
 37  20  36  1   
 38  21  37  1   
 39  21  38  1   
 40  21  39  1   
@<TRIPOS>SUBSTRUCTURE
  1 ****  12 GROUP 4 **** **** 0

# MOE 2024.06 (io_trps.svl 2023.06)
