@<TRIPOS>MOLECULE
NONAME
40 42 1 0 0 
SMALL
USER_CHARGES


@<TRIPOS>ATOM
  1 CL       0.5780    -0.7800    -1.7720 Cl    1 <1>  -0.1770 
  2 C        2.2230    -1.2760    -1.4750 C.ar  1 <1>   0.1770 
  3 C        3.2640    -0.5010    -1.9480 C.ar  1 <1>  -0.1500 
  4 C        2.4690    -2.4370    -0.7700 C.ar  1 <1>  -0.1500 
  5 C        4.5690    -0.8970    -1.7110 C.ar  1 <1>  -0.1500 
  6 C        3.7770    -2.8230    -0.5390 C.ar  1 <1>  -0.1500 
  7 C        4.8630    -2.0690    -1.0000 C.ar  1 <1>   0.0860 
  8 C        6.2170    -2.5040    -0.7390 C.2   1 <1>   0.3030 
  9 N        6.5640    -3.5910    -0.1700 N.2   1 <1>  -0.4300 
 10 C        7.4110    -1.6630    -1.1500 C.3   1 <1>  -0.0990 
 11 N        7.9280    -3.6500    -0.0790 N.am  1 <1>  -0.5140 
 12 C        8.5890    -2.4360    -0.5630 C.3   1 <1>   0.4560 
 13 S        8.9250    -4.9770     0.4690 S.o2  1 <1>   1.3330 
 14 C        9.2470    -1.6390     0.5590 C.2   1 <1>  -0.0400 
 15 O        8.7170    -5.1470     1.8890 O.2   1 <1>  -0.6500 
 16 O       10.2530    -4.7480    -0.0530 O.2   1 <1>  -0.6500 
 17 C        8.2110    -6.3770    -0.4010 C.3   1 <1>  -0.0550 
 18 O        9.9310    -0.5560     0.2330 O.3   1 <1>  -0.2800 
 19 C        9.2690    -1.8180     1.9000 C.2   1 <1>  -0.1500 
 20 C        8.2770    -6.2810    -1.9370 C.3   1 <1>  -0.1600 
 21 C       10.4050    -0.0310     1.3460 C.2   1 <1>  -0.0100 
 22 C       10.0300    -0.7630     2.4150 C.2   1 <1>  -0.1500 
 23 C        7.6640    -7.5200    -2.5970 C.3   1 <1>  -0.2400 
 24 H        3.0460     0.4000    -2.4950 H     1 <1>   0.1500 
 25 H        1.6460    -3.0260    -0.4080 H     1 <1>   0.1500 
 26 H        5.3610    -0.2780    -2.0900 H     1 <1>   0.1500 
 27 H        3.9640    -3.7280     0.0140 H     1 <1>   0.1500 
 28 H        7.3520    -0.6710    -0.7410 H     1 <1>   0.0800 
 29 H        7.4970    -1.6160    -2.2190 H     1 <1>   0.0800 
 30 H        9.3110    -2.6850    -1.3210 H     1 <1>   0.0800 
 31 H        7.1840    -6.4760    -0.1040 H     1 <1>   0.0800 
 32 H        8.7230    -7.2670    -0.0910 H     1 <1>   0.0800 
 33 H        8.8090    -2.5960     2.4860 H     1 <1>   0.1500 
 34 H        9.3040    -6.1820    -2.2460 H     1 <1>   0.0800 
 35 H        7.7440    -5.4050    -2.2660 H     1 <1>   0.0800 
 36 H       10.9990     0.8640     1.2860 H     1 <1>   0.1500 
 37 H       10.2510    -0.6050     3.4560 H     1 <1>   0.1500 
 38 H        8.1950    -8.4080    -2.3010 H     1 <1>   0.0800 
 39 H        7.7210    -7.4320    -3.6680 H     1 <1>   0.0800 
 40 H        6.6300    -7.6250    -2.3180 H     1 <1>   0.0800 
@<TRIPOS>BOND
  1   1   2  1   
  2   2   3  ar  
  3   2   4  ar  
  4   3   5  ar  
  5   3  24  1   
  6   4   6  ar  
  7   4  25  1   
  8   5   7  ar  
  9   5  26  1   
 10   6   7  ar  
 11   6  27  1   
 12   7   8  1   
 13   8   9  2   
 14   8  10  1   
 15   9  11  1   
 16  10  12  1   
 17  10  28  1   
 18  10  29  1   
 19  11  12  1   
 20  11  13  am  
 21  12  14  1   
 22  12  30  1   
 23  13  15  2   
 24  13  16  2   
 25  13  17  1   
 26  14  18  1   
 27  14  19  2   
 28  17  20  1   
 29  17  31  1   
 30  17  32  1   
 31  18  21  1   
 32  19  22  1   
 33  19  33  1   
 34  20  23  1   
 35  20  34  1   
 36  20  35  1   
 37  21  22  2   
 38  21  36  1   
 39  22  37  1   
 40  23  38  1   
 41  23  39  1   
 42  23  40  1   
@<TRIPOS>SUBSTRUCTURE
  1 ****   8 GROUP 4 **** **** 0

# MOE 2024.06 (io_trps.svl 2023.06)
