@<TRIPOS>MOLECULE
NONAME
51 53 1 0 0 
SMALL
USER_CHARGES


@<TRIPOS>ATOM
  1 S        1.1660    -1.6930    -2.0270 S.o2  1 <1>   1.4470 
  2 O        2.2970    -2.5600    -1.7700 O.2   1 <1>  -0.6500 
  3 O        1.1030    -0.9960    -3.2940 O.2   1 <1>  -0.6500 
  4 N        1.1570    -0.5300    -0.7910 N.am  1 <1>  -0.8490 
  5 C       -0.3740    -2.6340    -1.8130 C.ar  1 <1>  -0.0090 
  6 C        1.3310    -1.1420     0.5330 C.3   1 <1>   0.1960 
  7 C        2.1280     0.5330    -1.0690 C.3   1 <1>   0.1960 
  8 C       -1.4570    -2.1240    -1.1070 C.ar  1 <1>  -0.1500 
  9 C       -0.5070    -3.8980    -2.3720 C.ar  1 <1>  -0.1500 
 10 C        0.6710    -0.2780     1.6100 C.3   1 <1>  -0.1600 
 11 C        2.0140     1.7320    -0.1190 C.3   1 <1>  -0.1600 
 12 C       -2.6260    -2.8490    -0.9220 C.ar  1 <1>   0.1170 
 13 C       -1.6730    -4.6320    -2.2310 C.ar  1 <1>  -0.1500 
 14 C        1.5820     0.7880     2.2380 C.3   1 <1>  -0.1600 
 15 C        2.5780     1.4600     1.2830 C.3   1 <1>  -0.1600 
 16 N       -3.7040    -2.3510    -0.1720 N.am  1 <1>  -0.5470 
 17 C       -2.7400    -4.1120    -1.5080 C.ar  1 <1>   0.0820 
 18 C       -3.7420    -1.4910     0.8990 C.2   1 <1>   0.5440 
 19 O       -3.9190    -4.7800    -1.3370 O.3   1 <1>  -0.3630 
 20 O       -2.7050    -1.0870     1.3890 O.2   1 <1>  -0.5700 
 21 C       -5.0240    -1.1040     1.4610 C.ar  1 <1>   0.0860 
 22 C       -4.0960    -6.0920    -1.8260 C.3   1 <1>   0.0400 
 23 C       -6.1840    -1.0400     0.6830 C.ar  1 <1>  -0.1500 
 24 C       -5.1450    -0.7820     2.8140 C.ar  1 <1>  -0.1500 
 25 C       -7.4040    -0.6870     1.2330 C.ar  1 <1>  -0.1500 
 26 C       -6.3610    -0.4270     3.3690 C.ar  1 <1>  -0.1500 
 27 C       -7.4950    -0.3820     2.5790 C.ar  1 <1>  -0.1500 
 28 H        2.3720    -1.3190     0.7460 H     1 <1>   0.0800 
 29 H        0.8340    -2.0980     0.5500 H     1 <1>   0.0800 
 30 H        1.9550     0.9060    -2.0650 H     1 <1>   0.0800 
 31 H        3.1270     0.1310    -1.0450 H     1 <1>   0.0800 
 32 H       -1.3880    -1.1350    -0.6880 H     1 <1>   0.1500 
 33 H        0.3170    -4.3130    -2.9290 H     1 <1>   0.1500 
 34 H        0.3250    -0.9230     2.3990 H     1 <1>   0.0800 
 35 H       -0.2060     0.1880     1.1940 H     1 <1>   0.0800 
 36 H        0.9940     2.0720    -0.0700 H     1 <1>   0.0800 
 37 H        2.5920     2.5300    -0.5510 H     1 <1>   0.0800 
 38 H       -1.7230    -5.6010    -2.6900 H     1 <1>   0.1500 
 39 H        2.1400     0.3420     3.0440 H     1 <1>   0.0800 
 40 H        0.9510     1.5440     2.6740 H     1 <1>   0.0800 
 41 H        2.8800     2.3940     1.7250 H     1 <1>   0.0800 
 42 H        3.4630     0.8530     1.1990 H     1 <1>   0.0800 
 43 H       -4.5580    -2.8880    -0.3260 H     1 <1>   0.3700 
 44 H       -5.0810    -6.4220    -1.5480 H     1 <1>   0.0800 
 45 H       -3.3580    -6.7340    -1.3790 H     1 <1>   0.0800 
 46 H       -4.0030    -6.0820    -2.8970 H     1 <1>   0.0800 
 47 H       -6.1340    -1.2590    -0.3680 H     1 <1>   0.1500 
 48 H       -4.2660    -0.8120     3.4350 H     1 <1>   0.1500 
 49 H       -8.2840    -0.6460     0.6140 H     1 <1>   0.1500 
 50 H       -6.4250    -0.1860     4.4170 H     1 <1>   0.1500 
 51 H       -8.4430    -0.1070     3.0090 H     1 <1>   0.1500 
@<TRIPOS>BOND
  1   1   2  2   
  2   1   3  2   
  3   1   4  am  
  4   1   5  1   
  5   4   6  1   
  6   4   7  1   
  7   5   8  ar  
  8   5   9  ar  
  9   6  10  1   
 10   6  28  1   
 11   6  29  1   
 12   7  11  1   
 13   7  30  1   
 14   7  31  1   
 15   8  12  ar  
 16   8  32  1   
 17   9  13  ar  
 18   9  33  1   
 19  10  14  1   
 20  10  34  1   
 21  10  35  1   
 22  11  15  1   
 23  11  36  1   
 24  11  37  1   
 25  12  16  1   
 26  12  17  ar  
 27  13  17  ar  
 28  13  38  1   
 29  14  15  1   
 30  14  39  1   
 31  14  40  1   
 32  15  41  1   
 33  15  42  1   
 34  16  18  am  
 35  16  43  1   
 36  17  19  1   
 37  18  20  2   
 38  18  21  1   
 39  19  22  1   
 40  21  23  ar  
 41  21  24  ar  
 42  22  44  1   
 43  22  45  1   
 44  22  46  1   
 45  23  25  ar  
 46  23  47  1   
 47  24  26  ar  
 48  24  48  1   
 49  25  27  ar  
 50  25  49  1   
 51  26  27  ar  
 52  26  50  1   
 53  27  51  1   
@<TRIPOS>SUBSTRUCTURE
  1 ****   8 GROUP 4 **** **** 0

# MOE 2024.06 (io_trps.svl 2023.06)
