@<TRIPOS>MOLECULE
NONAME
44 46 1 0 0 
SMALL
USER_CHARGES


@<TRIPOS>ATOM
  1 O       -0.0070     1.8140    -1.0810 O.2   1 <1>  -0.5700 
  2 C       -1.1970     1.9790    -0.9370 C.2   1 <1>   0.7060 
  3 O       -1.5890     3.0150    -0.1940 O.3   1 <1>  -0.2330 
  4 C       -2.2030     1.1630    -1.5340 C.2   1 <1>  -0.1360 
  5 C       -2.8860     3.3630    -0.0320 C.ar  1 <1>   0.0820 
  6 C       -3.5180     1.4460    -1.4000 C.2   1 <1>  -0.1670 
  7 C       -3.9020     2.6010    -0.6340 C.ar  1 <1>   0.0280 
  8 C       -3.1720     4.4930     0.7260 C.ar  1 <1>  -0.1440 
  9 C       -4.5800     0.5640    -2.0450 C.3   1 <1>  -0.1020 
 10 C       -5.2200     3.0240    -0.4510 C.ar  1 <1>  -0.1500 
 11 C       -4.4890     4.8770     0.8980 C.ar  1 <1>  -0.1500 
 12 C       -2.0500     5.2930     1.3640 C.3   1 <1>   0.4870 
 13 C       -5.5100     4.1430     0.3120 C.ar  1 <1>   0.0830 
 14 N       -1.7030     6.4340     0.4750 N.4   1 <1>  -0.9590 
 15 O       -6.7790     4.5830     0.5050 O.3   1 <1>  -0.2320 
 16 C       -0.9570     5.9740    -0.7510 C.3   1 <1>   0.3430 
 17 C       -0.9110     7.4820     1.2050 C.3   1 <1>   0.3430 
 18 C       -7.8770     3.8270     0.4350 C.2   1 <1>   0.7060 
 19 C       -0.4820     7.1620    -1.6090 C.3   1 <1>   0.1200 
 20 C       -0.4520     8.6060     0.2560 C.3   1 <1>   0.1200 
 21 O       -8.7880     4.2320    -0.2460 O.2   1 <1>  -0.5700 
 22 C       -7.9690     2.5850     1.1680 C.2   1 <1>  -0.1360 
 23 O        0.2450     8.0670    -0.8280 O.3   1 <1>  -0.5600 
 24 C       -7.1370     2.0430     2.0790 C.2   1 <1>  -0.3000 
 25 H       -1.8390     0.3210    -2.0920 H     1 <1>   0.1500 
 26 H       -5.1560     1.1310    -2.7540 H     1 <1>   0.0800 
 27 H       -5.2390     0.1650    -1.2940 H     1 <1>   0.0800 
 28 H       -4.1290    -0.2630    -2.5660 H     1 <1>   0.0800 
 29 H       -6.0180     2.4760    -0.9170 H     1 <1>   0.1500 
 30 H       -4.7550     5.7410     1.4830 H     1 <1>   0.1500 
 31 H       -1.1870     4.6660     1.5250 H     1 <1>   0.0800 
 32 H       -2.3840     5.6600     2.3210 H     1 <1>   0.0800 
 33 H       -2.5850     6.8540     0.1570 H     1 <1>   0.4500 
 34 H       -1.5860     5.3350    -1.3490 H     1 <1>   0.0800 
 35 H       -0.0920     5.4000    -0.4600 H     1 <1>   0.0800 
 36 H       -0.0330     7.0360     1.6450 H     1 <1>   0.0800 
 37 H       -1.5010     7.9070     2.0000 H     1 <1>   0.0800 
 38 H       -1.3150     7.6780    -2.0550 H     1 <1>   0.0800 
 39 H        0.1660     6.8150    -2.3950 H     1 <1>   0.0800 
 40 H        0.2150     9.2770     0.7710 H     1 <1>   0.0800 
 41 H       -1.2890     9.1730    -0.1140 H     1 <1>   0.0800 
 42 H       -8.8700     2.0550     0.9140 H     1 <1>   0.1500 
 43 H       -7.3210     1.1000     2.5660 H     1 <1>   0.1500 
 44 H       -6.2190     2.4930     2.4150 H     1 <1>   0.1500 
@<TRIPOS>BOND
  1   1   2  2   
  2   2   3  1   
  3   2   4  1   
  4   3   5  1   
  5   4   6  2   
  6   4  25  1   
  7   5   7  ar  
  8   5   8  ar  
  9   6   7  1   
 10   6   9  1   
 11   7  10  ar  
 12   8  11  ar  
 13   8  12  1   
 14   9  26  1   
 15   9  27  1   
 16   9  28  1   
 17  10  13  ar  
 18  10  29  1   
 19  11  13  ar  
 20  11  30  1   
 21  12  14  1   
 22  12  31  1   
 23  12  32  1   
 24  13  15  1   
 25  14  16  1   
 26  14  17  1   
 27  14  33  1   
 28  15  18  1   
 29  16  19  1   
 30  16  34  1   
 31  16  35  1   
 32  17  20  1   
 33  17  36  1   
 34  17  37  1   
 35  18  21  2   
 36  18  22  1   
 37  19  23  1   
 38  19  38  1   
 39  19  39  1   
 40  20  23  1   
 41  20  40  1   
 42  20  41  1   
 43  22  24  2   
 44  22  42  1   
 45  24  43  1   
 46  24  44  1   
@<TRIPOS>SUBSTRUCTURE
  1 ****   5 GROUP 4 **** **** 0

# MOE 2024.06 (io_trps.svl 2023.06)
