@<TRIPOS>MOLECULE
NONAME
46 47 1 0 0 
SMALL
USER_CHARGES


@<TRIPOS>ATOM
  1 O        0.3260    -0.3380     0.5550 O.2   1 <1>  -0.5700 
  2 C        0.4130    -1.5390     0.7020 C.2   1 <1>   0.7800 
  3 O       -0.6750    -2.3040     0.6370 O.3   1 <1>  -0.4300 
  4 N        1.6170    -2.1620     0.9040 N.am  1 <1>  -0.6600 
  5 C       -1.9490    -1.7310     0.4430 C.3   1 <1>   0.1200 
  6 C        1.7830    -3.6450     0.9050 C.3   1 <1>   0.1400 
  7 C        2.8920    -1.3890     0.9590 C.3   1 <1>   0.1400 
  8 C       -2.9760    -2.8590     0.4130 C.3   1 <1>  -0.2400 
  9 C        2.7360    -4.0750    -0.2280 C.3   1 <1>   0.3430 
 10 C        3.8290    -1.8270    -0.1790 C.3   1 <1>   0.3430 
 11 N        4.0390    -3.3200    -0.1970 N.4   1 <1>  -0.9590 
 12 C        4.9360    -3.7350    -1.3000 C.3   1 <1>   0.4810 
 13 C        6.3180    -3.2010    -0.9780 C.2   1 <1>  -0.2760 
 14 C        7.0550    -3.6960     0.0350 C.2   1 <1>  -0.1780 
 15 C        6.7830    -2.0990    -1.9290 C.3   1 <1>  -0.1020 
 16 C        8.3620    -3.2860     0.4900 C.ar  1 <1>   0.0280 
 17 C        9.3720    -4.2280     0.6560 C.ar  1 <1>  -0.1500 
 18 C        8.6480    -1.9590     0.7980 C.ar  1 <1>  -0.1500 
 19 C       10.6270    -3.8590     1.1050 C.ar  1 <1>  -0.1500 
 20 C        9.9020    -1.5830     1.2470 C.ar  1 <1>  -0.1500 
 21 C       10.8940    -2.5340     1.4010 C.ar  1 <1>  -0.1500 
 22 H       -2.1460    -1.0510     1.2550 H     1 <1>   0.0800 
 23 H       -1.9440    -1.1890    -0.4880 H     1 <1>   0.0800 
 24 H        2.1800    -3.9560     1.8550 H     1 <1>   0.0800 
 25 H        0.8350    -4.1380     0.7730 H     1 <1>   0.0800 
 26 H        2.7000    -0.3320     0.8710 H     1 <1>   0.0800 
 27 H        3.3670    -1.5520     1.9110 H     1 <1>   0.0800 
 28 H       -2.9660    -3.3950     1.3450 H     1 <1>   0.0800 
 29 H       -2.7650    -3.5340    -0.3970 H     1 <1>   0.0800 
 30 H       -3.9590    -2.4480     0.2670 H     1 <1>   0.0800 
 31 H        2.2390    -3.8990    -1.1690 H     1 <1>   0.0800 
 32 H        2.9220    -5.1340    -0.1470 H     1 <1>   0.0800 
 33 H        4.7760    -1.3260    -0.0620 H     1 <1>   0.0800 
 34 H        3.3990    -1.5080    -1.1150 H     1 <1>   0.0800 
 35 H        4.5380    -3.5570     0.6690 H     1 <1>   0.4500 
 36 H        4.9790    -4.8120    -1.3540 H     1 <1>   0.0800 
 37 H        4.5860    -3.3560    -2.2460 H     1 <1>   0.0800 
 38 H        6.6790    -4.5170     0.6230 H     1 <1>   0.1500 
 39 H        6.7090    -2.4330    -2.9500 H     1 <1>   0.0800 
 40 H        7.8130    -1.8420    -1.7580 H     1 <1>   0.0800 
 41 H        6.1920    -1.2090    -1.8150 H     1 <1>   0.0800 
 42 H        9.1780    -5.2600     0.4280 H     1 <1>   0.1500 
 43 H        7.8850    -1.2120     0.6900 H     1 <1>   0.1500 
 44 H       11.3980    -4.6000     1.2250 H     1 <1>   0.1500 
 45 H       10.1080    -0.5520     1.4790 H     1 <1>   0.1500 
 46 H       11.8710    -2.2450     1.7500 H     1 <1>   0.1500 
@<TRIPOS>BOND
  1   1   2  2   
  2   2   3  1   
  3   2   4  am  
  4   3   5  1   
  5   4   6  1   
  6   4   7  1   
  7   5   8  1   
  8   5  22  1   
  9   5  23  1   
 10   6   9  1   
 11   6  24  1   
 12   6  25  1   
 13   7  10  1   
 14   7  26  1   
 15   7  27  1   
 16   8  28  1   
 17   8  29  1   
 18   8  30  1   
 19   9  11  1   
 20   9  31  1   
 21   9  32  1   
 22  10  11  1   
 23  10  33  1   
 24  10  34  1   
 25  11  12  1   
 26  11  35  1   
 27  12  13  1   
 28  12  36  1   
 29  12  37  1   
 30  13  14  2   
 31  13  15  1   
 32  14  16  1   
 33  14  38  1   
 34  15  39  1   
 35  15  40  1   
 36  15  41  1   
 37  16  17  ar  
 38  16  18  ar  
 39  17  19  ar  
 40  17  42  1   
 41  18  20  ar  
 42  18  43  1   
 43  19  21  ar  
 44  19  44  1   
 45  20  21  ar  
 46  20  45  1   
 47  21  46  1   
@<TRIPOS>SUBSTRUCTURE
  1 ****  11 GROUP 4 **** **** 0

# MOE 2024.06 (io_trps.svl 2023.06)
