@<TRIPOS>MOLECULE
NONAME
47 49 1 0 0 
SMALL
USER_CHARGES


@<TRIPOS>ATOM
  1 O       -2.3320     2.6280    -2.6950 O.2   1 <1>  -0.5700 
  2 C       -1.5010     2.8950    -1.8590 C.2   1 <1>   0.5690 
  3 N       -1.6720     2.6050    -0.5490 N.am  1 <1>  -0.7300 
  4 C       -0.1770     3.5480    -2.2720 C.3   1 <1>   0.1710 
  5 C       -2.6300     1.6280    -0.0150 C.3   1 <1>   0.3200 
  6 N        0.9550     3.2440    -1.3470 N.3   1 <1>  -0.8100 
  7 C       -1.8490     0.4060     0.4320 C.2   1 <1>  -0.0400 
  8 C        2.1310     4.0960    -1.6340 C.3   1 <1>   0.1100 
  9 C        1.3510     1.8120    -1.4260 C.3   1 <1>   0.1100 
 10 O       -0.9380     0.5370     1.3810 O.3   1 <1>  -0.2800 
 11 C       -1.9000    -0.8740     0.0030 C.2   1 <1>  -0.1500 
 12 C        3.3120     3.7910    -0.6900 C.3   1 <1>   0.2090 
 13 C        2.5170     1.4790    -0.4770 C.3   1 <1>   0.2090 
 14 C       -0.3920    -0.6460     1.5760 C.2   1 <1>  -0.0100 
 15 C       -0.9420    -1.5660     0.7560 C.2   1 <1>  -0.1500 
 16 N        3.6940     2.3510    -0.7630 N.pl3 1 <1>  -0.8380 
 17 C        4.8800     2.0060    -0.0990 C.ar  1 <1>   0.1000 
 18 C        5.0600     2.0650     1.2960 C.ar  1 <1>   0.0820 
 19 C        5.9380     1.5800    -0.8880 C.ar  1 <1>  -0.1500 
 20 O        4.0140     2.4860     2.0740 O.3   1 <1>  -0.3620 
 21 C        6.2850     1.6980     1.8470 C.ar  1 <1>  -0.1500 
 22 C        7.1520     1.2180    -0.3340 C.ar  1 <1>  -0.1500 
 23 C        4.1230     2.5800     3.4760 C.3   1 <1>   0.0400 
 24 C        7.3260     1.2770     1.0360 C.ar  1 <1>  -0.1500 
 25 H       -0.8390     2.7430     0.0360 H     1 <1>   0.3700 
 26 H       -0.3400     4.6100    -2.2950 H     1 <1>   0.0800 
 27 H        0.0700     3.2270    -3.2690 H     1 <1>   0.0800 
 28 H       -3.3460     1.3560    -0.7710 H     1 <1>   0.0800 
 29 H       -3.1520     2.0570     0.8220 H     1 <1>   0.0800 
 30 H        1.8580     5.1300    -1.5210 H     1 <1>   0.0800 
 31 H        2.4560     3.9410    -2.6490 H     1 <1>   0.0800 
 32 H        1.6500     1.5700    -2.4310 H     1 <1>   0.0800 
 33 H        0.5180     1.1830    -1.1670 H     1 <1>   0.0800 
 34 H       -2.5260    -1.3040    -0.7580 H     1 <1>   0.1500 
 35 H        3.0310     4.0430     0.3170 H     1 <1>   0.0800 
 36 H        4.1590     4.3950    -0.9640 H     1 <1>   0.0800 
 37 H        2.8010     0.4500    -0.6010 H     1 <1>   0.0800 
 38 H        2.1930     1.6190     0.5390 H     1 <1>   0.0800 
 39 H        0.3810    -0.7440     2.3190 H     1 <1>   0.1500 
 40 H       -0.7180    -2.6140     0.6710 H     1 <1>   0.1500 
 41 H        5.7950     1.5370    -1.9520 H     1 <1>   0.1500 
 42 H        6.4560     1.7310     2.9050 H     1 <1>   0.1500 
 43 H        7.9570     0.8910    -0.9680 H     1 <1>   0.1500 
 44 H        3.1820     2.9320     3.8590 H     1 <1>   0.0800 
 45 H        4.9020     3.2800     3.7200 H     1 <1>   0.0800 
 46 H        4.3380     1.6050     3.8750 H     1 <1>   0.0800 
 47 H        8.2690     0.9960     1.4710 H     1 <1>   0.1500 
@<TRIPOS>BOND
  1   1   2  2   
  2   2   3  am  
  3   2   4  1   
  4   3   5  1   
  5   3  25  1   
  6   4   6  1   
  7   4  26  1   
  8   4  27  1   
  9   5   7  1   
 10   5  28  1   
 11   5  29  1   
 12   6   8  1   
 13   6   9  1   
 14   7  10  1   
 15   7  11  2   
 16   8  12  1   
 17   8  30  1   
 18   8  31  1   
 19   9  13  1   
 20   9  32  1   
 21   9  33  1   
 22  10  14  1   
 23  11  15  1   
 24  11  34  1   
 25  12  16  1   
 26  12  35  1   
 27  12  36  1   
 28  13  16  1   
 29  13  37  1   
 30  13  38  1   
 31  14  15  2   
 32  14  39  1   
 33  15  40  1   
 34  16  17  1   
 35  17  18  ar  
 36  17  19  ar  
 37  18  20  1   
 38  18  21  ar  
 39  19  22  ar  
 40  19  41  1   
 41  20  23  1   
 42  21  24  ar  
 43  21  42  1   
 44  22  24  ar  
 45  22  43  1   
 46  23  44  1   
 47  23  45  1   
 48  23  46  1   
 49  24  47  1   
@<TRIPOS>SUBSTRUCTURE
  1 ****  13 GROUP 4 **** **** 0

# MOE 2024.06 (io_trps.svl 2023.06)
