@<TRIPOS>MOLECULE
NONAME
50 52 1 0 0 
SMALL
USER_CHARGES


@<TRIPOS>ATOM
  1 S       -0.1030     0.0840     0.8120 S.o2  1 <1>   1.4470 
  2 O       -0.5010    -1.1510     0.1720 O.2   1 <1>  -0.6500 
  3 O        0.3510     0.0560     2.1870 O.2   1 <1>  -0.6500 
  4 N        1.1540     0.7500    -0.1090 N.am  1 <1>  -0.8490 
  5 C       -1.4410     1.2980     0.6190 C.ar  1 <1>  -0.0090 
  6 C        1.7230     1.9460     0.5230 C.3   1 <1>   0.1960 
  7 C        2.1970    -0.2440    -0.3800 C.3   1 <1>   0.1960 
  8 C       -2.0890     1.8470     1.7190 C.ar  1 <1>  -0.1500 
  9 C       -1.8500     1.7150    -0.6420 C.ar  1 <1>  -0.1500 
 10 C        2.7410     2.6050    -0.4120 C.3   1 <1>  -0.1600 
 11 C        3.2440     0.3320    -1.3400 C.3   1 <1>  -0.1600 
 12 C       -3.1050     2.7740     1.5640 C.ar  1 <1>  -0.1500 
 13 C       -2.8650     2.6410    -0.7990 C.ar  1 <1>  -0.1500 
 14 C        3.8570     1.6270    -0.7950 C.3   1 <1>  -0.1600 
 15 C       -3.5210     3.1870     0.3010 C.ar  1 <1>   0.0860 
 16 C       -4.5910     4.1550     0.1490 C.2   1 <1>   0.5440 
 17 O       -4.4650     5.2500     0.6640 O.2   1 <1>  -0.5700 
 18 N       -5.7450     3.8670    -0.5550 N.am  1 <1>  -0.6600 
 19 C       -6.1480     2.4900    -0.9580 C.3   1 <1>   0.1400 
 20 C       -6.7770     4.9070    -0.8270 C.3   1 <1>   0.1400 
 21 C       -7.4510     2.1060    -0.2500 C.3   1 <1>  -0.1600 
 22 C       -8.0820     4.5390    -0.1150 C.3   1 <1>  -0.1600 
 23 C       -8.5640     3.1330    -0.5070 C.3   1 <1>  -0.0800 
 24 C       -9.8330     2.7610     0.2680 C.3   1 <1>  -0.2400 
 25 H        2.2010     1.6800     1.4530 H     1 <1>   0.0800 
 26 H        0.9400     2.6540     0.7390 H     1 <1>   0.0800 
 27 H        1.7600    -1.1180    -0.8360 H     1 <1>   0.0800 
 28 H        2.6650    -0.5460     0.5430 H     1 <1>   0.0800 
 29 H       -1.7940     1.5460     2.7110 H     1 <1>   0.1500 
 30 H       -1.3590     1.3060    -1.5110 H     1 <1>   0.1500 
 31 H        3.1660     3.4670     0.0720 H     1 <1>   0.0800 
 32 H        2.2310     2.9430    -1.2970 H     1 <1>   0.0800 
 33 H        2.7740     0.5230    -2.2890 H     1 <1>   0.0800 
 34 H        4.0190    -0.3970    -1.5000 H     1 <1>   0.0800 
 35 H       -3.5890     3.1930     2.4290 H     1 <1>   0.1500 
 36 H       -3.1580     2.9540    -1.7870 H     1 <1>   0.1500 
 37 H        4.4510     1.4030     0.0750 H     1 <1>   0.0800 
 38 H        4.5000     2.0710    -1.5350 H     1 <1>   0.0800 
 39 H       -5.3890     1.7720    -0.7070 H     1 <1>   0.0800 
 40 H       -6.2920     2.4670    -2.0250 H     1 <1>   0.0800 
 41 H       -6.9440     4.9640    -1.8890 H     1 <1>   0.0800 
 42 H       -6.4450     5.8750    -0.4930 H     1 <1>   0.0800 
 43 H       -7.2580     2.0310     0.8060 H     1 <1>   0.0800 
 44 H       -7.7650     1.1370    -0.5950 H     1 <1>   0.0800 
 45 H       -8.8340     5.2650    -0.3660 H     1 <1>   0.0800 
 46 H       -7.9170     4.5910     0.9470 H     1 <1>   0.0800 
 47 H       -8.7950     3.1320    -1.5600 H     1 <1>   0.0800 
 48 H       -9.6420     2.7540     1.3270 H     1 <1>   0.0800 
 49 H      -10.1780     1.7860    -0.0260 H     1 <1>   0.0800 
 50 H      -10.6150     3.4720     0.0660 H     1 <1>   0.0800 
@<TRIPOS>BOND
  1   1   2  2   
  2   1   3  2   
  3   1   4  am  
  4   1   5  1   
  5   4   6  1   
  6   4   7  1   
  7   5   8  ar  
  8   5   9  ar  
  9   6  10  1   
 10   6  25  1   
 11   6  26  1   
 12   7  11  1   
 13   7  27  1   
 14   7  28  1   
 15   8  12  ar  
 16   8  29  1   
 17   9  13  ar  
 18   9  30  1   
 19  10  14  1   
 20  10  31  1   
 21  10  32  1   
 22  11  14  1   
 23  11  33  1   
 24  11  34  1   
 25  12  15  ar  
 26  12  35  1   
 27  13  15  ar  
 28  13  36  1   
 29  14  37  1   
 30  14  38  1   
 31  15  16  1   
 32  16  17  2   
 33  16  18  am  
 34  18  19  1   
 35  18  20  1   
 36  19  21  1   
 37  19  39  1   
 38  19  40  1   
 39  20  22  1   
 40  20  41  1   
 41  20  42  1   
 42  21  23  1   
 43  21  43  1   
 44  21  44  1   
 45  22  23  1   
 46  22  45  1   
 47  22  46  1   
 48  23  24  1   
 49  23  47  1   
 50  24  48  1   
 51  24  49  1   
 52  24  50  1   
@<TRIPOS>SUBSTRUCTURE
  1 ****  13 GROUP 4 **** **** 0

# MOE 2024.06 (io_trps.svl 2023.06)
