@<TRIPOS>MOLECULE
NONAME
39 40 1 0 0 
SMALL
USER_CHARGES


@<TRIPOS>ATOM
  1 S       -0.3070     0.5390    -1.1280 S.o2  1 <1>   1.4470 
  2 O       -1.2930     1.2300    -1.9290 O.2   1 <1>  -0.6500 
  3 O        0.1340    -0.7810    -1.5200 O.2   1 <1>  -0.6500 
  4 N       -0.9570     0.3940     0.4320 N.am  1 <1>  -0.8490 
  5 C        1.1470     1.5900    -0.8690 C.ar  1 <1>  -0.0090 
  6 C       -2.0110    -0.6430     0.5100 C.3   1 <1>   0.1960 
  7 C       -1.4020     1.6900     0.9900 C.3   1 <1>   0.1960 
  8 C        2.0870     1.2650     0.0990 C.ar  1 <1>  -0.1500 
  9 C        1.3590     2.7380    -1.6220 C.ar  1 <1>  -0.1500 
 10 C       -3.4300    -0.0480     0.5980 C.3   1 <1>   0.1200 
 11 C       -2.4250     1.5080     2.1260 C.3   1 <1>   0.1200 
 12 C        3.2150     2.0420     0.3240 C.ar  1 <1>   0.1170 
 13 C        2.4650     3.5420    -1.4070 C.ar  1 <1>  -0.1500 
 14 O       -3.5710     0.8130     1.7030 O.3   1 <1>  -0.5600 
 15 N        4.1600     1.7030     1.3070 N.am  1 <1>  -0.5470 
 16 C        3.3940     3.2050    -0.4300 C.ar  1 <1>   0.0820 
 17 C        4.6990     0.5250     1.7170 C.2   1 <1>   0.5690 
 18 O        4.4930     3.9660    -0.1590 O.3   1 <1>  -0.3630 
 19 O        5.5020     0.5150     2.6120 O.2   1 <1>  -0.5700 
 20 C        4.3420    -0.7870     1.0570 C.3   1 <1>  -0.1790 
 21 C        4.8230     5.0930    -0.9420 C.3   1 <1>   0.0400 
 22 H       -1.8420    -1.2380     1.3900 H     1 <1>   0.0800 
 23 H       -1.9590    -1.3100    -0.3340 H     1 <1>   0.0800 
 24 H       -1.8660     2.2940     0.2270 H     1 <1>   0.0800 
 25 H       -0.5480     2.2290     1.3620 H     1 <1>   0.0800 
 26 H        1.9190     0.3870     0.6960 H     1 <1>   0.1500 
 27 H        0.6460     3.0080    -2.3850 H     1 <1>   0.1500 
 28 H       -4.1590    -0.8310     0.6990 H     1 <1>   0.0800 
 29 H       -3.6500     0.5120    -0.2940 H     1 <1>   0.0800 
 30 H       -2.7440     2.4640     2.5020 H     1 <1>   0.0800 
 31 H       -1.9790     0.9540     2.9330 H     1 <1>   0.0800 
 32 H        2.5790     4.4240    -2.0100 H     1 <1>   0.1500 
 33 H        4.6640     2.5070     1.6870 H     1 <1>   0.3700 
 34 H        3.4530    -1.1880     1.5050 H     1 <1>   0.0800 
 35 H        5.1450    -1.4870     1.2010 H     1 <1>   0.0800 
 36 H        4.1930    -0.6510     0.0030 H     1 <1>   0.0800 
 37 H        5.7470     5.4980    -0.5700 H     1 <1>   0.0800 
 38 H        4.0420     5.8260    -0.8500 H     1 <1>   0.0800 
 39 H        4.9470     4.7840    -1.9650 H     1 <1>   0.0800 
@<TRIPOS>BOND
  1   1   2  2   
  2   1   3  2   
  3   1   4  am  
  4   1   5  1   
  5   4   6  1   
  6   4   7  1   
  7   5   8  ar  
  8   5   9  ar  
  9   6  10  1   
 10   6  22  1   
 11   6  23  1   
 12   7  11  1   
 13   7  24  1   
 14   7  25  1   
 15   8  12  ar  
 16   8  26  1   
 17   9  13  ar  
 18   9  27  1   
 19  10  14  1   
 20  10  28  1   
 21  10  29  1   
 22  11  14  1   
 23  11  30  1   
 24  11  31  1   
 25  12  15  1   
 26  12  16  ar  
 27  13  16  ar  
 28  13  32  1   
 29  15  17  am  
 30  15  33  1   
 31  16  18  1   
 32  17  19  2   
 33  17  20  1   
 34  18  21  1   
 35  20  34  1   
 36  20  35  1   
 37  20  36  1   
 38  21  37  1   
 39  21  38  1   
 40  21  39  1   
@<TRIPOS>SUBSTRUCTURE
  1 ****   8 GROUP 4 **** **** 0

# MOE 2024.06 (io_trps.svl 2023.06)
