@<TRIPOS>MOLECULE
NONAME
51 53 1 0 0 
SMALL
USER_CHARGES


@<TRIPOS>ATOM
  1 S       -0.6090     0.1360    -2.5390 S.o2  1 <1>   1.4470 
  2 O       -0.7770    -1.2980    -2.5140 O.2   1 <1>  -0.6500 
  3 O       -0.8920     0.8830    -3.7450 O.2   1 <1>  -0.6500 
  4 N       -1.6210     0.8110    -1.2990 N.am  1 <1>  -0.6930 
  5 C        1.0490     0.5730    -1.9430 C.ar  1 <1>  -0.0090 
  6 C       -1.6680     0.2400    -0.0320 C.ar  1 <1>   0.1990 
  7 C       -2.1080     2.1970    -1.4910 C.3   1 <1>   0.1160 
  8 C        1.5540     0.0280    -0.7730 C.ar  1 <1>  -0.1500 
  9 C        1.8490     1.4830    -2.6260 C.ar  1 <1>  -0.1500 
 10 C       -1.0680     0.8670     1.0560 C.ar  1 <1>  -0.1500 
 11 C       -2.2920    -0.9850     0.1680 C.ar  1 <1>  -0.1500 
 12 C        2.7980     0.3740    -0.2530 C.ar  1 <1>   0.0860 
 13 C        3.0980     1.8370    -2.1500 C.ar  1 <1>  -0.1500 
 14 C       -1.0810     0.2780     2.3070 C.ar  1 <1>  -0.1500 
 15 C       -2.3140    -1.5740     1.4190 C.ar  1 <1>  -0.1500 
 16 C        3.5800     1.2900    -0.9640 C.ar  1 <1>   0.0830 
 17 C        3.2230    -0.1990     1.0040 C.2   1 <1>   0.5440 
 18 C       -1.7060    -0.9430     2.4910 C.ar  1 <1>  -0.1500 
 19 O        4.7960     1.6090    -0.4620 O.3   1 <1>  -0.3630 
 20 O        2.7410     0.2360     2.0360 O.2   1 <1>  -0.5700 
 21 N        4.1050    -1.2590     1.0670 N.am  1 <1>  -0.6600 
 22 C        5.6220     2.6040    -1.0250 C.3   1 <1>   0.0400 
 23 C        4.4550    -1.8720     2.3830 C.3   1 <1>   0.1400 
 24 C        4.7630    -1.8270    -0.1490 C.3   1 <1>   0.1400 
 25 C        4.8550    -3.3410     2.2080 C.3   1 <1>  -0.1600 
 26 C        6.1400    -2.3990     0.2040 C.3   1 <1>  -0.1600 
 27 C        6.0580    -3.5120     1.2640 C.3   1 <1>  -0.1600 
 28 H       -1.2740     2.8720    -1.5680 H     1 <1>   0.0800 
 29 H       -2.7290     2.4910    -0.6630 H     1 <1>   0.0800 
 30 H       -2.6900     2.2520    -2.3960 H     1 <1>   0.0800 
 31 H        0.9620    -0.6870    -0.2250 H     1 <1>   0.1500 
 32 H        1.4880     1.9200    -3.5420 H     1 <1>   0.1500 
 33 H       -0.5730     1.8110     0.9220 H     1 <1>   0.1500 
 34 H       -2.7550    -1.4770    -0.6690 H     1 <1>   0.1500 
 35 H        3.6800     2.5400    -2.7150 H     1 <1>   0.1500 
 36 H       -0.5970     0.7660     3.1370 H     1 <1>   0.1500 
 37 H       -2.7990    -2.5250     1.5570 H     1 <1>   0.1500 
 38 H       -1.7140    -1.4020     3.4640 H     1 <1>   0.1500 
 39 H        6.4990     2.6940    -0.4100 H     1 <1>   0.0800 
 40 H        5.0870     3.5370    -1.0350 H     1 <1>   0.0800 
 41 H        5.9020     2.3060    -2.0190 H     1 <1>   0.0800 
 42 H        3.6120    -1.8100     3.0500 H     1 <1>   0.0800 
 43 H        5.2690    -1.3180     2.8190 H     1 <1>   0.0800 
 44 H        4.8850    -1.0660    -0.8980 H     1 <1>   0.0800 
 45 H        4.1390    -2.6060    -0.5520 H     1 <1>   0.0800 
 46 H        4.0060    -3.8720     1.8120 H     1 <1>   0.0800 
 47 H        5.0840    -3.7700     3.1670 H     1 <1>   0.0800 
 48 H        6.7490    -1.5930     0.5750 H     1 <1>   0.0800 
 49 H        6.6130    -2.7800    -0.6830 H     1 <1>   0.0800 
 50 H        5.9830    -4.4710     0.7800 H     1 <1>   0.0800 
 51 H        6.9700    -3.5080     1.8360 H     1 <1>   0.0800 
@<TRIPOS>BOND
  1   1   2  2   
  2   1   3  2   
  3   1   4  am  
  4   1   5  1   
  5   4   6  1   
  6   4   7  1   
  7   5   8  ar  
  8   5   9  ar  
  9   6  10  ar  
 10   6  11  ar  
 11   7  28  1   
 12   7  29  1   
 13   7  30  1   
 14   8  12  ar  
 15   8  31  1   
 16   9  13  ar  
 17   9  32  1   
 18  10  14  ar  
 19  10  33  1   
 20  11  15  ar  
 21  11  34  1   
 22  12  16  ar  
 23  12  17  1   
 24  13  16  ar  
 25  13  35  1   
 26  14  18  ar  
 27  14  36  1   
 28  15  18  ar  
 29  15  37  1   
 30  16  19  1   
 31  17  20  2   
 32  17  21  am  
 33  18  38  1   
 34  19  22  1   
 35  21  23  1   
 36  21  24  1   
 37  22  39  1   
 38  22  40  1   
 39  22  41  1   
 40  23  25  1   
 41  23  42  1   
 42  23  43  1   
 43  24  26  1   
 44  24  44  1   
 45  24  45  1   
 46  25  27  1   
 47  25  46  1   
 48  25  47  1   
 49  26  27  1   
 50  26  48  1   
 51  26  49  1   
 52  27  50  1   
 53  27  51  1   
@<TRIPOS>SUBSTRUCTURE
  1 ****   8 GROUP 4 **** **** 0

# MOE 2024.06 (io_trps.svl 2023.06)
