@<TRIPOS>MOLECULE
NONAME
34 35 1 0 0 
SMALL
USER_CHARGES


@<TRIPOS>ATOM
  1 BR       2.1710    -3.2100    -3.5080 Br    1 <1>  -0.1110 
  2 C        0.8850    -3.3560    -2.0820 C.ar  1 <1>   0.1110 
  3 C       -0.4560    -3.3770    -2.3940 C.ar  1 <1>  -0.1500 
  4 C        1.3430    -3.4350    -0.7840 C.ar  1 <1>  -0.1500 
  5 C       -1.4180    -3.4850    -1.3850 C.ar  1 <1>   0.0860 
  6 C        0.4120    -3.5370     0.2310 C.ar  1 <1>  -0.1500 
  7 C       -0.9560    -3.5590    -0.0540 C.ar  1 <1>   0.0830 
  8 C       -2.8240    -3.5130    -1.7650 C.2   1 <1>   0.5440 
  9 O       -1.8710    -3.6450     0.9460 O.3   1 <1>  -0.3630 
 10 O       -3.1870    -3.0280    -2.8210 O.2   1 <1>  -0.5700 
 11 N       -3.7720    -4.0920    -0.9740 N.am  1 <1>  -0.7300 
 12 C       -1.5350    -3.7010     2.3150 C.3   1 <1>   0.0400 
 13 C       -5.2390    -4.0460    -1.1660 C.3   1 <1>   0.1400 
 14 C       -5.9050    -3.3590     0.0350 C.3   1 <1>   0.2000 
 15 O       -5.5210    -3.9710     1.2270 O.3   1 <1>  -0.5600 
 16 C       -7.4240    -3.4460     0.0430 C.3   1 <1>  -0.1600 
 17 C       -6.4490    -3.6990     2.2280 C.3   1 <1>   0.1200 
 18 C       -7.7580    -3.3470     1.5220 C.3   1 <1>  -0.1600 
 19 H       -0.7630    -3.3120    -3.4230 H     1 <1>   0.1500 
 20 H        2.3990    -3.4170    -0.5790 H     1 <1>   0.1500 
 21 H        0.7730    -3.5970     1.2400 H     1 <1>   0.1500 
 22 H       -3.5020    -4.3060    -0.0050 H     1 <1>   0.3700 
 23 H       -2.4500    -3.7570     2.8780 H     1 <1>   0.0800 
 24 H       -0.9980    -2.8080     2.5810 H     1 <1>   0.0800 
 25 H       -0.9430    -4.5800     2.4950 H     1 <1>   0.0800 
 26 H       -5.6110    -5.0510    -1.2600 H     1 <1>   0.0800 
 27 H       -5.4800    -3.5120    -2.0680 H     1 <1>   0.0800 
 28 H       -5.5940    -2.3290     0.0840 H     1 <1>   0.0800 
 29 H       -7.7380    -4.4000    -0.3430 H     1 <1>   0.0800 
 30 H       -7.8730    -2.6600    -0.5390 H     1 <1>   0.0800 
 31 H       -6.0840    -2.8710     2.8110 H     1 <1>   0.0800 
 32 H       -6.5460    -4.5740     2.8470 H     1 <1>   0.0800 
 33 H       -8.5460    -4.0250     1.7990 H     1 <1>   0.0800 
 34 H       -8.0500    -2.3450     1.7850 H     1 <1>   0.0800 
@<TRIPOS>BOND
  1   1   2  1   
  2   2   3  ar  
  3   2   4  ar  
  4   3   5  ar  
  5   3  19  1   
  6   4   6  ar  
  7   4  20  1   
  8   5   7  ar  
  9   5   8  1   
 10   6   7  ar  
 11   6  21  1   
 12   7   9  1   
 13   8  10  2   
 14   8  11  am  
 15   9  12  1   
 16  11  13  1   
 17  11  22  1   
 18  12  23  1   
 19  12  24  1   
 20  12  25  1   
 21  13  14  1   
 22  13  26  1   
 23  13  27  1   
 24  14  15  1   
 25  14  16  1   
 26  14  28  1   
 27  15  17  1   
 28  16  18  1   
 29  16  29  1   
 30  16  30  1   
 31  17  18  1   
 32  17  31  1   
 33  17  32  1   
 34  18  33  1   
 35  18  34  1   
@<TRIPOS>SUBSTRUCTURE
  1 ****  11 GROUP 4 **** **** 0

# MOE 2024.06 (io_trps.svl 2023.06)
