@<TRIPOS>MOLECULE
NONAME
26 28 1 0 0 
SMALL
USER_CHARGES


@<TRIPOS>ATOM
  1 N        0.2850    -0.0460    -0.1320 N.pl3 1 <1>   0.3000 
  2 N        0.9130     1.1440    -0.2850 N.2   1 <1>  -0.7070 
  3 C        1.1530    -1.0540     0.1380 C.2   1 <1>  -0.3320 
  4 C        2.1600     0.8430    -0.1100 C.2   1 <1>   0.1080 
  5 C        2.3760    -0.4880     0.1630 C.2   1 <1>  -0.0860 
  6 C        0.7580    -2.4990     0.3700 C.3   1 <1>  -0.0600 
  7 C        3.4740     1.5870    -0.1950 C.3   1 <1>   0.1160 
  8 C        3.8490    -0.6900     0.3920 C.3   1 <1>  -0.0140 
  9 C        4.3960     0.4030    -0.5550 C.3   1 <1>  -0.1950 
 10 C        5.1980    -0.7950    -0.1920 C.3   1 <1>  -0.1900 
 11 C        5.4380    -1.8830    -1.2450 C.3   1 <1>  -0.1450 
 12 C        6.4230    -0.5910     0.7060 C.3   1 <1>  -0.1450 
 13 H       -0.7340    -0.1360    -0.2160 H     1 <1>   0.2700 
 14 H        0.0990    -2.5750     1.2160 H     1 <1>   0.0800 
 15 H        1.6360    -3.0910     0.5640 H     1 <1>   0.0800 
 16 H        0.2650    -2.8940    -0.5000 H     1 <1>   0.0800 
 17 H        3.7310     2.0280     0.7510 H     1 <1>   0.0800 
 18 H        3.4470     2.3320    -0.9690 H     1 <1>   0.0800 
 19 H        3.9530    -0.6260     1.4620 H     1 <1>   0.1000 
 20 H        4.2720     0.3460    -1.6240 H     1 <1>   0.1000 
 21 H        4.5580    -2.0290    -1.8480 H     1 <1>   0.0800 
 22 H        5.6760    -2.8160    -0.7670 H     1 <1>   0.0800 
 23 H        6.2520    -1.6050    -1.8900 H     1 <1>   0.0800 
 24 H        6.2440     0.1890     1.4250 H     1 <1>   0.0800 
 25 H        7.2740    -0.3130     0.1120 H     1 <1>   0.0800 
 26 H        6.6510    -1.4990     1.2360 H     1 <1>   0.0800 
@<TRIPOS>BOND
  1   1   2  1   
  2   1   3  1   
  3   1  13  1   
  4   2   4  2   
  5   3   5  2   
  6   3   6  1   
  7   4   5  1   
  8   4   7  1   
  9   5   8  1   
 10   6  14  1   
 11   6  15  1   
 12   6  16  1   
 13   7   9  1   
 14   7  17  1   
 15   7  18  1   
 16   8   9  1   
 17   8  10  1   
 18   8  19  1   
 19   9  10  1   
 20   9  20  1   
 21  10  11  1   
 22  10  12  1   
 23  11  21  1   
 24  11  22  1   
 25  11  23  1   
 26  12  24  1   
 27  12  25  1   
 28  12  26  1   
@<TRIPOS>SUBSTRUCTURE
  1 ****   5 GROUP 4 **** **** 0

# MOE 2024.06 (io_trps.svl 2023.06)
