@<TRIPOS>MOLECULE
NONAME
41 42 1 0 0 
SMALL
USER_CHARGES


@<TRIPOS>ATOM
  1 S       -0.2880     0.2240     0.3000 S.3   1 <1>  -0.2860 
  2 C       -1.8320     0.6960    -0.4810 C.2   1 <1>   0.2420 
  3 C        0.9030     0.2390    -1.1220 C.3   1 <1>   0.1310 
  4 N       -1.9390     0.9740    -1.7310 N.2   1 <1>  -0.3380 
  5 N       -2.9760     0.7910     0.1870 N.pl3 1 <1>   0.0480 
  6 C        2.3010    -0.0920    -0.6420 C.2   1 <1>   0.6590 
  7 N       -3.2230     1.2750    -1.9250 N.2   1 <1>  -0.3380 
  8 C       -3.8380     1.1730    -0.7770 C.2   1 <1>   0.1330 
  9 C       -3.2260     0.5180     1.6180 C.3   1 <1>   0.0160 
 10 O        2.8370    -1.1340    -0.9230 O.2   1 <1>  -0.5700 
 11 O        2.9050     0.8370     0.0890 O.3   1 <1>  -0.4300 
 12 C       -5.2410     1.4310    -0.5670 C.ar  1 <1>   0.0530 
 13 C        4.2040     0.6430     0.5970 C.3   1 <1>   0.1200 
 14 C       -5.7070     2.3570     0.3770 C.ar  1 <1>   0.0830 
 15 C       -6.1940     0.7430    -1.3150 C.ar  1 <1>  -0.1500 
 16 C        4.5940     1.8880     1.3880 C.3   1 <1>  -0.2400 
 17 O       -4.8460     3.0880     1.1170 O.3   1 <1>  -0.3630 
 18 C       -7.0620     2.5440     0.5880 C.ar  1 <1>  -0.1500 
 19 C       -7.5480     0.9370    -1.1160 C.ar  1 <1>  -0.1500 
 20 C       -4.2180     4.1690     0.4660 C.3   1 <1>   0.1200 
 21 C       -7.9860     1.8350    -0.1570 C.ar  1 <1>  -0.1500 
 22 C       -3.1830     4.7570     1.4190 C.3   1 <1>  -0.2400 
 23 H        0.8730     1.2210    -1.5570 H     1 <1>   0.0800 
 24 H        0.5620    -0.4910    -1.8320 H     1 <1>   0.0800 
 25 H       -2.9800     1.3920     2.1930 H     1 <1>   0.0800 
 26 H       -2.6200    -0.3080     1.9410 H     1 <1>   0.0800 
 27 H       -4.2630     0.2760     1.7660 H     1 <1>   0.0800 
 28 H        4.8750     0.4840    -0.2310 H     1 <1>   0.0800 
 29 H        4.1960    -0.2300     1.2290 H     1 <1>   0.0800 
 30 H       -5.8590     0.0440    -2.0630 H     1 <1>   0.1500 
 31 H        4.5890     2.7510     0.7470 H     1 <1>   0.0800 
 32 H        5.5830     1.7660     1.7910 H     1 <1>   0.0800 
 33 H        3.9080     2.0390     2.2020 H     1 <1>   0.0800 
 34 H       -7.3890     3.2470     1.3330 H     1 <1>   0.1500 
 35 H       -8.2630     0.3900    -1.7050 H     1 <1>   0.1500 
 36 H       -4.9710     4.8960     0.2160 H     1 <1>   0.0800 
 37 H       -3.7460     3.8150    -0.4350 H     1 <1>   0.0800 
 38 H       -9.0400     1.9830     0.0030 H     1 <1>   0.1500 
 39 H       -3.6600     5.0960     2.3220 H     1 <1>   0.0800 
 40 H       -2.6960     5.5940     0.9530 H     1 <1>   0.0800 
 41 H       -2.4380     4.0190     1.6580 H     1 <1>   0.0800 
@<TRIPOS>BOND
  1   1   2  1   
  2   1   3  1   
  3   2   4  2   
  4   2   5  1   
  5   3   6  1   
  6   3  23  1   
  7   3  24  1   
  8   4   7  1   
  9   5   8  1   
 10   5   9  1   
 11   6  10  2   
 12   6  11  1   
 13   7   8  2   
 14   8  12  1   
 15   9  25  1   
 16   9  26  1   
 17   9  27  1   
 18  11  13  1   
 19  12  14  ar  
 20  12  15  ar  
 21  13  16  1   
 22  13  28  1   
 23  13  29  1   
 24  14  17  1   
 25  14  18  ar  
 26  15  19  ar  
 27  15  30  1   
 28  16  31  1   
 29  16  32  1   
 30  16  33  1   
 31  17  20  1   
 32  18  21  ar  
 33  18  34  1   
 34  19  21  ar  
 35  19  35  1   
 36  20  22  1   
 37  20  36  1   
 38  20  37  1   
 39  21  38  1   
 40  22  39  1   
 41  22  40  1   
 42  22  41  1   
@<TRIPOS>SUBSTRUCTURE
  1 ****   5 GROUP 4 **** **** 0

# MOE 2024.06 (io_trps.svl 2023.06)
