@<TRIPOS>MOLECULE
Structure1484
17 18 1 0 0 
SMALL
USER_CHARGES


@<TRIPOS>ATOM
  1 CL      -0.2550    -0.0640    -1.2740 Cl    1 <1>  -0.1770 
  2 C       -1.0570    -1.5080    -0.7330 C.ar  1 <1>   0.4870 
  3 N       -0.3730    -2.6260    -0.7820 N.ar  1 <1>  -0.6200 
  4 C       -2.3480    -1.4210    -0.2850 C.ar  1 <1>  -0.1500 
  5 C       -1.0420    -3.6810    -0.3550 C.ar  1 <1>   0.4700 
  6 C       -2.9340    -2.5900     0.1280 C.ar  1 <1>   0.2780 
  7 N       -2.2830    -3.7320     0.1000 N.ar  1 <1>  -0.6200 
  8 C       -4.3640    -2.6110     0.6450 C.3   1 <1>  -0.0680 
  9 C       -5.4470    -3.2340    -0.1820 C.3   1 <1>  -0.2000 
 10 C       -5.4440    -1.7550     0.0500 C.3   1 <1>  -0.2000 
 11 H       -2.8620    -0.4810    -0.2610 H     1 <1>   0.1500 
 12 H       -0.5100    -4.6180    -0.3800 H     1 <1>   0.1500 
 13 H       -4.4000    -2.8010     1.7040 H     1 <1>   0.1000 
 14 H       -6.1810    -3.8440     0.3140 H     1 <1>   0.1000 
 15 H       -5.1870    -3.6140    -1.1560 H     1 <1>   0.1000 
 16 H       -5.2300    -1.1190    -0.7910 H     1 <1>   0.1000 
 17 H       -6.1880    -1.3350     0.7040 H     1 <1>   0.1000 
@<TRIPOS>BOND
  1   1   2  1   
  2   2   3  ar  
  3   2   4  ar  
  4   3   5  ar  
  5   4   6  ar  
  6   4  11  1   
  7   5   7  ar  
  8   5  12  1   
  9   6   7  ar  
 10   6   8  1   
 11   8   9  1   
 12   8  10  1   
 13   8  13  1   
 14   9  10  1   
 15   9  14  1   
 16   9  15  1   
 17  10  16  1   
 18  10  17  1   
@<TRIPOS>SUBSTRUCTURE
  1 ****   6 GROUP 4 **** **** 0

# MOE 2024.06 (io_trps.svl 2023.06)
