@<TRIPOS>MOLECULE
NONAME
55 59 1 0 0 
SMALL
USER_CHARGES


@<TRIPOS>ATOM
  1 O       -1.5510    -1.3340     1.7670 O.2   1 <1>  -0.5700 
  2 C       -1.5360    -1.5660     0.5740 C.2   1 <1>   0.7160 
  3 N       -2.6180    -1.1460    -0.1700 N.am  1 <1>  -0.6600 
  4 C       -0.3910    -2.1780    -0.0500 C.2   1 <1>  -0.0860 
  5 C       -3.9020    -0.8040     0.5080 C.3   1 <1>   0.1400 
  6 C       -2.4240    -0.4270    -1.4600 C.3   1 <1>   0.1400 
  7 C       -0.2830    -3.0700    -1.0600 C.2   1 <1>  -0.0400 
  8 C        0.9450    -1.9620     0.2570 C.2   1 <1>   0.1080 
  9 C       -3.9720     0.7130     0.7550 C.3   1 <1>   0.3430 
 10 C       -2.5280     1.0970    -1.2400 C.3   1 <1>   0.3430 
 11 O        0.9650    -3.3310    -1.3600 O.3   1 <1>  -0.0190 
 12 C       -1.3550    -3.7970    -1.8510 C.3   1 <1>  -0.0600 
 13 N        1.7000    -2.6310    -0.5280 N.2   1 <1>  -0.4100 
 14 C        1.4800    -1.0710     1.3600 C.3   1 <1>  -0.0590 
 15 N       -3.7950     1.5160    -0.5190 N.4   1 <1>  -0.9590 
 16 C       -3.9050     3.0000    -0.3100 C.3   1 <1>   0.5030 
 17 C       -2.7890     3.5360     0.6160 C.3   1 <1>  -0.1600 
 18 C       -5.2800     3.3350     0.3180 C.3   1 <1>  -0.1600 
 19 C       -3.8150     3.7250    -1.6750 C.3   1 <1>  -0.1600 
 20 C       -2.9380     5.0590     0.8040 C.3   1 <1>  -0.0800 
 21 C       -5.4380     4.8550     0.5070 C.3   1 <1>  -0.0800 
 22 C       -3.9640     5.2470    -1.4960 C.3   1 <1>  -0.0800 
 23 C       -4.3130     5.3650     1.4270 C.3   1 <1>  -0.1600 
 24 C       -2.8460     5.7550    -0.5670 C.3   1 <1>  -0.1600 
 25 C       -5.3310     5.5510    -0.8590 C.3   1 <1>  -0.1600 
 26 H       -3.9760    -1.3240     1.4490 H     1 <1>   0.0800 
 27 H       -4.7300    -1.1200    -0.1020 H     1 <1>   0.0800 
 28 H       -3.1690    -0.7500    -2.1670 H     1 <1>   0.0800 
 29 H       -1.4580    -0.6550    -1.8790 H     1 <1>   0.0800 
 30 H       -3.2000     0.9710     1.4620 H     1 <1>   0.0800 
 31 H       -4.9220     0.9360     1.2090 H     1 <1>   0.0800 
 32 H       -2.4730     1.5790    -2.2010 H     1 <1>   0.0800 
 33 H       -1.6710     1.4100    -0.6680 H     1 <1>   0.0800 
 34 H       -2.3350    -3.5720    -1.4750 H     1 <1>   0.0800 
 35 H       -1.1970    -4.8580    -1.7730 H     1 <1>   0.0800 
 36 H       -1.2990    -3.5180    -2.8870 H     1 <1>   0.0800 
 37 H        1.0960    -0.0740     1.2520 H     1 <1>   0.0800 
 38 H        2.5540    -1.0380     1.3190 H     1 <1>   0.0800 
 39 H        1.1840    -1.4610     2.3170 H     1 <1>   0.0800 
 40 H       -4.5820     1.2770    -1.1310 H     1 <1>   0.4500 
 41 H       -1.8180     3.3420     0.1970 H     1 <1>   0.0800 
 42 H       -2.8380     3.0710     1.5840 H     1 <1>   0.0800 
 43 H       -5.3870     2.8850     1.2870 H     1 <1>   0.0800 
 44 H       -6.0750     2.9790    -0.3130 H     1 <1>   0.0800 
 45 H       -2.8640     3.5560    -2.1440 H     1 <1>   0.0800 
 46 H       -4.5890     3.3740    -2.3350 H     1 <1>   0.0800 
 47 H       -2.1580     5.4290     1.4500 H     1 <1>   0.0800 
 48 H       -6.3950     5.0750     0.9510 H     1 <1>   0.0800 
 49 H       -3.8940     5.7400    -2.4520 H     1 <1>   0.0800 
 50 H       -4.3890     4.9040     2.3970 H     1 <1>   0.0800 
 51 H       -4.4170     6.4270     1.5700 H     1 <1>   0.0800 
 52 H       -1.8830     5.5710    -1.0110 H     1 <1>   0.0800 
 53 H       -2.9390     6.8200    -0.4390 H     1 <1>   0.0800 
 54 H       -5.4430     6.6150    -0.7340 H     1 <1>   0.0800 
 55 H       -6.1240     5.2200    -1.5070 H     1 <1>   0.0800 
@<TRIPOS>BOND
  1   1   2  2   
  2   2   3  am  
  3   2   4  1   
  4   3   5  1   
  5   3   6  1   
  6   4   7  2   
  7   4   8  1   
  8   5   9  1   
  9   5  26  1   
 10   5  27  1   
 11   6  10  1   
 12   6  28  1   
 13   6  29  1   
 14   7  11  1   
 15   7  12  1   
 16   8  13  2   
 17   8  14  1   
 18   9  15  1   
 19   9  30  1   
 20   9  31  1   
 21  10  15  1   
 22  10  32  1   
 23  10  33  1   
 24  11  13  1   
 25  12  34  1   
 26  12  35  1   
 27  12  36  1   
 28  14  37  1   
 29  14  38  1   
 30  14  39  1   
 31  15  16  1   
 32  15  40  1   
 33  16  17  1   
 34  16  18  1   
 35  16  19  1   
 36  17  20  1   
 37  17  41  1   
 38  17  42  1   
 39  18  21  1   
 40  18  43  1   
 41  18  44  1   
 42  19  22  1   
 43  19  45  1   
 44  19  46  1   
 45  20  23  1   
 46  20  24  1   
 47  20  47  1   
 48  21  23  1   
 49  21  25  1   
 50  21  48  1   
 51  22  24  1   
 52  22  25  1   
 53  22  49  1   
 54  23  50  1   
 55  23  51  1   
 56  24  52  1   
 57  24  53  1   
 58  25  54  1   
 59  25  55  1   
@<TRIPOS>SUBSTRUCTURE
  1 ****  10 GROUP 4 **** **** 0

# MOE 2024.06 (io_trps.svl 2023.06)
