@<TRIPOS>MOLECULE
NONAME
37 38 1 0 0 
SMALL
USER_CHARGES


@<TRIPOS>ATOM
  1 S        0.1570     0.2650    -0.5830 S.3   1 <1>  -0.0800 
  2 C        0.9840     0.5240     0.9110 C.2   1 <1>   0.4340 
  3 C       -1.2760     0.7640     0.2530 C.2   1 <1>   0.1980 
  4 S        2.7450     0.2130     0.9790 S.3   1 <1>  -0.2860 
  5 N        0.2400     0.9250     1.8600 N.2   1 <1>  -0.3380 
  6 N       -1.0690     1.0630     1.4730 N.2   1 <1>  -0.3380 
  7 C       -2.5760     0.7930    -0.5190 C.3   1 <1>  -0.0600 
  8 C        3.2240    -0.3510    -0.7300 C.3   1 <1>   0.1310 
  9 C        4.7100    -0.6560    -0.8370 C.2   1 <1>   0.5690 
 10 O        5.1280    -0.9960    -1.9170 O.2   1 <1>  -0.5700 
 11 N        5.5080    -0.5390     0.2610 N.am  1 <1>  -0.7300 
 12 C        6.9620    -0.7860     0.3700 C.3   1 <1>   0.2200 
 13 C        7.7180     0.2780    -0.4360 C.3   1 <1>  -0.1600 
 14 C        7.2750    -2.2430    -0.0070 C.3   1 <1>  -0.1600 
 15 C        9.2500     0.1500    -0.3950 C.3   1 <1>  -0.1600 
 16 C        8.6590    -2.6920     0.4890 C.3   1 <1>  -0.1600 
 17 C        9.7580    -1.0410    -1.2210 C.3   1 <1>  -0.1600 
 18 C        9.8220    -2.3770    -0.4650 C.3   1 <1>  -0.1600 
 19 H       -2.8050    -0.1900    -0.8870 H     1 <1>   0.0800 
 20 H       -2.4940     1.4730    -1.3470 H     1 <1>   0.0800 
 21 H       -3.3730     1.1200     0.1240 H     1 <1>   0.0800 
 22 H        2.9650     0.4360    -1.4140 H     1 <1>   0.0800 
 23 H        2.6550    -1.2350    -0.9500 H     1 <1>   0.0800 
 24 H        5.0670    -0.2300     1.1310 H     1 <1>   0.3700 
 25 H        7.2240    -0.6550     1.4060 H     1 <1>   0.0800 
 26 H        7.4530     1.2420    -0.0410 H     1 <1>   0.0800 
 27 H        7.3950     0.2490    -1.4620 H     1 <1>   0.0800 
 28 H        7.1940    -2.3880    -1.0700 H     1 <1>   0.0800 
 29 H        6.5410    -2.8710     0.4660 H     1 <1>   0.0800 
 30 H        9.6060     0.0910     0.6190 H     1 <1>   0.0800 
 31 H        9.6600     1.0470    -0.8260 H     1 <1>   0.0800 
 32 H        8.6400    -3.7580     0.6390 H     1 <1>   0.0800 
 33 H        8.8570    -2.2500     1.4500 H     1 <1>   0.0800 
 34 H       10.7510    -0.8160    -1.5730 H     1 <1>   0.0800 
 35 H        9.1420    -1.1560    -2.0970 H     1 <1>   0.0800 
 36 H        9.8860    -3.1630    -1.1980 H     1 <1>   0.0800 
 37 H       10.7350    -2.4090     0.1040 H     1 <1>   0.0800 
@<TRIPOS>BOND
  1   1   2  1   
  2   1   3  1   
  3   2   4  1   
  4   2   5  2   
  5   3   6  2   
  6   3   7  1   
  7   4   8  1   
  8   5   6  1   
  9   7  19  1   
 10   7  20  1   
 11   7  21  1   
 12   8   9  1   
 13   8  22  1   
 14   8  23  1   
 15   9  10  2   
 16   9  11  am  
 17  11  12  1   
 18  11  24  1   
 19  12  13  1   
 20  12  14  1   
 21  12  25  1   
 22  13  15  1   
 23  13  26  1   
 24  13  27  1   
 25  14  16  1   
 26  14  28  1   
 27  14  29  1   
 28  15  17  1   
 29  15  30  1   
 30  15  31  1   
 31  16  18  1   
 32  16  32  1   
 33  16  33  1   
 34  17  18  1   
 35  17  34  1   
 36  17  35  1   
 37  18  36  1   
 38  18  37  1   
@<TRIPOS>SUBSTRUCTURE
  1 ****   9 GROUP 4 **** **** 0

# MOE 2024.06 (io_trps.svl 2023.06)
