@<TRIPOS>MOLECULE
NONAME
51 53 1 0 0 
SMALL
USER_CHARGES


@<TRIPOS>ATOM
  1 S       -0.6070    -0.7840    -0.7580 S.o2  1 <1>   1.3330 
  2 O       -0.1480    -1.6800    -1.7940 O.2   1 <1>  -0.6500 
  3 O       -2.0160    -0.6490    -0.4820 O.2   1 <1>  -0.6500 
  4 N        0.0140     0.7880    -1.1140 N.am  1 <1>  -0.6930 
  5 C        0.2450    -1.1760     0.7540 C.3   1 <1>  -0.1350 
  6 C       -0.4780     1.9280    -0.4970 C.ar  1 <1>   0.1990 
  7 C        1.0340     0.9080    -2.1730 C.3   1 <1>   0.3390 
  8 C        0.2360     2.5470     0.5230 C.ar  1 <1>  -0.1500 
  9 C       -1.6940     2.4750    -0.8880 C.ar  1 <1>  -0.1500 
 10 C        2.4160     0.6140    -1.6050 C.ar  1 <1>  -0.1430 
 11 C       -0.2440     3.6940     1.1280 C.ar  1 <1>  -0.1500 
 12 C       -2.1790     3.6220    -0.2860 C.ar  1 <1>  -0.1500 
 13 C        3.1720     1.6270    -1.0370 C.ar  1 <1>  -0.1500 
 14 C        2.9430    -0.6670    -1.6520 C.ar  1 <1>  -0.1500 
 15 C       -1.4530     4.2340     0.7220 C.ar  1 <1>  -0.1500 
 16 C        4.4220     1.3600    -0.5090 C.ar  1 <1>  -0.1500 
 17 C        4.1920    -0.9290    -1.1200 C.ar  1 <1>  -0.1500 
 18 C        4.9610     0.0710    -0.5260 C.ar  1 <1>   0.0860 
 19 C        6.2630    -0.2300     0.0450 C.2   1 <1>   0.5440 
 20 O        6.9140    -1.1740    -0.3560 O.2   1 <1>  -0.5700 
 21 N        6.7810     0.5350     1.0530 N.am  1 <1>  -0.7300 
 22 C        8.0940     0.2940     1.7190 C.3   1 <1>   0.1400 
 23 C        9.2800     0.5870     0.7860 C.3   1 <1>   0.2000 
 24 O       10.4560     0.5990     1.5280 O.3   1 <1>  -0.5600 
 25 C        9.2590     1.9560     0.1180 C.3   1 <1>  -0.1600 
 26 C       11.4510     1.2620     0.8190 C.3   1 <1>   0.1200 
 27 C       10.7340     2.2680    -0.0790 C.3   1 <1>  -0.1600 
 28 H       -0.0400    -2.1530     1.0920 H     1 <1>   0.0800 
 29 H       -0.0070    -0.4620     1.5130 H     1 <1>   0.0800 
 30 H        1.3050    -1.1590     0.6000 H     1 <1>   0.0800 
 31 H        1.0140     1.9080    -2.5710 H     1 <1>   0.0800 
 32 H        0.8090     0.2350    -2.9840 H     1 <1>   0.0800 
 33 H        1.1690     2.1220     0.8430 H     1 <1>   0.1500 
 34 H       -2.2600     1.9900    -1.6630 H     1 <1>   0.1500 
 35 H        0.3160     4.1670     1.9150 H     1 <1>   0.1500 
 36 H       -3.1220     4.0350    -0.5980 H     1 <1>   0.1500 
 37 H        2.7870     2.6330    -1.0070 H     1 <1>   0.1500 
 38 H        2.3840    -1.4690    -2.1050 H     1 <1>   0.1500 
 39 H       -1.8300     5.1270     1.1910 H     1 <1>   0.1500 
 40 H        4.9910     2.1680    -0.0860 H     1 <1>   0.1500 
 41 H        4.5870    -1.9300    -1.1650 H     1 <1>   0.1500 
 42 H        6.2080     1.2690     1.4670 H     1 <1>   0.3700 
 43 H        8.1460    -0.7350     2.0310 H     1 <1>   0.0800 
 44 H        8.1660     0.9230     2.5880 H     1 <1>   0.0800 
 45 H        9.3710    -0.1930     0.0480 H     1 <1>   0.0800 
 46 H        8.8120     2.6770     0.7800 H     1 <1>   0.0800 
 47 H        8.7110     1.9320    -0.8070 H     1 <1>   0.0800 
 48 H       11.9880     0.5320     0.2360 H     1 <1>   0.0800 
 49 H       12.1150     1.7370     1.5200 H     1 <1>   0.0800 
 50 H       10.9660     3.2780     0.2110 H     1 <1>   0.0800 
 51 H       11.0310     2.1190    -1.1020 H     1 <1>   0.0800 
@<TRIPOS>BOND
  1   1   2  2   
  2   1   3  2   
  3   1   4  am  
  4   1   5  1   
  5   4   6  1   
  6   4   7  1   
  7   5  28  1   
  8   5  29  1   
  9   5  30  1   
 10   6   8  ar  
 11   6   9  ar  
 12   7  10  1   
 13   7  31  1   
 14   7  32  1   
 15   8  11  ar  
 16   8  33  1   
 17   9  12  ar  
 18   9  34  1   
 19  10  13  ar  
 20  10  14  ar  
 21  11  15  ar  
 22  11  35  1   
 23  12  15  ar  
 24  12  36  1   
 25  13  16  ar  
 26  13  37  1   
 27  14  17  ar  
 28  14  38  1   
 29  15  39  1   
 30  16  18  ar  
 31  16  40  1   
 32  17  18  ar  
 33  17  41  1   
 34  18  19  1   
 35  19  20  2   
 36  19  21  am  
 37  21  22  1   
 38  21  42  1   
 39  22  23  1   
 40  22  43  1   
 41  22  44  1   
 42  23  24  1   
 43  23  25  1   
 44  23  45  1   
 45  24  26  1   
 46  25  27  1   
 47  25  46  1   
 48  25  47  1   
 49  26  27  1   
 50  26  48  1   
 51  26  49  1   
 52  27  50  1   
 53  27  51  1   
@<TRIPOS>SUBSTRUCTURE
  1 ****  16 GROUP 4 **** **** 0

# MOE 2024.06 (io_trps.svl 2023.06)
