@<TRIPOS>MOLECULE
NONAME
40 40 1 0 0 
SMALL
USER_CHARGES


@<TRIPOS>ATOM
  1 S       -0.2940    -0.1130     0.6430 S.o2  1 <1>   1.4470 
  2 O       -0.9360     0.9970    -0.0260 O.2   1 <1>  -0.6500 
  3 O       -0.5590    -0.3660     2.0400 O.2   1 <1>  -0.6500 
  4 N       -0.8520    -1.5240    -0.0720 N.am  1 <1>  -0.9140 
  5 C        1.4830    -0.1030     0.2940 C.ar  1 <1>  -0.0090 
  6 C       -2.2640    -1.5040    -0.3740 C.3   1 <1>   0.2760 
  7 C        2.2920     0.8800     0.8530 C.ar  1 <1>   0.0830 
  8 C        2.0900    -1.0380    -0.5390 C.ar  1 <1>  -0.1500 
  9 C       -2.8480    -2.8730     0.0140 C.3   1 <1>  -0.1600 
 10 C       -2.4280    -1.2010    -1.8720 C.3   1 <1>  -0.1600 
 11 O        1.7530     1.8150     1.6620 O.3   1 <1>  -0.3630 
 12 C        3.6570     0.9170     0.6140 C.ar  1 <1>  -0.1500 
 13 C        3.4520    -1.0110    -0.7940 C.ar  1 <1>   0.0830 
 14 C       -2.6690    -3.2230     1.5010 C.3   1 <1>  -0.2400 
 15 C       -3.8880    -1.0050    -2.3070 C.3   1 <1>  -0.2400 
 16 C        1.5080     3.0780     1.0830 C.3   1 <1>   0.0400 
 17 C        4.2420    -0.0260    -0.2100 C.ar  1 <1>  -0.1500 
 18 O        3.9340    -1.9750    -1.6190 O.3   1 <1>  -0.3630 
 19 C        5.3060    -2.0420    -1.9420 C.3   1 <1>   0.0400 
 20 H       -0.7670    -2.1850     0.6950 H     1 <1>   0.4200 
 21 H       -2.7650    -0.7430     0.2070 H     1 <1>   0.0800 
 22 H        1.5070    -1.8080    -1.0100 H     1 <1>   0.1500 
 23 H       -2.4070    -3.6410    -0.5980 H     1 <1>   0.0800 
 24 H       -3.9030    -2.8650    -0.1930 H     1 <1>   0.0800 
 25 H       -1.9880    -1.9960    -2.4490 H     1 <1>   0.0800 
 26 H       -1.8940    -0.2950    -2.1020 H     1 <1>   0.0800 
 27 H        4.2550     1.6810     1.0770 H     1 <1>   0.1500 
 28 H       -1.6360    -3.3970     1.7460 H     1 <1>   0.0800 
 29 H       -3.2180    -4.1190     1.7320 H     1 <1>   0.0800 
 30 H       -3.0420    -2.4280     2.1230 H     1 <1>   0.0800 
 31 H       -4.4490    -1.9170    -2.2100 H     1 <1>   0.0800 
 32 H       -3.9200    -0.7000    -3.3380 H     1 <1>   0.0800 
 33 H       -4.3550    -0.2390    -1.7130 H     1 <1>   0.0800 
 34 H        1.0430     3.7020     1.8250 H     1 <1>   0.0800 
 35 H        0.8490     2.9560     0.2420 H     1 <1>   0.0800 
 36 H        2.4420     3.5080     0.7700 H     1 <1>   0.0800 
 37 H        5.3000     0.0210    -0.3820 H     1 <1>   0.1500 
 38 H        5.4520    -2.8780    -2.6020 H     1 <1>   0.0800 
 39 H        5.8710    -2.1870    -1.0380 H     1 <1>   0.0800 
 40 H        5.5930    -1.1310    -2.4370 H     1 <1>   0.0800 
@<TRIPOS>BOND
  1   1   2  2   
  2   1   3  2   
  3   1   4  am  
  4   1   5  1   
  5   4   6  1   
  6   4  20  1   
  7   5   7  ar  
  8   5   8  ar  
  9   6   9  1   
 10   6  10  1   
 11   6  21  1   
 12   7  11  1   
 13   7  12  ar  
 14   8  13  ar  
 15   8  22  1   
 16   9  14  1   
 17   9  23  1   
 18   9  24  1   
 19  10  15  1   
 20  10  25  1   
 21  10  26  1   
 22  11  16  1   
 23  12  17  ar  
 24  12  27  1   
 25  13  17  ar  
 26  13  18  1   
 27  14  28  1   
 28  14  29  1   
 29  14  30  1   
 30  15  31  1   
 31  15  32  1   
 32  15  33  1   
 33  16  34  1   
 34  16  35  1   
 35  16  36  1   
 36  17  37  1   
 37  18  19  1   
 38  19  38  1   
 39  19  39  1   
 40  19  40  1   
@<TRIPOS>SUBSTRUCTURE
  1 ****   5 GROUP 4 **** **** 0

# MOE 2024.06 (io_trps.svl 2023.06)
