@<TRIPOS>MOLECULE
NONAME
43 45 1 0 0 
SMALL
USER_CHARGES


@<TRIPOS>ATOM
  1 BR       1.4280    -2.3710     2.8790 Br    1 <1>  -0.1110 
  2 C        2.9400    -2.4830     1.7000 C.ar  1 <1>   0.1110 
  3 C        2.8430    -1.9380     0.4340 C.ar  1 <1>  -0.1500 
  4 C        4.0900    -3.1090     2.1430 C.ar  1 <1>  -0.1500 
  5 C        3.9380    -2.0220    -0.4070 C.ar  1 <1>  -0.1500 
  6 C        5.1740    -3.1830     1.2870 C.ar  1 <1>  -0.1500 
  7 C        5.1260    -2.6360     0.0020 C.ar  1 <1>   0.0860 
  8 C        6.2770    -2.7180    -0.8780 C.2   1 <1>   0.5440 
  9 O        6.7930    -3.8020    -1.0730 O.2   1 <1>  -0.5700 
 10 N        6.8130    -1.6020    -1.4900 N.am  1 <1>  -0.6600 
 11 C        6.6130    -0.2130    -0.9940 C.3   1 <1>   0.1400 
 12 C        7.8320    -1.7220    -2.5700 C.3   1 <1>   0.1400 
 13 C        7.9430     0.3270    -0.4600 C.3   1 <1>  -0.1600 
 14 C        9.1780    -1.2110    -2.0540 C.3   1 <1>  -0.1600 
 15 C        9.0640     0.2290    -1.5140 C.3   1 <1>  -0.0190 
 16 C       10.3950     0.7350    -0.9670 C.2   1 <1>   0.5690 
 17 O       10.8960     1.7190    -1.4530 O.2   1 <1>  -0.5700 
 18 N       10.9860     0.0700     0.0530 N.am  1 <1>  -0.7300 
 19 C       12.3060     0.3890     0.6190 C.3   1 <1>   0.3200 
 20 C       12.9750    -0.9090     1.0270 C.2   1 <1>  -0.0400 
 21 O       12.3920    -1.6720     1.9340 O.3   1 <1>  -0.2800 
 22 C       14.1280    -1.4750     0.6060 C.2   1 <1>  -0.1500 
 23 C       13.1530    -2.7340     2.1100 C.2   1 <1>  -0.0100 
 24 C       14.2450    -2.6740     1.3190 C.2   1 <1>  -0.1500 
 25 H        1.9300    -1.4650     0.1190 H     1 <1>   0.1500 
 26 H        4.1310    -3.5300     3.1330 H     1 <1>   0.1500 
 27 H        3.8810    -1.6120    -1.4010 H     1 <1>   0.1500 
 28 H        6.0790    -3.6730     1.6060 H     1 <1>   0.1500 
 29 H        5.8800    -0.1840    -0.2070 H     1 <1>   0.0800 
 30 H        6.2620     0.4030    -1.8040 H     1 <1>   0.0800 
 31 H        7.5150    -1.1380    -3.4180 H     1 <1>   0.0800 
 32 H        7.9290    -2.7450    -2.8920 H     1 <1>   0.0800 
 33 H        8.2120    -0.2330     0.4190 H     1 <1>   0.0800 
 34 H        7.8160     1.3540    -0.1670 H     1 <1>   0.0800 
 35 H        9.8980    -1.2400    -2.8520 H     1 <1>   0.0800 
 36 H        9.5180    -1.8780    -1.2810 H     1 <1>   0.0800 
 37 H        8.7980     0.8680    -2.3380 H     1 <1>   0.0800 
 38 H       10.5760    -0.7860     0.4310 H     1 <1>   0.3700 
 39 H       12.1830     1.0210     1.4810 H     1 <1>   0.0800 
 40 H       12.9070     0.9060    -0.1110 H     1 <1>   0.0800 
 41 H       14.8300    -1.1120    -0.1240 H     1 <1>   0.1500 
 42 H       12.8440    -3.4830     2.8190 H     1 <1>   0.1500 
 43 H       15.0510    -3.3800     1.2280 H     1 <1>   0.1500 
@<TRIPOS>BOND
  1   1   2  1   
  2   2   3  ar  
  3   2   4  ar  
  4   3   5  ar  
  5   3  25  1   
  6   4   6  ar  
  7   4  26  1   
  8   5   7  ar  
  9   5  27  1   
 10   6   7  ar  
 11   6  28  1   
 12   7   8  1   
 13   8   9  2   
 14   8  10  am  
 15  10  11  1   
 16  10  12  1   
 17  11  13  1   
 18  11  29  1   
 19  11  30  1   
 20  12  14  1   
 21  12  31  1   
 22  12  32  1   
 23  13  15  1   
 24  13  33  1   
 25  13  34  1   
 26  14  15  1   
 27  14  35  1   
 28  14  36  1   
 29  15  16  1   
 30  15  37  1   
 31  16  17  2   
 32  16  18  am  
 33  18  19  1   
 34  18  38  1   
 35  19  20  1   
 36  19  39  1   
 37  19  40  1   
 38  20  21  1   
 39  20  22  2   
 40  21  23  1   
 41  22  24  1   
 42  22  41  1   
 43  23  24  2   
 44  23  42  1   
 45  24  43  1   
@<TRIPOS>SUBSTRUCTURE
  1 ****  13 GROUP 4 **** **** 0

# MOE 2024.06 (io_trps.svl 2023.06)
