@<TRIPOS>MOLECULE
NONAME
30 31 1 0 0 
SMALL
USER_CHARGES


@<TRIPOS>ATOM
  1 BR       0.1310    -0.6530     0.4740 Br    1 <1>  -0.1110 
  2 C       -1.7420    -0.2140     0.3550 C.ar  1 <1>   0.1110 
  3 C       -2.1130     1.1160     0.2960 C.ar  1 <1>  -0.1500 
  4 C       -2.6680    -1.2390     0.3340 C.ar  1 <1>  -0.1500 
  5 C       -3.4600     1.4230     0.2110 C.ar  1 <1>  -0.1500 
  6 C       -4.0110    -0.9150     0.2500 C.ar  1 <1>  -0.1500 
  7 C       -4.4210     0.4160     0.1820 C.ar  1 <1>   0.1990 
  8 N       -5.7610     0.7600     0.1040 N.am  1 <1>  -0.7570 
  9 S       -6.8320     0.1910    -1.0960 S.o2  1 <1>   1.5760 
 10 O       -6.7090     1.1010    -2.2050 O.2   1 <1>  -0.6500 
 11 O       -6.7120    -1.2400    -1.2390 O.2   1 <1>  -0.6500 
 12 N       -8.2650     0.5290    -0.2840 N.am  1 <1>  -0.8490 
 13 C       -8.4830    -0.3200     0.9080 C.3   1 <1>   0.1960 
 14 C       -9.4250     0.4920    -1.1780 C.3   1 <1>   0.1960 
 15 C       -9.9710    -0.4920     1.2900 C.3   1 <1>   0.1200 
 16 C      -10.7170     0.9270    -0.4480 C.3   1 <1>   0.1200 
 17 O      -10.7220     0.6290     0.9260 O.3   1 <1>  -0.5600 
 18 H       -1.3630     1.8870     0.3160 H     1 <1>   0.1500 
 19 H       -2.3450    -2.2640     0.3820 H     1 <1>   0.1500 
 20 H       -3.7660     2.4520     0.1610 H     1 <1>   0.1500 
 21 H       -4.7450    -1.7000     0.2390 H     1 <1>   0.1500 
 22 H       -5.9650     1.7460     0.2000 H     1 <1>   0.4200 
 23 H       -7.9610     0.1220     1.7390 H     1 <1>   0.0800 
 24 H       -8.0700    -1.3030     0.7620 H     1 <1>   0.0800 
 25 H       -9.5520    -0.5070    -1.5620 H     1 <1>   0.0800 
 26 H       -9.2670     1.1460    -2.0190 H     1 <1>   0.0800 
 27 H      -10.0700    -0.6300     2.3520 H     1 <1>   0.0800 
 28 H      -10.3890    -1.3510     0.7950 H     1 <1>   0.0800 
 29 H      -11.5720     0.4550    -0.8970 H     1 <1>   0.0800 
 30 H      -10.8370     1.9930    -0.5360 H     1 <1>   0.0800 
@<TRIPOS>BOND
  1   1   2  1   
  2   2   3  ar  
  3   2   4  ar  
  4   3   5  ar  
  5   3  18  1   
  6   4   6  ar  
  7   4  19  1   
  8   5   7  ar  
  9   5  20  1   
 10   6   7  ar  
 11   6  21  1   
 12   7   8  1   
 13   8   9  am  
 14   8  22  1   
 15   9  10  2   
 16   9  11  2   
 17   9  12  am  
 18  12  13  1   
 19  12  14  1   
 20  13  15  1   
 21  13  23  1   
 22  13  24  1   
 23  14  16  1   
 24  14  25  1   
 25  14  26  1   
 26  15  17  1   
 27  15  27  1   
 28  15  28  1   
 29  16  17  1   
 30  16  29  1   
 31  16  30  1   
@<TRIPOS>SUBSTRUCTURE
  1 ****   8 GROUP 4 **** **** 0

# MOE 2024.06 (io_trps.svl 2023.06)
