@<TRIPOS>MOLECULE
NONAME
43 44 1 0 0 
SMALL
USER_CHARGES


@<TRIPOS>ATOM
  1 O       -1.2250    -0.1070     0.7570 O.3   1 <1>  -0.3630 
  2 C       -1.9640     0.6880    -0.0670 C.ar  1 <1>   0.0830 
  3 C       -0.1740    -0.8330     0.1530 C.3   1 <1>   0.0400 
  4 C       -3.3070     0.3910    -0.3620 C.ar  1 <1>   0.0830 
  5 C       -1.3740     1.8240    -0.6340 C.ar  1 <1>   0.0830 
  6 O       -4.0380    -0.6470     0.1580 O.3   1 <1>  -0.3630 
  7 C       -4.0020     1.2050    -1.2570 C.ar  1 <1>  -0.1430 
  8 O       -0.1050     2.2110    -0.3560 O.3   1 <1>  -0.3630 
  9 C       -2.0790     2.6100    -1.5260 C.ar  1 <1>  -0.1500 
 10 C       -3.5400    -1.5650     1.1110 C.3   1 <1>   0.0400 
 11 C       -3.3880     2.3020    -1.8400 C.ar  1 <1>  -0.1500 
 12 C       -5.4480     0.8980    -1.6050 C.3   1 <1>   0.4860 
 13 C        0.1430     2.6850     0.9500 C.3   1 <1>   0.0400 
 14 N       -6.2660     1.0040    -0.3730 N.4   1 <1>  -0.9590 
 15 C       -7.6280     0.4360    -0.5500 C.3   1 <1>   0.3430 
 16 C       -6.2750     2.3850     0.1890 C.3   1 <1>   0.3430 
 17 C       -8.3470     0.4000     0.8000 C.3   1 <1>  -0.1600 
 18 C       -6.9750     2.3780     1.5490 C.3   1 <1>  -0.1600 
 19 C       -8.3870     1.7840     1.4620 C.3   1 <1>  -0.1600 
 20 H        0.2300    -1.5110     0.8830 H     1 <1>   0.0800 
 21 H        0.5920    -0.1540    -0.1740 H     1 <1>   0.0800 
 22 H       -0.5650    -1.3830    -0.6850 H     1 <1>   0.0800 
 23 H       -1.5940     3.4630    -1.9680 H     1 <1>   0.1500 
 24 H       -4.3340    -2.2370     1.3850 H     1 <1>   0.0800 
 25 H       -3.2040    -1.0260     1.9800 H     1 <1>   0.0800 
 26 H       -2.7330    -2.1230     0.6710 H     1 <1>   0.0800 
 27 H       -3.9120     2.9290    -2.5420 H     1 <1>   0.1500 
 28 H       -5.5030    -0.1050    -1.9970 H     1 <1>   0.0800 
 29 H       -5.8070     1.5820    -2.3560 H     1 <1>   0.0800 
 30 H        1.1610     3.0290     0.9940 H     1 <1>   0.0800 
 31 H       -0.0020     1.8860     1.6540 H     1 <1>   0.0800 
 32 H       -0.5300     3.4970     1.1590 H     1 <1>   0.0800 
 33 H       -5.7550     0.4100     0.3020 H     1 <1>   0.4500 
 34 H       -7.5640    -0.5640    -0.9490 H     1 <1>   0.0800 
 35 H       -8.1910     1.0440    -1.2410 H     1 <1>   0.0800 
 36 H       -6.7960     3.0490    -0.4810 H     1 <1>   0.0800 
 37 H       -5.2650     2.7430     0.3090 H     1 <1>   0.0800 
 38 H       -7.8510    -0.3020     1.4480 H     1 <1>   0.0800 
 39 H       -9.3530     0.0460     0.6540 H     1 <1>   0.0800 
 40 H       -7.0340     3.3870     1.9190 H     1 <1>   0.0800 
 41 H       -6.3810     1.8140     2.2490 H     1 <1>   0.0800 
 42 H       -8.8110     1.7040     2.4500 H     1 <1>   0.0800 
 43 H       -9.0190     2.4400     0.8870 H     1 <1>   0.0800 
@<TRIPOS>BOND
  1   1   2  1   
  2   1   3  1   
  3   2   4  ar  
  4   2   5  ar  
  5   3  20  1   
  6   3  21  1   
  7   3  22  1   
  8   4   6  1   
  9   4   7  ar  
 10   5   8  1   
 11   5   9  ar  
 12   6  10  1   
 13   7  11  ar  
 14   7  12  1   
 15   8  13  1   
 16   9  11  ar  
 17   9  23  1   
 18  10  24  1   
 19  10  25  1   
 20  10  26  1   
 21  11  27  1   
 22  12  14  1   
 23  12  28  1   
 24  12  29  1   
 25  13  30  1   
 26  13  31  1   
 27  13  32  1   
 28  14  15  1   
 29  14  16  1   
 30  14  33  1   
 31  15  17  1   
 32  15  34  1   
 33  15  35  1   
 34  16  18  1   
 35  16  36  1   
 36  16  37  1   
 37  17  19  1   
 38  17  38  1   
 39  17  39  1   
 40  18  19  1   
 41  18  40  1   
 42  18  41  1   
 43  19  42  1   
 44  19  43  1   
@<TRIPOS>SUBSTRUCTURE
  1 ****   4 GROUP 4 **** **** 0

# MOE 2024.06 (io_trps.svl 2023.06)
