@<TRIPOS>MOLECULE
NONAME
35 36 1 0 0 
SMALL
USER_CHARGES


@<TRIPOS>ATOM
  1 S        0.3750    -0.2020     0.0450 S.2   1 <1>  -0.3800 
  2 C        0.1220    -1.8180     0.1390 C.2   1 <1>   0.2790 
  3 C       -1.1720    -2.3500    -0.1720 C.ar  1 <1>   0.0860 
  4 C        1.1700    -2.6980     0.5190 C.2   1 <1>  -0.1240 
  5 C       -1.3490    -3.7430    -0.0960 C.ar  1 <1>   0.1000 
  6 C       -2.2890    -1.5820    -0.5490 C.ar  1 <1>  -0.1500 
  7 C        0.9450    -4.0540     0.5580 C.2   1 <1>  -0.0380 
  8 C        2.5470    -2.1270     0.8880 C.3   1 <1>  -0.0220 
  9 N       -0.2870    -4.5440     0.2660 N.pl3 1 <1>  -0.6000 
 10 C       -2.5880    -4.3100    -0.3860 C.ar  1 <1>  -0.1500 
 11 C       -3.5320    -2.1300    -0.8420 C.ar  1 <1>  -0.1790 
 12 C        1.9720    -5.1220     0.9080 C.3   1 <1>  -0.1020 
 13 C        3.4310    -1.9780    -0.3580 C.3   1 <1>  -0.1600 
 14 C       -3.6520    -3.5240    -0.7500 C.ar  1 <1>  -0.1500 
 15 C       -4.6730    -1.3090    -1.2310 C.2   1 <1>   0.9790 
 16 C        4.8210    -1.4380     0.0000 C.3   1 <1>  -0.1600 
 17 O       -5.7720    -1.8330    -1.4910 O.co2 1 <1>  -0.9000 
 18 O       -4.5700    -0.0720    -1.3110 O.co2 1 <1>  -0.9000 
 19 C        5.6940    -1.2950    -1.2500 C.3   1 <1>  -0.2400 
 20 H       -2.1960    -0.5110    -0.6200 H     1 <1>   0.1500 
 21 H        3.0350    -2.7630     1.6030 H     1 <1>   0.0800 
 22 H        2.4460    -1.1760     1.3780 H     1 <1>   0.0800 
 23 H       -0.4550    -5.5530     0.3060 H     1 <1>   0.4000 
 24 H       -2.7110    -5.3750    -0.3240 H     1 <1>   0.1500 
 25 H        1.8660    -5.4030     1.9400 H     1 <1>   0.0800 
 26 H        2.9780    -4.7880     0.7390 H     1 <1>   0.0800 
 27 H        1.8210    -5.9930     0.2960 H     1 <1>   0.0800 
 28 H        2.9530    -1.3060    -1.0510 H     1 <1>   0.0800 
 29 H        3.5290    -2.9340    -0.8430 H     1 <1>   0.0800 
 30 H       -4.6090    -3.9670    -0.9730 H     1 <1>   0.1500 
 31 H        5.3030    -2.1040     0.6940 H     1 <1>   0.0800 
 32 H        4.7220    -0.4750     0.4730 H     1 <1>   0.0800 
 33 H        5.8240    -2.2490    -1.7300 H     1 <1>   0.0800 
 34 H        6.6620    -0.9110    -0.9810 H     1 <1>   0.0800 
 35 H        5.2390    -0.6150    -1.9490 H     1 <1>   0.0800 
@<TRIPOS>BOND
  1   1   2  2   
  2   2   3  1   
  3   2   4  1   
  4   3   5  ar  
  5   3   6  ar  
  6   4   7  2   
  7   4   8  1   
  8   5   9  1   
  9   5  10  ar  
 10   6  11  ar  
 11   6  20  1   
 12   7   9  1   
 13   7  12  1   
 14   8  13  1   
 15   8  21  1   
 16   8  22  1   
 17   9  23  1   
 18  10  14  ar  
 19  10  24  1   
 20  11  14  ar  
 21  11  15  1   
 22  12  25  1   
 23  12  26  1   
 24  12  27  1   
 25  13  16  1   
 26  13  28  1   
 27  13  29  1   
 28  14  30  1   
 29  15  17  ar  
 30  15  18  ar  
 31  16  19  1   
 32  16  31  1   
 33  16  32  1   
 34  19  33  1   
 35  19  34  1   
 36  19  35  1   
@<TRIPOS>SUBSTRUCTURE
  1 ****   3 GROUP 4 **** **** 0

# MOE 2024.06 (io_trps.svl 2023.06)
