@<TRIPOS>MOLECULE
NONAME
55 58 1 0 0 
SMALL
USER_CHARGES


@<TRIPOS>ATOM
  1 O        0.8720     1.0460     3.1810 O.2   1 <1>  -0.5700 
  2 C        0.4240     1.8540     2.3990 C.2   1 <1>   0.7060 
  3 O       -0.8970     1.9340     2.2350 O.3   1 <1>  -0.2330 
  4 C        1.2480     2.7590     1.6630 C.2   1 <1>  -0.1360 
  5 C       -1.4780     2.8080     1.3800 C.ar  1 <1>   0.0820 
  6 C        0.7260     3.6710     0.8120 C.2   1 <1>  -0.1670 
  7 C       -0.6980     3.6930     0.6180 C.ar  1 <1>   0.0280 
  8 C       -2.8610     2.8010     1.2740 C.ar  1 <1>  -0.1500 
  9 C        1.6070     4.6620     0.0750 C.3   1 <1>   0.4810 
 10 C       -1.3640     4.5300    -0.2800 C.ar  1 <1>  -0.1500 
 11 C       -3.4970     3.6600     0.4010 C.ar  1 <1>  -0.1500 
 12 N        1.3490     6.0390     0.5990 N.4   1 <1>  -0.9590 
 13 C       -2.7410     4.5300    -0.3830 C.ar  1 <1>   0.0830 
 14 C        2.1180     7.0570    -0.2230 C.3   1 <1>   0.3430 
 15 C        1.7340     6.1510     2.0560 C.3   1 <1>   0.3430 
 16 O       -3.2750     5.4040    -1.2720 O.3   1 <1>  -0.3630 
 17 C        3.6050     7.2740     0.2010 C.3   1 <1>   0.2890 
 18 C        3.2410     5.8960     2.3120 C.3   1 <1>   0.2090 
 19 C       -4.6620     5.4180    -1.5380 C.3   1 <1>   0.0400 
 20 N        4.0910     6.1870     1.1060 N.pl3 1 <1>  -0.8380 
 21 C        3.8030     8.6120     0.9160 C.3   1 <1>  -0.2400 
 22 C        4.9740     5.1970     0.6580 C.ar  1 <1>   0.1000 
 23 C        5.0000     4.7600    -0.6660 C.ar  1 <1>  -0.1500 
 24 C        5.8490     4.6010     1.5600 C.ar  1 <1>  -0.1500 
 25 C        5.8500     3.7460    -1.0730 C.ar  1 <1>  -0.1430 
 26 C        6.7010     3.5880     1.1630 C.ar  1 <1>  -0.1500 
 27 C        6.6990     3.1580    -0.1510 C.ar  1 <1>  -0.1500 
 28 C        5.8760     3.2720    -2.5160 C.3   1 <1>  -0.0970 
 29 H        2.3030     2.6570     1.8480 H     1 <1>   0.1500 
 30 H       -3.4330     2.1170     1.8770 H     1 <1>   0.1500 
 31 H        1.3930     4.6170    -0.9810 H     1 <1>   0.0800 
 32 H        2.6420     4.3990     0.2170 H     1 <1>   0.0800 
 33 H       -0.8310     5.1950    -0.9300 H     1 <1>   0.1500 
 34 H       -4.5700     3.6400     0.3400 H     1 <1>   0.1500 
 35 H        0.3390     6.2130     0.5140 H     1 <1>   0.4500 
 36 H        1.6200     8.0100    -0.1650 H     1 <1>   0.0800 
 37 H        2.1020     6.7640    -1.2600 H     1 <1>   0.0800 
 38 H        1.1560     5.4630     2.6510 H     1 <1>   0.0800 
 39 H        1.5020     7.1430     2.4040 H     1 <1>   0.0800 
 40 H        4.2160     7.3040    -0.6850 H     1 <1>   0.0800 
 41 H        3.3720     4.8670     2.6010 H     1 <1>   0.0800 
 42 H        3.5730     6.5020     3.1370 H     1 <1>   0.0800 
 43 H       -4.8500     6.1560    -2.2980 H     1 <1>   0.0800 
 44 H       -5.1900     5.6790    -0.6380 H     1 <1>   0.0800 
 45 H       -4.9610     4.4470    -1.8930 H     1 <1>   0.0800 
 46 H        3.1880     8.6920     1.7930 H     1 <1>   0.0800 
 47 H        3.5620     9.4240     0.2540 H     1 <1>   0.0800 
 48 H        4.8360     8.7150     1.2030 H     1 <1>   0.0800 
 49 H        4.3540     5.2080    -1.3930 H     1 <1>   0.1500 
 50 H        5.8720     4.9390     2.5790 H     1 <1>   0.1500 
 51 H        7.3710     3.1360     1.8740 H     1 <1>   0.1500 
 52 H        7.3670     2.3700    -0.4540 H     1 <1>   0.1500 
 53 H        6.8210     3.5250    -2.9630 H     1 <1>   0.0800 
 54 H        5.0920     3.7300    -3.0910 H     1 <1>   0.0800 
 55 H        5.7510     2.2050    -2.5550 H     1 <1>   0.0800 
@<TRIPOS>BOND
  1   1   2  2   
  2   2   3  1   
  3   2   4  1   
  4   3   5  1   
  5   4   6  2   
  6   4  29  1   
  7   5   7  ar  
  8   5   8  ar  
  9   6   7  1   
 10   6   9  1   
 11   7  10  ar  
 12   8  11  ar  
 13   8  30  1   
 14   9  12  1   
 15   9  31  1   
 16   9  32  1   
 17  10  13  ar  
 18  10  33  1   
 19  11  13  ar  
 20  11  34  1   
 21  12  14  1   
 22  12  15  1   
 23  12  35  1   
 24  13  16  1   
 25  14  17  1   
 26  14  36  1   
 27  14  37  1   
 28  15  18  1   
 29  15  38  1   
 30  15  39  1   
 31  16  19  1   
 32  17  20  1   
 33  17  21  1   
 34  17  40  1   
 35  18  20  1   
 36  18  41  1   
 37  18  42  1   
 38  19  43  1   
 39  19  44  1   
 40  19  45  1   
 41  20  22  1   
 42  21  46  1   
 43  21  47  1   
 44  21  48  1   
 45  22  23  ar  
 46  22  24  ar  
 47  23  25  ar  
 48  23  49  1   
 49  24  26  ar  
 50  24  50  1   
 51  25  27  ar  
 52  25  28  1   
 53  26  27  ar  
 54  26  51  1   
 55  27  52  1   
 56  28  53  1   
 57  28  54  1   
 58  28  55  1   
@<TRIPOS>SUBSTRUCTURE
  1 ****   9 GROUP 4 **** **** 0

# MOE 2024.06 (io_trps.svl 2023.06)
