@<TRIPOS>MOLECULE
NONAME
36 36 1 0 0 
SMALL
USER_CHARGES


@<TRIPOS>ATOM
  1 S        0.3590    -0.8240     0.8050 S.o2  1 <1>   1.4470 
  2 O        1.0010    -1.8790     1.5600 O.2   1 <1>  -0.6500 
  3 O        0.4550     0.5470     1.2520 O.2   1 <1>  -0.6500 
  4 N        1.0280    -0.8670    -0.7560 N.am  1 <1>  -0.8490 
  5 C       -1.3830    -1.2370     0.5150 C.ar  1 <1>  -0.0090 
  6 C        2.3510    -0.1840    -0.7980 C.3   1 <1>   0.2570 
  7 C        1.0770    -2.2160    -1.3350 C.3   1 <1>   0.1160 
  8 C       -2.1650    -0.4690    -0.3390 C.ar  1 <1>  -0.1500 
  9 C       -1.9780    -2.3330     1.1290 C.ar  1 <1>  -0.1500 
 10 C        3.4600    -0.7090     0.1310 C.2   1 <1>   0.6590 
 11 C       -3.4930    -0.7760    -0.5850 C.ar  1 <1>  -0.1440 
 12 C       -3.3020    -2.6550     0.8970 C.ar  1 <1>  -0.1500 
 13 O        3.9430    -0.0200     0.9930 O.2   1 <1>  -0.5700 
 14 O        3.8870    -1.9500    -0.0910 O.3   1 <1>  -0.4300 
 15 C       -4.0710    -1.8790     0.0350 C.ar  1 <1>   0.0830 
 16 C       -4.3090     0.0970    -1.5300 C.3   1 <1>  -0.0970 
 17 C        4.8570    -2.5550     0.7400 C.3   1 <1>   0.0400 
 18 O       -5.3740    -2.1470    -0.2360 O.3   1 <1>  -0.3630 
 19 C       -6.0540    -3.2250     0.3670 C.3   1 <1>   0.0400 
 20 H        2.2030     0.8540    -0.5560 H     1 <1>   0.0800 
 21 H        2.7260    -0.2160    -1.8040 H     1 <1>   0.0800 
 22 H        0.0800    -2.6120    -1.4270 H     1 <1>   0.0800 
 23 H        1.6510    -2.8840    -0.7140 H     1 <1>   0.0800 
 24 H        1.5180    -2.1840    -2.3160 H     1 <1>   0.0800 
 25 H       -1.7140     0.3850    -0.8160 H     1 <1>   0.1500 
 26 H       -1.3950    -2.9430     1.8000 H     1 <1>   0.1500 
 27 H       -3.7160    -3.5120     1.3940 H     1 <1>   0.1500 
 28 H       -3.7180     0.9030    -1.9250 H     1 <1>   0.0800 
 29 H       -5.1500     0.5120    -1.0040 H     1 <1>   0.0800 
 30 H       -4.6740    -0.4960    -2.3490 H     1 <1>   0.0800 
 31 H        5.0430    -3.5500     0.3800 H     1 <1>   0.0800 
 32 H        4.4740    -2.5890     1.7460 H     1 <1>   0.0800 
 33 H        5.7600    -1.9700     0.7070 H     1 <1>   0.0800 
 34 H       -7.0670    -3.2230     0.0070 H     1 <1>   0.0800 
 35 H       -6.0450    -3.0900     1.4340 H     1 <1>   0.0800 
 36 H       -5.5690    -4.1430     0.0880 H     1 <1>   0.0800 
@<TRIPOS>BOND
  1   1   2  2   
  2   1   3  2   
  3   1   4  am  
  4   1   5  1   
  5   4   6  1   
  6   4   7  1   
  7   5   8  ar  
  8   5   9  ar  
  9   6  10  1   
 10   6  20  1   
 11   6  21  1   
 12   7  22  1   
 13   7  23  1   
 14   7  24  1   
 15   8  11  ar  
 16   8  25  1   
 17   9  12  ar  
 18   9  26  1   
 19  10  13  2   
 20  10  14  1   
 21  11  15  ar  
 22  11  16  1   
 23  12  15  ar  
 24  12  27  1   
 25  14  17  1   
 26  15  18  1   
 27  16  28  1   
 28  16  29  1   
 29  16  30  1   
 30  17  31  1   
 31  17  32  1   
 32  17  33  1   
 33  18  19  1   
 34  19  34  1   
 35  19  35  1   
 36  19  36  1   
@<TRIPOS>SUBSTRUCTURE
  1 ****   5 GROUP 4 **** **** 0

# MOE 2024.06 (io_trps.svl 2023.06)
