@<TRIPOS>MOLECULE
NONAME
39 40 1 0 0 
SMALL
USER_CHARGES


@<TRIPOS>ATOM
  1 F        2.0100    -1.1230    -0.5480 F     1 <1>  -0.3400 
  2 C        1.9680    -0.5080     0.6280 C.3   1 <1>   1.3000 
  3 F        1.9780     0.8020     0.4160 F     1 <1>  -0.3400 
  4 F        0.8100    -0.8130     1.1970 F     1 <1>  -0.3400 
  5 O        3.0340    -0.9090     1.4630 O.3   1 <1>  -0.3630 
  6 C        4.2890    -0.7100     1.0000 C.ar  1 <1>   0.0820 
  7 C        4.9420    -1.7290     0.3240 C.ar  1 <1>  -0.1500 
  8 C        4.9290     0.5000     1.2230 C.ar  1 <1>  -0.1500 
  9 C        6.2300    -1.5260    -0.1400 C.ar  1 <1>  -0.1500 
 10 C        6.2160     0.6920     0.7540 C.ar  1 <1>  -0.1500 
 11 C        6.8820    -0.3160     0.0620 C.ar  1 <1>   0.1170 
 12 N        8.1870    -0.1870    -0.4290 N.am  1 <1>  -0.5470 
 13 C        8.9760     0.8970    -0.6990 C.2   1 <1>   0.5690 
 14 O        8.5530     2.0270    -0.5950 O.2   1 <1>  -0.5700 
 15 C       10.4200     0.7100    -1.2130 C.3   1 <1>  -0.0190 
 16 C       11.0550    -0.7000    -1.0630 C.3   1 <1>  -0.1860 
 17 C       11.3810     1.7310    -0.5590 C.3   1 <1>  -0.0220 
 18 C       10.3720    -1.7490    -1.9190 C.2   1 <1>   0.9060 
 19 C       11.1950    -1.1170     0.4150 C.3   1 <1>  -0.0220 
 20 C       11.8240     1.2960     0.8350 C.2   1 <1>  -0.2760 
 21 O       10.7440    -1.8900    -3.0840 O.co2 1 <1>  -0.9000 
 22 O        9.4340    -2.3980    -1.4400 O.co2 1 <1>  -0.9000 
 23 C       11.7290     0.0320     1.2590 C.2   1 <1>  -0.2880 
 24 C       12.3810     2.4200     1.6890 C.3   1 <1>  -0.1020 
 25 H        4.4540    -2.6720     0.1620 H     1 <1>   0.1500 
 26 H        4.4290     1.2860     1.7590 H     1 <1>   0.1500 
 27 H        6.7480    -2.3110    -0.6690 H     1 <1>   0.1500 
 28 H        6.7110     1.6290     0.9310 H     1 <1>   0.1500 
 29 H        8.6000    -1.0900    -0.7320 H     1 <1>   0.3700 
 30 H       10.3820     0.9330    -2.2640 H     1 <1>   0.0800 
 31 H       12.0530    -0.6350    -1.4560 H     1 <1>   0.0800 
 32 H       10.9150     2.6990    -0.5160 H     1 <1>   0.0800 
 33 H       12.2580     1.8300    -1.1740 H     1 <1>   0.0800 
 34 H       11.8660    -1.9550     0.4750 H     1 <1>   0.0800 
 35 H       10.2480    -1.4310     0.8170 H     1 <1>   0.0800 
 36 H       12.0220    -0.2810     2.2460 H     1 <1>   0.1500 
 37 H       11.6290     3.1740     1.8390 H     1 <1>   0.0800 
 38 H       13.2320     2.8650     1.2050 H     1 <1>   0.0800 
 39 H       12.6880     2.0480     2.6500 H     1 <1>   0.0800 
@<TRIPOS>BOND
  1   1   2  1   
  2   2   3  1   
  3   2   4  1   
  4   2   5  1   
  5   5   6  1   
  6   6   7  ar  
  7   6   8  ar  
  8   7   9  ar  
  9   7  25  1   
 10   8  10  ar  
 11   8  26  1   
 12   9  11  ar  
 13   9  27  1   
 14  10  11  ar  
 15  10  28  1   
 16  11  12  1   
 17  12  13  am  
 18  12  29  1   
 19  13  14  2   
 20  13  15  1   
 21  15  16  1   
 22  15  17  1   
 23  15  30  1   
 24  16  18  1   
 25  16  19  1   
 26  16  31  1   
 27  17  20  1   
 28  17  32  1   
 29  17  33  1   
 30  18  21  ar  
 31  18  22  ar  
 32  19  23  1   
 33  19  34  1   
 34  19  35  1   
 35  20  23  2   
 36  20  24  1   
 37  23  36  1   
 38  24  37  1   
 39  24  38  1   
 40  24  39  1   
@<TRIPOS>SUBSTRUCTURE
  1 ****  11 GROUP 4 **** **** 0

# MOE 2024.06 (io_trps.svl 2023.06)
