@<TRIPOS>MOLECULE
Structure2398
34 35 1 0 0 
SMALL
USER_CHARGES


@<TRIPOS>ATOM
  1 O        1.1260     1.8790     2.0680 O.2   1 <1>  -0.5700 
  2 C        1.3050     1.9830     0.8730 C.2   1 <1>   0.6900 
  3 N        2.3180     1.3310     0.2310 N.am  1 <1>  -0.6600 
  4 N        0.4470     2.7410     0.1820 N.am  1 <1>  -0.8000 
  5 C        2.8880     1.7580    -1.0880 C.3   1 <1>   0.1400 
  6 C        3.1730     0.3310     0.9490 C.3   1 <1>   0.1400 
  7 C        4.3550     2.2050    -0.9520 C.3   1 <1>   0.2090 
  8 C        4.6310     0.8080     1.0550 C.3   1 <1>   0.2090 
  9 N        5.1770     1.1490    -0.2940 N.pl3 1 <1>  -0.8380 
 10 C        6.5650     1.3460    -0.3470 C.ar  1 <1>   0.1000 
 11 C        7.2430     2.4050     0.2860 C.ar  1 <1>   0.0820 
 12 C        7.3040     0.4260    -1.0770 C.ar  1 <1>  -0.1500 
 13 O        6.5100     3.3100     1.0070 O.3   1 <1>  -0.3630 
 14 C        8.6260     2.5070     0.1640 C.ar  1 <1>  -0.1500 
 15 C        8.6780     0.5330    -1.1920 C.ar  1 <1>  -0.1500 
 16 C        7.1290     4.3100     1.7840 C.3   1 <1>   0.0400 
 17 C        9.3400     1.5750    -0.5700 C.ar  1 <1>  -0.1500 
 18 H       -0.3560     3.0970     0.6960 H     1 <1>   0.3700 
 19 H        0.3140     2.5750    -0.8100 H     1 <1>   0.3700 
 20 H        2.3200     2.5700    -1.5040 H     1 <1>   0.0800 
 21 H        2.8410     0.9300    -1.7730 H     1 <1>   0.0800 
 22 H        3.1510    -0.5990     0.4100 H     1 <1>   0.0800 
 23 H        2.7900     0.1460     1.9370 H     1 <1>   0.0800 
 24 H        4.3940     3.1100    -0.3720 H     1 <1>   0.0800 
 25 H        4.7610     2.4140    -1.9260 H     1 <1>   0.0800 
 26 H        5.2330     0.0330     1.4960 H     1 <1>   0.0800 
 27 H        4.6730     1.6710     1.6960 H     1 <1>   0.0800 
 28 H        6.7830    -0.3810    -1.5570 H     1 <1>   0.1500 
 29 H        9.1710     3.3040     0.6310 H     1 <1>   0.1500 
 30 H        9.2290    -0.1930    -1.7630 H     1 <1>   0.1500 
 31 H        6.3590     4.8520     2.3030 H     1 <1>   0.0800 
 32 H        7.6670     4.9760     1.1320 H     1 <1>   0.0800 
 33 H        7.7890     3.8430     2.4930 H     1 <1>   0.0800 
 34 H       10.4090     1.6620    -0.6580 H     1 <1>   0.1500 
@<TRIPOS>BOND
  1   1   2  2   
  2   2   3  am  
  3   2   4  am  
  4   3   5  1   
  5   3   6  1   
  6   4  18  1   
  7   4  19  1   
  8   5   7  1   
  9   5  20  1   
 10   5  21  1   
 11   6   8  1   
 12   6  22  1   
 13   6  23  1   
 14   7   9  1   
 15   7  24  1   
 16   7  25  1   
 17   8   9  1   
 18   8  26  1   
 19   8  27  1   
 20   9  10  1   
 21  10  11  ar  
 22  10  12  ar  
 23  11  13  1   
 24  11  14  ar  
 25  12  15  ar  
 26  12  28  1   
 27  13  16  1   
 28  14  17  ar  
 29  14  29  1   
 30  15  17  ar  
 31  15  30  1   
 32  16  31  1   
 33  16  32  1   
 34  16  33  1   
 35  17  34  1   
@<TRIPOS>SUBSTRUCTURE
  1 ****   9 GROUP 4 **** **** 0

# MOE 2024.06 (io_trps.svl 2023.06)
