@<TRIPOS>MOLECULE
NONAME
47 50 1 0 0 
SMALL
USER_CHARGES


@<TRIPOS>ATOM
  1 N       -0.7910    -0.4000     0.5160 N.1   1 <1>  -0.5570 
  2 C       -1.9300    -0.4740     0.5040 C.1   1 <1>   0.4920 
  3 C       -3.3620    -0.4860     0.5610 C.2   1 <1>   0.1100 
  4 C       -4.0210    -1.5570    -0.1510 C.2   1 <1>   0.1420 
  5 C       -3.9990     0.4770     1.2800 C.2   1 <1>  -0.1040 
  6 N       -3.4690    -2.3360    -1.0370 N.2   1 <1>  -0.5650 
  7 N       -5.3360    -1.8710     0.0460 N.pl3 1 <1>   0.0330 
  8 C       -5.4090     0.6750     1.4250 C.2   1 <1>  -0.0460 
  9 C       -4.4560    -3.1770    -1.4410 C.ar  1 <1>   0.2270 
 10 C       -5.6340    -2.8990    -0.7790 C.ar  1 <1>  -0.1520 
 11 C       -6.3590     0.9230     0.4690 C.2   1 <1>  -0.3320 
 12 C       -6.0990     0.5920     2.6400 C.2   1 <1>  -0.1500 
 13 C       -4.4180    -4.2050    -2.3820 C.ar  1 <1>  -0.1500 
 14 C       -6.8030    -3.6200    -1.0320 C.ar  1 <1>  -0.1500 
 15 N       -7.6030     0.9690     1.0400 N.pl3 1 <1>   0.0480 
 16 C       -6.0660     1.1370    -1.0140 C.3   1 <1>  -0.0600 
 17 C       -7.4170     0.7640     2.3820 C.2   1 <1>  -0.3320 
 18 C       -5.5640    -4.9260    -2.6400 C.ar  1 <1>  -0.1500 
 19 C       -6.7570    -4.6320    -1.9650 C.ar  1 <1>  -0.1500 
 20 C       -8.9450     1.2120     0.4120 C.3   1 <1>   0.1760 
 21 C       -8.5290     0.7470     3.4190 C.3   1 <1>  -0.0600 
 22 C       -9.2600     0.2810    -0.7700 C.3   1 <1>  -0.1600 
 23 C       -9.1040     2.6500    -0.0980 C.3   1 <1>  -0.1600 
 24 C       -9.4550     1.1820    -1.9920 C.3   1 <1>  -0.1600 
 25 C       -9.8610     2.5370    -1.4210 C.3   1 <1>  -0.1600 
 26 H       -3.4140     1.1960     1.8270 H     1 <1>   0.1500 
 27 H       -5.9850    -1.3220     0.6250 H     1 <1>   0.2700 
 28 H       -5.6320     0.4180     3.5940 H     1 <1>   0.1500 
 29 H       -3.4910    -4.4070    -2.8850 H     1 <1>   0.1500 
 30 H       -7.7110    -3.3850    -0.5050 H     1 <1>   0.1500 
 31 H       -5.0070     1.1940    -1.1860 H     1 <1>   0.0800 
 32 H       -6.4960     2.0570    -1.3620 H     1 <1>   0.0800 
 33 H       -6.4490     0.3240    -1.6020 H     1 <1>   0.0800 
 34 H       -5.5520    -5.7220    -3.3640 H     1 <1>   0.1500 
 35 H       -7.6380    -5.2090    -2.1840 H     1 <1>   0.1500 
 36 H       -9.7020     1.0420     1.1540 H     1 <1>   0.0800 
 37 H       -8.1190     0.5920     4.4000 H     1 <1>   0.0800 
 38 H       -9.2230    -0.0480     3.2110 H     1 <1>   0.0800 
 39 H       -9.0540     1.6860     3.4170 H     1 <1>   0.0800 
 40 H       -8.5020    -0.4640    -0.9310 H     1 <1>   0.0800 
 41 H      -10.1890    -0.2220    -0.5660 H     1 <1>   0.0800 
 42 H       -9.6480     3.2530     0.6070 H     1 <1>   0.0800 
 43 H       -8.1440     3.1020    -0.2680 H     1 <1>   0.0800 
 44 H       -8.5260     1.2830    -2.5250 H     1 <1>   0.0800 
 45 H      -10.1980     0.7910    -2.6660 H     1 <1>   0.0800 
 46 H      -10.9210     2.5390    -1.2290 H     1 <1>   0.0800 
 47 H       -9.6250     3.3450    -2.0920 H     1 <1>   0.0800 
@<TRIPOS>BOND
  1   1   2  3   
  2   2   3  1   
  3   3   4  1   
  4   3   5  2   
  5   4   6  2   
  6   4   7  1   
  7   5   8  1   
  8   5  26  1   
  9   6   9  1   
 10   7  10  1   
 11   7  27  1   
 12   8  11  2   
 13   8  12  1   
 14   9  10  ar  
 15   9  13  ar  
 16  10  14  ar  
 17  11  15  1   
 18  11  16  1   
 19  12  17  2   
 20  12  28  1   
 21  13  18  ar  
 22  13  29  1   
 23  14  19  ar  
 24  14  30  1   
 25  15  17  1   
 26  15  20  1   
 27  16  31  1   
 28  16  32  1   
 29  16  33  1   
 30  17  21  1   
 31  18  19  ar  
 32  18  34  1   
 33  19  35  1   
 34  20  22  1   
 35  20  23  1   
 36  20  36  1   
 37  21  37  1   
 38  21  38  1   
 39  21  39  1   
 40  22  24  1   
 41  22  40  1   
 42  22  41  1   
 43  23  25  1   
 44  23  42  1   
 45  23  43  1   
 46  24  25  1   
 47  24  44  1   
 48  24  45  1   
 49  25  46  1   
 50  25  47  1   
@<TRIPOS>SUBSTRUCTURE
  1 ****   7 GROUP 4 **** **** 0

# MOE 2024.06 (io_trps.svl 2023.06)
