@<TRIPOS>MOLECULE
NONAME
54 55 1 0 0 
SMALL
USER_CHARGES


@<TRIPOS>ATOM
  1 O       -1.9770    -3.7390    -2.1250 O.3   1 <1>  -0.3630 
  2 C       -2.5390    -3.0750    -1.0780 C.ar  1 <1>   0.0830 
  3 C       -1.3480    -3.0860    -3.2140 C.3   1 <1>   0.1200 
  4 C       -2.6680    -3.7220     0.1620 C.ar  1 <1>  -0.1440 
  5 C       -2.9680    -1.7580    -1.2380 C.ar  1 <1>  -0.1500 
  6 C       -0.1710    -2.2310    -2.7140 C.3   1 <1>   0.2000 
  7 C       -3.1660    -2.9640     1.2230 C.ar  1 <1>  -0.1500 
  8 C       -2.3100    -5.2260     0.3690 C.3   1 <1>   0.1440 
  9 C       -3.4630    -1.0420    -0.1690 C.ar  1 <1>  -0.1500 
 10 O        0.6370    -1.8540    -3.7930 O.3   1 <1>  -0.6800 
 11 C        0.7010    -2.9910    -1.6960 C.3   1 <1>   0.3430 
 12 C       -3.5510    -1.6460     1.0670 C.ar  1 <1>  -0.1500 
 13 C       -3.1940    -6.1050    -0.5310 C.3   1 <1>  -0.2400 
 14 C       -0.8290    -5.5000     0.0670 C.3   1 <1>  -0.2400 
 15 C       -2.5450    -5.7150     1.8120 C.3   1 <1>  -0.2400 
 16 N        2.0410    -2.3440    -1.5910 N.4   1 <1>  -0.9060 
 17 C        3.0990    -3.2280    -1.0910 C.3   1 <1>   0.5660 
 18 C        2.6980    -3.8050     0.2600 C.ar  1 <1>  -0.1430 
 19 C        4.3860    -2.4220    -0.9950 C.3   1 <1>  -0.2400 
 20 C        2.3120    -2.9970     1.3240 C.ar  1 <1>  -0.1500 
 21 C        2.7150    -5.1830     0.4320 C.ar  1 <1>  -0.1500 
 22 C        1.9400    -3.5600     2.5320 C.ar  1 <1>  -0.1500 
 23 C        2.3470    -5.7440     1.6420 C.ar  1 <1>  -0.1500 
 24 C        1.9570    -4.9340     2.6910 C.ar  1 <1>  -0.1500 
 25 H       -2.0830    -2.5010    -3.7370 H     1 <1>   0.0800 
 26 H       -0.9900    -3.8610    -3.8680 H     1 <1>   0.0800 
 27 H       -2.9370    -1.2670    -2.1910 H     1 <1>   0.1500 
 28 H       -0.5430    -1.3270    -2.2630 H     1 <1>   0.0800 
 29 H       -3.2820    -3.3720     2.2080 H     1 <1>   0.1500 
 30 H       -3.7870    -0.0230    -0.2940 H     1 <1>   0.1500 
 31 H        0.1140    -1.3830    -4.4790 H     1 <1>   0.4000 
 32 H        0.8120    -4.0060    -2.0400 H     1 <1>   0.0800 
 33 H        0.2090    -3.0220    -0.7360 H     1 <1>   0.0800 
 34 H       -3.9330    -1.0950     1.9090 H     1 <1>   0.1500 
 35 H       -3.0170    -5.9120    -1.5710 H     1 <1>   0.0800 
 36 H       -4.2320    -5.9080    -0.3280 H     1 <1>   0.0800 
 37 H       -3.0040    -7.1480    -0.3530 H     1 <1>   0.0800 
 38 H       -0.5590    -6.4970     0.3660 H     1 <1>   0.0800 
 39 H       -0.2160    -4.8070     0.6120 H     1 <1>   0.0800 
 40 H       -0.6190    -5.4190    -0.9800 H     1 <1>   0.0800 
 41 H       -2.3000    -6.7590     1.9070 H     1 <1>   0.0800 
 42 H       -3.5780    -5.6000     2.0890 H     1 <1>   0.0800 
 43 H       -1.9290    -5.1700     2.5040 H     1 <1>   0.0800 
 44 H        1.9840    -1.5160    -0.9960 H     1 <1>   0.4500 
 45 H        2.2610    -2.0230    -2.5470 H     1 <1>   0.4500 
 46 H        3.2440    -4.0400    -1.7860 H     1 <1>   0.0800 
 47 H        4.2810    -1.5940    -0.3170 H     1 <1>   0.0800 
 48 H        4.6820    -2.0610    -1.9640 H     1 <1>   0.0800 
 49 H        5.1720    -3.0560    -0.6240 H     1 <1>   0.0800 
 50 H        2.2990    -1.9250     1.2390 H     1 <1>   0.1500 
 51 H        3.0160    -5.8390    -0.3680 H     1 <1>   0.1500 
 52 H        1.6410    -2.9330     3.3550 H     1 <1>   0.1500 
 53 H        2.3640    -6.8140     1.7710 H     1 <1>   0.1500 
 54 H        1.6690    -5.3710     3.6320 H     1 <1>   0.1500 
@<TRIPOS>BOND
  1   1   2  1   
  2   1   3  1   
  3   2   4  ar  
  4   2   5  ar  
  5   3   6  1   
  6   3  25  1   
  7   3  26  1   
  8   4   7  ar  
  9   4   8  1   
 10   5   9  ar  
 11   5  27  1   
 12   6  10  1   
 13   6  11  1   
 14   6  28  1   
 15   7  12  ar  
 16   7  29  1   
 17   8  13  1   
 18   8  14  1   
 19   8  15  1   
 20   9  12  ar  
 21   9  30  1   
 22  10  31  1   
 23  11  16  1   
 24  11  32  1   
 25  11  33  1   
 26  12  34  1   
 27  13  35  1   
 28  13  36  1   
 29  13  37  1   
 30  14  38  1   
 31  14  39  1   
 32  14  40  1   
 33  15  41  1   
 34  15  42  1   
 35  15  43  1   
 36  16  17  1   
 37  16  44  1   
 38  16  45  1   
 39  17  18  1   
 40  17  19  1   
 41  17  46  1   
 42  18  20  ar  
 43  18  21  ar  
 44  19  47  1   
 45  19  48  1   
 46  19  49  1   
 47  20  22  ar  
 48  20  50  1   
 49  21  23  ar  
 50  21  51  1   
 51  22  24  ar  
 52  22  52  1   
 53  23  24  ar  
 54  23  53  1   
 55  24  54  1   
@<TRIPOS>SUBSTRUCTURE
  1 ****  11 GROUP 4 **** **** 0

# MOE 2024.06 (io_trps.svl 2023.06)
