@<TRIPOS>MOLECULE
NONAME
53 54 1 0 0 
SMALL
USER_CHARGES


@<TRIPOS>ATOM
  1 O        6.1170    -4.4120     0.9520 O.3   1 <1>  -0.3630 
  2 C        7.0670    -3.5760     0.4760 C.ar  1 <1>   0.0830 
  3 C        5.1000    -4.7570     0.0460 C.3   1 <1>   0.1200 
  4 C        8.2130    -4.0940    -0.1250 C.ar  1 <1>  -0.1440 
  5 C        6.8860    -2.2000     0.5940 C.ar  1 <1>  -0.1440 
  6 C        4.1210    -5.6790     0.7750 C.3   1 <1>  -0.1600 
  7 C        9.1490    -3.2150    -0.6490 C.ar  1 <1>  -0.1500 
  8 C        8.4650    -5.5980    -0.2240 C.3   1 <1>   0.1220 
  9 C        7.8380    -1.3450     0.0650 C.ar  1 <1>  -0.1500 
 10 C        5.6710    -1.6110     1.2970 C.3   1 <1>  -0.0960 
 11 C        2.9610    -6.1130    -0.1330 C.3   1 <1>  -0.1600 
 12 C        8.9660    -1.8450    -0.5630 C.ar  1 <1>  -0.1430 
 13 C        9.8880    -5.9580     0.1750 C.2   1 <1>  -0.2880 
 14 C        2.0020    -7.0330     0.6280 C.3   1 <1>   0.3430 
 15 C       10.0030    -0.9000    -1.1410 C.3   1 <1>  -0.0970 
 16 C       10.7740    -6.5930    -0.5990 C.2   1 <1>  -0.3000 
 17 N        0.9330    -7.5420    -0.2720 N.4   1 <1>  -0.9590 
 18 C       -0.0530    -6.4690    -0.6650 C.3   1 <1>   0.3430 
 19 C        0.2080    -8.6980     0.3690 C.3   1 <1>   0.3430 
 20 C       -1.1900    -7.0280    -1.5480 C.3   1 <1>   0.1100 
 21 C       -0.9300    -9.2320    -0.5280 C.3   1 <1>   0.1100 
 22 N       -1.8650    -8.1600    -0.8970 N.3   1 <1>  -0.9000 
 23 H        5.5530    -5.2520    -0.7970 H     1 <1>   0.0800 
 24 H        4.6180    -3.8530    -0.2820 H     1 <1>   0.0800 
 25 H        3.7350    -5.1540     1.6330 H     1 <1>   0.0800 
 26 H        4.6600    -6.5460     1.1180 H     1 <1>   0.0800 
 27 H       10.0330    -3.6010    -1.1250 H     1 <1>   0.1500 
 28 H        8.2770    -5.9150    -1.2330 H     1 <1>   0.0800 
 29 H        7.7980    -6.1380     0.4220 H     1 <1>   0.0800 
 30 H        7.7050    -0.2810     0.1440 H     1 <1>   0.1500 
 31 H        4.8320    -1.5940     0.6270 H     1 <1>   0.0800 
 32 H        5.8710    -0.6070     1.6250 H     1 <1>   0.0800 
 33 H        5.4200    -2.1990     2.1620 H     1 <1>   0.0800 
 34 H        3.3630    -6.6340    -0.9850 H     1 <1>   0.0800 
 35 H        2.4430    -5.2330    -0.4710 H     1 <1>   0.0800 
 36 H       10.1190    -5.6360     1.1780 H     1 <1>   0.1500 
 37 H        1.5640    -6.5020     1.4590 H     1 <1>   0.0800 
 38 H        2.5650    -7.8640     1.0240 H     1 <1>   0.0800 
 39 H       10.4920    -1.3490    -1.9860 H     1 <1>   0.0800 
 40 H       10.7420    -0.6720    -0.3930 H     1 <1>   0.0800 
 41 H        9.5400     0.0150    -1.4630 H     1 <1>   0.0800 
 42 H       11.7760    -6.8330    -0.2870 H     1 <1>   0.1500 
 43 H       10.5770    -6.9250    -1.6030 H     1 <1>   0.1500 
 44 H        1.3660    -7.8960    -1.1340 H     1 <1>   0.4500 
 45 H        0.4500    -5.6810    -1.1990 H     1 <1>   0.0800 
 46 H       -0.4940    -6.0420     0.2210 H     1 <1>   0.0800 
 47 H       -0.2230    -8.3800     1.3040 H     1 <1>   0.0800 
 48 H        0.8990    -9.4980     0.5760 H     1 <1>   0.0800 
 49 H       -0.7940    -7.3350    -2.5020 H     1 <1>   0.0800 
 50 H       -1.9110    -6.2480    -1.7280 H     1 <1>   0.0800 
 51 H       -1.4690    -9.9970     0.0070 H     1 <1>   0.0800 
 52 H       -0.5160    -9.6810    -1.4150 H     1 <1>   0.0800 
 53 H       -2.6030    -8.5340    -1.5170 H     1 <1>   0.3600 
@<TRIPOS>BOND
  1   1   2  1   
  2   1   3  1   
  3   2   4  ar  
  4   2   5  ar  
  5   3   6  1   
  6   3  23  1   
  7   3  24  1   
  8   4   7  ar  
  9   4   8  1   
 10   5   9  ar  
 11   5  10  1   
 12   6  11  1   
 13   6  25  1   
 14   6  26  1   
 15   7  12  ar  
 16   7  27  1   
 17   8  13  1   
 18   8  28  1   
 19   8  29  1   
 20   9  12  ar  
 21   9  30  1   
 22  10  31  1   
 23  10  32  1   
 24  10  33  1   
 25  11  14  1   
 26  11  34  1   
 27  11  35  1   
 28  12  15  1   
 29  13  16  2   
 30  13  36  1   
 31  14  17  1   
 32  14  37  1   
 33  14  38  1   
 34  15  39  1   
 35  15  40  1   
 36  15  41  1   
 37  16  42  1   
 38  16  43  1   
 39  17  18  1   
 40  17  19  1   
 41  17  44  1   
 42  18  20  1   
 43  18  45  1   
 44  18  46  1   
 45  19  21  1   
 46  19  47  1   
 47  19  48  1   
 48  20  22  1   
 49  20  49  1   
 50  20  50  1   
 51  21  22  1   
 52  21  51  1   
 53  21  52  1   
 54  22  53  1   
@<TRIPOS>SUBSTRUCTURE
  1 ****   3 GROUP 4 **** **** 0

# MOE 2024.06 (io_trps.svl 2023.06)
