@<TRIPOS>MOLECULE
NONAME
33 33 1 0 0 
SMALL
USER_CHARGES


@<TRIPOS>ATOM
  1 CL       1.4950     0.1030     2.8190 Cl    1 <1>  -0.1770 
  2 C        2.6040     0.8830     1.7210 C.ar  1 <1>   0.1770 
  3 C        2.8040     0.3440     0.4640 C.ar  1 <1>  -0.1500 
  4 C        3.2660     2.0260     2.1250 C.ar  1 <1>  -0.1500 
  5 C        3.6850     0.9660    -0.4060 C.ar  1 <1>  -0.1500 
  6 C        4.1450     2.6430     1.2500 C.ar  1 <1>  -0.1500 
  7 C        4.3560     2.1180    -0.0180 C.ar  1 <1>  -0.1430 
  8 C        5.3180     2.8050    -0.9730 C.3   1 <1>   0.2140 
  9 S        7.0080     2.3970    -0.4570 S.3   1 <1>  -0.4600 
 10 C        8.0520     3.2740    -1.6830 C.3   1 <1>   0.1310 
 11 C        9.5400     3.0870    -1.4110 C.2   1 <1>   0.5690 
 12 O       10.3270     3.7480    -2.0450 O.2   1 <1>  -0.5700 
 13 N        9.9450     2.1970    -0.4690 N.am  1 <1>  -0.7300 
 14 C       11.3540     1.8960    -0.1150 C.3   1 <1>   0.1400 
 15 C       11.8750     2.9170     0.8960 C.3   1 <1>   0.1200 
 16 O       13.1320     2.5050     1.3350 O.3   1 <1>  -0.5600 
 17 C       13.7420     3.3990     2.2070 C.3   1 <1>   0.0400 
 18 H        2.2790    -0.5480     0.1760 H     1 <1>   0.1500 
 19 H        3.0950     2.4240     3.1090 H     1 <1>   0.1500 
 20 H        3.8460     0.5450    -1.3840 H     1 <1>   0.1500 
 21 H        4.6690     3.5310     1.5610 H     1 <1>   0.1500 
 22 H        5.2140     3.8740    -0.9330 H     1 <1>   0.0800 
 23 H        5.1940     2.4570    -1.9830 H     1 <1>   0.0800 
 24 H        7.8010     4.3170    -1.6310 H     1 <1>   0.0800 
 25 H        7.8070     2.8850    -2.6530 H     1 <1>   0.0800 
 26 H        9.2190     1.7070     0.0650 H     1 <1>   0.3700 
 27 H       11.9620     1.9360    -1.0030 H     1 <1>   0.0800 
 28 H       11.4100     0.9070     0.3050 H     1 <1>   0.0800 
 29 H       11.2190     2.9720     1.7470 H     1 <1>   0.0800 
 30 H       11.9680     3.8820     0.4270 H     1 <1>   0.0800 
 31 H       14.6970     2.9920     2.4900 H     1 <1>   0.0800 
 32 H       13.1260     3.5220     3.0810 H     1 <1>   0.0800 
 33 H       13.8840     4.3420     1.7070 H     1 <1>   0.0800 
@<TRIPOS>BOND
  1   1   2  1   
  2   2   3  ar  
  3   2   4  ar  
  4   3   5  ar  
  5   3  18  1   
  6   4   6  ar  
  7   4  19  1   
  8   5   7  ar  
  9   5  20  1   
 10   6   7  ar  
 11   6  21  1   
 12   7   8  1   
 13   8   9  1   
 14   8  22  1   
 15   8  23  1   
 16   9  10  1   
 17  10  11  1   
 18  10  24  1   
 19  10  25  1   
 20  11  12  2   
 21  11  13  am  
 22  13  14  1   
 23  13  26  1   
 24  14  15  1   
 25  14  27  1   
 26  14  28  1   
 27  15  16  1   
 28  15  29  1   
 29  15  30  1   
 30  16  17  1   
 31  17  31  1   
 32  17  32  1   
 33  17  33  1   
@<TRIPOS>SUBSTRUCTURE
  1 ****   9 GROUP 4 **** **** 0

# MOE 2024.06 (io_trps.svl 2023.06)
