@<TRIPOS>MOLECULE
NONAME
52 53 1 0 0 
SMALL
USER_CHARGES


@<TRIPOS>ATOM
  1 O        0.9130    -8.2970    -0.0750 O.3   1 <1>  -0.3630 
  2 C       -0.2970    -7.6700    -0.0120 C.ar  1 <1>   0.0830 
  3 C        2.1350    -7.6060    -0.1140 C.3   1 <1>   0.1200 
  4 C       -0.5420    -6.2860    -0.1000 C.ar  1 <1>   0.0820 
  5 C       -1.3700    -8.5290     0.1580 C.ar  1 <1>  -0.1500 
  6 C        3.2580    -8.6420    -0.0540 C.3   1 <1>   0.3430 
  7 O        0.4950    -5.4110    -0.2820 O.3   1 <1>  -0.3630 
  8 C       -1.8540    -5.8290    -0.0020 C.ar  1 <1>  -0.1500 
  9 C       -2.6620    -8.0520     0.2480 C.ar  1 <1>  -0.1500 
 10 N        4.6160    -8.0190    -0.1690 N.4   1 <1>  -0.9590 
 11 C        0.2800    -4.0380    -0.5390 C.3   1 <1>   0.0400 
 12 C       -2.9330    -6.6910     0.1700 C.ar  1 <1>   0.0280 
 13 C        5.6680    -9.0680    -0.3880 C.3   1 <1>   0.3430 
 14 C        4.9600    -7.1460     0.9900 C.3   1 <1>   0.3430 
 15 C       -4.2780    -6.1630     0.2640 C.2   1 <1>  -0.1780 
 16 C        7.1030    -8.5330    -0.1830 C.3   1 <1>  -0.0800 
 17 C        6.1860    -6.2840     0.6380 C.3   1 <1>  -0.0800 
 18 C       -5.4410    -6.8350     0.2450 C.2   1 <1>  -0.2880 
 19 C        7.1710    -7.0000    -0.3150 C.3   1 <1>  -0.1600 
 20 C        7.6920    -9.0030     1.1590 C.3   1 <1>  -0.2400 
 21 C        5.7550    -4.9370     0.0370 C.3   1 <1>  -0.2400 
 22 C       -6.8100    -6.1890     0.3520 C.3   1 <1>  -0.1020 
 23 H        2.1730    -7.0540    -1.0360 H     1 <1>   0.0800 
 24 H        2.1660    -6.9470     0.7350 H     1 <1>   0.0800 
 25 H       -1.1890    -9.5870     0.2220 H     1 <1>   0.1500 
 26 H        3.1140    -9.3350    -0.8670 H     1 <1>   0.0800 
 27 H        3.1850    -9.1850     0.8730 H     1 <1>   0.0800 
 28 H       -2.0760    -4.7820    -0.0580 H     1 <1>   0.1500 
 29 H       -3.4660    -8.7510     0.3850 H     1 <1>   0.1500 
 30 H        4.6300    -7.4080    -0.9970 H     1 <1>   0.4500 
 31 H        1.2340    -3.5760    -0.7210 H     1 <1>   0.0800 
 32 H       -0.1820    -3.5880     0.3210 H     1 <1>   0.0800 
 33 H       -0.3450    -3.9370    -1.4100 H     1 <1>   0.0800 
 34 H        5.5080    -9.8930     0.2870 H     1 <1>   0.0800 
 35 H        5.5780    -9.4480    -1.3930 H     1 <1>   0.0800 
 36 H        4.1350    -6.5020     1.2470 H     1 <1>   0.0800 
 37 H        5.1830    -7.7610     1.8460 H     1 <1>   0.0800 
 38 H       -4.3080    -5.0910     0.3590 H     1 <1>   0.1500 
 39 H        7.7200    -8.9630    -0.9550 H     1 <1>   0.0800 
 40 H        6.6980    -6.0740     1.5630 H     1 <1>   0.0800 
 41 H       -5.5010    -7.9050     0.1460 H     1 <1>   0.1500 
 42 H        6.9380    -6.7460    -1.3350 H     1 <1>   0.0800 
 43 H        8.1740    -6.6510    -0.1300 H     1 <1>   0.0800 
 44 H        7.1310    -8.6400     2.0000 H     1 <1>   0.0800 
 45 H        8.7060    -8.6570     1.2590 H     1 <1>   0.0800 
 46 H        7.7090   -10.0790     1.2040 H     1 <1>   0.0800 
 47 H        5.2130    -5.0720    -0.8830 H     1 <1>   0.0800 
 48 H        6.6200    -4.3290    -0.1660 H     1 <1>   0.0800 
 49 H        5.1290    -4.3990     0.7270 H     1 <1>   0.0800 
 50 H       -7.3290    -6.5710     1.2140 H     1 <1>   0.0800 
 51 H       -7.3900    -6.4090    -0.5270 H     1 <1>   0.0800 
 52 H       -6.7240    -5.1210     0.4490 H     1 <1>   0.0800 
@<TRIPOS>BOND
  1   1   2  1   
  2   1   3  1   
  3   2   4  ar  
  4   2   5  ar  
  5   3   6  1   
  6   3  23  1   
  7   3  24  1   
  8   4   7  1   
  9   4   8  ar  
 10   5   9  ar  
 11   5  25  1   
 12   6  10  1   
 13   6  26  1   
 14   6  27  1   
 15   7  11  1   
 16   8  12  ar  
 17   8  28  1   
 18   9  12  ar  
 19   9  29  1   
 20  10  13  1   
 21  10  14  1   
 22  10  30  1   
 23  11  31  1   
 24  11  32  1   
 25  11  33  1   
 26  12  15  1   
 27  13  16  1   
 28  13  34  1   
 29  13  35  1   
 30  14  17  1   
 31  14  36  1   
 32  14  37  1   
 33  15  18  2   
 34  15  38  1   
 35  16  19  1   
 36  16  20  1   
 37  16  39  1   
 38  17  19  1   
 39  17  21  1   
 40  17  40  1   
 41  18  22  1   
 42  18  41  1   
 43  19  42  1   
 44  19  43  1   
 45  20  44  1   
 46  20  45  1   
 47  20  46  1   
 48  21  47  1   
 49  21  48  1   
 50  21  49  1   
 51  22  50  1   
 52  22  51  1   
 53  22  52  1   
@<TRIPOS>SUBSTRUCTURE
  1 ****   3 GROUP 4 **** **** 0

# MOE 2024.06 (io_trps.svl 2023.06)
