@<TRIPOS>MOLECULE
NONAME
43 45 1 0 0 
SMALL
USER_CHARGES


@<TRIPOS>ATOM
  1 S        0.6780     0.5940    -0.7650 S.o2  1 <1>   1.4470 
  2 O        0.5660     1.3200    -2.0090 O.2   1 <1>  -0.6500 
  3 O        1.4610     1.1310     0.3250 O.2   1 <1>  -0.6500 
  4 N        1.3270    -0.8860    -1.2120 N.am  1 <1>  -0.7890 
  5 C       -0.9690     0.1410    -0.1550 C.ar  1 <1>  -0.0090 
  6 C        2.7680    -0.9090    -1.2060 C.3   1 <1>   0.1310 
  7 C       -2.1060     0.3350    -0.9250 C.ar  1 <1>  -0.1500 
  8 C       -1.1280    -0.4300     1.1020 C.ar  1 <1>  -0.1500 
  9 C        3.4360    -2.2390    -1.2800 C.3   1 <1>  -0.2000 
 10 C        3.4560    -1.4530    -0.0020 C.3   1 <1>  -0.2000 
 11 C       -3.3840    -0.0090    -0.4860 C.ar  1 <1>   0.0860 
 12 C       -2.3780    -0.7960     1.5630 C.ar  1 <1>  -0.1500 
 13 C       -3.5020    -0.6060     0.7790 C.ar  1 <1>   0.0830 
 14 C       -4.5130     0.2930    -1.3350 C.2   1 <1>   0.5440 
 15 O       -4.6760    -1.0110     1.3140 O.3   1 <1>  -0.3630 
 16 O       -4.6960    -0.3810    -2.3310 O.2   1 <1>  -0.5700 
 17 N       -5.3800     1.3250    -1.0510 N.am  1 <1>  -0.6600 
 18 C       -5.5820    -1.7850     0.5540 C.3   1 <1>   0.0400 
 19 C       -6.5990     1.5980    -1.8680 C.3   1 <1>   0.1400 
 20 C       -5.2990     2.1850     0.1680 C.3   1 <1>   0.1400 
 21 C       -7.8540     1.5790    -0.9780 C.3   1 <1>   0.1200 
 22 C       -6.6190     2.1120     0.9520 C.3   1 <1>   0.1200 
 23 O       -7.7010     2.4330     0.1230 O.3   1 <1>  -0.5600 
 24 H        1.0390    -0.9870    -2.1820 H     1 <1>   0.4200 
 25 H        3.2190    -0.0760    -1.7250 H     1 <1>   0.1000 
 26 H       -2.0110     0.7770    -1.9030 H     1 <1>   0.1500 
 27 H       -0.2610    -0.5890     1.7240 H     1 <1>   0.1500 
 28 H        4.3570    -2.3330    -1.8280 H     1 <1>   0.1000 
 29 H        2.8300    -3.1270    -1.3260 H     1 <1>   0.1000 
 30 H        2.8500    -1.7740     0.8270 H     1 <1>   0.1000 
 31 H        4.3790    -0.9970     0.3110 H     1 <1>   0.1000 
 32 H       -2.4880    -1.2390     2.5380 H     1 <1>   0.1500 
 33 H       -6.1470    -2.4000     1.2300 H     1 <1>   0.0800 
 34 H       -5.0330    -2.4060    -0.1340 H     1 <1>   0.0800 
 35 H       -6.2470    -1.1290     0.0220 H     1 <1>   0.0800 
 36 H       -6.7080     0.8680    -2.6500 H     1 <1>   0.0800 
 37 H       -6.5060     2.5650    -2.3300 H     1 <1>   0.0800 
 38 H       -5.1240     3.2040    -0.1310 H     1 <1>   0.0800 
 39 H       -4.4910     1.8850     0.8080 H     1 <1>   0.0800 
 40 H       -8.0460     0.5840    -0.6180 H     1 <1>   0.0800 
 41 H       -8.7090     1.9150    -1.5370 H     1 <1>   0.0800 
 42 H       -6.6080     2.8170     1.7640 H     1 <1>   0.0800 
 43 H       -6.7670     1.1240     1.3520 H     1 <1>   0.0800 
@<TRIPOS>BOND
  1   1   2  2   
  2   1   3  2   
  3   1   4  am  
  4   1   5  1   
  5   4   6  1   
  6   4  24  1   
  7   5   7  ar  
  8   5   8  ar  
  9   6   9  1   
 10   6  10  1   
 11   6  25  1   
 12   7  11  ar  
 13   7  26  1   
 14   8  12  ar  
 15   8  27  1   
 16   9  10  1   
 17   9  28  1   
 18   9  29  1   
 19  10  30  1   
 20  10  31  1   
 21  11  13  ar  
 22  11  14  1   
 23  12  13  ar  
 24  12  32  1   
 25  13  15  1   
 26  14  16  2   
 27  14  17  am  
 28  15  18  1   
 29  17  19  1   
 30  17  20  1   
 31  18  33  1   
 32  18  34  1   
 33  18  35  1   
 34  19  21  1   
 35  19  36  1   
 36  19  37  1   
 37  20  22  1   
 38  20  38  1   
 39  20  39  1   
 40  21  23  1   
 41  21  40  1   
 42  21  41  1   
 43  22  23  1   
 44  22  42  1   
 45  22  43  1   
@<TRIPOS>SUBSTRUCTURE
  1 ****   7 GROUP 4 **** **** 0

# MOE 2024.06 (io_trps.svl 2023.06)
