@<TRIPOS>MOLECULE
NONAME
32 33 1 0 0 
SMALL
USER_CHARGES


@<TRIPOS>ATOM
  1 O       -1.5670     3.2310    -0.7870 O.3   1 <1>  -0.5320 
  2 C       -2.3530     2.2650    -0.2920 C.ar  1 <1>   0.0830 
  3 C       -2.3110     1.0070    -0.8640 C.ar  1 <1>  -0.1500 
  4 C       -3.1910     2.5250     0.7790 C.ar  1 <1>  -0.1500 
  5 C       -3.1010    -0.0140    -0.3590 C.ar  1 <1>  -0.1430 
  6 C       -3.9890     1.5110     1.2790 C.ar  1 <1>  -0.1500 
  7 C       -3.9440     0.2470     0.7120 C.ar  1 <1>  -0.1500 
  8 C       -3.0370    -1.4060    -0.9670 C.3   1 <1>  -0.0170 
  9 C       -2.1420    -2.3430    -0.1320 C.3   1 <1>  -0.0800 
 10 C       -0.7060    -1.7990     0.0040 C.3   1 <1>  -0.1600 
 11 C       -2.1120    -3.7550    -0.7420 C.3   1 <1>  -0.1600 
 12 C        0.2040    -2.7650     0.7590 C.3   1 <1>   0.3430 
 13 C       -1.1760    -4.6880     0.0290 C.3   1 <1>   0.3430 
 14 N        0.1860    -4.0920     0.0860 N.4   1 <1>  -0.9060 
 15 H       -1.6890     4.0880    -0.3420 H     1 <1>   0.4500 
 16 H       -1.6550     0.8430    -1.6990 H     1 <1>   0.1500 
 17 H       -3.2270     3.5030     1.2230 H     1 <1>   0.1500 
 18 H       -4.6480     1.7040     2.1080 H     1 <1>   0.1500 
 19 H       -4.5710    -0.5300     1.1110 H     1 <1>   0.1500 
 20 H       -2.6650    -1.3390    -1.9750 H     1 <1>   0.0800 
 21 H       -4.0350    -1.8060    -1.0210 H     1 <1>   0.0800 
 22 H       -2.5710    -2.4090     0.8550 H     1 <1>   0.0800 
 23 H       -0.7210    -0.8680     0.5460 H     1 <1>   0.0800 
 24 H       -0.2890    -1.5950    -0.9670 H     1 <1>   0.0800 
 25 H       -1.8000    -3.7100    -1.7710 H     1 <1>   0.0800 
 26 H       -3.1050    -4.1720    -0.7250 H     1 <1>   0.0800 
 27 H       -0.1440    -2.8650     1.7750 H     1 <1>   0.0800 
 28 H        1.2090    -2.3720     0.7820 H     1 <1>   0.0800 
 29 H       -1.1410    -5.6500    -0.4580 H     1 <1>   0.0800 
 30 H       -1.5550    -4.8290     1.0300 H     1 <1>   0.0800 
 31 H        0.8280    -4.7320     0.5690 H     1 <1>   0.4500 
 32 H        0.5380    -3.9780    -0.8720 H     1 <1>   0.4500 
@<TRIPOS>BOND
  1   1   2  1   
  2   1  15  1   
  3   2   3  ar  
  4   2   4  ar  
  5   3   5  ar  
  6   3  16  1   
  7   4   6  ar  
  8   4  17  1   
  9   5   7  ar  
 10   5   8  1   
 11   6   7  ar  
 12   6  18  1   
 13   7  19  1   
 14   8   9  1   
 15   8  20  1   
 16   8  21  1   
 17   9  10  1   
 18   9  11  1   
 19   9  22  1   
 20  10  12  1   
 21  10  23  1   
 22  10  24  1   
 23  11  13  1   
 24  11  25  1   
 25  11  26  1   
 26  12  14  1   
 27  12  27  1   
 28  12  28  1   
 29  13  14  1   
 30  13  29  1   
 31  13  30  1   
 32  14  31  1   
 33  14  32  1   
@<TRIPOS>SUBSTRUCTURE
  1 ****   5 GROUP 4 **** **** 0

# MOE 2024.06 (io_trps.svl 2023.06)
