@<TRIPOS>MOLECULE
NONAME
49 50 1 0 0 
SMALL
USER_CHARGES


@<TRIPOS>ATOM
  1 S       -0.4230    -0.1250    -0.7900 S.o2  1 <1>   1.4470 
  2 O       -1.5640     0.1240    -1.6430 O.2   1 <1>  -0.6500 
  3 O        0.7210    -0.7920    -1.3850 O.2   1 <1>  -0.6500 
  4 N       -0.9320    -1.2040     0.4270 N.am  1 <1>  -0.8490 
  5 C        0.0740     1.4690    -0.0170 C.ar  1 <1>  -0.0090 
  6 C        0.1930    -1.8900     1.1230 C.3   1 <1>   0.2570 
  7 C       -1.8980    -2.1990    -0.0630 C.3   1 <1>   0.1960 
  8 C        1.0930     2.2460    -0.5910 C.ar  1 <1>  -0.1440 
  9 C       -0.5470     1.9830     1.1330 C.ar  1 <1>  -0.1440 
 10 C        1.2510    -0.9890     1.7810 C.2   1 <1>   0.5690 
 11 C       -3.3360    -1.7270     0.1730 C.3   1 <1>  -0.0170 
 12 C        1.5210     3.4210     0.0080 C.ar  1 <1>  -0.1500 
 13 C        1.7810     1.8720    -1.9010 C.3   1 <1>  -0.0970 
 14 C       -0.1010     3.1580     1.7170 C.ar  1 <1>  -0.1500 
 15 C       -1.7400     1.3190     1.8100 C.3   1 <1>  -0.0960 
 16 O        1.1570    -0.7090     2.9480 O.2   1 <1>  -0.5700 
 17 N        2.2950    -0.5310     1.0600 N.am  1 <1>  -0.8000 
 18 C       -4.3090    -2.7960    -0.2940 C.ar  1 <1>  -0.1440 
 19 C        0.9360     3.8800     1.1680 C.ar  1 <1>  -0.1440 
 20 C       -4.6810    -2.8560    -1.6280 C.ar  1 <1>  -0.1500 
 21 C       -4.8260    -3.7220     0.6000 C.ar  1 <1>  -0.1500 
 22 C        1.4140     5.1590     1.8300 C.3   1 <1>  -0.0970 
 23 C       -5.5590    -3.8320    -2.0650 C.ar  1 <1>  -0.1500 
 24 C       -5.7050    -4.6980     0.1640 C.ar  1 <1>  -0.1500 
 25 C       -6.0710    -4.7540    -1.1700 C.ar  1 <1>  -0.1500 
 26 H        0.6950    -2.5460     0.4340 H     1 <1>   0.0800 
 27 H       -0.2140    -2.5020     1.9090 H     1 <1>   0.0800 
 28 H       -1.7780    -3.1320     0.4610 H     1 <1>   0.0800 
 29 H       -1.7400    -2.3980    -1.1120 H     1 <1>   0.0800 
 30 H       -3.5290    -0.8180    -0.3660 H     1 <1>   0.0800 
 31 H       -3.4820    -1.5350     1.2200 H     1 <1>   0.0800 
 32 H        2.3180     3.9920    -0.4340 H     1 <1>   0.1500 
 33 H        2.3080     2.7140    -2.3150 H     1 <1>   0.0800 
 34 H        2.4920     1.0830    -1.7390 H     1 <1>   0.0800 
 35 H        1.0610     1.5560    -2.6340 H     1 <1>   0.0800 
 36 H       -0.5680     3.5230     2.6150 H     1 <1>   0.1500 
 37 H       -1.4100     0.5010     2.4250 H     1 <1>   0.0800 
 38 H       -2.4410     0.9640     1.0790 H     1 <1>   0.0800 
 39 H       -2.2620     2.0160     2.4400 H     1 <1>   0.0800 
 40 H        2.9450     0.1320     1.4840 H     1 <1>   0.3700 
 41 H        2.3580    -0.6530     0.0440 H     1 <1>   0.3700 
 42 H       -4.2880    -2.1410    -2.3310 H     1 <1>   0.1500 
 43 H       -4.5490    -3.6870     1.6390 H     1 <1>   0.1500 
 44 H        2.0650     4.9220     2.6520 H     1 <1>   0.0800 
 45 H        0.5750     5.7210     2.2010 H     1 <1>   0.0800 
 46 H        1.9500     5.7740     1.1300 H     1 <1>   0.0800 
 47 H       -5.8450    -3.8730    -3.1020 H     1 <1>   0.1500 
 48 H       -6.1040    -5.4140     0.8610 H     1 <1>   0.1500 
 49 H       -6.7550    -5.5130    -1.5090 H     1 <1>   0.1500 
@<TRIPOS>BOND
  1   1   2  2   
  2   1   3  2   
  3   1   4  am  
  4   1   5  1   
  5   4   6  1   
  6   4   7  1   
  7   5   8  ar  
  8   5   9  ar  
  9   6  10  1   
 10   6  26  1   
 11   6  27  1   
 12   7  11  1   
 13   7  28  1   
 14   7  29  1   
 15   8  12  ar  
 16   8  13  1   
 17   9  14  ar  
 18   9  15  1   
 19  10  16  2   
 20  10  17  am  
 21  11  18  1   
 22  11  30  1   
 23  11  31  1   
 24  12  19  ar  
 25  12  32  1   
 26  13  33  1   
 27  13  34  1   
 28  13  35  1   
 29  14  19  ar  
 30  14  36  1   
 31  15  37  1   
 32  15  38  1   
 33  15  39  1   
 34  17  40  1   
 35  17  41  1   
 36  18  20  ar  
 37  18  21  ar  
 38  19  22  1   
 39  20  23  ar  
 40  20  42  1   
 41  21  24  ar  
 42  21  43  1   
 43  22  44  1   
 44  22  45  1   
 45  22  46  1   
 46  23  25  ar  
 47  23  47  1   
 48  24  25  ar  
 49  24  48  1   
 50  25  49  1   
@<TRIPOS>SUBSTRUCTURE
  1 ****   4 GROUP 4 **** **** 0

# MOE 2024.06 (io_trps.svl 2023.06)
