@<TRIPOS>MOLECULE
NONAME
44 46 1 0 0 
SMALL
USER_CHARGES


@<TRIPOS>ATOM
  1 O        0.1990    -0.4380    -0.0070 O.3   1 <1>  -0.2800 
  2 C       -0.7760    -0.7990    -0.8130 C.2   1 <1>  -0.0100 
  3 C        0.0250    -1.0620     1.1390 C.2   1 <1>  -0.0100 
  4 C       -1.6130    -1.6590    -0.1910 C.2   1 <1>  -0.1810 
  5 C       -1.0790    -1.8370     1.0960 C.2   1 <1>  -0.1500 
  6 C       -2.8650    -2.3100    -0.7350 C.3   1 <1>   0.5240 
  7 N       -3.9970    -1.3690    -0.5490 N.4   1 <1>  -0.9590 
  8 C       -4.2970    -1.1140     0.9090 C.3   1 <1>   0.3430 
  9 C       -5.2370    -1.8260    -1.2740 C.3   1 <1>   0.3430 
 10 C       -5.4640    -0.1280     1.1050 C.3   1 <1>   0.2090 
 11 C       -6.4130    -0.8430    -1.1010 C.3   1 <1>   0.2090 
 12 N       -6.6720    -0.5630     0.3420 N.pl3 1 <1>  -0.8380 
 13 C       -7.8120     0.2210     0.5760 C.ar  1 <1>   0.1000 
 14 C       -7.9280     1.5700     0.1920 C.ar  1 <1>   0.0830 
 15 C       -8.8780    -0.3820     1.2270 C.ar  1 <1>  -0.1500 
 16 O       -6.8660     2.1560    -0.4490 O.3   1 <1>  -0.3620 
 17 C       -9.1020     2.2650     0.4680 C.ar  1 <1>  -0.1500 
 18 C      -10.0400     0.3150     1.4980 C.ar  1 <1>  -0.1500 
 19 C       -6.8840     3.5220    -0.7950 C.3   1 <1>   0.1200 
 20 C      -10.1520     1.6390     1.1180 C.ar  1 <1>  -0.1500 
 21 C       -5.5440     3.8610    -1.4410 C.3   1 <1>  -0.2400 
 22 H       -0.7870    -0.3870    -1.8090 H     1 <1>   0.1500 
 23 H        0.7390    -0.8980     1.9300 H     1 <1>   0.1500 
 24 H       -1.4670    -2.4690     1.8770 H     1 <1>   0.1500 
 25 H       -3.0530    -3.2400    -0.2230 H     1 <1>   0.0800 
 26 H       -2.7270    -2.5160    -1.7840 H     1 <1>   0.0800 
 27 H       -3.7110    -0.4660    -0.9470 H     1 <1>   0.4500 
 28 H       -3.4240    -0.7150     1.4000 H     1 <1>   0.0800 
 29 H       -4.5570    -2.0400     1.3940 H     1 <1>   0.0800 
 30 H       -5.5480    -2.7840    -0.8920 H     1 <1>   0.0800 
 31 H       -5.0310    -1.9380    -2.3260 H     1 <1>   0.0800 
 32 H       -5.1610     0.8540     0.7880 H     1 <1>   0.0800 
 33 H       -5.7130    -0.0710     2.1510 H     1 <1>   0.0800 
 34 H       -7.3010    -1.2660    -1.5400 H     1 <1>   0.0800 
 35 H       -6.1960     0.0730    -1.6210 H     1 <1>   0.0800 
 36 H       -8.7920    -1.4120     1.5220 H     1 <1>   0.1500 
 37 H       -9.2290     3.2930     0.1880 H     1 <1>   0.1500 
 38 H      -10.8560    -0.1720     2.0040 H     1 <1>   0.1500 
 39 H       -7.0310     4.1000     0.1010 H     1 <1>   0.0800 
 40 H       -7.6920     3.6890    -1.4860 H     1 <1>   0.0800 
 41 H      -11.0570     2.1830     1.3280 H     1 <1>   0.1500 
 42 H       -4.7410     3.6790    -0.7490 H     1 <1>   0.0800 
 43 H       -5.5290     4.9000    -1.7150 H     1 <1>   0.0800 
 44 H       -5.4000     3.2720    -2.3290 H     1 <1>   0.0800 
@<TRIPOS>BOND
  1   1   2  1   
  2   1   3  1   
  3   2   4  2   
  4   2  22  1   
  5   3   5  2   
  6   3  23  1   
  7   4   5  1   
  8   4   6  1   
  9   5  24  1   
 10   6   7  1   
 11   6  25  1   
 12   6  26  1   
 13   7   8  1   
 14   7   9  1   
 15   7  27  1   
 16   8  10  1   
 17   8  28  1   
 18   8  29  1   
 19   9  11  1   
 20   9  30  1   
 21   9  31  1   
 22  10  12  1   
 23  10  32  1   
 24  10  33  1   
 25  11  12  1   
 26  11  34  1   
 27  11  35  1   
 28  12  13  1   
 29  13  14  ar  
 30  13  15  ar  
 31  14  16  1   
 32  14  17  ar  
 33  15  18  ar  
 34  15  36  1   
 35  16  19  1   
 36  17  20  ar  
 37  17  37  1   
 38  18  20  ar  
 39  18  38  1   
 40  19  21  1   
 41  19  39  1   
 42  19  40  1   
 43  20  41  1   
 44  21  42  1   
 45  21  43  1   
 46  21  44  1   
@<TRIPOS>SUBSTRUCTURE
  1 ****  10 GROUP 4 **** **** 0

# MOE 2024.06 (io_trps.svl 2023.06)
