@<TRIPOS>MOLECULE
NONAME
42 46 1 0 0 
SMALL
USER_CHARGES


@<TRIPOS>ATOM
  1 O       -0.1510    -0.2160    -1.9820 O.2   1 <1>  -0.5700 
  2 C       -0.3510    -0.9390    -1.0360 C.2   1 <1>   0.5690 
  3 N        0.5740    -1.4930    -0.1730 N.am  1 <1>  -0.1200 
  4 C       -1.7000    -1.4280    -0.5910 C.3   1 <1>  -0.0190 
  5 N        1.9620    -1.7560    -0.5310 N.am  1 <1>  -0.4300 
  6 C       -0.0570    -2.0030     0.9460 C.2   1 <1>   0.5690 
  7 C       -3.1680    -1.0070    -0.8600 C.3   1 <1>   0.1530 
  8 C       -1.4630    -1.4710     0.9300 C.3   1 <1>  -0.0190 
  9 C        2.3750    -2.8370    -1.2400 C.2   1 <1>   0.5690 
 10 O        0.4140    -2.6770     1.8310 O.2   1 <1>  -0.5700 
 11 C       -3.8740    -2.3190    -0.4880 C.2   1 <1>  -0.2880 
 12 C       -3.6420     0.0300     0.2070 C.3   1 <1>  -0.1950 
 13 C       -2.7870    -1.8570     1.6510 C.3   1 <1>   0.1530 
 14 O        1.5990    -3.6680    -1.6550 O.2   1 <1>  -0.5700 
 15 C        3.8560    -3.0140    -1.5320 C.3   1 <1>   0.0440 
 16 C       -3.6420    -2.7670     0.7560 C.2   1 <1>  -0.2880 
 17 C       -3.5440    -0.4890     1.6350 C.3   1 <1>  -0.1950 
 18 C       -4.8790    -0.1150     1.0430 C.3   1 <1>  -0.2000 
 19 C        4.6980    -1.8760    -0.9630 C.ar  1 <1>  -0.1440 
 20 C        4.9400    -0.7400    -1.7200 C.ar  1 <1>  -0.1500 
 21 C        5.2030    -1.9570     0.3250 C.ar  1 <1>  -0.1500 
 22 C        5.6770     0.3060    -1.1930 C.ar  1 <1>  -0.1500 
 23 C        5.9410    -0.9120     0.8530 C.ar  1 <1>  -0.1500 
 24 C        6.1770     0.2210     0.0940 C.ar  1 <1>  -0.1500 
 25 H       -1.6460    -2.4400    -0.9660 H     1 <1>   0.0800 
 26 H        2.6620    -1.0710    -0.2270 H     1 <1>   0.3700 
 27 H       -3.3550    -0.7120    -1.8780 H     1 <1>   0.0800 
 28 H       -1.2630    -0.4640     1.2620 H     1 <1>   0.0800 
 29 H       -4.4760    -2.7870    -1.2490 H     1 <1>   0.1500 
 30 H       -3.2740     1.0240     0.0160 H     1 <1>   0.1000 
 31 H       -2.6440    -2.2370     2.6480 H     1 <1>   0.0800 
 32 H        3.9880    -3.0720    -2.5960 H     1 <1>   0.0800 
 33 H        4.1750    -3.9510    -1.1140 H     1 <1>   0.0800 
 34 H       -4.0160    -3.6730     1.2020 H     1 <1>   0.1500 
 35 H       -3.1830     0.1800     2.3980 H     1 <1>   0.1000 
 36 H       -5.3590     0.7800     1.3970 H     1 <1>   0.1000 
 37 H       -5.5990    -0.8880     0.8360 H     1 <1>   0.1000 
 38 H        4.5550    -0.6590    -2.7230 H     1 <1>   0.1500 
 39 H        5.0250    -2.8320     0.9280 H     1 <1>   0.1500 
 40 H        5.8630     1.1860    -1.7850 H     1 <1>   0.1500 
 41 H        6.3320    -0.9790     1.8530 H     1 <1>   0.1500 
 42 H        6.7520     1.0340     0.5040 H     1 <1>   0.1500 
@<TRIPOS>BOND
  1   1   2  2   
  2   2   3  am  
  3   2   4  1   
  4   3   5  1   
  5   3   6  am  
  6   4   7  1   
  7   4   8  1   
  8   4  25  1   
  9   5   9  am  
 10   5  26  1   
 11   6   8  1   
 12   6  10  2   
 13   7  11  1   
 14   7  12  1   
 15   7  27  1   
 16   8  13  1   
 17   8  28  1   
 18   9  14  2   
 19   9  15  1   
 20  11  16  2   
 21  11  29  1   
 22  12  17  1   
 23  12  18  1   
 24  12  30  1   
 25  13  16  1   
 26  13  17  1   
 27  13  31  1   
 28  15  19  1   
 29  15  32  1   
 30  15  33  1   
 31  16  34  1   
 32  17  18  1   
 33  17  35  1   
 34  18  36  1   
 35  18  37  1   
 36  19  20  ar  
 37  19  21  ar  
 38  20  22  ar  
 39  20  38  1   
 40  21  23  ar  
 41  21  39  1   
 42  22  24  ar  
 43  22  40  1   
 44  23  24  ar  
 45  23  41  1   
 46  24  42  1   
@<TRIPOS>SUBSTRUCTURE
  1 ****   3 GROUP 4 **** **** 0

# MOE 2024.06 (io_trps.svl 2023.06)
