@<TRIPOS>MOLECULE
NONAME
38 40 1 0 0 
SMALL
USER_CHARGES


@<TRIPOS>ATOM
  1 O        0.5160    -1.0120    -1.4380 O.3   1 <1>  -0.6800 
  2 C        1.3950    -1.1280    -0.3900 C.3   1 <1>   0.2000 
  3 C        2.6420    -0.3100    -0.7230 C.3   1 <1>  -0.1600 
  4 C        1.7180    -2.6130    -0.2420 C.3   1 <1>  -0.1600 
  5 C        3.7560    -0.5770     0.2860 C.3   1 <1>   0.3430 
  6 C        2.8440    -2.8340     0.7600 C.3   1 <1>   0.3430 
  7 N        4.0380    -2.0430     0.3510 N.4   1 <1>  -0.9590 
  8 C        5.2140    -2.3420     1.2150 C.3   1 <1>   0.4860 
  9 C        6.4360    -1.6720     0.6170 C.ar  1 <1>  -0.1440 
 10 C        6.9980    -0.5720     1.2110 C.ar  1 <1>  -0.1500 
 11 C        6.9950    -2.1780    -0.5670 C.ar  1 <1>  -0.1500 
 12 C        8.1150     0.0790     0.6510 C.ar  1 <1>   0.0000 
 13 C        8.0790    -1.5660    -1.1300 C.ar  1 <1>  -0.1500 
 14 C        8.6630    -0.4250    -0.5470 C.ar  1 <1>   0.0000 
 15 C        8.7030     1.2170     1.2390 C.ar  1 <1>  -0.1500 
 16 C        9.7750     0.2310    -1.1120 C.ar  1 <1>  -0.1500 
 17 C        9.7820     1.8330     0.6680 C.ar  1 <1>  -0.1500 
 18 C       10.3230     1.3350    -0.5210 C.ar  1 <1>  -0.1500 
 19 H        0.1700    -0.1000    -1.5230 H     1 <1>   0.4000 
 20 H        0.9120    -0.7550     0.4990 H     1 <1>   0.0800 
 21 H        2.4020     0.7380    -0.7070 H     1 <1>   0.0800 
 22 H        2.9960    -0.5580    -1.7090 H     1 <1>   0.0800 
 23 H        2.0040    -3.0260    -1.1940 H     1 <1>   0.0800 
 24 H        0.8390    -3.1340     0.0950 H     1 <1>   0.0800 
 25 H        3.4590    -0.2170     1.2580 H     1 <1>   0.0800 
 26 H        4.6420    -0.0410    -0.0180 H     1 <1>   0.0800 
 27 H        3.0880    -3.8840     0.7960 H     1 <1>   0.0800 
 28 H        2.5190    -2.5270     1.7410 H     1 <1>   0.0800 
 29 H        4.3000    -2.3280    -0.6010 H     1 <1>   0.4500 
 30 H        5.3820    -3.4050     1.2650 H     1 <1>   0.0800 
 31 H        5.0460    -1.9740     2.2140 H     1 <1>   0.0800 
 32 H        6.6030    -0.1670     2.1260 H     1 <1>   0.1500 
 33 H        6.5780    -3.0540    -1.0350 H     1 <1>   0.1500 
 34 H        8.5140    -1.9490    -2.0370 H     1 <1>   0.1500 
 35 H        8.2900     1.5990     2.1550 H     1 <1>   0.1500 
 36 H       10.1920    -0.1560    -2.0250 H     1 <1>   0.1500 
 37 H       10.2280     2.7020     1.1210 H     1 <1>   0.1500 
 38 H       11.1730     1.8320    -0.9570 H     1 <1>   0.1500 
@<TRIPOS>BOND
  1   1   2  1   
  2   1  19  1   
  3   2   3  1   
  4   2   4  1   
  5   2  20  1   
  6   3   5  1   
  7   3  21  1   
  8   3  22  1   
  9   4   6  1   
 10   4  23  1   
 11   4  24  1   
 12   5   7  1   
 13   5  25  1   
 14   5  26  1   
 15   6   7  1   
 16   6  27  1   
 17   6  28  1   
 18   7   8  1   
 19   7  29  1   
 20   8   9  1   
 21   8  30  1   
 22   8  31  1   
 23   9  10  ar  
 24   9  11  ar  
 25  10  12  ar  
 26  10  32  1   
 27  11  13  ar  
 28  11  33  1   
 29  12  14  ar  
 30  12  15  ar  
 31  13  14  ar  
 32  13  34  1   
 33  14  16  ar  
 34  15  17  ar  
 35  15  35  1   
 36  16  18  ar  
 37  16  36  1   
 38  17  18  ar  
 39  17  37  1   
 40  18  38  1   
@<TRIPOS>SUBSTRUCTURE
  1 ****   9 GROUP 4 **** **** 0

# MOE 2024.06 (io_trps.svl 2023.06)
