@<TRIPOS>MOLECULE
NONAME
52 54 1 0 0 
SMALL
USER_CHARGES


@<TRIPOS>ATOM
  1 F        0.3980     1.0210    -1.1050 F     1 <1>  -0.1900 
  2 C        1.1960     2.0440    -0.9710 C.ar  1 <1>   0.1900 
  3 C        2.2670     2.1720    -1.8340 C.ar  1 <1>  -0.1500 
  4 C        0.9410     2.9630     0.0280 C.ar  1 <1>  -0.1500 
  5 C        3.1130     3.2580    -1.6870 C.ar  1 <1>  -0.1500 
  6 C        1.7930     4.0460     0.1690 C.ar  1 <1>  -0.1500 
  7 C        2.8840     4.1940    -0.6820 C.ar  1 <1>  -0.1430 
  8 C        3.8270     5.3720    -0.5170 C.3   1 <1>   0.4870 
  9 N        4.6940     5.1300     0.6680 N.4   1 <1>  -0.9590 
 10 C        5.5220     6.3530     0.9760 C.3   1 <1>   0.3430 
 11 C        5.5560     3.9060     0.4640 C.3   1 <1>   0.3430 
 12 C        6.5310     6.1100     2.1190 C.3   1 <1>   0.1400 
 13 C        6.5420     3.6800     1.6290 C.3   1 <1>   0.1400 
 14 N        7.3630     4.9030     1.8400 N.am  1 <1>  -0.6600 
 15 C        8.4200     5.0610     0.9950 C.2   1 <1>   0.6900 
 16 O        8.2510     5.6890    -0.0330 O.2   1 <1>  -0.5700 
 17 N        9.5860     4.4410     1.3150 N.am  1 <1>  -0.5470 
 18 C       10.7840     4.2740     0.6030 C.ar  1 <1>   0.1170 
 19 C       11.6300     3.2380     0.9690 C.ar  1 <1>  -0.1500 
 20 C       11.1710     5.0970    -0.4470 C.ar  1 <1>  -0.1500 
 21 C       12.8260     3.0050     0.3120 C.ar  1 <1>   0.0830 
 22 C       12.3660     4.8890    -1.1110 C.ar  1 <1>  -0.1500 
 23 O       13.5340     1.9370     0.7780 O.3   1 <1>  -0.3630 
 24 C       13.2160     3.8490    -0.7400 C.ar  1 <1>   0.0830 
 25 C       14.3080     1.1450    -0.0950 C.3   1 <1>   0.0400 
 26 O       14.4160     3.6530    -1.3670 O.3   1 <1>  -0.3630 
 27 C       14.9730     4.6370    -2.2110 C.3   1 <1>   0.0400 
 28 H        2.4240     1.4360    -2.6040 H     1 <1>   0.1500 
 29 H        0.0900     2.8280     0.6730 H     1 <1>   0.1500 
 30 H        3.9440     3.3620    -2.3650 H     1 <1>   0.1500 
 31 H        1.5870     4.7670     0.9420 H     1 <1>   0.1500 
 32 H        3.2500     6.2720    -0.3790 H     1 <1>   0.0800 
 33 H        4.4320     5.4880    -1.4020 H     1 <1>   0.0800 
 34 H        4.0730     4.9380     1.4620 H     1 <1>   0.4500 
 35 H        4.8800     7.1770     1.2400 H     1 <1>   0.0800 
 36 H        6.0800     6.6390     0.0980 H     1 <1>   0.0800 
 37 H        6.1310     4.0180    -0.4420 H     1 <1>   0.0800 
 38 H        4.9340     3.0320     0.3540 H     1 <1>   0.0800 
 39 H        6.0140     5.9850     3.0540 H     1 <1>   0.0800 
 40 H        7.1730     6.9710     2.2110 H     1 <1>   0.0800 
 41 H        7.1850     2.8480     1.3930 H     1 <1>   0.0800 
 42 H        6.0070     3.4380     2.5310 H     1 <1>   0.0800 
 43 H        9.5650     4.0020     2.2320 H     1 <1>   0.3700 
 44 H       11.3630     2.5860     1.7780 H     1 <1>   0.1500 
 45 H       10.5460     5.9150    -0.7530 H     1 <1>   0.1500 
 46 H       12.6130     5.5530    -1.9160 H     1 <1>   0.1500 
 47 H       14.4590     0.1870     0.3670 H     1 <1>   0.0800 
 48 H       15.2570     1.6260    -0.2510 H     1 <1>   0.0800 
 49 H       13.7820     1.0280    -1.0260 H     1 <1>   0.0800 
 50 H       15.9630     4.3190    -2.4860 H     1 <1>   0.0800 
 51 H       15.0240     5.5690    -1.6760 H     1 <1>   0.0800 
 52 H       14.3640     4.7280    -3.0930 H     1 <1>   0.0800 
@<TRIPOS>BOND
  1   1   2  1   
  2   2   3  ar  
  3   2   4  ar  
  4   3   5  ar  
  5   3  28  1   
  6   4   6  ar  
  7   4  29  1   
  8   5   7  ar  
  9   5  30  1   
 10   6   7  ar  
 11   6  31  1   
 12   7   8  1   
 13   8   9  1   
 14   8  32  1   
 15   8  33  1   
 16   9  10  1   
 17   9  11  1   
 18   9  34  1   
 19  10  12  1   
 20  10  35  1   
 21  10  36  1   
 22  11  13  1   
 23  11  37  1   
 24  11  38  1   
 25  12  14  1   
 26  12  39  1   
 27  12  40  1   
 28  13  14  1   
 29  13  41  1   
 30  13  42  1   
 31  14  15  am  
 32  15  16  2   
 33  15  17  am  
 34  17  18  1   
 35  17  43  1   
 36  18  19  ar  
 37  18  20  ar  
 38  19  21  ar  
 39  19  44  1   
 40  20  22  ar  
 41  20  45  1   
 42  21  23  1   
 43  21  24  ar  
 44  22  24  ar  
 45  22  46  1   
 46  23  25  1   
 47  24  26  1   
 48  25  47  1   
 49  25  48  1   
 50  25  49  1   
 51  26  27  1   
 52  27  50  1   
 53  27  51  1   
 54  27  52  1   
@<TRIPOS>SUBSTRUCTURE
  1 ****  15 GROUP 4 **** **** 0

# MOE 2024.06 (io_trps.svl 2023.06)
