@<TRIPOS>MOLECULE
NONAME
35 36 1 0 0 
SMALL
USER_CHARGES


@<TRIPOS>ATOM
  1 CL      -0.7180     0.4770     1.7220 Cl    1 <1>  -0.1770 
  2 C       -0.5250     1.8170     0.6080 C.ar  1 <1>   0.1770 
  3 C       -1.6580     2.4110     0.0540 C.ar  1 <1>   0.1170 
  4 C        0.7550     2.2420     0.3080 C.ar  1 <1>  -0.1500 
  5 N       -2.9320     1.9240     0.4020 N.am  1 <1>  -0.5470 
  6 C       -1.4560     3.4620    -0.8380 C.ar  1 <1>  -0.1500 
  7 C        0.9290     3.2930    -0.5770 C.ar  1 <1>  -0.1500 
  8 C       -4.1930     2.4210     0.2520 C.2   1 <1>   0.6900 
  9 C       -0.1780     3.8980    -1.1480 C.ar  1 <1>  -0.1500 
 10 O       -4.3840     3.5400    -0.1860 O.2   1 <1>  -0.5700 
 11 N       -5.2540     1.6360     0.6260 N.am  1 <1>  -0.6600 
 12 C       -6.6150     2.2240     0.7880 C.3   1 <1>   0.1400 
 13 C       -5.2530     0.1490     0.5460 C.3   1 <1>   0.1400 
 14 C       -7.4870     1.8350    -0.4100 C.3   1 <1>  -0.0190 
 15 C       -6.1180    -0.2940    -0.6400 C.3   1 <1>  -0.1600 
 16 C       -8.8750     2.4320    -0.2400 C.2   1 <1>   0.5690 
 17 C       -7.5350     0.3000    -0.5710 C.3   1 <1>  -0.1600 
 18 O       -9.5640     2.1100     0.6930 O.2   1 <1>  -0.5700 
 19 N       -9.3310     3.3290    -1.1330 N.am  1 <1>  -0.8000 
 20 H        1.6010     1.7580     0.7600 H     1 <1>   0.1500 
 21 H       -2.9150     1.1010     0.9990 H     1 <1>   0.3700 
 22 H       -2.2960     3.9470    -1.3000 H     1 <1>   0.1500 
 23 H        1.9200     3.6380    -0.8210 H     1 <1>   0.1500 
 24 H       -0.0460     4.7150    -1.8370 H     1 <1>   0.1500 
 25 H       -6.5560     3.2970     0.8650 H     1 <1>   0.0800 
 26 H       -7.0550     1.8530     1.6980 H     1 <1>   0.0800 
 27 H       -5.6540    -0.2510     1.4620 H     1 <1>   0.0800 
 28 H       -4.2550    -0.2340     0.4210 H     1 <1>   0.0800 
 29 H       -7.0400     2.2620    -1.2900 H     1 <1>   0.0800 
 30 H       -6.1790    -1.3680    -0.6540 H     1 <1>   0.0800 
 31 H       -5.6390     0.0170    -1.5520 H     1 <1>   0.0800 
 32 H       -8.0820     0.0460    -1.4630 H     1 <1>   0.0800 
 33 H       -8.0570    -0.1270     0.2690 H     1 <1>   0.0800 
 34 H      -10.2600     3.7310    -1.0040 H     1 <1>   0.3700 
 35 H       -8.7890     3.6730    -1.9260 H     1 <1>   0.3700 
@<TRIPOS>BOND
  1   1   2  1   
  2   2   3  ar  
  3   2   4  ar  
  4   3   5  1   
  5   3   6  ar  
  6   4   7  ar  
  7   4  20  1   
  8   5   8  am  
  9   5  21  1   
 10   6   9  ar  
 11   6  22  1   
 12   7   9  ar  
 13   7  23  1   
 14   8  10  2   
 15   8  11  am  
 16   9  24  1   
 17  11  12  1   
 18  11  13  1   
 19  12  14  1   
 20  12  25  1   
 21  12  26  1   
 22  13  15  1   
 23  13  27  1   
 24  13  28  1   
 25  14  16  1   
 26  14  17  1   
 27  14  29  1   
 28  15  17  1   
 29  15  30  1   
 30  15  31  1   
 31  16  18  2   
 32  16  19  am  
 33  17  32  1   
 34  17  33  1   
 35  19  34  1   
 36  19  35  1   
@<TRIPOS>SUBSTRUCTURE
  1 ****   8 GROUP 4 **** **** 0

# MOE 2024.06 (io_trps.svl 2023.06)
