@<TRIPOS>MOLECULE
NONAME
39 40 1 0 0 
SMALL
USER_CHARGES


@<TRIPOS>ATOM
  1 P       -0.0190     0.4500    -0.0080 P.3   1 <1>   0.9000 
  2 O        0.4460    -0.8880     0.4530 O.co2 1 <1>  -0.9500 
  3 O        0.3370     0.9210    -1.3800 O.co2 1 <1>  -0.9500 
  4 C        0.8340     1.6670     1.0200 C.3   1 <1>   0.3430 
  5 C       -1.7720     0.6410     0.2910 C.3   1 <1>  -0.1600 
  6 N        2.1940     1.9000     0.4260 N.4   1 <1>  -0.9590 
  7 C       -2.6010    -0.3110    -0.5740 C.3   1 <1>  -0.0170 
  8 C        3.0850     0.7380     0.6980 C.3   1 <1>   0.3430 
  9 C        2.7790     3.2310     0.6940 C.3   1 <1>   0.3430 
 10 C       -4.0850    -0.1210    -0.3030 C.ar  1 <1>  -0.1430 
 11 C        4.3840     0.8940    -0.0940 C.3   1 <1>  -0.1600 
 12 C        4.0730     3.3930    -0.1070 C.3   1 <1>  -0.1600 
 13 C       -4.8460     0.7790    -1.0190 C.ar  1 <1>  -0.1500 
 14 C       -4.7430    -0.8360     0.6760 C.ar  1 <1>  -0.1500 
 15 C        5.0600     2.2480     0.1630 C.3   1 <1>  -0.1600 
 16 C       -6.1930     0.9190    -0.7280 C.ar  1 <1>   0.1600 
 17 C       -6.0950    -0.6190     0.8880 C.ar  1 <1>   0.1600 
 18 N       -6.8370     0.2430     0.2110 N.ar  1 <1>  -0.6200 
 19 H        0.9260     1.3540     2.0440 H     1 <1>   0.0800 
 20 H        0.3040     2.6010     0.9970 H     1 <1>   0.0800 
 21 H       -2.0900     1.6430     0.0740 H     1 <1>   0.0800 
 22 H       -2.0080     0.4410     1.3190 H     1 <1>   0.0800 
 23 H        1.9550     1.8000    -0.5920 H     1 <1>   0.4500 
 24 H       -2.3130    -1.3270    -0.3620 H     1 <1>   0.0800 
 25 H       -2.3880    -0.1260    -1.6130 H     1 <1>   0.0800 
 26 H        2.5980    -0.1810     0.4050 H     1 <1>   0.0800 
 27 H        3.3020     0.6840     1.7520 H     1 <1>   0.0800 
 28 H        2.9920     3.3250     1.7460 H     1 <1>   0.0800 
 29 H        2.0810     4.0020     0.4120 H     1 <1>   0.0800 
 30 H        4.1610     0.7850    -1.1420 H     1 <1>   0.0800 
 31 H        5.0540     0.0960     0.1750 H     1 <1>   0.0800 
 32 H        4.5320     4.3310     0.1500 H     1 <1>   0.0800 
 33 H        3.8320     3.4260    -1.1550 H     1 <1>   0.0800 
 34 H       -4.4010     1.3690    -1.8000 H     1 <1>   0.1500 
 35 H       -4.2150    -1.5570     1.2720 H     1 <1>   0.1500 
 36 H        5.9210     2.3500    -0.4760 H     1 <1>   0.0800 
 37 H        5.3980     2.2930     1.1840 H     1 <1>   0.0800 
 38 H       -6.7700     1.6260    -1.2980 H     1 <1>   0.1500 
 39 H       -6.5910    -1.1870     1.6560 H     1 <1>   0.1500 
@<TRIPOS>BOND
  1   1   2  ar  
  2   1   3  ar  
  3   1   4  1   
  4   1   5  1   
  5   4   6  1   
  6   4  19  1   
  7   4  20  1   
  8   5   7  1   
  9   5  21  1   
 10   5  22  1   
 11   6   8  1   
 12   6   9  1   
 13   6  23  1   
 14   7  10  1   
 15   7  24  1   
 16   7  25  1   
 17   8  11  1   
 18   8  26  1   
 19   8  27  1   
 20   9  12  1   
 21   9  28  1   
 22   9  29  1   
 23  10  13  ar  
 24  10  14  ar  
 25  11  15  1   
 26  11  30  1   
 27  11  31  1   
 28  12  15  1   
 29  12  32  1   
 30  12  33  1   
 31  13  16  ar  
 32  13  34  1   
 33  14  17  ar  
 34  14  35  1   
 35  15  36  1   
 36  15  37  1   
 37  16  18  ar  
 38  16  38  1   
 39  17  18  ar  
 40  17  39  1   
@<TRIPOS>SUBSTRUCTURE
  1 ****   1 GROUP 4 **** **** 0

# MOE 2024.06 (io_trps.svl 2023.06)
