@<TRIPOS>MOLECULE
NONAME
40 41 1 0 0 
SMALL
USER_CHARGES


@<TRIPOS>ATOM
  1 CL       1.1830    -0.8840     2.2520 Cl    1 <1>  -0.1770 
  2 C        0.8210    -2.0680     1.0170 C.ar  1 <1>   0.1770 
  3 C        1.4830    -2.0320    -0.2020 C.ar  1 <1>  -0.1440 
  4 C       -0.1290    -3.0330     1.2950 C.ar  1 <1>  -0.1500 
  5 C        1.1810    -3.0010    -1.1480 C.ar  1 <1>  -0.1500 
  6 C        2.5210    -0.9680    -0.5090 C.3   1 <1>   0.2840 
  7 C       -0.4260    -3.9910     0.3410 C.ar  1 <1>  -0.1500 
  8 C        0.2310    -3.9730    -0.8780 C.ar  1 <1>  -0.1500 
  9 N        3.7930    -1.3570     0.1270 N.am  1 <1>  -0.7300 
 10 C        4.9540    -1.5810    -0.5340 C.2   1 <1>   0.5690 
 11 O        5.0490    -1.4070    -1.7250 O.2   1 <1>  -0.5700 
 12 C        6.1540    -2.0720     0.2650 C.3   1 <1>  -0.0190 
 13 C        7.4690    -1.8030    -0.4830 C.3   1 <1>   0.1960 
 14 C        6.0300    -3.5690     0.5990 C.3   1 <1>  -0.1600 
 15 N        8.6220    -2.2310     0.3290 N.am  1 <1>  -0.8490 
 16 C        7.2910    -4.0490     1.3300 C.3   1 <1>  -0.1600 
 17 S       10.1010    -1.7860    -0.3680 S.o2  1 <1>   1.3330 
 18 C        8.5680    -3.6780     0.5670 C.3   1 <1>   0.1960 
 19 O        9.9770    -1.9250    -1.8000 O.2   1 <1>  -0.6500 
 20 O       11.1570    -2.4780     0.3350 O.2   1 <1>  -0.6500 
 21 C       10.2310    -0.0590     0.0440 C.3   1 <1>  -0.1350 
 22 H       -0.6280    -3.0340     2.2470 H     1 <1>   0.1500 
 23 H        1.6870    -3.0040    -2.1000 H     1 <1>   0.1500 
 24 H        2.2050    -0.0120    -0.1280 H     1 <1>   0.0800 
 25 H        2.6500    -0.8720    -1.5740 H     1 <1>   0.0800 
 26 H       -1.1640    -4.7470     0.5450 H     1 <1>   0.1500 
 27 H        0.0030    -4.7200    -1.6210 H     1 <1>   0.1500 
 28 H        3.7200    -1.5530     1.1260 H     1 <1>   0.3700 
 29 H        6.1840    -1.5100     1.1800 H     1 <1>   0.0800 
 30 H        7.5390    -0.7500    -0.6950 H     1 <1>   0.0800 
 31 H        7.4670    -2.3290    -1.4250 H     1 <1>   0.0800 
 32 H        5.9140    -4.1270    -0.3160 H     1 <1>   0.0800 
 33 H        5.1620    -3.7460     1.2100 H     1 <1>   0.0800 
 34 H        7.2510    -5.1170     1.4560 H     1 <1>   0.0800 
 35 H        7.3360    -3.6070     2.3100 H     1 <1>   0.0800 
 36 H        9.4170    -3.9850     1.1570 H     1 <1>   0.0800 
 37 H        8.6070    -4.2040    -0.3730 H     1 <1>   0.0800 
 38 H        9.4330     0.4970    -0.4060 H     1 <1>   0.0800 
 39 H       11.1640     0.3310    -0.3120 H     1 <1>   0.0800 
 40 H       10.1890     0.0680     1.1080 H     1 <1>   0.0800 
@<TRIPOS>BOND
  1   1   2  1   
  2   2   3  ar  
  3   2   4  ar  
  4   3   5  ar  
  5   3   6  1   
  6   4   7  ar  
  7   4  22  1   
  8   5   8  ar  
  9   5  23  1   
 10   6   9  1   
 11   6  24  1   
 12   6  25  1   
 13   7   8  ar  
 14   7  26  1   
 15   8  27  1   
 16   9  10  am  
 17   9  28  1   
 18  10  11  2   
 19  10  12  1   
 20  12  13  1   
 21  12  14  1   
 22  12  29  1   
 23  13  15  1   
 24  13  30  1   
 25  13  31  1   
 26  14  16  1   
 27  14  32  1   
 28  14  33  1   
 29  15  17  am  
 30  15  18  1   
 31  16  18  1   
 32  16  34  1   
 33  16  35  1   
 34  17  19  2   
 35  17  20  2   
 36  17  21  1   
 37  18  36  1   
 38  18  37  1   
 39  21  38  1   
 40  21  39  1   
 41  21  40  1   
@<TRIPOS>SUBSTRUCTURE
  1 ****  10 GROUP 4 **** **** 0

# MOE 2024.06 (io_trps.svl 2023.06)
