@<TRIPOS>MOLECULE
NONAME
45 46 1 0 0 
SMALL
USER_CHARGES


@<TRIPOS>ATOM
  1 O        0.4820    -5.8060     0.8050 O.3   1 <1>  -0.3620 
  2 C       -0.8300    -5.7920     0.4650 C.ar  1 <1>   0.0830 
  3 C        1.4460    -6.4150    -0.0320 C.3   1 <1>   0.1200 
  4 C       -1.6570    -4.9590     1.2020 C.ar  1 <1>  -0.1500 
  5 C       -1.3650    -6.5490    -0.5750 C.ar  1 <1>  -0.1500 
  6 C        2.8380    -5.9780     0.4340 C.3   1 <1>   0.2000 
  7 C       -3.0030    -4.8630     0.8980 C.ar  1 <1>  -0.1500 
  8 C       -2.7130    -6.4500    -0.8760 C.ar  1 <1>  -0.1500 
  9 O        3.0860    -6.5740     1.6590 O.3   1 <1>  -0.6800 
 10 C        2.9950    -4.4520     0.6240 C.3   1 <1>   0.3430 
 11 C       -3.5300    -5.6060    -0.1440 C.ar  1 <1>  -0.1500 
 12 N        2.7850    -3.6190    -0.6210 N.4   1 <1>  -0.9590 
 13 C        3.6610    -2.4080    -0.6750 C.3   1 <1>   0.4230 
 14 C        1.3460    -3.2190    -0.7700 C.3   1 <1>   0.2630 
 15 C        5.1130    -2.8260    -0.9440 C.3   1 <1>  -0.1600 
 16 C        3.5580    -1.5340     0.5890 C.3   1 <1>  -0.1600 
 17 C        6.0210    -1.5930    -1.0650 C.3   1 <1>  -0.1600 
 18 C        4.4620    -0.2990     0.4650 C.3   1 <1>  -0.1600 
 19 C        5.9150    -0.7010     0.1790 C.3   1 <1>  -0.1600 
 20 H        1.2750    -6.0970    -1.0440 H     1 <1>   0.0800 
 21 H        1.3370    -7.4850     0.0300 H     1 <1>   0.0800 
 22 H       -1.2490    -4.3880     2.0160 H     1 <1>   0.1500 
 23 H       -0.7630    -7.2230    -1.1530 H     1 <1>   0.1500 
 24 H        3.5910    -6.3410    -0.2430 H     1 <1>   0.0800 
 25 H       -3.6430    -4.2150     1.4720 H     1 <1>   0.1500 
 26 H       -3.1310    -7.0330    -1.6790 H     1 <1>   0.1500 
 27 H        2.2610    -6.6250     2.1900 H     1 <1>   0.4000 
 28 H        3.9910    -4.2860     0.9980 H     1 <1>   0.0800 
 29 H        2.3040    -4.1280     1.3850 H     1 <1>   0.0800 
 30 H       -4.5780    -5.5330    -0.3800 H     1 <1>   0.1500 
 31 H        3.0520    -4.1840    -1.4370 H     1 <1>   0.4500 
 32 H        3.3490    -1.8020    -1.5110 H     1 <1>   0.0800 
 33 H        1.0180    -2.6660     0.0960 H     1 <1>   0.0800 
 34 H        0.7140    -4.0840    -0.8750 H     1 <1>   0.0800 
 35 H        1.2160    -2.5990    -1.6420 H     1 <1>   0.0800 
 36 H        5.1710    -3.3850    -1.8610 H     1 <1>   0.0800 
 37 H        5.4870    -3.4390    -0.1430 H     1 <1>   0.0800 
 38 H        3.8680    -2.0830     1.4600 H     1 <1>   0.0800 
 39 H        2.5470    -1.2000     0.7340 H     1 <1>   0.0800 
 40 H        5.7450    -1.0210    -1.9360 H     1 <1>   0.0800 
 41 H        7.0440    -1.9060    -1.1930 H     1 <1>   0.0800 
 42 H        4.4240     0.2720     1.3790 H     1 <1>   0.0800 
 43 H        4.1060     0.3360    -0.3290 H     1 <1>   0.0800 
 44 H        6.5110     0.1860     0.0360 H     1 <1>   0.0800 
 45 H        6.3170    -1.2240     1.0310 H     1 <1>   0.0800 
@<TRIPOS>BOND
  1   1   2  1   
  2   1   3  1   
  3   2   4  ar  
  4   2   5  ar  
  5   3   6  1   
  6   3  20  1   
  7   3  21  1   
  8   4   7  ar  
  9   4  22  1   
 10   5   8  ar  
 11   5  23  1   
 12   6   9  1   
 13   6  10  1   
 14   6  24  1   
 15   7  11  ar  
 16   7  25  1   
 17   8  11  ar  
 18   8  26  1   
 19   9  27  1   
 20  10  12  1   
 21  10  28  1   
 22  10  29  1   
 23  11  30  1   
 24  12  13  1   
 25  12  14  1   
 26  12  31  1   
 27  13  15  1   
 28  13  16  1   
 29  13  32  1   
 30  14  33  1   
 31  14  34  1   
 32  14  35  1   
 33  15  17  1   
 34  15  36  1   
 35  15  37  1   
 36  16  18  1   
 37  16  38  1   
 38  16  39  1   
 39  17  19  1   
 40  17  40  1   
 41  17  41  1   
 42  18  19  1   
 43  18  42  1   
 44  18  43  1   
 45  19  44  1   
 46  19  45  1   
@<TRIPOS>SUBSTRUCTURE
  1 ****  14 GROUP 4 **** **** 0

# MOE 2024.06 (io_trps.svl 2023.06)
