@<TRIPOS>MOLECULE
NONAME
30 31 1 0 0 
SMALL
USER_CHARGES


@<TRIPOS>ATOM
  1 O       -0.7020     0.0460    -0.1340 O.2   1 <1>  -0.5700 
  2 C       -1.6520    -0.7120    -0.0870 C.2   1 <1>   0.7060 
  3 O       -2.8660    -0.1650    -0.1080 O.3   1 <1>  -0.2330 
  4 C       -1.5370    -2.1480    -0.0180 C.2   1 <1>  -0.1240 
  5 C       -3.9990    -0.8910    -0.0610 C.ar  1 <1>   0.0820 
  6 C       -2.6530    -2.9280    -0.0040 C.2   1 <1>  -0.1670 
  7 C       -0.1090    -2.7020     0.0270 C.3   1 <1>  -0.1020 
  8 C       -3.9460    -2.2920    -0.0020 C.ar  1 <1>   0.0280 
  9 C       -5.2050    -0.2110    -0.0700 C.ar  1 <1>  -0.1500 
 10 C       -2.6250    -4.4590    -0.0030 C.3   1 <1>  -0.1020 
 11 C       -5.1720    -2.9680     0.0630 C.ar  1 <1>  -0.1500 
 12 C       -6.4000    -0.9000    -0.0130 C.ar  1 <1>   0.0830 
 13 C       -6.3750    -2.2920     0.0560 C.ar  1 <1>  -0.1500 
 14 O       -7.5360    -0.1660    -0.0260 O.3   1 <1>  -0.3630 
 15 C       -8.8090    -0.7650     0.0270 C.3   1 <1>   0.1200 
 16 C       -9.8550     0.3450    -0.0080 C.3   1 <1>  -0.2400 
 17 H        0.5440    -2.0240     0.5490 H     1 <1>   0.0800 
 18 H        0.2660    -2.8270    -0.9730 H     1 <1>   0.0800 
 19 H       -0.0530    -3.6380     0.5480 H     1 <1>   0.0800 
 20 H       -5.2150     0.8620    -0.1200 H     1 <1>   0.1500 
 21 H       -3.2520    -4.8360    -0.7920 H     1 <1>   0.0800 
 22 H       -2.9870    -4.8310     0.9390 H     1 <1>   0.0800 
 23 H       -1.6470    -4.8630    -0.1730 H     1 <1>   0.0800 
 24 H       -5.1950    -4.0390     0.1230 H     1 <1>   0.1500 
 25 H       -7.2860    -2.8580     0.1060 H     1 <1>   0.1500 
 26 H       -8.8830    -1.3280     0.9420 H     1 <1>   0.0800 
 27 H       -8.9160    -1.4150    -0.8240 H     1 <1>   0.0800 
 28 H       -9.7280     0.9980     0.8370 H     1 <1>   0.0800 
 29 H      -10.8400    -0.0810     0.0320 H     1 <1>   0.0800 
 30 H       -9.7610     0.9120    -0.9170 H     1 <1>   0.0800 
@<TRIPOS>BOND
  1   1   2  2   
  2   2   3  1   
  3   2   4  1   
  4   3   5  1   
  5   4   6  2   
  6   4   7  1   
  7   5   8  ar  
  8   5   9  ar  
  9   6   8  1   
 10   6  10  1   
 11   7  17  1   
 12   7  18  1   
 13   7  19  1   
 14   8  11  ar  
 15   9  12  ar  
 16   9  20  1   
 17  10  21  1   
 18  10  22  1   
 19  10  23  1   
 20  11  13  ar  
 21  11  24  1   
 22  12  13  ar  
 23  12  14  1   
 24  13  25  1   
 25  14  15  1   
 26  15  16  1   
 27  15  26  1   
 28  15  27  1   
 29  16  28  1   
 30  16  29  1   
 31  16  30  1   
@<TRIPOS>SUBSTRUCTURE
  1 ****   5 GROUP 4 **** **** 0

# MOE 2024.06 (io_trps.svl 2023.06)
