@<TRIPOS>MOLECULE
NONAME
42 44 1 0 0 
SMALL
USER_CHARGES


@<TRIPOS>ATOM
  1 O       -1.9390     2.4610     2.3600 O.2   1 <1>  -0.5700 
  2 C       -1.5680     3.1870     1.4530 C.2   1 <1>   0.7150 
  3 N       -2.5250     3.8060     0.6730 N.am  1 <1>  -0.6600 
  4 C       -0.1540     3.3950     1.2150 C.2   1 <1>   0.0550 
  5 C       -2.2970     4.1890    -0.7540 C.3   1 <1>   0.1400 
  6 C       -3.9700     3.8180     1.0580 C.3   1 <1>   0.1400 
  7 O        0.7170     2.3940     1.3140 O.3   1 <1>  -0.2800 
  8 C        0.5320     4.5240     0.8750 C.2   1 <1>  -0.1500 
  9 C       -3.1860     3.3570    -1.6970 C.3   1 <1>   0.1100 
 10 C       -4.7980     2.9820     0.0730 C.3   1 <1>   0.1100 
 11 C        1.9210     2.8480     1.0500 C.2   1 <1>  -0.0100 
 12 C        1.8760     4.1660     0.7660 C.2   1 <1>  -0.1500 
 13 N       -4.6100     3.4530    -1.3230 N.3   1 <1>  -0.8100 
 14 C       -5.4740     2.6870    -2.2720 C.3   1 <1>   0.1710 
 15 C       -6.9720     2.9590    -2.0970 C.2   1 <1>   0.5690 
 16 O       -7.7790     2.1070    -2.3850 O.2   1 <1>  -0.5700 
 17 N       -7.3330     4.1540    -1.5770 N.am  1 <1>  -0.7300 
 18 C       -8.6170     4.4350    -0.9200 C.3   1 <1>   0.3200 
 19 C       -8.3680     4.4970     0.5760 C.2   1 <1>  -0.0400 
 20 O       -7.5380     5.4080     1.0540 O.3   1 <1>  -0.2800 
 21 C       -8.8550     3.7340     1.5780 C.2   1 <1>  -0.1500 
 22 C       -7.4810     5.2490     2.3610 C.2   1 <1>  -0.0100 
 23 C       -8.2730     4.2290     2.7520 C.2   1 <1>  -0.1500 
 24 H       -1.2700     4.0370    -1.0320 H     1 <1>   0.0800 
 25 H       -2.5280     5.2320    -0.8800 H     1 <1>   0.0800 
 26 H       -4.3310     4.8320     1.0490 H     1 <1>   0.0800 
 27 H       -4.1050     3.4330     2.0540 H     1 <1>   0.0800 
 28 H        0.1340     5.5110     0.7220 H     1 <1>   0.1500 
 29 H       -2.8670     2.3290    -1.6660 H     1 <1>   0.0800 
 30 H       -3.0560     3.7190    -2.7020 H     1 <1>   0.0800 
 31 H       -5.8340     3.0570     0.3550 H     1 <1>   0.0800 
 32 H       -4.5060     1.9490     0.1590 H     1 <1>   0.0800 
 33 H        2.7540     2.1670     1.0870 H     1 <1>   0.1500 
 34 H        2.6880     4.8250     0.5120 H     1 <1>   0.1500 
 35 H       -5.2990     1.6320    -2.1540 H     1 <1>   0.0800 
 36 H       -5.2180     2.9560    -3.2810 H     1 <1>   0.0800 
 37 H       -6.5550     4.7300    -1.2370 H     1 <1>   0.3700 
 38 H       -9.3290     3.6600    -1.1470 H     1 <1>   0.0800 
 39 H       -9.0010     5.3770    -1.2690 H     1 <1>   0.0800 
 40 H       -9.5430     2.9080     1.5220 H     1 <1>   0.1500 
 41 H       -6.8530     5.9060     2.9370 H     1 <1>   0.1500 
 42 H       -8.4450     3.8490     3.7430 H     1 <1>   0.1500 
@<TRIPOS>BOND
  1   1   2  2   
  2   2   3  am  
  3   2   4  1   
  4   3   5  1   
  5   3   6  1   
  6   4   7  1   
  7   4   8  2   
  8   5   9  1   
  9   5  24  1   
 10   5  25  1   
 11   6  10  1   
 12   6  26  1   
 13   6  27  1   
 14   7  11  1   
 15   8  12  1   
 16   8  28  1   
 17   9  13  1   
 18   9  29  1   
 19   9  30  1   
 20  10  13  1   
 21  10  31  1   
 22  10  32  1   
 23  11  12  2   
 24  11  33  1   
 25  12  34  1   
 26  13  14  1   
 27  14  15  1   
 28  14  35  1   
 29  14  36  1   
 30  15  16  2   
 31  15  17  am  
 32  17  18  1   
 33  17  37  1   
 34  18  19  1   
 35  18  38  1   
 36  18  39  1   
 37  19  20  1   
 38  19  21  2   
 39  20  22  1   
 40  21  23  1   
 41  21  40  1   
 42  22  23  2   
 43  22  41  1   
 44  23  42  1   
@<TRIPOS>SUBSTRUCTURE
  1 ****   6 GROUP 4 **** **** 0

# MOE 2024.06 (io_trps.svl 2023.06)
