@<TRIPOS>MOLECULE
NONAME
39 40 1 0 0 
SMALL
USER_CHARGES


@<TRIPOS>ATOM
  1 F      -16.5040     1.4250    -0.0370 F     1 <1>  -0.3400 
  2 C      -15.3930     1.1090     0.6170 C.3   1 <1>   1.1640 
  3 F      -15.7150     1.0720     1.9030 F     1 <1>  -0.3400 
  4 F      -15.1030    -0.1400     0.2690 F     1 <1>  -0.3400 
  5 C      -14.2430     2.0910     0.3430 C.ar  1 <1>  -0.1440 
  6 C      -12.9210     1.6580     0.3280 C.ar  1 <1>  -0.1500 
  7 C      -14.5000     3.4390     0.1120 C.ar  1 <1>  -0.1500 
  8 C      -11.8790     2.5380     0.0840 C.ar  1 <1>   0.0830 
  9 C      -13.4650     4.3260    -0.1320 C.ar  1 <1>  -0.1500 
 10 O      -10.6300     2.0140     0.0900 O.3   1 <1>  -0.3630 
 11 C      -12.1560     3.8820    -0.1470 C.ar  1 <1>  -0.1500 
 12 C       -9.4970     2.8100    -0.1520 C.3   1 <1>   0.1200 
 13 C       -8.2790     1.8880    -0.0710 C.3   1 <1>   0.3430 
 14 N       -7.0020     2.6250    -0.3100 N.4   1 <1>  -0.9060 
 15 C       -5.8220     1.7080    -0.2130 C.3   1 <1>   0.3430 
 16 C       -4.4850     2.4390    -0.4140 C.3   1 <1>   0.2000 
 17 O       -3.4690     1.5340    -0.1780 O.3   1 <1>  -0.5600 
 18 C       -4.2050     3.5730     0.5660 C.3   1 <1>  -0.1600 
 19 C       -2.2820     2.1950     0.1410 C.3   1 <1>   0.1200 
 20 C       -2.6870     3.5790     0.6430 C.3   1 <1>  -0.1600 
 21 H      -12.6840     0.6230     0.5070 H     1 <1>   0.1500 
 22 H      -15.5120     3.8100     0.1210 H     1 <1>   0.1500 
 23 H      -13.6850     5.3650    -0.3090 H     1 <1>   0.1500 
 24 H      -11.3800     4.5980    -0.3400 H     1 <1>   0.1500 
 25 H       -9.4590     3.5740     0.6050 H     1 <1>   0.0800 
 26 H       -9.5960     3.2390    -1.1340 H     1 <1>   0.0800 
 27 H       -8.3900     1.1070    -0.8060 H     1 <1>   0.0800 
 28 H       -8.2570     1.4340     0.9070 H     1 <1>   0.0800 
 29 H       -6.8920     3.3770     0.3830 H     1 <1>   0.4500 
 30 H       -7.0130     3.0610    -1.2420 H     1 <1>   0.4500 
 31 H       -5.9000     0.9310    -0.9560 H     1 <1>   0.0800 
 32 H       -5.8050     1.2450     0.7600 H     1 <1>   0.0800 
 33 H       -4.3760     2.7760    -1.4320 H     1 <1>   0.0800 
 34 H       -4.6120     3.3390     1.5350 H     1 <1>   0.0800 
 35 H       -4.5940     4.5180     0.2280 H     1 <1>   0.0800 
 36 H       -1.6770     2.2590    -0.7480 H     1 <1>   0.0800 
 37 H       -1.7660     1.6250     0.8950 H     1 <1>   0.0800 
 38 H       -2.3340     3.7490     1.6460 H     1 <1>   0.0800 
 39 H       -2.2670     4.3310    -0.0030 H     1 <1>   0.0800 
@<TRIPOS>BOND
  1   1   2  1   
  2   2   3  1   
  3   2   4  1   
  4   2   5  1   
  5   5   6  ar  
  6   5   7  ar  
  7   6   8  ar  
  8   6  21  1   
  9   7   9  ar  
 10   7  22  1   
 11   8  10  1   
 12   8  11  ar  
 13   9  11  ar  
 14   9  23  1   
 15  10  12  1   
 16  11  24  1   
 17  12  13  1   
 18  12  25  1   
 19  12  26  1   
 20  13  14  1   
 21  13  27  1   
 22  13  28  1   
 23  14  15  1   
 24  14  29  1   
 25  14  30  1   
 26  15  16  1   
 27  15  31  1   
 28  15  32  1   
 29  16  17  1   
 30  16  18  1   
 31  16  33  1   
 32  17  19  1   
 33  18  20  1   
 34  18  34  1   
 35  18  35  1   
 36  19  20  1   
 37  19  36  1   
 38  19  37  1   
 39  20  38  1   
 40  20  39  1   
@<TRIPOS>SUBSTRUCTURE
  1 ****  10 GROUP 4 **** **** 0

# MOE 2024.06 (io_trps.svl 2023.06)
