@<TRIPOS>MOLECULE
NONAME
39 40 1 0 0 
SMALL
USER_CHARGES


@<TRIPOS>ATOM
  1 CL      -0.2160     0.0820     0.6680 Cl    1 <1>  -0.1770 
  2 C        1.2830     0.9260     0.3720 C.ar  1 <1>   0.1770 
  3 C        2.4820     0.2870     0.6370 C.ar  1 <1>  -0.1500 
  4 C        1.2460     2.2170    -0.1230 C.ar  1 <1>  -0.1500 
  5 C        3.6740     0.9540     0.4030 C.ar  1 <1>  -0.1500 
  6 C        2.4370     2.8840    -0.3580 C.ar  1 <1>  -0.1500 
  7 C        3.6400     2.2500    -0.0940 C.ar  1 <1>   0.1020 
  8 S        5.1410     3.1900    -0.4270 S.3   1 <1>  -0.3320 
  9 C        6.5660     2.1050     0.0080 C.3   1 <1>   0.0700 
 10 C        7.8400     2.9060    -0.2730 C.3   1 <1>  -0.1600 
 11 C        9.1080     2.1010     0.0460 C.3   1 <1>  -0.1600 
 12 C       10.3550     2.9420    -0.2400 C.3   1 <1>   0.3430 
 13 N       11.5880     2.2060     0.1530 N.4   1 <1>  -0.9590 
 14 C       12.7700     3.1390     0.1950 C.3   1 <1>   0.3430 
 15 C       11.8840     1.0430    -0.7600 C.3   1 <1>   0.3430 
 16 C       14.0800     2.3850     0.4920 C.3   1 <1>   0.1200 
 17 C       13.2350     0.3830    -0.4210 C.3   1 <1>   0.1200 
 18 O       14.2540     1.3400    -0.4200 O.3   1 <1>  -0.5600 
 19 H        2.4750    -0.7170     1.0210 H     1 <1>   0.1500 
 20 H        0.3000     2.6890    -0.3200 H     1 <1>   0.1500 
 21 H        4.6010     0.4560     0.6100 H     1 <1>   0.1500 
 22 H        2.4370     3.8890    -0.7420 H     1 <1>   0.1500 
 23 H        6.4980     1.2250    -0.6080 H     1 <1>   0.0800 
 24 H        6.4700     1.8530     1.0500 H     1 <1>   0.0800 
 25 H        7.8160     3.8040     0.3230 H     1 <1>   0.0800 
 26 H        7.8410     3.1930    -1.3110 H     1 <1>   0.0800 
 27 H        9.1100     1.2110    -0.5580 H     1 <1>   0.0800 
 28 H        9.0900     1.8210     1.0860 H     1 <1>   0.0800 
 29 H       10.2880     3.8590     0.3230 H     1 <1>   0.0800 
 30 H       10.3930     3.1960    -1.2880 H     1 <1>   0.0800 
 31 H       11.4570     1.8350     1.1030 H     1 <1>   0.4500 
 32 H       12.6180     3.8960     0.9470 H     1 <1>   0.0800 
 33 H       12.8760     3.6350    -0.7570 H     1 <1>   0.0800 
 34 H       11.9220     1.3830    -1.7820 H     1 <1>   0.0800 
 35 H       11.1030     0.3040    -0.6850 H     1 <1>   0.0800 
 36 H       14.0820     1.9800     1.4900 H     1 <1>   0.0800 
 37 H       14.9220     3.0490     0.3910 H     1 <1>   0.0800 
 38 H       13.4830    -0.3560    -1.1630 H     1 <1>   0.0800 
 39 H       13.2060    -0.0960     0.5420 H     1 <1>   0.0800 
@<TRIPOS>BOND
  1   1   2  1   
  2   2   3  ar  
  3   2   4  ar  
  4   3   5  ar  
  5   3  19  1   
  6   4   6  ar  
  7   4  20  1   
  8   5   7  ar  
  9   5  21  1   
 10   6   7  ar  
 11   6  22  1   
 12   7   8  1   
 13   8   9  1   
 14   9  10  1   
 15   9  23  1   
 16   9  24  1   
 17  10  11  1   
 18  10  25  1   
 19  10  26  1   
 20  11  12  1   
 21  11  27  1   
 22  11  28  1   
 23  12  13  1   
 24  12  29  1   
 25  12  30  1   
 26  13  14  1   
 27  13  15  1   
 28  13  31  1   
 29  14  16  1   
 30  14  32  1   
 31  14  33  1   
 32  15  17  1   
 33  15  34  1   
 34  15  35  1   
 35  16  18  1   
 36  16  36  1   
 37  16  37  1   
 38  17  18  1   
 39  17  38  1   
 40  17  39  1   
@<TRIPOS>SUBSTRUCTURE
  1 ****   9 GROUP 4 **** **** 0

# MOE 2024.06 (io_trps.svl 2023.06)
