@<TRIPOS>MOLECULE
NONAME
51 54 1 0 0 
SMALL
USER_CHARGES


@<TRIPOS>ATOM
  1 F       -0.5980     0.0880    -0.5070 F     1 <1>  -0.3400 
  2 C       -1.7370     0.5680    -0.0170 C.3   1 <1>   1.0200 
  3 F       -2.2680    -0.4300     0.6780 F     1 <1>  -0.3400 
  4 F       -2.5220     0.7660    -1.0720 F     1 <1>  -0.3400 
  5 C       -1.4880     1.8430     0.8010 C.3   1 <1>   0.1760 
  6 N       -2.7770     2.4740     1.1610 N.pl3 1 <1>   0.3140 
  7 C       -0.5640     2.8530     0.0560 C.3   1 <1>  -0.1600 
  8 N       -3.8330     1.8340     1.7170 N.2   1 <1>  -0.7070 
  9 C       -3.0010     3.8040     1.0770 C.2   1 <1>  -0.0680 
 10 C       -0.6410     4.2780     0.6180 C.3   1 <1>   0.4330 
 11 C       -4.7010     2.7650     1.9400 C.2   1 <1>   0.1390 
 12 N       -2.0560     4.7020     0.5990 N.pl3 1 <1>  -0.8530 
 13 C       -4.2600     4.0340     1.5480 C.2   1 <1>  -0.0860 
 14 C        0.2010     5.2500    -0.2000 C.ar  1 <1>  -0.1430 
 15 C       -4.9960     5.2560     1.6050 C.2   1 <1>   0.7160 
 16 C       -0.1720     5.6140    -1.4870 C.ar  1 <1>  -0.1500 
 17 C        1.3650     5.7820     0.3380 C.ar  1 <1>  -0.1500 
 18 O       -4.4600     6.3030     1.9290 O.2   1 <1>  -0.5700 
 19 N       -6.3100     5.3100     1.1840 N.am  1 <1>  -0.6600 
 20 C        0.6070     6.4890    -2.2250 C.ar  1 <1>  -0.1500 
 21 C        2.1440     6.6580    -0.3980 C.ar  1 <1>  -0.1500 
 22 C       -7.0920     6.5620     1.4060 C.3   1 <1>   0.1400 
 23 C       -6.6870     4.6190    -0.0850 C.3   1 <1>   0.1400 
 24 C        1.7660     7.0110    -1.6810 C.ar  1 <1>  -0.1500 
 25 C       -6.8470     7.5330     0.2340 C.3   1 <1>   0.3430 
 26 C       -6.4520     5.5700    -1.2780 C.3   1 <1>   0.3430 
 27 N       -7.1540     6.8980    -1.1050 N.4   1 <1>  -0.9590 
 28 C       -6.7930     7.8300    -2.2160 C.3   1 <1>   0.2630 
 29 H       -1.0160     1.5560     1.7210 H     1 <1>   0.0800 
 30 H       -0.8360     2.8880    -0.9850 H     1 <1>   0.0800 
 31 H        0.4550     2.5130     0.1020 H     1 <1>   0.0800 
 32 H       -0.2990     4.2810     1.6400 H     1 <1>   0.0800 
 33 H       -5.6650     2.5780     2.3840 H     1 <1>   0.1500 
 34 H       -2.1640     5.6870     0.8900 H     1 <1>   0.4000 
 35 H       -1.0740     5.2160    -1.9190 H     1 <1>   0.1500 
 36 H        1.6770     5.5210     1.3350 H     1 <1>   0.1500 
 37 H        0.3110     6.7630    -3.2230 H     1 <1>   0.1500 
 38 H        3.0450     7.0660     0.0260 H     1 <1>   0.1500 
 39 H       -6.7890     7.0270     2.3300 H     1 <1>   0.0800 
 40 H       -8.1400     6.3290     1.4880 H     1 <1>   0.0800 
 41 H       -7.7210     4.3240    -0.0430 H     1 <1>   0.0800 
 42 H       -6.1010     3.7270    -0.2250 H     1 <1>   0.0800 
 43 H        2.3720     7.6920    -2.2540 H     1 <1>   0.1500 
 44 H       -5.8120     7.8350     0.2650 H     1 <1>   0.0800 
 45 H       -7.4520     8.4140     0.3720 H     1 <1>   0.0800 
 46 H       -6.7890     5.0920    -2.1830 H     1 <1>   0.0800 
 47 H       -5.3900     5.7350    -1.3700 H     1 <1>   0.0800 
 48 H       -8.1680     6.7230    -1.1390 H     1 <1>   0.4500 
 49 H       -5.7360     8.0410    -2.1990 H     1 <1>   0.0800 
 50 H       -7.3300     8.7600    -2.1150 H     1 <1>   0.0800 
 51 H       -7.0420     7.3930    -3.1690 H     1 <1>   0.0800 
@<TRIPOS>BOND
  1   1   2  1   
  2   2   3  1   
  3   2   4  1   
  4   2   5  1   
  5   5   6  1   
  6   5   7  1   
  7   5  29  1   
  8   6   8  1   
  9   6   9  1   
 10   7  10  1   
 11   7  30  1   
 12   7  31  1   
 13   8  11  2   
 14   9  12  1   
 15   9  13  2   
 16  10  12  1   
 17  10  14  1   
 18  10  32  1   
 19  11  13  1   
 20  11  33  1   
 21  12  34  1   
 22  13  15  1   
 23  14  16  ar  
 24  14  17  ar  
 25  15  18  2   
 26  15  19  am  
 27  16  20  ar  
 28  16  35  1   
 29  17  21  ar  
 30  17  36  1   
 31  19  22  1   
 32  19  23  1   
 33  20  24  ar  
 34  20  37  1   
 35  21  24  ar  
 36  21  38  1   
 37  22  25  1   
 38  22  39  1   
 39  22  40  1   
 40  23  26  1   
 41  23  41  1   
 42  23  42  1   
 43  24  43  1   
 44  25  27  1   
 45  25  44  1   
 46  25  45  1   
 47  26  27  1   
 48  26  46  1   
 49  26  47  1   
 50  27  28  1   
 51  27  48  1   
 52  28  49  1   
 53  28  50  1   
 54  28  51  1   
@<TRIPOS>SUBSTRUCTURE
  1 ****  12 GROUP 4 **** **** 0

# MOE 2024.06 (io_trps.svl 2023.06)
