@<TRIPOS>MOLECULE
NONAME
48 49 1 0 0 
SMALL
USER_CHARGES


@<TRIPOS>ATOM
  1 O       -1.5830     0.8480     0.4420 O.3   1 <1>  -0.3630 
  2 C       -0.8960     1.9310    -0.0200 C.ar  1 <1>   0.0820 
  3 C       -0.9070    -0.2000     1.1140 C.3   1 <1>   0.0400 
  4 C       -1.5570     2.7780    -0.9070 C.ar  1 <1>  -0.1440 
  5 C        0.4110     2.2180     0.3650 C.ar  1 <1>  -0.1500 
  6 C       -0.9090     3.8970    -1.4080 C.ar  1 <1>  -0.1500 
  7 C       -2.9810     2.4820    -1.3270 C.3   1 <1>   0.4870 
  8 C        1.0540     3.3430    -0.1380 C.ar  1 <1>   0.0820 
  9 C        0.3890     4.1740    -1.0220 C.ar  1 <1>  -0.1500 
 10 N       -3.8400     2.4900    -0.1010 N.4   1 <1>  -0.9590 
 11 O        2.3220     3.6990     0.1840 O.3   1 <1>  -0.3620 
 12 C       -5.1670     1.8140    -0.2680 C.3   1 <1>   0.4230 
 13 C       -3.8960     3.8930     0.4390 C.3   1 <1>   0.2630 
 14 C        3.1250     2.9090     1.0330 C.3   1 <1>   0.0400 
 15 C       -5.9800     1.9000     1.0340 C.3   1 <1>  -0.1600 
 16 C       -4.9680     0.3380    -0.6520 C.3   1 <1>  -0.1600 
 17 C       -7.2900     1.1170     0.9480 C.3   1 <1>   0.3430 
 18 C       -6.2920    -0.4250    -0.7110 C.3   1 <1>   0.3430 
 19 N       -7.0140    -0.2990     0.5850 N.4   1 <1>  -0.9590 
 20 C       -8.2920    -1.0840     0.5460 C.3   1 <1>   0.2630 
 21 H       -0.5400     0.1640     2.0590 H     1 <1>   0.0800 
 22 H       -0.0930    -0.5460     0.4990 H     1 <1>   0.0800 
 23 H       -1.6000    -1.0040     1.2810 H     1 <1>   0.0800 
 24 H        0.9290     1.5800     1.0510 H     1 <1>   0.1500 
 25 H       -1.3940     4.5620    -2.1030 H     1 <1>   0.1500 
 26 H       -2.9900     1.5140    -1.7980 H     1 <1>   0.0800 
 27 H       -3.3250     3.2160    -2.0370 H     1 <1>   0.0800 
 28 H        0.9020     5.0400    -1.4060 H     1 <1>   0.1500 
 29 H       -3.2640     1.9350     0.5600 H     1 <1>   0.4500 
 30 H       -5.7180     2.3090    -1.0520 H     1 <1>   0.0800 
 31 H       -4.4620     4.5310    -0.2210 H     1 <1>   0.0800 
 32 H       -2.9010     4.2990     0.5340 H     1 <1>   0.0800 
 33 H       -4.3510     3.9090     1.4150 H     1 <1>   0.0800 
 34 H        4.0860     3.3830     1.1190 H     1 <1>   0.0800 
 35 H        3.2400     1.9320     0.5980 H     1 <1>   0.0800 
 36 H        2.6610     2.8510     2.0010 H     1 <1>   0.0800 
 37 H       -6.2410     2.9220     1.2410 H     1 <1>   0.0800 
 38 H       -5.4040     1.5250     1.8620 H     1 <1>   0.0800 
 39 H       -4.3180    -0.1490     0.0530 H     1 <1>   0.0800 
 40 H       -4.5230     0.2600    -1.6260 H     1 <1>   0.0800 
 41 H       -7.9340     1.5640     0.2060 H     1 <1>   0.0800 
 42 H       -7.7990     1.1600     1.8990 H     1 <1>   0.0800 
 43 H       -6.0980    -1.4660    -0.9230 H     1 <1>   0.0800 
 44 H       -6.9050    -0.0320    -1.5080 H     1 <1>   0.0800 
 45 H       -6.4310    -0.7190     1.3270 H     1 <1>   0.4500 
 46 H       -8.9530    -0.6960    -0.2130 H     1 <1>   0.0800 
 47 H       -8.7950    -1.0310     1.4990 H     1 <1>   0.0800 
 48 H       -8.0910    -2.1210     0.3270 H     1 <1>   0.0800 
@<TRIPOS>BOND
  1   1   2  1   
  2   1   3  1   
  3   2   4  ar  
  4   2   5  ar  
  5   3  21  1   
  6   3  22  1   
  7   3  23  1   
  8   4   6  ar  
  9   4   7  1   
 10   5   8  ar  
 11   5  24  1   
 12   6   9  ar  
 13   6  25  1   
 14   7  10  1   
 15   7  26  1   
 16   7  27  1   
 17   8   9  ar  
 18   8  11  1   
 19   9  28  1   
 20  10  12  1   
 21  10  13  1   
 22  10  29  1   
 23  11  14  1   
 24  12  15  1   
 25  12  16  1   
 26  12  30  1   
 27  13  31  1   
 28  13  32  1   
 29  13  33  1   
 30  14  34  1   
 31  14  35  1   
 32  14  36  1   
 33  15  17  1   
 34  15  37  1   
 35  15  38  1   
 36  16  18  1   
 37  16  39  1   
 38  16  40  1   
 39  17  19  1   
 40  17  41  1   
 41  17  42  1   
 42  18  19  1   
 43  18  43  1   
 44  18  44  1   
 45  19  20  1   
 46  19  45  1   
 47  20  46  1   
 48  20  47  1   
 49  20  48  1   
@<TRIPOS>SUBSTRUCTURE
  1 ****  10 GROUP 4 **** **** 0

# MOE 2024.06 (io_trps.svl 2023.06)
