@<TRIPOS>MOLECULE
NONAME
44 45 1 0 0 
SMALL
USER_CHARGES


@<TRIPOS>ATOM
  1 S       -0.1590     0.9770    -0.9690 S.o2  1 <1>   1.4470 
  2 O        0.3260    -0.3460    -1.2900 O.2   1 <1>  -0.6500 
  3 O       -0.5210     1.8920    -2.0270 O.2   1 <1>  -0.6500 
  4 N       -1.5740     0.7860    -0.0990 N.am  1 <1>  -0.9140 
  5 C        0.9540     1.7800     0.2150 C.ar  1 <1>  -0.0090 
  6 C       -2.4960    -0.0960    -0.7620 C.3   1 <1>   0.4190 
  7 C        1.5790     2.9860    -0.0820 C.ar  1 <1>  -0.1500 
  8 C        1.2150     1.2040     1.4530 C.ar  1 <1>  -0.1500 
  9 C       -3.8430     0.6170    -0.8220 C.ar  1 <1>  -0.1440 
 10 C       -2.5790    -1.3920     0.0360 C.3   1 <1>  -0.2400 
 11 C        2.4300     3.5960     0.8230 C.ar  1 <1>  -0.1500 
 12 C        2.0650     1.8080     2.3630 C.ar  1 <1>  -0.1500 
 13 C       -4.4630     0.8570    -2.0440 C.ar  1 <1>   0.0830 
 14 C       -4.4720     1.0540     0.3380 C.ar  1 <1>  -0.1500 
 15 C        2.6770     3.0100     2.0530 C.ar  1 <1>  -0.1430 
 16 O       -3.8780     0.4510    -3.1920 O.3   1 <1>  -0.3630 
 17 C       -5.6890     1.5040    -2.1010 C.ar  1 <1>  -0.1500 
 18 C       -5.6930     1.7080     0.2910 C.ar  1 <1>   0.0830 
 19 C        3.6120     3.6740     3.0470 C.3   1 <1>  -0.0970 
 20 C       -3.3650     1.4660    -4.0250 C.3   1 <1>   0.0400 
 21 C       -6.3050     1.9320    -0.9390 C.ar  1 <1>  -0.1500 
 22 O       -6.2220     2.0950     1.4800 O.3   1 <1>  -0.3620 
 23 C       -7.4820     2.7250     1.5460 C.3   1 <1>   0.0400 
 24 H       -2.0220     1.6950    -0.1830 H     1 <1>   0.4200 
 25 H       -2.1620    -0.3310    -1.7610 H     1 <1>   0.0800 
 26 H        1.3980     3.4560    -1.0340 H     1 <1>   0.1500 
 27 H        0.7440     0.2680     1.7050 H     1 <1>   0.1500 
 28 H       -2.8620    -1.2000     1.0540 H     1 <1>   0.0800 
 29 H       -1.6290    -1.8940     0.0190 H     1 <1>   0.0800 
 30 H       -3.3120    -2.0390    -0.4100 H     1 <1>   0.0800 
 31 H        2.9010     4.5290     0.5650 H     1 <1>   0.1500 
 32 H        2.2480     1.3370     3.3130 H     1 <1>   0.1500 
 33 H       -4.0180     0.8910     1.2990 H     1 <1>   0.1500 
 34 H       -6.1600     1.6650    -3.0530 H     1 <1>   0.1500 
 35 H        4.6150     3.3150     2.8990 H     1 <1>   0.0800 
 36 H        3.3090     3.4520     4.0550 H     1 <1>   0.0800 
 37 H        3.6030     4.7420     2.9190 H     1 <1>   0.0800 
 38 H       -2.8240     1.0010    -4.8290 H     1 <1>   0.0800 
 39 H       -2.7010     2.0890    -3.4510 H     1 <1>   0.0800 
 40 H       -4.1800     2.0480    -4.4160 H     1 <1>   0.0800 
 41 H       -7.2530     2.4300    -1.0100 H     1 <1>   0.1500 
 42 H       -7.7030     2.9220     2.5800 H     1 <1>   0.0800 
 43 H       -8.2250     2.0660     1.1340 H     1 <1>   0.0800 
 44 H       -7.4400     3.6500     0.9990 H     1 <1>   0.0800 
@<TRIPOS>BOND
  1   1   2  2   
  2   1   3  2   
  3   1   4  am  
  4   1   5  1   
  5   4   6  1   
  6   4  24  1   
  7   5   7  ar  
  8   5   8  ar  
  9   6   9  1   
 10   6  10  1   
 11   6  25  1   
 12   7  11  ar  
 13   7  26  1   
 14   8  12  ar  
 15   8  27  1   
 16   9  13  ar  
 17   9  14  ar  
 18  10  28  1   
 19  10  29  1   
 20  10  30  1   
 21  11  15  ar  
 22  11  31  1   
 23  12  15  ar  
 24  12  32  1   
 25  13  16  1   
 26  13  17  ar  
 27  14  18  ar  
 28  14  33  1   
 29  15  19  1   
 30  16  20  1   
 31  17  21  ar  
 32  17  34  1   
 33  18  21  ar  
 34  18  22  1   
 35  19  35  1   
 36  19  36  1   
 37  19  37  1   
 38  20  38  1   
 39  20  39  1   
 40  20  40  1   
 41  21  41  1   
 42  22  23  1   
 43  23  42  1   
 44  23  43  1   
 45  23  44  1   
@<TRIPOS>SUBSTRUCTURE
  1 ****   4 GROUP 4 **** **** 0

# MOE 2024.06 (io_trps.svl 2023.06)
