@<TRIPOS>MOLECULE
NONAME
42 43 1 0 0 
SMALL
USER_CHARGES


@<TRIPOS>ATOM
  1 S       -1.0020    -0.1830    -1.0700 S.3   1 <1>  -0.0800 
  2 C       -1.5550     1.1910    -0.1250 C.2   1 <1>  -0.1400 
  3 C       -1.9510    -1.2920    -0.0980 C.2   1 <1>  -0.1100 
  4 C       -2.3920     0.7840     0.8490 C.2   1 <1>  -0.1500 
  5 C       -1.0240     2.5600    -0.5330 C.3   1 <1>   0.0810 
  6 C       -2.6190    -0.6290     0.8630 C.2   1 <1>  -0.1500 
  7 C       -1.9510     3.6980    -0.1410 C.2   1 <1>   0.5690 
  8 O       -1.4720     4.6790     0.3710 O.2   1 <1>  -0.5700 
  9 N       -3.2880     3.5450    -0.4030 N.am  1 <1>  -0.5470 
 10 C       -4.3930     4.3760    -0.1890 C.ar  1 <1>   0.1170 
 11 C       -4.2960     5.7210     0.1570 C.ar  1 <1>  -0.1500 
 12 C       -5.6660     3.8360    -0.3320 C.ar  1 <1>  -0.1500 
 13 C       -5.4280     6.4890     0.3510 C.ar  1 <1>  -0.1500 
 14 C       -6.7960     4.6070    -0.1380 C.ar  1 <1>  -0.1500 
 15 C       -6.7100     5.9590     0.2030 C.ar  1 <1>   0.0860 
 16 C       -7.8890     6.7830     0.3980 C.2   1 <1>   0.5440 
 17 O       -7.8580     7.7490     1.1360 O.2   1 <1>  -0.5700 
 18 N       -9.0550     6.4990    -0.2580 N.am  1 <1>  -0.7300 
 19 C      -10.3260     7.2450    -0.1140 C.3   1 <1>   0.1400 
 20 C      -11.5160     6.2750    -0.0470 C.3   1 <1>  -0.0800 
 21 C      -11.6530     5.4270    -1.3220 C.3   1 <1>  -0.2400 
 22 C      -12.8150     7.0570     0.1880 C.3   1 <1>  -0.2400 
 23 H       -1.9050    -2.3370    -0.3520 H     1 <1>   0.1500 
 24 H       -2.8670     1.4190     1.5790 H     1 <1>   0.1500 
 25 H       -0.8970     2.5930    -1.5990 H     1 <1>   0.0800 
 26 H       -0.0600     2.7120    -0.0820 H     1 <1>   0.0800 
 27 H       -3.2690    -1.0780     1.5940 H     1 <1>   0.1500 
 28 H       -3.5210     2.6180    -0.7610 H     1 <1>   0.3700 
 29 H       -3.3330     6.1810     0.2780 H     1 <1>   0.1500 
 30 H       -5.7740     2.7990    -0.5920 H     1 <1>   0.1500 
 31 H       -5.3250     7.5260     0.6230 H     1 <1>   0.1500 
 32 H       -7.7640     4.1500    -0.2430 H     1 <1>   0.1500 
 33 H       -9.0570     5.7830    -0.9830 H     1 <1>   0.3700 
 34 H      -10.4390     7.9120    -0.9520 H     1 <1>   0.0800 
 35 H      -10.2950     7.8400     0.7840 H     1 <1>   0.0800 
 36 H      -11.3670     5.6200     0.7960 H     1 <1>   0.0800 
 37 H      -11.7560     6.0580    -2.1870 H     1 <1>   0.0800 
 38 H      -12.5220     4.7950    -1.2560 H     1 <1>   0.0800 
 39 H      -10.7960     4.7920    -1.4550 H     1 <1>   0.0800 
 40 H      -13.0080     7.7290    -0.6300 H     1 <1>   0.0800 
 41 H      -12.7450     7.6320     1.0950 H     1 <1>   0.0800 
 42 H      -13.6470     6.3820     0.2820 H     1 <1>   0.0800 
@<TRIPOS>BOND
  1   1   2  1   
  2   1   3  1   
  3   2   4  2   
  4   2   5  1   
  5   3   6  2   
  6   3  23  1   
  7   4   6  1   
  8   4  24  1   
  9   5   7  1   
 10   5  25  1   
 11   5  26  1   
 12   6  27  1   
 13   7   8  2   
 14   7   9  am  
 15   9  10  1   
 16   9  28  1   
 17  10  11  ar  
 18  10  12  ar  
 19  11  13  ar  
 20  11  29  1   
 21  12  14  ar  
 22  12  30  1   
 23  13  15  ar  
 24  13  31  1   
 25  14  15  ar  
 26  14  32  1   
 27  15  16  1   
 28  16  17  2   
 29  16  18  am  
 30  18  19  1   
 31  18  33  1   
 32  19  20  1   
 33  19  34  1   
 34  19  35  1   
 35  20  21  1   
 36  20  22  1   
 37  20  36  1   
 38  21  37  1   
 39  21  38  1   
 40  21  39  1   
 41  22  40  1   
 42  22  41  1   
 43  22  42  1   
@<TRIPOS>SUBSTRUCTURE
  1 ****  12 GROUP 4 **** **** 0

# MOE 2024.06 (io_trps.svl 2023.06)
