@<TRIPOS>MOLECULE
NONAME
47 49 1 0 0 
SMALL
USER_CHARGES


@<TRIPOS>ATOM
  1 O       -0.5730    -0.3900     0.2580 O.2   1 <1>  -0.5700 
  2 C       -1.0920    -1.4840     0.1370 C.2   1 <1>   0.5440 
  3 N       -0.2790    -2.5870    -0.0070 N.am  1 <1>  -0.6600 
  4 C       -2.5370    -1.5960     0.1580 C.ar  1 <1>   0.0860 
  5 C       -0.7430    -3.9900     0.2140 C.3   1 <1>   0.1400 
  6 C        1.2000    -2.4330    -0.1550 C.3   1 <1>   0.1400 
  7 C       -3.2820    -1.0270     1.1900 C.ar  1 <1>  -0.1500 
  8 C       -3.2370    -2.2660    -0.8470 C.ar  1 <1>  -0.1500 
  9 C        0.3950    -4.8720     0.7670 C.3   1 <1>   0.2000 
 10 C        1.8410    -3.6990    -0.7660 C.3   1 <1>   0.2000 
 11 C       -4.6590    -1.1360     1.2270 C.ar  1 <1>  -0.1500 
 12 C       -4.6150    -2.3800    -0.8180 C.ar  1 <1>  -0.1500 
 13 O        1.5070    -4.8810    -0.0840 O.3   1 <1>  -0.5600 
 14 C       -0.0380    -6.3260     0.9440 C.3   1 <1>  -0.2400 
 15 C        3.3650    -3.6170    -0.7850 C.3   1 <1>  -0.2400 
 16 C       -5.3380    -1.8130     0.2280 C.ar  1 <1>   0.0830 
 17 O       -6.6830    -1.8710     0.3360 O.3   1 <1>  -0.3630 
 18 C       -7.4890    -2.4540    -0.6650 C.3   1 <1>   0.2630 
 19 C       -8.9530    -2.2800    -0.2910 C.ar  1 <1>  -0.1430 
 20 C       -9.7800    -3.3820    -0.1340 C.ar  1 <1>  -0.1500 
 21 C       -9.4770    -1.0080    -0.1120 C.ar  1 <1>  -0.1500 
 22 C      -11.1140    -3.2150     0.1940 C.ar  1 <1>  -0.1500 
 23 C      -10.8110    -0.8390     0.2170 C.ar  1 <1>  -0.1500 
 24 C      -11.6310    -1.9430     0.3690 C.ar  1 <1>  -0.1500 
 25 H       -1.0890    -4.4030    -0.7170 H     1 <1>   0.0800 
 26 H       -1.5620    -3.9950     0.9130 H     1 <1>   0.0800 
 27 H        1.6340    -2.2360     0.8090 H     1 <1>   0.0800 
 28 H        1.4100    -1.5880    -0.7880 H     1 <1>   0.0800 
 29 H       -2.7640    -0.4900     1.9670 H     1 <1>   0.1500 
 30 H       -2.6840    -2.6970    -1.6630 H     1 <1>   0.1500 
 31 H        0.7160    -4.4800     1.7170 H     1 <1>   0.0800 
 32 H        1.4820    -3.8070    -1.7750 H     1 <1>   0.0800 
 33 H       -5.2200    -0.6930     2.0320 H     1 <1>   0.1500 
 34 H       -5.1060    -2.9080    -1.6140 H     1 <1>   0.1500 
 35 H       -0.3300    -6.7460    -0.0020 H     1 <1>   0.0800 
 36 H       -0.8680    -6.3860     1.6230 H     1 <1>   0.0800 
 37 H        0.7770    -6.8990     1.3490 H     1 <1>   0.0800 
 38 H        3.7460    -3.5390     0.2170 H     1 <1>   0.0800 
 39 H        3.6820    -2.7550    -1.3440 H     1 <1>   0.0800 
 40 H        3.7710    -4.4960    -1.2530 H     1 <1>   0.0800 
 41 H       -7.2330    -3.4960    -0.7380 H     1 <1>   0.0800 
 42 H       -7.2860    -1.9570    -1.5970 H     1 <1>   0.0800 
 43 H       -9.3920    -4.3770    -0.2650 H     1 <1>   0.1500 
 44 H       -8.8420    -0.1460    -0.2230 H     1 <1>   0.1500 
 45 H      -11.7500    -4.0740     0.3150 H     1 <1>   0.1500 
 46 H      -11.2090     0.1510     0.3550 H     1 <1>   0.1500 
 47 H      -12.6680    -1.8120     0.6250 H     1 <1>   0.1500 
@<TRIPOS>BOND
  1   1   2  2   
  2   2   3  am  
  3   2   4  1   
  4   3   5  1   
  5   3   6  1   
  6   4   7  ar  
  7   4   8  ar  
  8   5   9  1   
  9   5  25  1   
 10   5  26  1   
 11   6  10  1   
 12   6  27  1   
 13   6  28  1   
 14   7  11  ar  
 15   7  29  1   
 16   8  12  ar  
 17   8  30  1   
 18   9  13  1   
 19   9  14  1   
 20   9  31  1   
 21  10  13  1   
 22  10  15  1   
 23  10  32  1   
 24  11  16  ar  
 25  11  33  1   
 26  12  16  ar  
 27  12  34  1   
 28  14  35  1   
 29  14  36  1   
 30  14  37  1   
 31  15  38  1   
 32  15  39  1   
 33  15  40  1   
 34  16  17  1   
 35  17  18  1   
 36  18  19  1   
 37  18  41  1   
 38  18  42  1   
 39  19  20  ar  
 40  19  21  ar  
 41  20  22  ar  
 42  20  43  1   
 43  21  23  ar  
 44  21  44  1   
 45  22  24  ar  
 46  22  45  1   
 47  23  24  ar  
 48  23  46  1   
 49  24  47  1   
@<TRIPOS>SUBSTRUCTURE
  1 ****  12 GROUP 4 **** **** 0

# MOE 2024.06 (io_trps.svl 2023.06)
