@<TRIPOS>MOLECULE
NONAME
43 44 1 0 0 
SMALL
USER_CHARGES


@<TRIPOS>ATOM
  1 S       -0.0360     0.1370     0.5800 S.3   1 <1>  -0.3320 
  2 C       -1.5500    -0.7920     0.2740 C.ar  1 <1>   0.1020 
  3 C        1.3670    -0.9490     0.0810 C.3   1 <1>   0.0700 
  4 C       -2.7430    -0.1650     0.5820 C.ar  1 <1>  -0.1500 
  5 C       -1.5390    -2.0770    -0.2460 C.ar  1 <1>  -0.1500 
  6 C        2.6550    -0.1630     0.3360 C.3   1 <1>  -0.1600 
  7 C       -3.9390    -0.8270     0.3690 C.ar  1 <1>  -0.1500 
  8 C       -2.7410    -2.7330    -0.4560 C.ar  1 <1>  -0.1500 
  9 C        3.9050    -0.9710    -0.0370 C.3   1 <1>  -0.1600 
 10 C       -3.9430    -2.1120    -0.1520 C.ar  1 <1>  -0.1430 
 11 C        5.1680    -0.1460     0.2260 C.3   1 <1>   0.3430 
 12 C       -5.2570    -2.8370    -0.3840 C.3   1 <1>  -0.0970 
 13 N        6.3810    -0.8820    -0.2200 N.4   1 <1>  -0.9590 
 14 C        6.7010    -2.0590     0.6690 C.3   1 <1>   0.3430 
 15 C        7.5650     0.0480    -0.2910 C.3   1 <1>   0.3430 
 16 C        7.9990    -2.7730     0.2330 C.3   1 <1>   0.1100 
 17 C        8.8520    -0.6900    -0.7180 C.3   1 <1>   0.1100 
 18 N        9.1280    -1.8330     0.1650 N.3   1 <1>  -0.9000 
 19 H        1.2360    -1.1820    -0.9610 H     1 <1>   0.0800 
 20 H        1.3110    -1.8400     0.6830 H     1 <1>   0.0800 
 21 H       -2.7320     0.8320     0.9850 H     1 <1>   0.1500 
 22 H       -0.6240    -2.5760    -0.4890 H     1 <1>   0.1500 
 23 H        2.6910     0.1050     1.3790 H     1 <1>   0.0800 
 24 H        2.6200     0.7460    -0.2420 H     1 <1>   0.0800 
 25 H       -4.8660    -0.3370     0.6110 H     1 <1>   0.1500 
 26 H       -2.7380    -3.7310    -0.8580 H     1 <1>   0.1500 
 27 H        3.8530    -1.2320    -1.0800 H     1 <1>   0.0800 
 28 H        3.9190    -1.8720     0.5510 H     1 <1>   0.0800 
 29 H        5.2420     0.0870     1.2760 H     1 <1>   0.0800 
 30 H        5.0910     0.7820    -0.3170 H     1 <1>   0.0800 
 31 H       -6.0410    -2.1340    -0.6010 H     1 <1>   0.0800 
 32 H       -5.5230    -3.3950     0.4950 H     1 <1>   0.0800 
 33 H       -5.1710    -3.5150    -1.2140 H     1 <1>   0.0800 
 34 H        6.2210    -1.2430    -1.1690 H     1 <1>   0.4500 
 35 H        5.8900    -2.7670     0.6530 H     1 <1>   0.0800 
 36 H        6.8280    -1.7210     1.6840 H     1 <1>   0.0800 
 37 H        7.7360     0.4890     0.6770 H     1 <1>   0.0800 
 38 H        7.3660     0.8450    -0.9890 H     1 <1>   0.0800 
 39 H        7.8540    -3.2420    -0.7250 H     1 <1>   0.0800 
 40 H        8.2320    -3.5460     0.9460 H     1 <1>   0.0800 
 41 H        9.6820    -0.0040    -0.6710 H     1 <1>   0.0800 
 42 H        8.7600    -1.0260    -1.7370 H     1 <1>   0.0800 
 43 H        9.9780    -2.3260    -0.1540 H     1 <1>   0.3600 
@<TRIPOS>BOND
  1   1   2  1   
  2   1   3  1   
  3   2   4  ar  
  4   2   5  ar  
  5   3   6  1   
  6   3  19  1   
  7   3  20  1   
  8   4   7  ar  
  9   4  21  1   
 10   5   8  ar  
 11   5  22  1   
 12   6   9  1   
 13   6  23  1   
 14   6  24  1   
 15   7  10  ar  
 16   7  25  1   
 17   8  10  ar  
 18   8  26  1   
 19   9  11  1   
 20   9  27  1   
 21   9  28  1   
 22  10  12  1   
 23  11  13  1   
 24  11  29  1   
 25  11  30  1   
 26  12  31  1   
 27  12  32  1   
 28  12  33  1   
 29  13  14  1   
 30  13  15  1   
 31  13  34  1   
 32  14  16  1   
 33  14  35  1   
 34  14  36  1   
 35  15  17  1   
 36  15  37  1   
 37  15  38  1   
 38  16  18  1   
 39  16  39  1   
 40  16  40  1   
 41  17  18  1   
 42  17  41  1   
 43  17  42  1   
 44  18  43  1   
@<TRIPOS>SUBSTRUCTURE
  1 ****   3 GROUP 4 **** **** 0

# MOE 2024.06 (io_trps.svl 2023.06)
