@<TRIPOS>MOLECULE
NONAME
20 21 1 0 0 
SMALL
USER_CHARGES


@<TRIPOS>ATOM
  1 N        0.6360     0.3750    -0.6060 N.2   1 <1>  -0.4180 
  2 N       -0.6380     0.4250    -0.5770 N.2   1 <1>  -0.2270 
  3 N        1.0460     1.5390    -0.1380 N.pl3 1 <1>   0.5800 
  4 C       -0.9430     1.6260    -0.0890 C.2   1 <1>   0.5990 
  5 N        0.0660     2.3550     0.1990 N.2   1 <1>  -0.7070 
  6 C        2.4570     1.9060     0.0000 C.3   1 <1>   0.0160 
  7 N       -2.2180     2.1110     0.1170 N.pl3 1 <1>  -0.5660 
  8 C       -3.4520     1.5370    -0.1060 C.2   1 <1>   0.5990 
  9 N       -3.6650     0.3180    -0.5980 N.2   1 <1>  -0.2270 
 10 N       -4.5140     2.1930     0.1670 N.2   1 <1>  -0.7070 
 11 N       -4.9320     0.1780    -0.6440 N.2   1 <1>  -0.4180 
 12 N       -5.4300     1.3100    -0.1830 N.pl3 1 <1>   0.5800 
 13 C       -6.8650     1.5760    -0.0640 C.3   1 <1>   0.0160 
 14 H        3.0710     1.0900    -0.3340 H     1 <1>   0.0800 
 15 H        2.6620     2.1190     1.0320 H     1 <1>   0.0800 
 16 H        2.6500     2.7770    -0.5970 H     1 <1>   0.0800 
 17 H       -2.2540     3.0470     0.4960 H     1 <1>   0.4000 
 18 H       -7.1100     2.4320    -0.6640 H     1 <1>   0.0800 
 19 H       -7.0980     1.7730     0.9650 H     1 <1>   0.0800 
 20 H       -7.4150     0.7200    -0.4060 H     1 <1>   0.0800 
@<TRIPOS>BOND
  1   1   2  2   
  2   1   3  1   
  3   2   4  1   
  4   3   5  1   
  5   3   6  1   
  6   4   5  2   
  7   4   7  1   
  8   6  14  1   
  9   6  15  1   
 10   6  16  1   
 11   7   8  1   
 12   7  17  1   
 13   8   9  1   
 14   8  10  2   
 15   9  11  2   
 16  10  12  1   
 17  11  12  1   
 18  12  13  1   
 19  13  18  1   
 20  13  19  1   
 21  13  20  1   
@<TRIPOS>SUBSTRUCTURE
  1 ****   7 GROUP 4 **** **** 0

# MOE 2024.06 (io_trps.svl 2023.06)
