@<TRIPOS>MOLECULE
NONAME
46 48 1 0 0 
SMALL
USER_CHARGES


@<TRIPOS>ATOM
  1 O       -0.2970     0.4330     0.9780 O.2   1 <1>  -0.5700 
  2 C       -1.2520     1.0710     0.5640 C.2   1 <1>   0.7150 
  3 N       -1.2510     2.4500     0.6240 N.am  1 <1>  -0.3680 
  4 C       -2.4130     0.4200    -0.0060 C.2   1 <1>   0.0550 
  5 N       -0.3050     3.3120     1.1830 N.2   1 <1>  -0.5120 
  6 O       -2.4250    -0.8890    -0.2470 O.3   1 <1>  -0.2800 
  7 C       -3.6230     0.9300    -0.3860 C.2   1 <1>  -0.1500 
  8 C       -0.5120     4.5770     1.1810 C.2   1 <1>   0.4140 
  9 C       -3.5860    -1.2220    -0.7610 C.2   1 <1>  -0.0100 
 10 C       -4.3780    -0.1360    -0.8750 C.2   1 <1>  -0.1500 
 11 N        0.6080     5.3230     1.4780 N.pl3 1 <1>  -0.8190 
 12 C       -1.7130     5.3110     0.8060 C.ar  1 <1>   0.0860 
 13 C        0.9660     6.3400     0.4820 C.3   1 <1>   0.3690 
 14 C       -1.5970     6.5980     0.2710 C.ar  1 <1>  -0.1430 
 15 C       -3.0040     4.8030     0.9550 C.ar  1 <1>  -0.1500 
 16 C       -0.2330     7.2910     0.2620 C.3   1 <1>  -0.0170 
 17 C        1.3670     5.6370    -0.8200 C.3   1 <1>  -0.2400 
 18 C        2.1690     7.1010     1.0360 C.3   1 <1>  -0.2400 
 19 C       -2.7060     7.2790    -0.2020 C.ar  1 <1>  -0.1500 
 20 C       -4.1200     5.4650     0.4840 C.ar  1 <1>   0.0830 
 21 C       -3.9780     6.7160    -0.1330 C.ar  1 <1>   0.0830 
 22 O       -5.2980     4.8050     0.6640 O.3   1 <1>  -0.3620 
 23 O       -5.0710     7.3470    -0.6480 O.3   1 <1>  -0.3620 
 24 C       -6.4660     5.5180     1.0120 C.3   1 <1>   0.0400 
 25 C       -4.9780     8.5640    -1.3570 C.3   1 <1>   0.0400 
 26 H       -2.0450     2.8920     0.1600 H     1 <1>   0.3700 
 27 H       -3.9750     1.9460    -0.3330 H     1 <1>   0.1500 
 28 H       -3.7670    -2.2520    -1.0180 H     1 <1>   0.1500 
 29 H       -5.3820    -0.0740    -1.2560 H     1 <1>   0.1500 
 30 H        1.3780     4.6650     1.6190 H     1 <1>   0.4000 
 31 H       -3.1570     3.8720     1.4680 H     1 <1>   0.1500 
 32 H       -0.0970     7.8290    -0.6590 H     1 <1>   0.0800 
 33 H       -0.2410     8.0170     1.0550 H     1 <1>   0.0800 
 34 H        0.5290     5.1260    -1.2570 H     1 <1>   0.0800 
 35 H        2.1500     4.9220    -0.6370 H     1 <1>   0.0800 
 36 H        1.7260     6.3550    -1.5340 H     1 <1>   0.0800 
 37 H        1.9240     7.5480     1.9830 H     1 <1>   0.0800 
 38 H        2.4630     7.8810     0.3570 H     1 <1>   0.0800 
 39 H        3.0040     6.4380     1.1730 H     1 <1>   0.0800 
 40 H       -2.5630     8.2570    -0.6180 H     1 <1>   0.1500 
 41 H       -7.1450     4.8370     1.4910 H     1 <1>   0.0800 
 42 H       -6.9150     5.9070     0.1160 H     1 <1>   0.0800 
 43 H       -6.2060     6.3160     1.6850 H     1 <1>   0.0800 
 44 H       -5.9630     8.8270    -1.6980 H     1 <1>   0.0800 
 45 H       -4.3240     8.4290    -2.2000 H     1 <1>   0.0800 
 46 H       -4.6070     9.3270    -0.6960 H     1 <1>   0.0800 
@<TRIPOS>BOND
  1   1   2  2   
  2   2   3  am  
  3   2   4  1   
  4   3   5  1   
  5   3  26  1   
  6   4   6  1   
  7   4   7  2   
  8   5   8  2   
  9   6   9  1   
 10   7  10  1   
 11   7  27  1   
 12   8  11  1   
 13   8  12  1   
 14   9  10  2   
 15   9  28  1   
 16  10  29  1   
 17  11  13  1   
 18  11  30  1   
 19  12  14  ar  
 20  12  15  ar  
 21  13  16  1   
 22  13  17  1   
 23  13  18  1   
 24  14  16  1   
 25  14  19  ar  
 26  15  20  ar  
 27  15  31  1   
 28  16  32  1   
 29  16  33  1   
 30  17  34  1   
 31  17  35  1   
 32  17  36  1   
 33  18  37  1   
 34  18  38  1   
 35  18  39  1   
 36  19  21  ar  
 37  19  40  1   
 38  20  21  ar  
 39  20  22  1   
 40  21  23  1   
 41  22  24  1   
 42  23  25  1   
 43  24  41  1   
 44  24  42  1   
 45  24  43  1   
 46  25  44  1   
 47  25  45  1   
 48  25  46  1   
@<TRIPOS>SUBSTRUCTURE
  1 ****  15 GROUP 4 **** **** 0

# MOE 2024.06 (io_trps.svl 2023.06)
