@<TRIPOS>MOLECULE
NONAME
49 51 1 0 0 
SMALL
USER_CHARGES


@<TRIPOS>ATOM
  1 O       -1.0620     0.8750     1.9520 O.2   1 <1>  -0.5700 
  2 C       -0.9670     1.8820     1.2700 C.2   1 <1>   0.7150 
  3 N       -2.1360     2.5310     0.9180 N.am  1 <1>  -0.6600 
  4 C        0.3540     2.3290     0.8730 C.2   1 <1>   0.0550 
  5 C       -2.2320     3.9460     0.4590 C.3   1 <1>   0.1400 
  6 C       -3.4480     1.8230     0.8770 C.3   1 <1>   0.1400 
  7 O        0.5690     3.0760    -0.2110 O.3   1 <1>  -0.2800 
  8 C        1.5600     2.0720     1.4540 C.2   1 <1>  -0.1500 
  9 C       -2.8520     4.0030    -0.9460 C.3   1 <1>   0.1100 
 10 C       -4.0670     1.9390    -0.5280 C.3   1 <1>   0.1100 
 11 C        1.8580     3.3010    -0.3260 C.2   1 <1>  -0.0100 
 12 C        2.5320     2.7060     0.6800 C.2   1 <1>  -0.1500 
 13 N       -4.1820     3.3520    -0.9740 N.3   1 <1>  -0.8100 
 14 C       -4.7750     3.4260    -2.3440 C.3   1 <1>   0.1710 
 15 C       -6.2780     3.1400    -2.3800 C.2   1 <1>   0.5690 
 16 O       -6.7740     2.7370    -3.4040 O.2   1 <1>  -0.5700 
 17 N       -6.9600     3.3640    -1.2180 N.am  1 <1>  -0.5470 
 18 C       -8.3050     3.2200    -0.8450 C.ar  1 <1>   0.1170 
 19 C       -9.3240     2.9360    -1.7490 C.ar  1 <1>  -0.1500 
 20 C       -8.6380     3.3750     0.4960 C.ar  1 <1>  -0.1500 
 21 C      -10.6330     2.8060    -1.3220 C.ar  1 <1>  -0.1500 
 22 C       -9.9460     3.2470     0.9300 C.ar  1 <1>  -0.1500 
 23 C      -10.9560     2.9590     0.0160 C.ar  1 <1>   0.0820 
 24 O      -12.2650     2.8150     0.3510 O.3   1 <1>  -0.3620 
 25 C      -12.6940     2.9590     1.6840 C.3   1 <1>   0.1200 
 26 C      -14.2030     2.7420     1.7210 C.3   1 <1>  -0.2400 
 27 H       -1.2720     4.4260     0.4610 H     1 <1>   0.0800 
 28 H       -2.8630     4.4910     1.1400 H     1 <1>   0.0800 
 29 H       -4.1110     2.2610     1.6020 H     1 <1>   0.0800 
 30 H       -3.3260     0.7830     1.1230 H     1 <1>   0.0800 
 31 H        1.7410     1.4870     2.3390 H     1 <1>   0.1500 
 32 H       -2.1860     3.5210    -1.6430 H     1 <1>   0.0800 
 33 H       -2.9520     5.0350    -1.2370 H     1 <1>   0.0800 
 34 H       -5.0410     1.4800    -0.5110 H     1 <1>   0.0800 
 35 H       -3.4550     1.3850    -1.2190 H     1 <1>   0.0800 
 36 H        2.2170     3.8930    -1.1500 H     1 <1>   0.1500 
 37 H        3.5910     2.6990     0.8690 H     1 <1>   0.1500 
 38 H       -4.2730     2.7390    -3.0020 H     1 <1>   0.0800 
 39 H       -4.6380     4.4180    -2.7380 H     1 <1>   0.0800 
 40 H       -6.3140     3.6380    -0.4720 H     1 <1>   0.3700 
 41 H       -9.1040     2.8150    -2.7930 H     1 <1>   0.1500 
 42 H       -7.8670     3.5970     1.2100 H     1 <1>   0.1500 
 43 H      -11.4140     2.5850    -2.0260 H     1 <1>   0.1500 
 44 H      -10.1570     3.3730     1.9740 H     1 <1>   0.1500 
 45 H      -12.4430     3.9510     2.0180 H     1 <1>   0.0800 
 46 H      -12.1890     2.2220     2.2850 H     1 <1>   0.0800 
 47 H      -14.6950     3.4730     1.1040 H     1 <1>   0.0800 
 48 H      -14.5620     2.8450     2.7290 H     1 <1>   0.0800 
 49 H      -14.4430     1.7550     1.3690 H     1 <1>   0.0800 
@<TRIPOS>BOND
  1   1   2  2   
  2   2   3  am  
  3   2   4  1   
  4   3   5  1   
  5   3   6  1   
  6   4   7  1   
  7   4   8  2   
  8   5   9  1   
  9   5  27  1   
 10   5  28  1   
 11   6  10  1   
 12   6  29  1   
 13   6  30  1   
 14   7  11  1   
 15   8  12  1   
 16   8  31  1   
 17   9  13  1   
 18   9  32  1   
 19   9  33  1   
 20  10  13  1   
 21  10  34  1   
 22  10  35  1   
 23  11  12  2   
 24  11  36  1   
 25  12  37  1   
 26  13  14  1   
 27  14  15  1   
 28  14  38  1   
 29  14  39  1   
 30  15  16  2   
 31  15  17  am  
 32  17  18  1   
 33  17  40  1   
 34  18  19  ar  
 35  18  20  ar  
 36  19  21  ar  
 37  19  41  1   
 38  20  22  ar  
 39  20  42  1   
 40  21  23  ar  
 41  21  43  1   
 42  22  23  ar  
 43  22  44  1   
 44  23  24  1   
 45  24  25  1   
 46  25  26  1   
 47  25  45  1   
 48  25  46  1   
 49  26  47  1   
 50  26  48  1   
 51  26  49  1   
@<TRIPOS>SUBSTRUCTURE
  1 ****  13 GROUP 4 **** **** 0

# MOE 2024.06 (io_trps.svl 2023.06)
