@<TRIPOS>MOLECULE
NONAME
33 33 1 0 0 
SMALL
USER_CHARGES


@<TRIPOS>ATOM
  1 CL      -0.4080    -0.8540    -0.3360 Cl    1 <1>  -0.1770 
  2 C        1.2700    -1.3390    -0.3620 C.ar  1 <1>   0.1770 
  3 C        1.6210    -2.5910     0.1040 C.ar  1 <1>  -0.1500 
  4 C        2.2230    -0.4650    -0.8500 C.ar  1 <1>  -0.1500 
  5 C        2.9520    -2.9720     0.0820 C.ar  1 <1>  -0.1500 
  6 C        3.5510    -0.8550    -0.8690 C.ar  1 <1>  -0.1500 
  7 C        3.9340    -2.1110    -0.4010 C.ar  1 <1>   0.1170 
  8 N        5.2660    -2.5470    -0.4180 N.am  1 <1>  -0.5470 
  9 C        6.4320    -1.8420    -0.3680 C.2   1 <1>   0.6900 
 10 O        6.4400    -0.6460    -0.1570 O.2   1 <1>  -0.5700 
 11 N        7.5790    -2.5460    -0.5540 N.am  1 <1>  -0.7300 
 12 C        8.9770    -2.0860    -0.5130 C.3   1 <1>   0.3000 
 13 C        9.8350    -3.3470    -0.7600 C.3   1 <1>  -0.1600 
 14 C        9.2710    -1.4870     0.8670 C.3   1 <1>  -0.2400 
 15 C        9.1940    -1.0500    -1.6200 C.3   1 <1>  -0.2400 
 16 C       11.3620    -3.1460    -0.7670 C.3   1 <1>  -0.2400 
 17 H        0.8610    -3.2520     0.4790 H     1 <1>   0.1500 
 18 H        1.9290     0.5050    -1.2080 H     1 <1>   0.1500 
 19 H        3.2290    -3.9440     0.4480 H     1 <1>   0.1500 
 20 H        4.2930    -0.1770    -1.2520 H     1 <1>   0.1500 
 21 H        5.3950    -3.5480    -0.3270 H     1 <1>   0.3700 
 22 H        7.4920    -3.4880    -0.9160 H     1 <1>   0.3700 
 23 H        9.5590    -3.7710    -1.7100 H     1 <1>   0.0800 
 24 H        9.6060    -4.0720     0.0010 H     1 <1>   0.0800 
 25 H        9.1080    -2.2180     1.6380 H     1 <1>   0.0800 
 26 H        8.6430    -0.6360     1.0570 H     1 <1>   0.0800 
 27 H       10.2880    -1.1490     0.9240 H     1 <1>   0.0800 
 28 H        8.9860    -1.4770    -2.5840 H     1 <1>   0.0800 
 29 H       10.2070    -0.6950    -1.6130 H     1 <1>   0.0800 
 30 H        8.5570    -0.1960    -1.4740 H     1 <1>   0.0800 
 31 H       11.6620    -2.4640    -1.5430 H     1 <1>   0.0800 
 32 H       11.8480    -4.0890    -0.9510 H     1 <1>   0.0800 
 33 H       11.7110    -2.7750     0.1790 H     1 <1>   0.0800 
@<TRIPOS>BOND
  1   1   2  1   
  2   2   3  ar  
  3   2   4  ar  
  4   3   5  ar  
  5   3  17  1   
  6   4   6  ar  
  7   4  18  1   
  8   5   7  ar  
  9   5  19  1   
 10   6   7  ar  
 11   6  20  1   
 12   7   8  1   
 13   8   9  am  
 14   8  21  1   
 15   9  10  2   
 16   9  11  am  
 17  11  12  1   
 18  11  22  1   
 19  12  13  1   
 20  12  14  1   
 21  12  15  1   
 22  13  16  1   
 23  13  23  1   
 24  13  24  1   
 25  14  25  1   
 26  14  26  1   
 27  14  27  1   
 28  15  28  1   
 29  15  29  1   
 30  15  30  1   
 31  16  31  1   
 32  16  32  1   
 33  16  33  1   
@<TRIPOS>SUBSTRUCTURE
  1 ****   8 GROUP 4 **** **** 0

# MOE 2024.06 (io_trps.svl 2023.06)
