@<TRIPOS>MOLECULE
NONAME
39 40 1 0 0 
SMALL
USER_CHARGES


@<TRIPOS>ATOM
  1 BR       0.8620     0.2730     1.5170 Br    1 <1>  -0.0580 
  2 C        1.1920    -1.5750     1.1050 C.2   1 <1>   0.1980 
  3 O        2.3590    -1.8950     0.6040 O.3   1 <1>  -0.2800 
  4 C        0.3730    -2.6330     1.2580 C.2   1 <1>  -0.1500 
  5 C        2.3470    -3.2160     0.4050 C.2   1 <1>   0.0550 
  6 C        1.1340    -3.7100     0.7980 C.2   1 <1>  -0.1500 
  7 C        3.4970    -3.8950    -0.1440 C.2   1 <1>   0.7150 
  8 O        3.4920    -5.1000    -0.3190 O.2   1 <1>  -0.5700 
  9 N        4.6180    -3.2000    -0.4780 N.am  1 <1>  -0.7300 
 10 C        5.9130    -3.7940    -0.9190 C.3   1 <1>   0.2010 
 11 C        7.1310    -2.9340    -0.5530 C.2   1 <1>   0.5690 
 12 O        6.9310    -1.7700    -0.2800 O.2   1 <1>  -0.5700 
 13 N        8.3970    -3.4770    -0.5440 N.am  1 <1>  -0.6600 
 14 C        9.5590    -2.6550    -0.0790 C.3   1 <1>   0.2200 
 15 C        8.6840    -4.8790    -0.9800 C.3   1 <1>   0.0600 
 16 C       10.4230    -2.2200    -1.2700 C.3   1 <1>  -0.1600 
 17 C       10.3920    -3.3930     0.9820 C.3   1 <1>  -0.1600 
 18 C       11.6080    -1.3600    -0.8040 C.3   1 <1>  -0.1600 
 19 C       11.5700    -2.5260     1.4500 C.3   1 <1>  -0.1600 
 20 C       12.4390    -2.0870     0.2630 C.3   1 <1>  -0.1600 
 21 H       -0.6310    -2.6630     1.6420 H     1 <1>   0.1500 
 22 H        0.8140    -4.7380     0.7630 H     1 <1>   0.1500 
 23 H        4.6730    -2.2010    -0.2450 H     1 <1>   0.3700 
 24 H        5.8900    -3.9140    -1.9870 H     1 <1>   0.0800 
 25 H        6.0200    -4.7640    -0.4690 H     1 <1>   0.0800 
 26 H        9.1870    -1.7580     0.3890 H     1 <1>   0.0800 
 27 H        7.9740    -5.2060    -1.7190 H     1 <1>   0.0800 
 28 H        8.6370    -5.5380    -0.1300 H     1 <1>   0.0800 
 29 H        9.6640    -4.9470    -1.4160 H     1 <1>   0.0800 
 30 H        9.8190    -1.6500    -1.9530 H     1 <1>   0.0800 
 31 H       10.8050    -3.0810    -1.7870 H     1 <1>   0.0800 
 32 H       10.7870    -4.3080     0.5800 H     1 <1>   0.0800 
 33 H        9.7660    -3.6280     1.8240 H     1 <1>   0.0800 
 34 H       11.2350    -0.4360    -0.3950 H     1 <1>   0.0800 
 35 H       12.2320    -1.1180    -1.6460 H     1 <1>   0.0800 
 36 H       12.1700    -3.0790     2.1520 H     1 <1>   0.0800 
 37 H       11.1910    -1.6530     1.9560 H     1 <1>   0.0800 
 38 H       13.2220    -1.4360     0.6130 H     1 <1>   0.0800 
 39 H       12.9040    -2.9520    -0.1770 H     1 <1>   0.0800 
@<TRIPOS>BOND
  1   1   2  1   
  2   2   3  1   
  3   2   4  2   
  4   3   5  1   
  5   4   6  1   
  6   4  21  1   
  7   5   6  2   
  8   5   7  1   
  9   6  22  1   
 10   7   8  2   
 11   7   9  am  
 12   9  10  1   
 13   9  23  1   
 14  10  11  1   
 15  10  24  1   
 16  10  25  1   
 17  11  12  2   
 18  11  13  am  
 19  13  14  1   
 20  13  15  1   
 21  14  16  1   
 22  14  17  1   
 23  14  26  1   
 24  15  27  1   
 25  15  28  1   
 26  15  29  1   
 27  16  18  1   
 28  16  30  1   
 29  16  31  1   
 30  17  19  1   
 31  17  32  1   
 32  17  33  1   
 33  18  20  1   
 34  18  34  1   
 35  18  35  1   
 36  19  20  1   
 37  19  36  1   
 38  19  37  1   
 39  20  38  1   
 40  20  39  1   
@<TRIPOS>SUBSTRUCTURE
  1 ****  11 GROUP 4 **** **** 0

# MOE 2024.06 (io_trps.svl 2023.06)
