@<TRIPOS>MOLECULE
NONAME
36 37 1 0 0 
SMALL
USER_CHARGES


@<TRIPOS>ATOM
  1 CL       2.5010    -2.5370    -2.1550 Cl    1 <1>  -0.1770 
  2 C        1.1950    -2.6790    -1.0030 C.ar  1 <1>   0.1770 
  3 C        1.4090    -2.3350     0.3340 C.ar  1 <1>   0.0860 
  4 C       -0.0220    -3.1500    -1.4570 C.ar  1 <1>  -0.1500 
  5 C        2.6820    -1.8270     0.7880 C.2   1 <1>   0.5440 
  6 C        0.3410    -2.4830     1.2230 C.ar  1 <1>  -0.1500 
  7 C       -1.0470    -3.2810    -0.5420 C.ar  1 <1>   0.1900 
  8 O        2.8470    -0.6270     0.8590 O.2   1 <1>  -0.5700 
  9 N        3.7320    -2.6510     1.1430 N.am  1 <1>  -0.6600 
 10 C       -0.8870    -2.9560     0.7930 C.ar  1 <1>  -0.1500 
 11 F       -2.2010    -3.7280    -0.9490 F     1 <1>  -0.1900 
 12 C        3.9170    -4.0340     0.6140 C.3   1 <1>   0.1400 
 13 C        4.9780    -2.0790     1.7380 C.3   1 <1>   0.1400 
 14 C        5.0600    -4.0520    -0.4270 C.3   1 <1>   0.3430 
 15 C        6.0900    -2.0550     0.6770 C.3   1 <1>   0.3430 
 16 N        6.3310    -3.4250     0.0880 N.4   1 <1>  -0.9590 
 17 C        7.3680    -3.3900    -0.9660 C.3   1 <1>   0.4810 
 18 C        8.6980    -3.2130    -0.2710 C.2   1 <1>  -0.2880 
 19 C        9.6020    -4.1800    -0.0810 C.2   1 <1>  -0.3000 
 20 H       -0.1730    -3.4070    -2.4900 H     1 <1>   0.1500 
 21 H        0.4790    -2.2140     2.2570 H     1 <1>   0.1500 
 22 H       -1.7130    -3.0700     1.4750 H     1 <1>   0.1500 
 23 H        3.0130    -4.3950     0.1590 H     1 <1>   0.0800 
 24 H        4.1550    -4.6970     1.4290 H     1 <1>   0.0800 
 25 H        5.2820    -2.6750     2.5810 H     1 <1>   0.0800 
 26 H        4.8070    -1.0790     2.1000 H     1 <1>   0.0800 
 27 H        4.7260    -3.5140    -1.2990 H     1 <1>   0.0800 
 28 H        5.2480    -5.0710    -0.7240 H     1 <1>   0.0800 
 29 H        6.9950    -1.6820     1.1280 H     1 <1>   0.0800 
 30 H        5.7970    -1.3680    -0.0990 H     1 <1>   0.0800 
 31 H        6.7150    -4.0210     0.8330 H     1 <1>   0.4500 
 32 H        7.1880    -2.5910    -1.6680 H     1 <1>   0.0800 
 33 H        7.3760    -4.3260    -1.5010 H     1 <1>   0.0800 
 34 H        8.8690    -2.2040     0.0640 H     1 <1>   0.1500 
 35 H       10.5490    -4.0250     0.4130 H     1 <1>   0.1500 
 36 H        9.4940    -5.2050    -0.3990 H     1 <1>   0.1500 
@<TRIPOS>BOND
  1   1   2  1   
  2   2   3  ar  
  3   2   4  ar  
  4   3   5  1   
  5   3   6  ar  
  6   4   7  ar  
  7   4  20  1   
  8   5   8  2   
  9   5   9  am  
 10   6  10  ar  
 11   6  21  1   
 12   7  10  ar  
 13   7  11  1   
 14   9  12  1   
 15   9  13  1   
 16  10  22  1   
 17  12  14  1   
 18  12  23  1   
 19  12  24  1   
 20  13  15  1   
 21  13  25  1   
 22  13  26  1   
 23  14  16  1   
 24  14  27  1   
 25  14  28  1   
 26  15  16  1   
 27  15  29  1   
 28  15  30  1   
 29  16  17  1   
 30  16  31  1   
 31  17  18  1   
 32  17  32  1   
 33  17  33  1   
 34  18  19  2   
 35  18  34  1   
 36  19  35  1   
 37  19  36  1   
@<TRIPOS>SUBSTRUCTURE
  1 ****   9 GROUP 4 **** **** 0

# MOE 2024.06 (io_trps.svl 2023.06)
