@<TRIPOS>MOLECULE
NONAME
52 54 1 0 0 
SMALL
USER_CHARGES


@<TRIPOS>ATOM
  1 F       -5.0110    -2.5170     1.5200 F     1 <1>  -0.1900 
  2 C       -5.3590    -1.7890     0.4870 C.ar  1 <1>   0.1900 
  3 C       -4.4070    -1.2770    -0.4050 C.ar  1 <1>   0.0820 
  4 C       -6.7130    -1.5590     0.3280 C.ar  1 <1>  -0.1500 
  5 O       -3.0530    -1.4390    -0.3450 O.3   1 <1>  -0.3630 
  6 C       -4.8710    -0.5180    -1.4700 C.ar  1 <1>  -0.1500 
  7 C       -7.1480    -0.7980    -0.7430 C.ar  1 <1>  -0.1500 
  8 C       -2.4150    -2.1400     0.7020 C.3   1 <1>   0.1200 
  9 C       -6.2270    -0.2800    -1.6390 C.ar  1 <1>  -0.1500 
 10 C       -0.8990    -2.1030     0.4740 C.3   1 <1>   0.2000 
 11 O       -0.6220    -2.5310    -0.8270 O.3   1 <1>  -0.6800 
 12 C       -0.1370    -3.0000     1.4730 C.3   1 <1>   0.3430 
 13 N        1.1890    -3.4040     0.9140 N.4   1 <1>  -0.9590 
 14 C        1.7070    -4.6960     1.4920 C.3   1 <1>   0.3430 
 15 C        2.2220    -2.3080     0.9910 C.3   1 <1>   0.3430 
 16 C        3.0600    -5.1140     0.8810 C.3   1 <1>   0.2090 
 17 C        3.5730    -2.7290     0.3780 C.3   1 <1>   0.2090 
 18 N        4.0560    -4.0070     0.9790 N.pl3 1 <1>  -0.8380 
 19 C        5.3620    -4.3660     0.6130 C.ar  1 <1>   0.1000 
 20 C        5.7430    -4.7220    -0.6940 C.ar  1 <1>   0.0830 
 21 C        6.3250    -4.3640     1.6120 C.ar  1 <1>  -0.1500 
 22 O        4.7850    -4.7220    -1.6750 O.3   1 <1>  -0.3620 
 23 C        7.0680    -5.0630    -0.9550 C.ar  1 <1>  -0.1500 
 24 C        7.6390    -4.7030     1.3440 C.ar  1 <1>  -0.1500 
 25 C        5.1030    -5.0580    -3.0090 C.3   1 <1>   0.0400 
 26 C        8.0100    -5.0530     0.0600 C.ar  1 <1>  -0.1500 
 27 H       -7.4140    -1.9690     1.0330 H     1 <1>   0.1500 
 28 H       -4.1680    -0.1090    -2.1720 H     1 <1>   0.1500 
 29 H       -8.1990    -0.6100    -0.8810 H     1 <1>   0.1500 
 30 H       -2.7720    -3.1560     0.6970 H     1 <1>   0.0800 
 31 H       -2.6680    -1.6640     1.6340 H     1 <1>   0.0800 
 32 H       -6.5660     0.3120    -2.4720 H     1 <1>   0.1500 
 33 H       -0.5570    -1.0870     0.5650 H     1 <1>   0.0800 
 34 H       -1.2890    -2.1330    -1.4340 H     1 <1>   0.4000 
 35 H       -0.7300    -3.8830     1.6440 H     1 <1>   0.0800 
 36 H       -0.0180    -2.4950     2.4180 H     1 <1>   0.0800 
 37 H        0.9960    -3.5470    -0.0960 H     1 <1>   0.4500 
 38 H        0.9920    -5.4840     1.3270 H     1 <1>   0.0800 
 39 H        1.8440    -4.5860     2.5550 H     1 <1>   0.0800 
 40 H        2.3930    -2.0440     2.0210 H     1 <1>   0.0800 
 41 H        1.8650    -1.4330     0.4740 H     1 <1>   0.0800 
 42 H        2.9190    -5.3920    -0.1490 H     1 <1>   0.0800 
 43 H        3.4390    -5.9750     1.4050 H     1 <1>   0.0800 
 44 H        4.3040    -1.9590     0.5550 H     1 <1>   0.0800 
 45 H        3.4650    -2.8400    -0.6870 H     1 <1>   0.0800 
 46 H        6.0370    -4.0920     2.6100 H     1 <1>   0.1500 
 47 H        7.3950    -5.3400    -1.9380 H     1 <1>   0.1500 
 48 H        8.3690    -4.6950     2.1340 H     1 <1>   0.1500 
 49 H        4.2050    -4.9840    -3.5970 H     1 <1>   0.0800 
 50 H        5.4750    -6.0670    -3.0370 H     1 <1>   0.0800 
 51 H        5.8380    -4.3650    -3.3790 H     1 <1>   0.0800 
 52 H        9.0320    -5.3170    -0.1500 H     1 <1>   0.1500 
@<TRIPOS>BOND
  1   1   2  1   
  2   2   3  ar  
  3   2   4  ar  
  4   3   5  1   
  5   3   6  ar  
  6   4   7  ar  
  7   4  27  1   
  8   5   8  1   
  9   6   9  ar  
 10   6  28  1   
 11   7   9  ar  
 12   7  29  1   
 13   8  10  1   
 14   8  30  1   
 15   8  31  1   
 16   9  32  1   
 17  10  11  1   
 18  10  12  1   
 19  10  33  1   
 20  11  34  1   
 21  12  13  1   
 22  12  35  1   
 23  12  36  1   
 24  13  14  1   
 25  13  15  1   
 26  13  37  1   
 27  14  16  1   
 28  14  38  1   
 29  14  39  1   
 30  15  17  1   
 31  15  40  1   
 32  15  41  1   
 33  16  18  1   
 34  16  42  1   
 35  16  43  1   
 36  17  18  1   
 37  17  44  1   
 38  17  45  1   
 39  18  19  1   
 40  19  20  ar  
 41  19  21  ar  
 42  20  22  1   
 43  20  23  ar  
 44  21  24  ar  
 45  21  46  1   
 46  22  25  1   
 47  23  26  ar  
 48  23  47  1   
 49  24  26  ar  
 50  24  48  1   
 51  25  49  1   
 52  25  50  1   
 53  25  51  1   
 54  26  52  1   
@<TRIPOS>SUBSTRUCTURE
  1 ****  13 GROUP 4 **** **** 0

# MOE 2024.06 (io_trps.svl 2023.06)
