@<TRIPOS>MOLECULE
NONAME
40 40 1 0 0 
SMALL
USER_CHARGES


@<TRIPOS>ATOM
  1 O        0.7010    -1.4000    -0.8090 O.3   1 <1>  -0.3630 
  2 C       -0.5180    -1.7140    -0.2940 C.ar  1 <1>   0.0830 
  3 C        1.8340    -1.2680     0.0100 C.3   1 <1>   0.1200 
  4 C       -1.5950    -1.7690    -1.1740 C.ar  1 <1>  -0.1440 
  5 C       -0.7230    -1.9770     1.0590 C.ar  1 <1>  -0.1500 
  6 C        3.0040    -0.8790    -0.8980 C.3   1 <1>   0.3430 
  7 C       -2.8560    -2.0830    -0.6940 C.ar  1 <1>  -0.1500 
  8 C       -1.4070    -1.4880    -2.6590 C.3   1 <1>  -0.0960 
  9 C       -1.9880    -2.2890     1.5240 C.ar  1 <1>  -0.1500 
 10 N        4.3080    -0.7410    -0.1630 N.4   1 <1>  -0.9590 
 11 C       -3.0600    -2.3450     0.6500 C.ar  1 <1>  -0.1430 
 12 C        4.2940     0.3950     0.8010 C.3   1 <1>   0.3430 
 13 C        5.4200    -0.6150    -1.1440 C.3   1 <1>   0.3430 
 14 C       -4.4490    -2.6860     1.1580 C.3   1 <1>  -0.0970 
 15 C        4.3090    -0.1710     2.2140 C.3   1 <1>  -0.2400 
 16 C        6.7470    -0.9220    -0.4590 C.3   1 <1>  -0.2400 
 17 H        2.0130    -2.2150     0.4860 H     1 <1>   0.0800 
 18 H        1.6280    -0.5000     0.7350 H     1 <1>   0.0800 
 19 H        0.0770    -1.9490     1.7700 H     1 <1>   0.1500 
 20 H        2.7670     0.0510    -1.3880 H     1 <1>   0.0800 
 21 H        3.1020    -1.6410    -1.6530 H     1 <1>   0.0800 
 22 H       -3.6910    -2.1240    -1.3700 H     1 <1>   0.1500 
 23 H       -0.7070    -2.1890    -3.0770 H     1 <1>   0.0800 
 24 H       -1.0290    -0.4920    -2.7970 H     1 <1>   0.0800 
 25 H       -2.3370    -1.5770    -3.1910 H     1 <1>   0.0800 
 26 H       -2.1370    -2.4900     2.5700 H     1 <1>   0.1500 
 27 H        4.4760    -1.6050     0.3700 H     1 <1>   0.4500 
 28 H        3.4170     1.0050     0.6550 H     1 <1>   0.0800 
 29 H        5.1630     1.0190     0.6590 H     1 <1>   0.0800 
 30 H        5.4370     0.3790    -1.5650 H     1 <1>   0.0800 
 31 H        5.2760    -1.3190    -1.9490 H     1 <1>   0.0800 
 32 H       -4.9840    -3.2630     0.4250 H     1 <1>   0.0800 
 33 H       -4.9960    -1.7810     1.3550 H     1 <1>   0.0800 
 34 H       -4.3920    -3.2610     2.0650 H     1 <1>   0.0800 
 35 H        3.4440    -0.7800     2.4030 H     1 <1>   0.0800 
 36 H        5.2020    -0.7460     2.3860 H     1 <1>   0.0800 
 37 H        4.3010     0.6410     2.9190 H     1 <1>   0.0800 
 38 H        7.5360    -0.8790    -1.1880 H     1 <1>   0.0800 
 39 H        6.9730    -0.2020     0.3080 H     1 <1>   0.0800 
 40 H        6.7400    -1.9110    -0.0370 H     1 <1>   0.0800 
@<TRIPOS>BOND
  1   1   2  1   
  2   1   3  1   
  3   2   4  ar  
  4   2   5  ar  
  5   3   6  1   
  6   3  17  1   
  7   3  18  1   
  8   4   7  ar  
  9   4   8  1   
 10   5   9  ar  
 11   5  19  1   
 12   6  10  1   
 13   6  20  1   
 14   6  21  1   
 15   7  11  ar  
 16   7  22  1   
 17   8  23  1   
 18   8  24  1   
 19   8  25  1   
 20   9  11  ar  
 21   9  26  1   
 22  10  12  1   
 23  10  13  1   
 24  10  27  1   
 25  11  14  1   
 26  12  15  1   
 27  12  28  1   
 28  12  29  1   
 29  13  16  1   
 30  13  30  1   
 31  13  31  1   
 32  14  32  1   
 33  14  33  1   
 34  14  34  1   
 35  15  35  1   
 36  15  36  1   
 37  15  37  1   
 38  16  38  1   
 39  16  39  1   
 40  16  40  1   
@<TRIPOS>SUBSTRUCTURE
  1 ****   1 GROUP 4 **** **** 0

# MOE 2024.06 (io_trps.svl 2023.06)
