@<TRIPOS>MOLECULE
NONAME
42 42 1 0 0 
SMALL
USER_CHARGES


@<TRIPOS>ATOM
  1 N        0.0710     0.2360    -0.3510 N.4   1 <1>  -0.9590 
  2 C        1.3700    -0.5230    -0.2280 C.3   1 <1>   0.3430 
  3 C       -1.0660    -0.6300     0.1390 C.3   1 <1>   0.3430 
  4 C       -0.1170     0.7210    -1.7630 C.3   1 <1>   0.2630 
  5 C        2.6210     0.3620    -0.3860 C.3   1 <1>   0.0630 
  6 C       -2.4390     0.0980     0.2520 C.3   1 <1>   0.3430 
  7 C        3.8380    -0.5180    -0.1350 C.ar  1 <1>  -0.1440 
  8 C        2.6250     1.5910     0.5400 C.3   1 <1>  -0.2400 
  9 N       -3.5500    -0.7380     0.8440 N.4   1 <1>  -0.9590 
 10 C        4.6600    -0.8740    -1.1960 C.ar  1 <1>  -0.1500 
 11 C        4.1400    -0.9900     1.1370 C.ar  1 <1>  -0.1500 
 12 C       -3.9320    -1.9230     0.0020 C.3   1 <1>   0.2630 
 13 C       -4.7730     0.1070     1.0690 C.3   1 <1>   0.2630 
 14 C        5.7570    -1.6920    -0.9920 C.ar  1 <1>  -0.1500 
 15 C        5.2380    -1.8080     1.3400 C.ar  1 <1>  -0.1500 
 16 C        6.0460    -2.1610     0.2760 C.ar  1 <1>  -0.1500 
 17 H        0.1820     1.0600     0.2650 H     1 <1>   0.4500 
 18 H        1.4100    -1.3120    -0.9610 H     1 <1>   0.0800 
 19 H        1.4230    -0.9840     0.7450 H     1 <1>   0.0800 
 20 H       -0.8090    -1.0100     1.1150 H     1 <1>   0.0800 
 21 H       -1.1730    -1.4710    -0.5260 H     1 <1>   0.0800 
 22 H       -0.1640    -0.1130    -2.4460 H     1 <1>   0.0800 
 23 H        0.7070     1.3520    -2.0570 H     1 <1>   0.0800 
 24 H       -1.0240     1.2960    -1.8540 H     1 <1>   0.0800 
 25 H        2.6740     0.7110    -1.4020 H     1 <1>   0.0800 
 26 H       -2.7390     0.4290    -0.7290 H     1 <1>   0.0800 
 27 H       -2.3040     0.9720     0.8690 H     1 <1>   0.0800 
 28 H        2.4660     1.3130     1.5660 H     1 <1>   0.0800 
 29 H        1.8770     2.3050     0.2480 H     1 <1>   0.0800 
 30 H        3.5830     2.0810     0.4750 H     1 <1>   0.0800 
 31 H       -3.2720    -1.0890     1.7780 H     1 <1>   0.4500 
 32 H        4.4630    -0.5210    -2.1930 H     1 <1>   0.1500 
 33 H        3.5370    -0.7310     1.9880 H     1 <1>   0.1500 
 34 H       -4.2640    -1.6040    -0.9740 H     1 <1>   0.0800 
 35 H       -4.7380    -2.4680     0.4690 H     1 <1>   0.0800 
 36 H       -3.0990    -2.5960    -0.1170 H     1 <1>   0.0800 
 37 H       -5.1440     0.4950     0.1340 H     1 <1>   0.0800 
 38 H       -4.5460     0.9370     1.7210 H     1 <1>   0.0800 
 39 H       -5.5540    -0.4780     1.5280 H     1 <1>   0.0800 
 40 H        6.3900    -1.9640    -1.8200 H     1 <1>   0.1500 
 41 H        5.4690    -2.1700     2.3280 H     1 <1>   0.1500 
 42 H        6.9000    -2.7960     0.4340 H     1 <1>   0.1500 
@<TRIPOS>BOND
  1   1   2  1   
  2   1   3  1   
  3   1   4  1   
  4   1  17  1   
  5   2   5  1   
  6   2  18  1   
  7   2  19  1   
  8   3   6  1   
  9   3  20  1   
 10   3  21  1   
 11   4  22  1   
 12   4  23  1   
 13   4  24  1   
 14   5   7  1   
 15   5   8  1   
 16   5  25  1   
 17   6   9  1   
 18   6  26  1   
 19   6  27  1   
 20   7  10  ar  
 21   7  11  ar  
 22   8  28  1   
 23   8  29  1   
 24   8  30  1   
 25   9  12  1   
 26   9  13  1   
 27   9  31  1   
 28  10  14  ar  
 29  10  32  1   
 30  11  15  ar  
 31  11  33  1   
 32  12  34  1   
 33  12  35  1   
 34  12  36  1   
 35  13  37  1   
 36  13  38  1   
 37  13  39  1   
 38  14  16  ar  
 39  14  40  1   
 40  15  16  ar  
 41  15  41  1   
 42  16  42  1   
@<TRIPOS>SUBSTRUCTURE
  1 ****   2 GROUP 4 **** **** 0

# MOE 2024.06 (io_trps.svl 2023.06)
