@<TRIPOS>MOLECULE
NONAME
46 47 1 0 0 
SMALL
USER_CHARGES


@<TRIPOS>ATOM
  1 CL      -1.2600    -0.9240    -0.3120 Cl    1 <1>  -0.1770 
  2 C       -1.8550     0.7010    -0.1000 C.ar  1 <1>   0.1770 
  3 C       -1.8610     1.2610     1.1640 C.ar  1 <1>  -0.1500 
  4 C       -2.3130     1.4040    -1.1980 C.ar  1 <1>  -0.1500 
  5 C       -2.3410     2.5500     1.3320 C.ar  1 <1>  -0.1500 
  6 C       -2.7940     2.6900    -1.0230 C.ar  1 <1>  -0.1500 
  7 C       -2.8150     3.2670     0.2400 C.ar  1 <1>  -0.1430 
  8 C       -3.3580     4.6810     0.4110 C.3   1 <1>   0.3390 
  9 N       -4.8090     4.7060     0.2030 N.am  1 <1>  -0.8490 
 10 S       -5.3260     6.3130     0.0720 S.o2  1 <1>   1.3330 
 11 C       -5.4980     3.9630     1.3010 C.3   1 <1>   0.2570 
 12 O       -4.4760     6.9380    -0.9150 O.2   1 <1>  -0.6500 
 13 O       -5.3570     6.8570     1.4080 O.2   1 <1>  -0.6500 
 14 C       -6.9640     6.2680    -0.6290 C.3   1 <1>  -0.1350 
 15 C       -6.9700     3.6010     1.0510 C.2   1 <1>   0.5690 
 16 O       -7.7970     4.1360     1.7540 O.2   1 <1>  -0.5700 
 17 N       -7.3340     2.7020     0.0760 N.am  1 <1>  -0.6600 
 18 C       -6.3800     1.9980    -0.8210 C.3   1 <1>   0.1400 
 19 C       -8.7560     2.3150    -0.1280 C.3   1 <1>   0.1400 
 20 C       -5.8010     0.7360    -0.1680 C.3   1 <1>  -0.1600 
 21 C       -9.0810     1.0000     0.5880 C.3   1 <1>  -0.1600 
 22 C       -6.7520    -0.0620     0.7420 C.3   1 <1>  -0.1600 
 23 C       -8.1880    -0.1980     0.2100 C.3   1 <1>  -0.1600 
 24 H       -1.4930     0.6940     2.0000 H     1 <1>   0.1500 
 25 H       -2.2930     0.9480    -2.1710 H     1 <1>   0.1500 
 26 H       -2.3430     2.9870     2.3160 H     1 <1>   0.1500 
 27 H       -3.1560     3.2470    -1.8710 H     1 <1>   0.1500 
 28 H       -2.8640     5.3010    -0.3190 H     1 <1>   0.0800 
 29 H       -3.1160     5.0710     1.3860 H     1 <1>   0.0800 
 30 H       -5.4410     4.5270     2.2160 H     1 <1>   0.0800 
 31 H       -4.9990     3.0320     1.4850 H     1 <1>   0.0800 
 32 H       -6.9890     5.6080    -1.4730 H     1 <1>   0.0800 
 33 H       -7.2420     7.2510    -0.9540 H     1 <1>   0.0800 
 34 H       -7.6850     5.9470     0.0930 H     1 <1>   0.0800 
 35 H       -5.5830     2.6570    -1.1130 H     1 <1>   0.0800 
 36 H       -6.8940     1.7160    -1.7240 H     1 <1>   0.0800 
 37 H       -8.9550     2.2160    -1.1810 H     1 <1>   0.0800 
 38 H       -9.4030     3.0890     0.2480 H     1 <1>   0.0800 
 39 H       -4.9310     1.0050     0.4010 H     1 <1>   0.0800 
 40 H       -5.4570     0.0930    -0.9590 H     1 <1>   0.0800 
 41 H      -10.1010     0.7480     0.3590 H     1 <1>   0.0800 
 42 H       -9.0340     1.1670     1.6500 H     1 <1>   0.0800 
 43 H       -6.7780     0.3950     1.7170 H     1 <1>   0.0800 
 44 H       -6.3360    -1.0460     0.8720 H     1 <1>   0.0800 
 45 H       -8.1850    -0.3490    -0.8550 H     1 <1>   0.0800 
 46 H       -8.6220    -1.0770     0.6560 H     1 <1>   0.0800 
@<TRIPOS>BOND
  1   1   2  1   
  2   2   3  ar  
  3   2   4  ar  
  4   3   5  ar  
  5   3  24  1   
  6   4   6  ar  
  7   4  25  1   
  8   5   7  ar  
  9   5  26  1   
 10   6   7  ar  
 11   6  27  1   
 12   7   8  1   
 13   8   9  1   
 14   8  28  1   
 15   8  29  1   
 16   9  10  am  
 17   9  11  1   
 18  10  12  2   
 19  10  13  2   
 20  10  14  1   
 21  11  15  1   
 22  11  30  1   
 23  11  31  1   
 24  14  32  1   
 25  14  33  1   
 26  14  34  1   
 27  15  16  2   
 28  15  17  am  
 29  17  18  1   
 30  17  19  1   
 31  18  20  1   
 32  18  35  1   
 33  18  36  1   
 34  19  21  1   
 35  19  37  1   
 36  19  38  1   
 37  20  22  1   
 38  20  39  1   
 39  20  40  1   
 40  21  23  1   
 41  21  41  1   
 42  21  42  1   
 43  22  23  1   
 44  22  43  1   
 45  22  44  1   
 46  23  45  1   
 47  23  46  1   
@<TRIPOS>SUBSTRUCTURE
  1 ****  11 GROUP 4 **** **** 0

# MOE 2024.06 (io_trps.svl 2023.06)
