@<TRIPOS>MOLECULE
NONAME
23 24 1 0 0 
SMALL
USER_CHARGES


@<TRIPOS>ATOM
  1 F       -1.3550    -0.2060    -1.1780 F     1 <1>  -0.3400 
  2 C       -1.5200     1.1160    -1.1100 C.3   1 <1>   0.6000 
  3 F       -0.4040     1.5620    -0.5370 F     1 <1>  -0.3400 
  4 C       -2.7840     1.4840    -0.2690 C.3   1 <1>   0.5600 
  5 O       -3.9360     0.9900    -0.9330 O.3   1 <1>  -0.3630 
  6 O       -2.7900     0.8440     0.9630 O.3   1 <1>  -0.6800 
  7 C       -2.9120     2.9920    -0.0340 C.3   1 <1>  -0.0990 
  8 C       -5.1750     1.3480    -0.5260 C.ar  1 <1>   0.0830 
  9 C       -4.2550     3.3420     0.5600 C.2   1 <1>   0.4230 
 10 C       -5.3740     2.4960     0.2460 C.ar  1 <1>   0.0860 
 11 C       -6.2400     0.5410    -0.8930 C.ar  1 <1>  -0.1500 
 12 O       -4.3270     4.3440     1.2250 O.2   1 <1>  -0.5700 
 13 C       -6.6750     2.7850     0.6590 C.ar  1 <1>  -0.1500 
 14 C       -7.5210     0.8520    -0.4800 C.ar  1 <1>  -0.1500 
 15 C       -7.7370     1.9750     0.3020 C.ar  1 <1>  -0.1500 
 16 H       -1.5510     1.5040    -2.1110 H     1 <1>   0.0800 
 17 H       -2.6750    -0.1130     0.8080 H     1 <1>   0.4000 
 18 H       -2.8020     3.5170    -0.9630 H     1 <1>   0.0800 
 19 H       -2.1290     3.3210     0.6250 H     1 <1>   0.0800 
 20 H       -6.0610    -0.3320    -1.4960 H     1 <1>   0.1500 
 21 H       -6.8470     3.6600     1.2640 H     1 <1>   0.1500 
 22 H       -8.3500     0.2240    -0.7610 H     1 <1>   0.1500 
 23 H       -8.7340     2.2170     0.6300 H     1 <1>   0.1500 
@<TRIPOS>BOND
  1   1   2  1   
  2   2   3  1   
  3   2   4  1   
  4   2  16  1   
  5   4   5  1   
  6   4   6  1   
  7   4   7  1   
  8   5   8  1   
  9   6  17  1   
 10   7   9  1   
 11   7  18  1   
 12   7  19  1   
 13   8  10  ar  
 14   8  11  ar  
 15   9  10  1   
 16   9  12  2   
 17  10  13  ar  
 18  11  14  ar  
 19  11  20  1   
 20  13  15  ar  
 21  13  21  1   
 22  14  15  ar  
 23  14  22  1   
 24  15  23  1   
@<TRIPOS>SUBSTRUCTURE
  1 ****   8 GROUP 4 **** **** 0

# MOE 2024.06 (io_trps.svl 2023.06)
