@<TRIPOS>MOLECULE
NONAME
46 48 1 0 0 
SMALL
USER_CHARGES


@<TRIPOS>ATOM
  1 O        0.2790     1.7670     2.6870 O.2   1 <1>  -0.5700 
  2 C        0.1320     2.1200     1.5380 C.2   1 <1>   0.5690 
  3 N        1.0830     1.8260     0.6090 N.am  1 <1>  -0.7300 
  4 C       -1.1390     2.9060     1.1310 C.3   1 <1>   0.2040 
  5 C        2.3410     1.1340     0.8880 C.3   1 <1>   0.3640 
  6 C       -2.2330     1.8730     0.7390 C.ar  1 <1>  -0.1440 
  7 C       -1.5500     3.8420     2.3010 C.3   1 <1>  -0.1600 
  8 C       -0.8540     3.8520    -0.0680 C.3   1 <1>  -0.1600 
  9 C        3.3710     1.6190    -0.1270 C.ar  1 <1>  -0.1440 
 10 C        2.1090    -0.3730     0.8060 C.3   1 <1>  -0.2400 
 11 C       -2.0570     1.0920    -0.4010 C.ar  1 <1>  -0.1500 
 12 C       -3.3880     1.6580     1.4890 C.ar  1 <1>  -0.1500 
 13 C       -2.6580     4.8320     1.9160 C.3   1 <1>   0.1200 
 14 C       -2.0350     4.7860    -0.3380 C.3   1 <1>   0.1200 
 15 C        3.2360     1.3520    -1.4840 C.ar  1 <1>  -0.1500 
 16 C        4.4650     2.3550     0.3070 C.ar  1 <1>  -0.1500 
 17 C       -3.0040     0.1630    -0.7950 C.ar  1 <1>  -0.1500 
 18 C       -4.3370     0.7290     1.0990 C.ar  1 <1>  -0.1500 
 19 O       -2.2580     5.5570     0.7980 O.3   1 <1>  -0.5600 
 20 C        4.1790     1.8090    -2.3880 C.ar  1 <1>  -0.1500 
 21 C        5.4080     2.8120    -0.5970 C.ar  1 <1>  -0.1500 
 22 C       -4.1500    -0.0180    -0.0470 C.ar  1 <1>  -0.1500 
 23 C        5.2660     2.5390    -1.9450 C.ar  1 <1>  -0.1500 
 24 H        1.0260     2.2000    -0.3350 H     1 <1>   0.3700 
 25 H        2.6680     1.3820     1.8850 H     1 <1>   0.0800 
 26 H       -0.6930     4.4170     2.6050 H     1 <1>   0.0800 
 27 H       -1.8450     3.2680     3.1600 H     1 <1>   0.0800 
 28 H       -0.6390     3.3060    -0.9650 H     1 <1>   0.0800 
 29 H        0.0080     4.4600     0.1480 H     1 <1>   0.0800 
 30 H        1.7000    -0.6540    -0.1460 H     1 <1>   0.0800 
 31 H        1.4310    -0.6760     1.5840 H     1 <1>   0.0800 
 32 H        3.0410    -0.8880     0.9480 H     1 <1>   0.0800 
 33 H       -1.1730     1.1850    -1.0020 H     1 <1>   0.1500 
 34 H       -3.5800     2.1950     2.3980 H     1 <1>   0.1500 
 35 H       -2.8290     5.5320     2.7150 H     1 <1>   0.0800 
 36 H       -3.5850     4.3380     1.6850 H     1 <1>   0.0800 
 37 H       -2.9330     4.2390    -0.5730 H     1 <1>   0.0800 
 38 H       -1.8100     5.4580    -1.1480 H     1 <1>   0.0800 
 39 H        2.3980     0.7840    -1.8470 H     1 <1>   0.1500 
 40 H        4.5880     2.5780     1.3520 H     1 <1>   0.1500 
 41 H       -2.8460    -0.4240    -1.6830 H     1 <1>   0.1500 
 42 H       -5.2230     0.5860     1.6930 H     1 <1>   0.1500 
 43 H        4.0670     1.5950    -3.4370 H     1 <1>   0.1500 
 44 H        6.2530     3.3820    -0.2500 H     1 <1>   0.1500 
 45 H       -4.8880    -0.7390    -0.3510 H     1 <1>   0.1500 
 46 H        6.0010     2.8940    -2.6480 H     1 <1>   0.1500 
@<TRIPOS>BOND
  1   1   2  2   
  2   2   3  am  
  3   2   4  1   
  4   3   5  1   
  5   3  24  1   
  6   4   6  1   
  7   4   7  1   
  8   4   8  1   
  9   5   9  1   
 10   5  10  1   
 11   5  25  1   
 12   6  11  ar  
 13   6  12  ar  
 14   7  13  1   
 15   7  26  1   
 16   7  27  1   
 17   8  14  1   
 18   8  28  1   
 19   8  29  1   
 20   9  15  ar  
 21   9  16  ar  
 22  10  30  1   
 23  10  31  1   
 24  10  32  1   
 25  11  17  ar  
 26  11  33  1   
 27  12  18  ar  
 28  12  34  1   
 29  13  19  1   
 30  13  35  1   
 31  13  36  1   
 32  14  19  1   
 33  14  37  1   
 34  14  38  1   
 35  15  20  ar  
 36  15  39  1   
 37  16  21  ar  
 38  16  40  1   
 39  17  22  ar  
 40  17  41  1   
 41  18  22  ar  
 42  18  42  1   
 43  20  23  ar  
 44  20  43  1   
 45  21  23  ar  
 46  21  44  1   
 47  22  45  1   
 48  23  46  1   
@<TRIPOS>SUBSTRUCTURE
  1 ****   3 GROUP 4 **** **** 0

# MOE 2024.06 (io_trps.svl 2023.06)
