@<TRIPOS>MOLECULE
NONAME
51 53 1 0 0 
SMALL
USER_CHARGES


@<TRIPOS>ATOM
  1 O       -0.0710    -3.6370     2.7560 O.2   1 <1>  -0.5700 
  2 C       -0.6000    -2.9950     1.8800 C.2   1 <1>   0.5690 
  3 N        0.0300    -2.0560     1.1140 N.am  1 <1>  -0.5470 
  4 C       -2.0830    -3.2220     1.5810 C.3   1 <1>   0.1710 
  5 C        1.3440    -1.5690     1.0670 C.ar  1 <1>   0.1170 
  6 N       -2.7380    -2.0660     0.9000 N.3   1 <1>  -0.8100 
  7 C        1.6070    -0.4570     0.2770 C.ar  1 <1>  -0.1500 
  8 C        2.3980    -2.1470     1.7660 C.ar  1 <1>  -0.1500 
  9 C       -4.0190    -2.4750     0.2770 C.3   1 <1>   0.1100 
 10 C       -2.9920    -0.9580     1.8590 C.3   1 <1>   0.1100 
 11 C        2.8820     0.0730     0.1820 C.ar  1 <1>   0.0820 
 12 C        3.6770    -1.6260     1.6800 C.ar  1 <1>  -0.1500 
 13 C       -4.7350    -1.2970    -0.4120 C.3   1 <1>   0.2090 
 14 C       -3.6960     0.2410     1.1960 C.3   1 <1>   0.2090 
 15 O        3.0320     1.1610    -0.6160 O.3   1 <1>  -0.3630 
 16 C        3.9250    -0.5170     0.8910 C.ar  1 <1>  -0.1500 
 17 N       -4.9710    -0.1840     0.5520 N.pl3 1 <1>  -0.8380 
 18 C        4.2930     1.7660    -0.7970 C.3   1 <1>   0.0400 
 19 C       -5.7850     0.8570     0.0830 C.ar  1 <1>   0.1000 
 20 C       -5.4410     1.7280    -0.9690 C.ar  1 <1>   0.0820 
 21 C       -7.0100     1.0260     0.7120 C.ar  1 <1>  -0.1500 
 22 O       -4.2300     1.5590    -1.5890 O.3   1 <1>  -0.3620 
 23 C       -6.3290     2.7290    -1.3510 C.ar  1 <1>  -0.1500 
 24 C       -7.8870     2.0240     0.3270 C.ar  1 <1>  -0.1500 
 25 C       -3.7960     2.4250    -2.6120 C.3   1 <1>   0.0400 
 26 C       -7.5460     2.8760    -0.7060 C.ar  1 <1>  -0.1500 
 27 H       -0.6420    -1.5980     0.4880 H     1 <1>   0.3700 
 28 H       -2.5950    -3.4500     2.5000 H     1 <1>   0.0800 
 29 H       -2.1440    -4.0880     0.9470 H     1 <1>   0.0800 
 30 H        0.8140     0.0100    -0.2750 H     1 <1>   0.1500 
 31 H        2.2280    -3.0100     2.3820 H     1 <1>   0.1500 
 32 H       -4.6780    -2.8830     1.0250 H     1 <1>   0.0800 
 33 H       -3.8310    -3.2380    -0.4570 H     1 <1>   0.0800 
 34 H       -2.0610    -0.6180     2.2790 H     1 <1>   0.0800 
 35 H       -3.6120    -1.3080     2.6670 H     1 <1>   0.0800 
 36 H        4.4790    -2.0870     2.2300 H     1 <1>   0.1500 
 37 H       -5.6790    -1.6280    -0.8070 H     1 <1>   0.0800 
 38 H       -4.1310    -0.9480    -1.2320 H     1 <1>   0.0800 
 39 H       -3.0410     0.6730     0.4600 H     1 <1>   0.0800 
 40 H       -3.9080     0.9910     1.9380 H     1 <1>   0.0800 
 41 H        4.9260    -0.1320     0.8410 H     1 <1>   0.1500 
 42 H        4.1710     2.5960    -1.4690 H     1 <1>   0.0800 
 43 H        4.9670     1.0450    -1.2240 H     1 <1>   0.0800 
 44 H        4.6520     2.1150     0.1550 H     1 <1>   0.0800 
 45 H       -7.2680     0.3600     1.5130 H     1 <1>   0.1500 
 46 H       -6.1000     3.4080    -2.1480 H     1 <1>   0.1500 
 47 H       -8.8300     2.1340     0.8310 H     1 <1>   0.1500 
 48 H       -2.8170     2.1100    -2.9220 H     1 <1>   0.0800 
 49 H       -3.7520     3.4280    -2.2260 H     1 <1>   0.0800 
 50 H       -4.4800     2.3590    -3.4400 H     1 <1>   0.0800 
 51 H       -8.2260     3.6530    -1.0080 H     1 <1>   0.1500 
@<TRIPOS>BOND
  1   1   2  2   
  2   2   3  am  
  3   2   4  1   
  4   3   5  1   
  5   3  27  1   
  6   4   6  1   
  7   4  28  1   
  8   4  29  1   
  9   5   7  ar  
 10   5   8  ar  
 11   6   9  1   
 12   6  10  1   
 13   7  11  ar  
 14   7  30  1   
 15   8  12  ar  
 16   8  31  1   
 17   9  13  1   
 18   9  32  1   
 19   9  33  1   
 20  10  14  1   
 21  10  34  1   
 22  10  35  1   
 23  11  15  1   
 24  11  16  ar  
 25  12  16  ar  
 26  12  36  1   
 27  13  17  1   
 28  13  37  1   
 29  13  38  1   
 30  14  17  1   
 31  14  39  1   
 32  14  40  1   
 33  15  18  1   
 34  16  41  1   
 35  17  19  1   
 36  18  42  1   
 37  18  43  1   
 38  18  44  1   
 39  19  20  ar  
 40  19  21  ar  
 41  20  22  1   
 42  20  23  ar  
 43  21  24  ar  
 44  21  45  1   
 45  22  25  1   
 46  23  26  ar  
 47  23  46  1   
 48  24  26  ar  
 49  24  47  1   
 50  25  48  1   
 51  25  49  1   
 52  25  50  1   
 53  26  51  1   
@<TRIPOS>SUBSTRUCTURE
  1 ****  10 GROUP 4 **** **** 0

# MOE 2024.06 (io_trps.svl 2023.06)
