@<TRIPOS>MOLECULE
NONAME
18 18 1 0 0 
SMALL
USER_CHARGES


@<TRIPOS>ATOM
  1 S       -2.9950    -0.4380     0.0650 S.o2  1 <1>   1.0900 
  2 O       -3.3130    -1.2780    -1.0640 O.2   1 <1>  -0.6500 
  3 O       -2.7260    -0.9890     1.3720 O.2   1 <1>  -0.6500 
  4 C       -1.6780     0.6710    -0.3860 C.3   1 <1>  -0.0550 
  5 C       -4.2680     0.7980     0.2450 C.3   1 <1>  -0.0550 
  6 C       -2.1920     2.0550    -0.0320 C.3   1 <1>   0.2000 
  7 C       -3.6950     2.0730    -0.3540 C.3   1 <1>   0.1900 
  8 O       -1.5430     3.0170    -0.7780 O.3   1 <1>  -0.6800 
  9 N       -4.3480     3.2750     0.1620 N.3   1 <1>  -0.9900 
 10 H       -1.5050     0.6140    -1.4440 H     1 <1>   0.0800 
 11 H       -0.7740     0.4460     0.1450 H     1 <1>   0.0800 
 12 H       -4.4730     0.9460     1.2880 H     1 <1>   0.0800 
 13 H       -5.1670     0.5030    -0.2620 H     1 <1>   0.0800 
 14 H       -2.0290     2.2590     1.0130 H     1 <1>   0.0800 
 15 H       -3.8120     2.0330    -1.4260 H     1 <1>   0.0800 
 16 H       -2.0480     3.8560    -0.7020 H     1 <1>   0.4000 
 17 H       -4.3440     3.2850     1.1900 H     1 <1>   0.3600 
 18 H       -5.3310     3.3020    -0.1390 H     1 <1>   0.3600 
@<TRIPOS>BOND
  1   1   2  2   
  2   1   3  2   
  3   1   4  1   
  4   1   5  1   
  5   4   6  1   
  6   4  10  1   
  7   4  11  1   
  8   5   7  1   
  9   5  12  1   
 10   5  13  1   
 11   6   7  1   
 12   6   8  1   
 13   6  14  1   
 14   7   9  1   
 15   7  15  1   
 16   8  16  1   
 17   9  17  1   
 18   9  18  1   
@<TRIPOS>SUBSTRUCTURE
  1 ****   6 GROUP 4 **** **** 0

# MOE 2024.06 (io_trps.svl 2023.06)
