@<TRIPOS>MOLECULE
NONAME
41 41 1 0 0 
SMALL
USER_CHARGES


@<TRIPOS>ATOM
  1 O        1.5870     3.8340     0.6160 O.2   1 <1>  -0.5700 
  2 C        0.6340     3.0980     0.7260 C.2   1 <1>   0.5690 
  3 N        0.7540     1.7720     1.0360 N.am  1 <1>  -0.7300 
  4 C       -0.7610     3.6730     0.4950 C.3   1 <1>   0.1810 
  5 C        1.8940     0.9560     1.5390 C.3   1 <1>   0.1400 
  6 O       -1.7280     2.6360     0.3930 O.3   1 <1>  -0.3620 
  7 C        3.2770     1.5130     1.1890 C.3   1 <1>  -0.1600 
  8 C       -3.0390     2.9170     0.1900 C.ar  1 <1>   0.0820 
  9 C        3.4480     1.6850    -0.3230 C.3   1 <1>   0.3430 
 10 C       -3.5490     4.2090     0.0890 C.ar  1 <1>  -0.1500 
 11 C       -3.8990     1.8370     0.0800 C.ar  1 <1>  -0.1500 
 12 N        4.6720     2.4810    -0.6260 N.4   1 <1>  -0.9590 
 13 C       -4.9040     4.4030    -0.1190 C.ar  1 <1>  -0.1500 
 14 C       -5.2530     2.0360    -0.1280 C.ar  1 <1>  -0.1500 
 15 C        4.4270     3.9350    -0.3510 C.3   1 <1>   0.2630 
 16 C        5.0840     2.2910    -2.0490 C.3   1 <1>   0.2630 
 17 C       -5.7620     3.3210    -0.2270 C.ar  1 <1>  -0.1430 
 18 C       -7.2470     3.5390    -0.4560 C.3   1 <1>  -0.0970 
 19 H       -0.1500     1.2810     1.0790 H     1 <1>   0.3700 
 20 H       -0.7710     4.2370    -0.4200 H     1 <1>   0.0800 
 21 H       -1.0260     4.3060     1.3220 H     1 <1>   0.0800 
 22 H        1.8020    -0.0380     1.1330 H     1 <1>   0.0800 
 23 H        1.8070     0.8750     2.6100 H     1 <1>   0.0800 
 24 H        4.0220     0.8290     1.5540 H     1 <1>   0.0800 
 25 H        3.4020     2.4440     1.7110 H     1 <1>   0.0800 
 26 H        2.5850     2.1830    -0.7340 H     1 <1>   0.0800 
 27 H        3.5160     0.7100    -0.7790 H     1 <1>   0.0800 
 28 H       -2.9190     5.0740     0.1680 H     1 <1>   0.1500 
 29 H       -3.5080     0.8400     0.1560 H     1 <1>   0.1500 
 30 H        5.4310     2.1530    -0.0110 H     1 <1>   0.4500 
 31 H       -5.2900     5.4040    -0.1970 H     1 <1>   0.1500 
 32 H       -5.9070     1.1860    -0.2130 H     1 <1>   0.1500 
 33 H        3.6090     4.2960    -0.9530 H     1 <1>   0.0800 
 34 H        5.3070     4.5160    -0.5740 H     1 <1>   0.0800 
 35 H        4.1680     4.0870     0.6840 H     1 <1>   0.0800 
 36 H        4.3020     2.6250    -2.7110 H     1 <1>   0.0800 
 37 H        5.2820     1.2500    -2.2460 H     1 <1>   0.0800 
 38 H        5.9780     2.8560    -2.2580 H     1 <1>   0.0800 
 39 H       -7.5640     4.4680    -0.0180 H     1 <1>   0.0800 
 40 H       -7.8170     2.7430    -0.0110 H     1 <1>   0.0800 
 41 H       -7.4520     3.5640    -1.5120 H     1 <1>   0.0800 
@<TRIPOS>BOND
  1   1   2  2   
  2   2   3  am  
  3   2   4  1   
  4   3   5  1   
  5   3  19  1   
  6   4   6  1   
  7   4  20  1   
  8   4  21  1   
  9   5   7  1   
 10   5  22  1   
 11   5  23  1   
 12   6   8  1   
 13   7   9  1   
 14   7  24  1   
 15   7  25  1   
 16   8  10  ar  
 17   8  11  ar  
 18   9  12  1   
 19   9  26  1   
 20   9  27  1   
 21  10  13  ar  
 22  10  28  1   
 23  11  14  ar  
 24  11  29  1   
 25  12  15  1   
 26  12  16  1   
 27  12  30  1   
 28  13  17  ar  
 29  13  31  1   
 30  14  17  ar  
 31  14  32  1   
 32  15  33  1   
 33  15  34  1   
 34  15  35  1   
 35  16  36  1   
 36  16  37  1   
 37  16  38  1   
 38  17  18  1   
 39  18  39  1   
 40  18  40  1   
 41  18  41  1   
@<TRIPOS>SUBSTRUCTURE
  1 ****   4 GROUP 4 **** **** 0

# MOE 2024.06 (io_trps.svl 2023.06)
