@<TRIPOS>MOLECULE
NONAME
52 55 1 0 0 
SMALL
USER_CHARGES


@<TRIPOS>ATOM
  1 F       -0.5230    -0.6190     1.2260 F     1 <1>  -0.1900 
  2 C       -1.1750    -1.1640     0.2260 C.ar  1 <1>   0.1900 
  3 C       -0.7610    -2.3990    -0.2880 C.ar  1 <1>   0.1000 
  4 C       -2.2590    -0.4700    -0.2760 C.ar  1 <1>  -0.1500 
  5 N        0.3290    -3.1430     0.1820 N.pl3 1 <1>  -0.8380 
  6 C       -1.4980    -2.9150    -1.3460 C.ar  1 <1>  -0.1500 
  7 C       -2.9730    -1.0130    -1.3320 C.ar  1 <1>  -0.1500 
  8 C        0.2080    -3.6790     1.5690 C.3   1 <1>   0.2090 
  9 C        1.6750    -2.5350    -0.0310 C.3   1 <1>   0.2090 
 10 C       -2.5890    -2.2350    -1.8640 C.ar  1 <1>  -0.1500 
 11 C        1.3350    -4.6880     1.8620 C.3   1 <1>   0.1100 
 12 C        2.7910    -3.5510     0.2830 C.3   1 <1>   0.1100 
 13 N        2.6810    -4.1020     1.6580 N.3   1 <1>  -0.8100 
 14 C        3.7410    -5.0980     1.9320 C.3   1 <1>   0.2900 
 15 C        5.1510    -4.5190     1.8520 C.2   1 <1>   0.2980 
 16 O        5.4900    -3.5800     2.6960 O.3   1 <1>  -0.0190 
 17 N        6.0560    -4.8660     1.0290 N.2   1 <1>  -0.5650 
 18 N        6.7170    -3.3020     2.3820 N.2   1 <1>  -0.4100 
 19 C        7.0560    -4.0570     1.3980 C.2   1 <1>   0.4620 
 20 C        8.3530    -4.0590     0.7410 C.ar  1 <1>   0.0540 
 21 C        8.6700    -4.9760    -0.2620 C.ar  1 <1>  -0.1500 
 22 C        9.3370    -3.1340     1.0930 C.ar  1 <1>  -0.1500 
 23 C        9.9100    -4.9790    -0.8910 C.ar  1 <1>   0.0830 
 24 C       10.5750    -3.1190     0.4780 C.ar  1 <1>  -0.1500 
 25 O       10.2340    -5.8720    -1.8720 O.3   1 <1>  -0.3620 
 26 C       10.8760    -4.0400    -0.5200 C.ar  1 <1>   0.0830 
 27 C        9.3380    -6.8770    -2.2900 C.3   1 <1>   0.0400 
 28 O       12.0810    -4.0660    -1.1550 O.3   1 <1>  -0.3630 
 29 C       13.1100    -3.1550    -0.8420 C.3   1 <1>   0.0400 
 30 H       -2.5380     0.4750     0.1520 H     1 <1>   0.1500 
 31 H       -1.2030    -3.8620    -1.7600 H     1 <1>   0.1500 
 32 H       -3.8210    -0.4890    -1.7380 H     1 <1>   0.1500 
 33 H       -0.7460    -4.1620     1.6800 H     1 <1>   0.0800 
 34 H        0.2640    -2.8720     2.2780 H     1 <1>   0.0800 
 35 H        1.7920    -1.6760     0.6060 H     1 <1>   0.0800 
 36 H        1.7610    -2.2110    -1.0530 H     1 <1>   0.0800 
 37 H       -3.1420    -2.6590    -2.6840 H     1 <1>   0.1500 
 38 H        1.2040    -5.5400     1.2170 H     1 <1>   0.0800 
 39 H        1.2420    -5.0190     2.8820 H     1 <1>   0.0800 
 40 H        3.7390    -3.0550     0.1660 H     1 <1>   0.0800 
 41 H        2.7390    -4.3490    -0.4370 H     1 <1>   0.0800 
 42 H        3.6610    -5.9110     1.2310 H     1 <1>   0.0800 
 43 H        3.6030    -5.4950     2.9220 H     1 <1>   0.0800 
 44 H        7.9210    -5.6910    -0.5390 H     1 <1>   0.1500 
 45 H        9.1290    -2.4110     1.8630 H     1 <1>   0.1500 
 46 H       11.2910    -2.3840     0.7920 H     1 <1>   0.1500 
 47 H        9.8230    -7.4560    -3.0550 H     1 <1>   0.0800 
 48 H        8.4540    -6.4130    -2.6890 H     1 <1>   0.0800 
 49 H        9.1020    -7.5060    -1.4500 H     1 <1>   0.0800 
 50 H       13.9520    -3.3760    -1.4730 H     1 <1>   0.0800 
 51 H       13.3840    -3.2790     0.1900 H     1 <1>   0.0800 
 52 H       12.7620    -2.1560    -1.0350 H     1 <1>   0.0800 
@<TRIPOS>BOND
  1   1   2  1   
  2   2   3  ar  
  3   2   4  ar  
  4   3   5  1   
  5   3   6  ar  
  6   4   7  ar  
  7   4  30  1   
  8   5   8  1   
  9   5   9  1   
 10   6  10  ar  
 11   6  31  1   
 12   7  10  ar  
 13   7  32  1   
 14   8  11  1   
 15   8  33  1   
 16   8  34  1   
 17   9  12  1   
 18   9  35  1   
 19   9  36  1   
 20  10  37  1   
 21  11  13  1   
 22  11  38  1   
 23  11  39  1   
 24  12  13  1   
 25  12  40  1   
 26  12  41  1   
 27  13  14  1   
 28  14  15  1   
 29  14  42  1   
 30  14  43  1   
 31  15  16  1   
 32  15  17  2   
 33  16  18  1   
 34  17  19  1   
 35  18  19  2   
 36  19  20  1   
 37  20  21  ar  
 38  20  22  ar  
 39  21  23  ar  
 40  21  44  1   
 41  22  24  ar  
 42  22  45  1   
 43  23  25  1   
 44  23  26  ar  
 45  24  26  ar  
 46  24  46  1   
 47  25  27  1   
 48  26  28  1   
 49  27  47  1   
 50  27  48  1   
 51  27  49  1   
 52  28  29  1   
 53  29  50  1   
 54  29  51  1   
 55  29  52  1   
@<TRIPOS>SUBSTRUCTURE
  1 ****  12 GROUP 4 **** **** 0

# MOE 2024.06 (io_trps.svl 2023.06)
