@<TRIPOS>MOLECULE
NONAME
47 48 1 0 0 
SMALL
USER_CHARGES


@<TRIPOS>ATOM
  1 O        0.1520    -0.2110    -0.5510 O.3   1 <1>  -0.3630 
  2 C       -1.0700    -0.7340    -0.2660 C.ar  1 <1>   0.0830 
  3 C        1.3330    -0.8610    -0.1500 C.3   1 <1>   0.1200 
  4 C       -2.1710    -0.0340    -0.7310 C.ar  1 <1>  -0.1500 
  5 C       -1.2630    -1.9120     0.4540 C.ar  1 <1>  -0.1500 
  6 C        2.5070    -0.0180    -0.6500 C.3   1 <1>  -0.1600 
  7 C       -3.4510    -0.4970    -0.4860 C.ar  1 <1>  -0.1500 
  8 C       -2.5440    -2.3760     0.6990 C.ar  1 <1>  -0.1500 
  9 C        3.8620    -0.6340    -0.2590 C.3   1 <1>  -0.1600 
 10 C       -3.6480    -1.6680     0.2280 C.ar  1 <1>   0.0830 
 11 C        5.0780     0.0800    -0.8630 C.3   1 <1>   0.3430 
 12 O       -4.9360    -2.0540     0.4250 O.3   1 <1>  -0.3620 
 13 N        5.1350     1.4920    -0.4080 N.4   1 <1>  -0.9590 
 14 C       -5.2430    -3.2290     1.1400 C.3   1 <1>   0.0400 
 15 C        4.5420     2.4820    -1.3680 C.3   1 <1>   0.3430 
 16 C        6.5040     1.9400     0.0130 C.3   1 <1>   0.3430 
 17 C        4.4660     3.8910    -0.7290 C.3   1 <1>   0.1100 
 18 C        6.4720     3.3880     0.5660 C.3   1 <1>   0.1100 
 19 N        5.0970     3.9370     0.6120 N.3   1 <1>  -0.8100 
 20 C        5.0790     5.2970     1.1660 C.3   1 <1>   0.0300 
 21 H        1.3450    -1.8430    -0.5910 H     1 <1>   0.0800 
 22 H        1.3340    -0.9290     0.9240 H     1 <1>   0.0800 
 23 H       -2.0210     0.8750    -1.2860 H     1 <1>   0.1500 
 24 H       -0.4340    -2.4790     0.8300 H     1 <1>   0.1500 
 25 H        2.4100     0.9650    -0.2240 H     1 <1>   0.0800 
 26 H        2.4380     0.0550    -1.7230 H     1 <1>   0.0800 
 27 H       -4.3050     0.0450    -0.8470 H     1 <1>   0.1500 
 28 H       -2.6650    -3.2850     1.2550 H     1 <1>   0.1500 
 29 H        3.8850    -1.6550    -0.6000 H     1 <1>   0.0800 
 30 H        3.9590    -0.6570     0.8130 H     1 <1>   0.0800 
 31 H        5.0330     0.0390    -1.9400 H     1 <1>   0.0800 
 32 H        5.9690    -0.4390    -0.5480 H     1 <1>   0.0800 
 33 H        4.5690     1.6130     0.4470 H     1 <1>   0.4500 
 34 H       -6.3120    -3.3320     1.1700 H     1 <1>   0.0800 
 35 H       -4.8560    -3.1410     2.1400 H     1 <1>   0.0800 
 36 H       -4.8090    -4.0710     0.6300 H     1 <1>   0.0800 
 37 H        3.5500     2.1770    -1.6580 H     1 <1>   0.0800 
 38 H        5.1420     2.5310    -2.2610 H     1 <1>   0.0800 
 39 H        7.1820     1.8950    -0.8230 H     1 <1>   0.0800 
 40 H        6.8830     1.2850     0.7800 H     1 <1>   0.0800 
 41 H        3.4310     4.1760    -0.6400 H     1 <1>   0.0800 
 42 H        4.9410     4.6010    -1.3850 H     1 <1>   0.0800 
 43 H        7.0960     4.0150    -0.0490 H     1 <1>   0.0800 
 44 H        6.8910     3.3900     1.5580 H     1 <1>   0.0800 
 45 H        4.0650     5.6550     1.2290 H     1 <1>   0.0800 
 46 H        5.6490     5.9700     0.5480 H     1 <1>   0.0800 
 47 H        5.4960     5.2970     2.1590 H     1 <1>   0.0800 
@<TRIPOS>BOND
  1   1   2  1   
  2   1   3  1   
  3   2   4  ar  
  4   2   5  ar  
  5   3   6  1   
  6   3  21  1   
  7   3  22  1   
  8   4   7  ar  
  9   4  23  1   
 10   5   8  ar  
 11   5  24  1   
 12   6   9  1   
 13   6  25  1   
 14   6  26  1   
 15   7  10  ar  
 16   7  27  1   
 17   8  10  ar  
 18   8  28  1   
 19   9  11  1   
 20   9  29  1   
 21   9  30  1   
 22  10  12  1   
 23  11  13  1   
 24  11  31  1   
 25  11  32  1   
 26  12  14  1   
 27  13  15  1   
 28  13  16  1   
 29  13  33  1   
 30  14  34  1   
 31  14  35  1   
 32  14  36  1   
 33  15  17  1   
 34  15  37  1   
 35  15  38  1   
 36  16  18  1   
 37  16  39  1   
 38  16  40  1   
 39  17  19  1   
 40  17  41  1   
 41  17  42  1   
 42  18  19  1   
 43  18  43  1   
 44  18  44  1   
 45  19  20  1   
 46  20  45  1   
 47  20  46  1   
 48  20  47  1   
@<TRIPOS>SUBSTRUCTURE
  1 ****   3 GROUP 4 **** **** 0

# MOE 2024.06 (io_trps.svl 2023.06)
