@<TRIPOS>MOLECULE
NONAME
32 33 1 0 0 
SMALL
USER_CHARGES


@<TRIPOS>ATOM
  1 O       -0.1630     1.2910     2.3010 O.2   1 <1>  -0.5700 
  2 C       -0.2960     2.1090     1.4150 C.2   1 <1>   0.5440 
  3 N        0.6540     3.0740     1.3110 N.am  1 <1>  -0.7300 
  4 C       -1.3970     2.0770     0.4680 C.ar  1 <1>   0.0860 
  5 C        0.7440     4.0210     0.1880 C.3   1 <1>   0.3000 
  6 C       -1.6060     3.1610    -0.3910 C.ar  1 <1>  -0.1440 
  7 C       -2.2570     0.9850     0.3640 C.ar  1 <1>  -0.1500 
  8 C       -0.6950     4.3830    -0.2630 C.3   1 <1>  -0.0160 
  9 C        1.5280     5.2710     0.6570 C.3   1 <1>  -0.1600 
 10 C        1.4840     3.3200    -0.9810 C.3   1 <1>  -0.1600 
 11 C       -2.6310     3.1400    -1.3210 C.ar  1 <1>  -0.1500 
 12 C       -3.2810     0.9630    -0.5640 C.ar  1 <1>  -0.1500 
 13 C        0.9470     6.0300     1.8660 C.3   1 <1>  -0.2400 
 14 C        2.8720     2.7320    -0.6630 C.3   1 <1>  -0.2400 
 15 C       -3.4680     2.0410    -1.4110 C.ar  1 <1>  -0.1500 
 16 H        1.4580     3.0050     1.9320 H     1 <1>   0.3700 
 17 H       -2.1110     0.1450     1.0220 H     1 <1>   0.1500 
 18 H       -0.6540     4.9150    -1.1960 H     1 <1>   0.0800 
 19 H       -1.1510     5.0360     0.4560 H     1 <1>   0.0800 
 20 H        1.6100     5.9570    -0.1670 H     1 <1>   0.0800 
 21 H        2.5280     4.9770     0.9170 H     1 <1>   0.0800 
 22 H        1.5920     4.0220    -1.7890 H     1 <1>   0.0800 
 23 H        0.8680     2.5200    -1.3520 H     1 <1>   0.0800 
 24 H       -2.7890     3.9770    -1.9790 H     1 <1>   0.1500 
 25 H       -3.9320     0.1080    -0.6280 H     1 <1>   0.1500 
 26 H        0.0150     6.5050     1.6230 H     1 <1>   0.0800 
 27 H        1.6350     6.7980     2.1740 H     1 <1>   0.0800 
 28 H        0.7910     5.3670     2.6990 H     1 <1>   0.0800 
 29 H        3.5730     3.4990    -0.3900 H     1 <1>   0.0800 
 30 H        3.2560     2.2280    -1.5320 H     1 <1>   0.0800 
 31 H        2.8100     2.0130     0.1350 H     1 <1>   0.0800 
 32 H       -4.2640     2.0260    -2.1350 H     1 <1>   0.1500 
@<TRIPOS>BOND
  1   1   2  2   
  2   2   3  am  
  3   2   4  1   
  4   3   5  1   
  5   3  16  1   
  6   4   6  ar  
  7   4   7  ar  
  8   5   8  1   
  9   5   9  1   
 10   5  10  1   
 11   6   8  1   
 12   6  11  ar  
 13   7  12  ar  
 14   7  17  1   
 15   8  18  1   
 16   8  19  1   
 17   9  13  1   
 18   9  20  1   
 19   9  21  1   
 20  10  14  1   
 21  10  22  1   
 22  10  23  1   
 23  11  15  ar  
 24  11  24  1   
 25  12  15  ar  
 26  12  25  1   
 27  13  26  1   
 28  13  27  1   
 29  13  28  1   
 30  14  29  1   
 31  14  30  1   
 32  14  31  1   
 33  15  32  1   
@<TRIPOS>SUBSTRUCTURE
  1 ****   6 GROUP 4 **** **** 0

# MOE 2024.06 (io_trps.svl 2023.06)
