@<TRIPOS>MOLECULE
NONAME
44 46 1 0 0 
SMALL
USER_CHARGES


@<TRIPOS>ATOM
  1 S       -1.3760     0.9210     1.2880 S.3   1 <1>  -0.0800 
  2 C       -1.9760     0.9720    -0.3640 C.2   1 <1>  -0.1400 
  3 C       -0.0240     1.9610     0.8770 C.2   1 <1>  -0.1100 
  4 C       -1.1740     1.7340    -1.1320 C.2   1 <1>  -0.1500 
  5 C       -3.2430     0.1950    -0.6740 C.3   1 <1>   0.2900 
  6 C       -0.0630     2.2970    -0.4250 C.2   1 <1>  -0.1500 
  7 N       -4.3830     0.7050     0.1140 N.3   1 <1>  -0.8100 
  8 C       -5.5840    -0.1330    -0.0450 C.3   1 <1>   0.1100 
  9 C       -4.6700     2.1300    -0.1490 C.3   1 <1>   0.1100 
 10 C       -6.7210     0.3520     0.8780 C.3   1 <1>   0.3430 
 11 C       -5.7920     2.6450     0.7740 C.3   1 <1>   0.3430 
 12 N       -7.0360     1.8090     0.6620 N.4   1 <1>  -0.9590 
 13 C       -8.0930     2.2960     1.5720 C.3   1 <1>   0.4810 
 14 C       -9.3950     1.6990     1.0980 C.2   1 <1>  -0.2880 
 15 C      -10.3340     2.3640     0.4020 C.2   1 <1>  -0.1780 
 16 C      -11.5960     1.8530    -0.0860 C.ar  1 <1>   0.0280 
 17 C      -12.2770     2.5330    -1.0930 C.ar  1 <1>  -0.1500 
 18 C      -12.1770     0.6890     0.4150 C.ar  1 <1>  -0.1500 
 19 C      -13.4820     2.0670    -1.5890 C.ar  1 <1>  -0.1500 
 20 C      -13.3810     0.2180    -0.0770 C.ar  1 <1>  -0.1500 
 21 C      -14.0350     0.9060    -1.0820 C.ar  1 <1>  -0.1500 
 22 H        0.6650     2.2110     1.6640 H     1 <1>   0.1500 
 23 H       -1.3080     1.9300    -2.1810 H     1 <1>   0.1500 
 24 H       -3.0710    -0.8410    -0.4320 H     1 <1>   0.0800 
 25 H       -3.4600     0.2650    -1.7270 H     1 <1>   0.0800 
 26 H        0.6520     2.9250    -0.9290 H     1 <1>   0.1500 
 27 H       -5.9140    -0.1190    -1.0700 H     1 <1>   0.0800 
 28 H       -5.3430    -1.1510     0.2140 H     1 <1>   0.0800 
 29 H       -3.7890     2.7200     0.0400 H     1 <1>   0.0800 
 30 H       -4.9470     2.2700    -1.1800 H     1 <1>   0.0800 
 31 H       -6.4150     0.1950     1.8990 H     1 <1>   0.0800 
 32 H       -7.5990    -0.2460     0.6970 H     1 <1>   0.0800 
 33 H       -6.0110     3.6700     0.5240 H     1 <1>   0.0800 
 34 H       -5.4260     2.6190     1.7870 H     1 <1>   0.0800 
 35 H       -7.4050     1.9050    -0.2910 H     1 <1>   0.4500 
 36 H       -7.8880     2.0160     2.5940 H     1 <1>   0.0800 
 37 H       -8.1570     3.3710     1.5140 H     1 <1>   0.0800 
 38 H       -9.5070     0.6660     1.3740 H     1 <1>   0.1500 
 39 H      -10.1790     3.3990     0.1470 H     1 <1>   0.1500 
 40 H      -11.8640     3.4370    -1.5010 H     1 <1>   0.1500 
 41 H      -11.6960     0.1420     1.2030 H     1 <1>   0.1500 
 42 H      -13.9910     2.6070    -2.3690 H     1 <1>   0.1500 
 43 H      -13.8130    -0.6830     0.3230 H     1 <1>   0.1500 
 44 H      -14.9720     0.5410    -1.4660 H     1 <1>   0.1500 
@<TRIPOS>BOND
  1   1   2  1   
  2   1   3  1   
  3   2   4  2   
  4   2   5  1   
  5   3   6  2   
  6   3  22  1   
  7   4   6  1   
  8   4  23  1   
  9   5   7  1   
 10   5  24  1   
 11   5  25  1   
 12   6  26  1   
 13   7   8  1   
 14   7   9  1   
 15   8  10  1   
 16   8  27  1   
 17   8  28  1   
 18   9  11  1   
 19   9  29  1   
 20   9  30  1   
 21  10  12  1   
 22  10  31  1   
 23  10  32  1   
 24  11  12  1   
 25  11  33  1   
 26  11  34  1   
 27  12  13  1   
 28  12  35  1   
 29  13  14  1   
 30  13  36  1   
 31  13  37  1   
 32  14  15  2   
 33  14  38  1   
 34  15  16  1   
 35  15  39  1   
 36  16  17  ar  
 37  16  18  ar  
 38  17  19  ar  
 39  17  40  1   
 40  18  20  ar  
 41  18  41  1   
 42  19  21  ar  
 43  19  42  1   
 44  20  21  ar  
 45  20  43  1   
 46  21  44  1   
@<TRIPOS>SUBSTRUCTURE
  1 ****  12 GROUP 4 **** **** 0

# MOE 2024.06 (io_trps.svl 2023.06)
