@<TRIPOS>MOLECULE
NONAME
46 47 1 0 0 
SMALL
USER_CHARGES


@<TRIPOS>ATOM
  1 S        0.7570     1.6040     1.3840 S.o2  1 <1>   1.3330 
  2 O        1.5550     2.3400     2.3370 O.2   1 <1>  -0.6500 
  3 O        1.3770     0.5380     0.6350 O.2   1 <1>  -0.6500 
  4 N        0.1780     2.7760     0.2570 N.am  1 <1>  -0.6930 
  5 C       -0.7280     1.0340     2.1840 C.3   1 <1>  -0.1350 
  6 C       -0.8850     2.4810    -0.5920 C.ar  1 <1>   0.1990 
  7 C        1.1760     3.7770    -0.2330 C.3   1 <1>   0.2570 
  8 C       -2.0970     3.1680    -0.4880 C.ar  1 <1>  -0.1440 
  9 C       -0.7530     1.4870    -1.5550 C.ar  1 <1>  -0.1500 
 10 C        2.2060     3.2020    -1.2220 C.2   1 <1>   0.5690 
 11 C       -3.1450     2.8420    -1.3330 C.ar  1 <1>  -0.1500 
 12 C       -2.2900     4.2760     0.5400 C.3   1 <1>  -0.0970 
 13 C       -1.8020     1.1670    -2.3950 C.ar  1 <1>  -0.1500 
 14 O        1.9770     3.3440    -2.4000 O.2   1 <1>  -0.5700 
 15 N        3.3510     2.5470    -0.8230 N.am  1 <1>  -0.6600 
 16 C       -3.0020     1.8450    -2.2830 C.ar  1 <1>  -0.1500 
 17 C        3.9920     1.5590    -1.7470 C.3   1 <1>   0.1400 
 18 C        3.9450     2.5830     0.5510 C.3   1 <1>   0.1400 
 19 C        5.5210     1.7150    -1.7660 C.3   1 <1>   0.3430 
 20 C        5.4790     2.7130     0.5000 C.3   1 <1>   0.3430 
 21 N        6.1060     1.6640    -0.3790 N.4   1 <1>  -0.9590 
 22 C        7.5930     1.7990    -0.4120 C.3   1 <1>   0.2630 
 23 H       -0.4860     0.3070     2.9340 H     1 <1>   0.0800 
 24 H       -1.3850     0.5810     1.4670 H     1 <1>   0.0800 
 25 H       -1.2370     1.8530     2.6500 H     1 <1>   0.0800 
 26 H        1.6710     4.2300     0.6040 H     1 <1>   0.0800 
 27 H        0.6440     4.5600    -0.7430 H     1 <1>   0.0800 
 28 H        0.1810     0.9630    -1.6530 H     1 <1>   0.1500 
 29 H       -4.0840     3.3640    -1.2630 H     1 <1>   0.1500 
 30 H       -2.0380     3.9230     1.5230 H     1 <1>   0.0800 
 31 H       -3.3100     4.6170     0.5560 H     1 <1>   0.0800 
 32 H       -1.6570     5.1110     0.2990 H     1 <1>   0.0800 
 33 H       -1.6850     0.3960    -3.1360 H     1 <1>   0.1500 
 34 H       -3.8220     1.6010    -2.9360 H     1 <1>   0.1500 
 35 H        3.6200     1.6790    -2.7500 H     1 <1>   0.0800 
 36 H        3.7300     0.5650    -1.4270 H     1 <1>   0.0800 
 37 H        3.6920     1.6760     1.0720 H     1 <1>   0.0800 
 38 H        3.5520     3.4100     1.1130 H     1 <1>   0.0800 
 39 H        5.7600     2.6580    -2.2290 H     1 <1>   0.0800 
 40 H        5.9440     0.9320    -2.3730 H     1 <1>   0.0800 
 41 H        5.8690     2.6320     1.5020 H     1 <1>   0.0800 
 42 H        5.7260     3.6930     0.1270 H     1 <1>   0.0800 
 43 H        5.8600     0.7460     0.0210 H     1 <1>   0.4500 
 44 H        7.8740     2.7530    -0.8280 H     1 <1>   0.0800 
 45 H        8.0270     1.0180    -1.0160 H     1 <1>   0.0800 
 46 H        7.9980     1.7240     0.5850 H     1 <1>   0.0800 
@<TRIPOS>BOND
  1   1   2  2   
  2   1   3  2   
  3   1   4  am  
  4   1   5  1   
  5   4   6  1   
  6   4   7  1   
  7   5  23  1   
  8   5  24  1   
  9   5  25  1   
 10   6   8  ar  
 11   6   9  ar  
 12   7  10  1   
 13   7  26  1   
 14   7  27  1   
 15   8  11  ar  
 16   8  12  1   
 17   9  13  ar  
 18   9  28  1   
 19  10  14  2   
 20  10  15  am  
 21  11  16  ar  
 22  11  29  1   
 23  12  30  1   
 24  12  31  1   
 25  12  32  1   
 26  13  16  ar  
 27  13  33  1   
 28  15  17  1   
 29  15  18  1   
 30  16  34  1   
 31  17  19  1   
 32  17  35  1   
 33  17  36  1   
 34  18  20  1   
 35  18  37  1   
 36  18  38  1   
 37  19  21  1   
 38  19  39  1   
 39  19  40  1   
 40  20  21  1   
 41  20  41  1   
 42  20  42  1   
 43  21  22  1   
 44  21  43  1   
 45  22  44  1   
 46  22  45  1   
 47  22  46  1   
@<TRIPOS>SUBSTRUCTURE
  1 ****  10 GROUP 4 **** **** 0

# MOE 2024.06 (io_trps.svl 2023.06)
