@<TRIPOS>MOLECULE
NONAME
42 43 1 0 0 
SMALL
USER_CHARGES


@<TRIPOS>ATOM
  1 S       -0.0950    -0.5240    -0.0680 S.3   1 <1>  -0.2860 
  2 C        1.5070     0.0100    -0.6800 C.2   1 <1>   0.2420 
  3 C       -0.8730    -1.2760    -1.5820 C.3   1 <1>   0.1310 
  4 N        1.8670    -0.1100    -1.9070 N.2   1 <1>  -0.3380 
  5 N        2.4320     0.5720     0.0980 N.pl3 1 <1>   0.0480 
  6 C       -2.3050    -1.7100    -1.3190 C.2   1 <1>   0.5690 
  7 N        3.1020     0.3960    -1.9720 N.2   1 <1>  -0.3380 
  8 C        3.4210     0.7920    -0.7830 C.2   1 <1>   0.0060 
  9 C        2.3610     0.8670     1.5460 C.3   1 <1>   0.0960 
 10 O       -2.7640    -2.5870    -2.0090 O.2   1 <1>  -0.5700 
 11 N       -3.0050    -1.0880    -0.3190 N.am  1 <1>  -0.5470 
 12 C        4.7590     1.4290    -0.4440 C.3   1 <1>   0.0200 
 13 C        1.7390     2.2460     1.7870 C.3   1 <1>  -0.2400 
 14 C       -4.3320    -1.2310     0.1160 C.ar  1 <1>   0.1170 
 15 C        5.7350     0.3970     0.1310 C.3   1 <1>  -0.2400 
 16 C       -5.3440    -1.7400    -0.6900 C.ar  1 <1>  -0.1500 
 17 C       -4.6540    -0.8270     1.4060 C.ar  1 <1>  -0.1500 
 18 C       -6.6440    -1.8490    -0.2260 C.ar  1 <1>   0.0820 
 19 C       -5.9490    -0.9310     1.8820 C.ar  1 <1>  -0.1500 
 20 O       -7.5620    -2.3560    -1.0870 O.3   1 <1>  -0.3620 
 21 C       -6.9470    -1.4410     1.0710 C.ar  1 <1>  -0.1500 
 22 C       -8.9030    -2.5520    -0.7000 C.3   1 <1>   0.0400 
 23 H       -0.2700    -2.1200    -1.8630 H     1 <1>   0.0800 
 24 H       -0.8440    -0.5360    -2.3600 H     1 <1>   0.0800 
 25 H        3.3520     0.8340     1.9610 H     1 <1>   0.0800 
 26 H        1.7720     0.1080     2.0280 H     1 <1>   0.0800 
 27 H       -2.4390    -0.4490     0.2400 H     1 <1>   0.3700 
 28 H        4.6190     2.2370     0.2510 H     1 <1>   0.0800 
 29 H        5.1800     1.8440    -1.3440 H     1 <1>   0.0800 
 30 H        2.3290     3.0140     1.3170 H     1 <1>   0.0800 
 31 H        1.6990     2.4480     2.8420 H     1 <1>   0.0800 
 32 H        0.7370     2.2790     1.3960 H     1 <1>   0.0800 
 33 H        5.3500    -0.0300     1.0390 H     1 <1>   0.0800 
 34 H        6.6830     0.8610     0.3400 H     1 <1>   0.0800 
 35 H        5.8890    -0.3940    -0.5820 H     1 <1>   0.0800 
 36 H       -5.1330    -2.0570    -1.6930 H     1 <1>   0.1500 
 37 H       -3.8880    -0.4310     2.0470 H     1 <1>   0.1500 
 38 H       -6.1810    -0.6160     2.8840 H     1 <1>   0.1500 
 39 H       -7.9440    -1.5120     1.4610 H     1 <1>   0.1500 
 40 H       -9.4320    -2.9770    -1.5340 H     1 <1>   0.0800 
 41 H       -9.3340    -1.6010    -0.4410 H     1 <1>   0.0800 
 42 H       -8.9300    -3.2300     0.1340 H     1 <1>   0.0800 
@<TRIPOS>BOND
  1   1   2  1   
  2   1   3  1   
  3   2   4  2   
  4   2   5  1   
  5   3   6  1   
  6   3  23  1   
  7   3  24  1   
  8   4   7  1   
  9   5   8  1   
 10   5   9  1   
 11   6  10  2   
 12   6  11  am  
 13   7   8  2   
 14   8  12  1   
 15   9  13  1   
 16   9  25  1   
 17   9  26  1   
 18  11  14  1   
 19  11  27  1   
 20  12  15  1   
 21  12  28  1   
 22  12  29  1   
 23  13  30  1   
 24  13  31  1   
 25  13  32  1   
 26  14  16  ar  
 27  14  17  ar  
 28  15  33  1   
 29  15  34  1   
 30  15  35  1   
 31  16  18  ar  
 32  16  36  1   
 33  17  19  ar  
 34  17  37  1   
 35  18  20  1   
 36  18  21  ar  
 37  19  21  ar  
 38  19  38  1   
 39  20  22  1   
 40  21  39  1   
 41  22  40  1   
 42  22  41  1   
 43  22  42  1   
@<TRIPOS>SUBSTRUCTURE
  1 ****   1 GROUP 4 **** **** 0

# MOE 2024.06 (io_trps.svl 2023.06)
