@<TRIPOS>MOLECULE
NONAME
46 47 1 0 0 
SMALL
USER_CHARGES


@<TRIPOS>ATOM
  1 O        0.4800    -0.0800    -0.3310 O.3   1 <1>  -0.3630 
  2 C       -0.7420    -0.6630    -0.2360 C.ar  1 <1>   0.0830 
  3 C        1.6670    -0.8200    -0.1410 C.3   1 <1>   0.1200 
  4 C       -0.9400    -2.0110     0.0490 C.ar  1 <1>  -0.1500 
  5 C       -1.8360     0.1640    -0.4430 C.ar  1 <1>  -0.1500 
  6 C        2.8460     0.1330    -0.3170 C.3   1 <1>   0.1200 
  7 C       -2.2340    -2.5210     0.1260 C.ar  1 <1>   0.0830 
  8 C       -3.1210    -0.3410    -0.3670 C.ar  1 <1>  -0.1500 
  9 O        4.0350    -0.5780    -0.1300 O.3   1 <1>  -0.5600 
 10 O       -2.5200    -3.8190     0.3990 O.3   1 <1>  -0.3630 
 11 C       -3.3160    -1.6810    -0.0830 C.ar  1 <1>  -0.1500 
 12 C        5.1830     0.1900    -0.2680 C.3   1 <1>   0.1200 
 13 C       -1.5020    -4.7670     0.6300 C.3   1 <1>   0.0400 
 14 C        6.3860    -0.7380    -0.0530 C.3   1 <1>   0.3430 
 15 N        7.7030    -0.0440    -0.2350 N.4   1 <1>  -0.9590 
 16 C        8.8030    -1.0510    -0.2950 C.3   1 <1>   0.3430 
 17 C        7.9610     0.9730     0.8310 C.3   1 <1>   0.3430 
 18 C       10.1250    -0.3540    -0.6220 C.3   1 <1>  -0.1600 
 19 C        9.2640     1.7170     0.5310 C.3   1 <1>  -0.1600 
 20 C       10.4490     0.7520     0.3910 C.3   1 <1>  -0.1600 
 21 H        1.7000    -1.6010    -0.8790 H     1 <1>   0.0800 
 22 H        1.6560    -1.2270     0.8540 H     1 <1>   0.0800 
 23 H       -0.1030    -2.6560     0.2100 H     1 <1>   0.1500 
 24 H       -1.6740     1.2030    -0.6630 H     1 <1>   0.1500 
 25 H        2.7920     0.9200     0.4160 H     1 <1>   0.0800 
 26 H        2.8380     0.5440    -1.3120 H     1 <1>   0.0800 
 27 H       -3.9660     0.3050    -0.5280 H     1 <1>   0.1500 
 28 H       -4.3100    -2.0850    -0.0220 H     1 <1>   0.1500 
 29 H        5.1560     0.9710     0.4730 H     1 <1>   0.0800 
 30 H        5.1960     0.6070    -1.2600 H     1 <1>   0.0800 
 31 H       -1.9680    -5.7160     0.8230 H     1 <1>   0.0800 
 32 H       -0.9280    -4.4610     1.4870 H     1 <1>   0.0800 
 33 H       -0.8830    -4.8350    -0.2470 H     1 <1>   0.0800 
 34 H        6.3090    -1.5450    -0.7630 H     1 <1>   0.0800 
 35 H        6.3300    -1.1560     0.9390 H     1 <1>   0.0800 
 36 H        7.7000     0.4450    -1.1400 H     1 <1>   0.4500 
 37 H        8.5910    -1.7870    -1.0540 H     1 <1>   0.0800 
 38 H        8.8890    -1.5570     0.6530 H     1 <1>   0.0800 
 39 H        8.0390     0.4860     1.7900 H     1 <1>   0.0800 
 40 H        7.1510     1.6830     0.8760 H     1 <1>   0.0800 
 41 H       10.0780     0.0590    -1.6150 H     1 <1>   0.0800 
 42 H       10.9180    -1.0820    -0.6160 H     1 <1>   0.0800 
 43 H        9.4650     2.4110     1.3280 H     1 <1>   0.0800 
 44 H        9.1490     2.2910    -0.3720 H     1 <1>   0.0800 
 45 H       11.3270     1.2930     0.0760 H     1 <1>   0.0800 
 46 H       10.6660     0.3090     1.3490 H     1 <1>   0.0800 
@<TRIPOS>BOND
  1   1   2  1   
  2   1   3  1   
  3   2   4  ar  
  4   2   5  ar  
  5   3   6  1   
  6   3  21  1   
  7   3  22  1   
  8   4   7  ar  
  9   4  23  1   
 10   5   8  ar  
 11   5  24  1   
 12   6   9  1   
 13   6  25  1   
 14   6  26  1   
 15   7  10  1   
 16   7  11  ar  
 17   8  11  ar  
 18   8  27  1   
 19   9  12  1   
 20  10  13  1   
 21  11  28  1   
 22  12  14  1   
 23  12  29  1   
 24  12  30  1   
 25  13  31  1   
 26  13  32  1   
 27  13  33  1   
 28  14  15  1   
 29  14  34  1   
 30  14  35  1   
 31  15  16  1   
 32  15  17  1   
 33  15  36  1   
 34  16  18  1   
 35  16  37  1   
 36  16  38  1   
 37  17  19  1   
 38  17  39  1   
 39  17  40  1   
 40  18  20  1   
 41  18  41  1   
 42  18  42  1   
 43  19  20  1   
 44  19  43  1   
 45  19  44  1   
 46  20  45  1   
 47  20  46  1   
@<TRIPOS>SUBSTRUCTURE
  1 ****   6 GROUP 4 **** **** 0

# MOE 2024.06 (io_trps.svl 2023.06)
