@<TRIPOS>MOLECULE
NONAME
41 42 1 0 0 
SMALL
USER_CHARGES


@<TRIPOS>ATOM
  1 CL      -0.2650    -1.3040     0.1290 Cl    1 <1>  -0.1770 
  2 C       -1.8850    -0.6570     0.1400 C.ar  1 <1>   0.1770 
  3 C       -2.1780     0.5600     0.7390 C.ar  1 <1>  -0.0090 
  4 C       -2.8630    -1.4120    -0.4780 C.ar  1 <1>  -0.1500 
  5 S       -0.8960     1.5460     1.5480 S.o2  1 <1>   1.4470 
  6 C       -3.4980     0.9960     0.6880 C.ar  1 <1>  -0.1500 
  7 C       -4.1620    -0.9480    -0.5090 C.ar  1 <1>   0.1770 
  8 O       -0.2010     0.7300     2.5180 O.2   1 <1>  -0.6500 
  9 O       -1.4600     2.8070     1.9750 O.2   1 <1>  -0.6500 
 10 N        0.1760     1.8950     0.2820 N.am  1 <1>  -0.8490 
 11 C       -4.5210     0.2750     0.0660 C.ar  1 <1>   0.0860 
 12 CL      -5.3350    -1.9750    -1.2960 Cl    1 <1>  -0.1770 
 13 C       -0.2300     3.0600    -0.5230 C.3   1 <1>   0.1960 
 14 C        1.5560     2.0840     0.7580 C.3   1 <1>   0.1960 
 15 C       -5.8670     0.8170     0.0530 C.2   1 <1>   0.5440 
 16 C        0.7680     3.3120    -1.6670 C.3   1 <1>   0.1200 
 17 C        2.5130     2.3810    -0.4110 C.3   1 <1>   0.1200 
 18 O       -6.2570     1.4420     1.0180 O.2   1 <1>  -0.5700 
 19 N       -6.6850     0.6740    -1.0350 N.am  1 <1>  -0.7300 
 20 O        2.0610     3.4760    -1.1580 O.3   1 <1>  -0.5600 
 21 C       -8.0720     1.1450    -1.2210 C.3   1 <1>   0.2200 
 22 C       -8.1350     2.6690    -1.1490 C.3   1 <1>  -0.2400 
 23 C       -8.9940     0.4790    -0.2020 C.3   1 <1>  -0.2400 
 24 H       -2.6110    -2.3550    -0.9280 H     1 <1>   0.1500 
 25 H       -3.7530     1.9370     1.1530 H     1 <1>   0.1500 
 26 H       -0.2750     3.9430     0.0930 H     1 <1>   0.0800 
 27 H       -1.2080     2.8910    -0.9380 H     1 <1>   0.0800 
 28 H        1.8930     1.1910     1.2570 H     1 <1>   0.0800 
 29 H        1.5950     2.8960     1.4660 H     1 <1>   0.0800 
 30 H        0.5080     4.2100    -2.1990 H     1 <1>   0.0800 
 31 H        0.7720     2.4860    -2.3580 H     1 <1>   0.0800 
 32 H        2.5870     1.5270    -1.0620 H     1 <1>   0.0800 
 33 H        3.4930     2.6200    -0.0390 H     1 <1>   0.0800 
 34 H       -6.3850     0.0260    -1.7650 H     1 <1>   0.3700 
 35 H       -8.3910     0.8460    -2.2060 H     1 <1>   0.0800 
 36 H       -7.8870     3.0180    -0.1630 H     1 <1>   0.0800 
 37 H       -9.1290     3.0040    -1.3820 H     1 <1>   0.0800 
 38 H       -7.4550     3.1020    -1.8590 H     1 <1>   0.0800 
 39 H       -8.7450     0.7860     0.7970 H     1 <1>   0.0800 
 40 H       -8.9170    -0.5910    -0.2740 H     1 <1>   0.0800 
 41 H      -10.0130     0.7600    -0.3950 H     1 <1>   0.0800 
@<TRIPOS>BOND
  1   1   2  1   
  2   2   3  ar  
  3   2   4  ar  
  4   3   5  1   
  5   3   6  ar  
  6   4   7  ar  
  7   4  24  1   
  8   5   8  2   
  9   5   9  2   
 10   5  10  am  
 11   6  11  ar  
 12   6  25  1   
 13   7  11  ar  
 14   7  12  1   
 15  10  13  1   
 16  10  14  1   
 17  11  15  1   
 18  13  16  1   
 19  13  26  1   
 20  13  27  1   
 21  14  17  1   
 22  14  28  1   
 23  14  29  1   
 24  15  18  2   
 25  15  19  am  
 26  16  20  1   
 27  16  30  1   
 28  16  31  1   
 29  17  20  1   
 30  17  32  1   
 31  17  33  1   
 32  19  21  1   
 33  19  34  1   
 34  21  22  1   
 35  21  23  1   
 36  21  35  1   
 37  22  36  1   
 38  22  37  1   
 39  22  38  1   
 40  23  39  1   
 41  23  40  1   
 42  23  41  1   
@<TRIPOS>SUBSTRUCTURE
  1 ****   6 GROUP 4 **** **** 0

# MOE 2024.06 (io_trps.svl 2023.06)
