@<TRIPOS>MOLECULE
NONAME
40 41 1 0 0 
SMALL
USER_CHARGES


@<TRIPOS>ATOM
  1 O       -0.5810     0.2800     0.0130 O.3   1 <1>  -0.3630 
  2 C        0.6590     0.8340     0.0150 C.ar  1 <1>   0.0830 
  3 C       -1.7380     1.0830     0.0090 C.3   1 <1>   0.1200 
  4 C        1.7310    -0.0420     0.0200 C.ar  1 <1>  -0.1500 
  5 C        0.8970     2.2070     0.0130 C.ar  1 <1>  -0.1500 
  6 C       -2.9560     0.1590     0.0070 C.3   1 <1>  -0.1600 
  7 C        3.0280     0.4380     0.0220 C.ar  1 <1>  -0.1500 
  8 C        2.1960     2.6880     0.0150 C.ar  1 <1>  -0.1500 
  9 C       -4.2630     0.9640     0.0010 C.3   1 <1>  -0.1600 
 10 C        3.2710     1.8020     0.0200 C.ar  1 <1>   0.0830 
 11 C       -5.4810     0.0410    -0.0010 C.3   1 <1>   0.1200 
 12 O        4.5730     2.1910     0.0220 O.3   1 <1>  -0.3630 
 13 O       -6.6380     0.8440    -0.0060 O.3   1 <1>  -0.3630 
 14 C        4.9250     3.5570     0.0200 C.3   1 <1>   0.0400 
 15 C       -7.8780     0.2950    -0.0100 C.ar  1 <1>   0.0830 
 16 C       -8.9490     1.1740    -0.0160 C.ar  1 <1>  -0.1500 
 17 C       -8.1190    -1.0770    -0.0080 C.ar  1 <1>  -0.1500 
 18 C      -10.2480     0.6990    -0.0200 C.ar  1 <1>  -0.1500 
 19 C       -9.4200    -1.5510    -0.0110 C.ar  1 <1>  -0.1500 
 20 C      -10.4840    -0.6650    -0.0170 C.ar  1 <1>  -0.1500 
 21 H       -1.7230     1.6960    -0.8770 H     1 <1>   0.0800 
 22 H       -1.7280     1.6990     0.8910 H     1 <1>   0.0800 
 23 H        1.5440    -1.1010     0.0210 H     1 <1>   0.1500 
 24 H        0.0890     2.9130     0.0100 H     1 <1>   0.1500 
 25 H       -2.9210    -0.4640     0.8830 H     1 <1>   0.0800 
 26 H       -2.9160    -0.4680    -0.8670 H     1 <1>   0.0800 
 27 H        3.8610    -0.2420     0.0250 H     1 <1>   0.1500 
 28 H        2.3510     3.7500     0.0130 H     1 <1>   0.1500 
 29 H       -4.2980     1.5880    -0.8750 H     1 <1>   0.0800 
 30 H       -4.3030     1.5910     0.8750 H     1 <1>   0.0800 
 31 H       -5.4980    -0.5720     0.8840 H     1 <1>   0.0800 
 32 H       -5.4920    -0.5750    -0.8840 H     1 <1>   0.0800 
 33 H        5.9980     3.6240     0.0220 H     1 <1>   0.0800 
 34 H        4.5280     4.0210     0.9050 H     1 <1>   0.0800 
 35 H        4.5320     4.0170    -0.8690 H     1 <1>   0.0800 
 36 H       -8.7560     2.2320    -0.0170 H     1 <1>   0.1500 
 37 H       -7.3150    -1.7870    -0.0030 H     1 <1>   0.1500 
 38 H      -11.0730     1.3900    -0.0240 H     1 <1>   0.1500 
 39 H       -9.6070    -2.6110    -0.0100 H     1 <1>   0.1500 
 40 H      -11.4940    -1.0360    -0.0200 H     1 <1>   0.1500 
@<TRIPOS>BOND
  1   1   2  1   
  2   1   3  1   
  3   2   4  ar  
  4   2   5  ar  
  5   3   6  1   
  6   3  21  1   
  7   3  22  1   
  8   4   7  ar  
  9   4  23  1   
 10   5   8  ar  
 11   5  24  1   
 12   6   9  1   
 13   6  25  1   
 14   6  26  1   
 15   7  10  ar  
 16   7  27  1   
 17   8  10  ar  
 18   8  28  1   
 19   9  11  1   
 20   9  29  1   
 21   9  30  1   
 22  10  12  1   
 23  11  13  1   
 24  11  31  1   
 25  11  32  1   
 26  12  14  1   
 27  13  15  1   
 28  14  33  1   
 29  14  34  1   
 30  14  35  1   
 31  15  16  ar  
 32  15  17  ar  
 33  16  18  ar  
 34  16  36  1   
 35  17  19  ar  
 36  17  37  1   
 37  18  20  ar  
 38  18  38  1   
 39  19  20  ar  
 40  19  39  1   
 41  20  40  1   
@<TRIPOS>SUBSTRUCTURE
  1 ****   6 GROUP 4 **** **** 0

# MOE 2024.06 (io_trps.svl 2023.06)
