@<TRIPOS>MOLECULE
NONAME
41 45 1 0 0 
SMALL
USER_CHARGES


@<TRIPOS>ATOM
  1 O       -0.0190    -0.3820    -0.8460 O.3   1 <1>  -0.0190 
  2 N       -1.3140    -0.4110    -0.8690 N.2   1 <1>  -0.4100 
  3 C        0.3240    -1.5390    -0.3390 C.2   1 <1>   0.2980 
  4 C       -1.6920    -1.5430    -0.3920 C.2   1 <1>   0.4620 
  5 N       -0.6490    -2.3000    -0.0370 N.2   1 <1>  -0.5650 
  6 C        1.8210    -1.8390    -0.1690 C.3   1 <1>   0.1800 
  7 C       -3.0700    -1.9830    -0.2400 C.ar  1 <1>   0.0540 
  8 C        2.5330    -1.7860    -1.5410 C.3   1 <1>  -0.1600 
  9 C        2.0520    -3.2440     0.4430 C.3   1 <1>  -0.1600 
 10 C        2.4710    -0.7920     0.7670 C.3   1 <1>  -0.1600 
 11 C       -3.3880    -3.2350     0.2910 C.ar  1 <1>  -0.1500 
 12 C       -4.1370    -1.1650    -0.6200 C.ar  1 <1>  -0.1500 
 13 C        4.0410    -2.0640    -1.3870 C.3   1 <1>  -0.0800 
 14 C        3.5560    -3.5320     0.6080 C.3   1 <1>  -0.0800 
 15 C        3.9780    -1.0660     0.9320 C.3   1 <1>  -0.0800 
 16 C       -4.6990    -3.6510     0.4340 C.ar  1 <1>  -0.1500 
 17 C       -5.4510    -1.5740    -0.4800 C.ar  1 <1>  -0.1500 
 18 C        4.2370    -3.4620    -0.7720 C.3   1 <1>  -0.1600 
 19 C        4.6560    -1.0080    -0.4500 C.3   1 <1>  -0.1600 
 20 C        4.1740    -2.4690     1.5340 C.3   1 <1>  -0.1600 
 21 C       -5.7350    -2.8200     0.0480 C.ar  1 <1>  -0.1500 
 22 H        2.3950    -0.8170    -1.9880 H     1 <1>   0.0800 
 23 H        2.0960    -2.5140    -2.2020 H     1 <1>   0.0800 
 24 H        1.6100    -3.9920    -0.1920 H     1 <1>   0.0800 
 25 H        1.5670    -3.3060     1.4010 H     1 <1>   0.0800 
 26 H        1.9890    -0.8210     1.7290 H     1 <1>   0.0800 
 27 H        2.3310     0.1960     0.3640 H     1 <1>   0.0800 
 28 H       -2.5950    -3.8950     0.5960 H     1 <1>   0.1500 
 29 H       -3.9330    -0.1930    -1.0330 H     1 <1>   0.1500 
 30 H        4.5200    -2.0200    -2.3500 H     1 <1>   0.0800 
 31 H        3.6950    -4.5120     1.0330 H     1 <1>   0.0800 
 32 H        4.4140    -0.3270     1.5830 H     1 <1>   0.0800 
 33 H       -4.9150    -4.6220     0.8460 H     1 <1>   0.1500 
 34 H       -6.2530    -0.9230    -0.7820 H     1 <1>   0.1500 
 35 H        5.2880    -3.6700    -0.6700 H     1 <1>   0.0800 
 36 H        3.8190    -4.2100    -1.4240 H     1 <1>   0.0800 
 37 H        4.5350    -0.0270    -0.8760 H     1 <1>   0.0800 
 38 H        5.7120    -1.1870    -0.3440 H     1 <1>   0.0800 
 39 H        5.2250    -2.6660     1.6630 H     1 <1>   0.0800 
 40 H        3.7130    -2.5180     2.5050 H     1 <1>   0.0800 
 41 H       -6.7570    -3.1400     0.1590 H     1 <1>   0.1500 
@<TRIPOS>BOND
  1   1   2  1   
  2   1   3  1   
  3   2   4  2   
  4   3   5  2   
  5   3   6  1   
  6   4   5  1   
  7   4   7  1   
  8   6   8  1   
  9   6   9  1   
 10   6  10  1   
 11   7  11  ar  
 12   7  12  ar  
 13   8  13  1   
 14   8  22  1   
 15   8  23  1   
 16   9  14  1   
 17   9  24  1   
 18   9  25  1   
 19  10  15  1   
 20  10  26  1   
 21  10  27  1   
 22  11  16  ar  
 23  11  28  1   
 24  12  17  ar  
 25  12  29  1   
 26  13  18  1   
 27  13  19  1   
 28  13  30  1   
 29  14  18  1   
 30  14  20  1   
 31  14  31  1   
 32  15  19  1   
 33  15  20  1   
 34  15  32  1   
 35  16  21  ar  
 36  16  33  1   
 37  17  21  ar  
 38  17  34  1   
 39  18  35  1   
 40  18  36  1   
 41  19  37  1   
 42  19  38  1   
 43  20  39  1   
 44  20  40  1   
 45  21  41  1   
@<TRIPOS>SUBSTRUCTURE
  1 ****   3 GROUP 4 **** **** 0

# MOE 2024.06 (io_trps.svl 2023.06)
