@<TRIPOS>MOLECULE
NONAME
39 40 1 0 0 
SMALL
USER_CHARGES


@<TRIPOS>ATOM
  1 O       -1.3200     1.0380    -1.2640 O.2   1 <1>  -0.5700 
  2 C       -2.1290     1.6650    -0.5950 C.2   1 <1>   0.5440 
  3 N       -3.2350     1.0490    -0.0750 N.am  1 <1>  -0.4210 
  4 C       -1.9060     3.0700    -0.3280 C.ar  1 <1>   0.0860 
  5 N       -3.6500    -0.3490    -0.2860 N.3   1 <1>  -0.5490 
  6 C       -0.6350     3.5510    -0.0250 C.ar  1 <1>  -0.1500 
  7 C       -2.9480     3.9970    -0.3590 C.ar  1 <1>  -0.1500 
  8 C       -5.0720    -0.3340    -0.7210 C.3   1 <1>   0.1100 
  9 C       -3.5040    -1.0550     1.0140 C.3   1 <1>   0.1100 
 10 C       -0.3990     4.8840     0.2530 C.ar  1 <1>   0.0830 
 11 C       -2.7360     5.3340    -0.0760 C.ar  1 <1>  -0.1500 
 12 C       -5.5770    -1.7690    -0.9090 C.3   1 <1>  -0.1600 
 13 C       -3.9650    -2.5100     0.8750 C.3   1 <1>  -0.1600 
 14 O        0.8930     5.2060     0.5320 O.3   1 <1>  -0.3630 
 15 C       -1.4630     5.7990     0.2450 C.ar  1 <1>   0.0830 
 16 C       -5.4140    -2.5930     0.3750 C.3   1 <1>  -0.1600 
 17 C        1.4620     6.3710    -0.0250 C.3   1 <1>   0.0400 
 18 O       -1.2370     7.1030     0.5620 O.3   1 <1>  -0.3630 
 19 C       -2.2750     8.0520     0.6640 C.3   1 <1>   0.0400 
 20 H       -3.8100     1.5840     0.5780 H     1 <1>   0.3700 
 21 H        0.1920     2.8620    -0.0090 H     1 <1>   0.1500 
 22 H       -3.9400     3.6670    -0.6170 H     1 <1>   0.1500 
 23 H       -5.1450     0.1960    -1.6550 H     1 <1>   0.0800 
 24 H       -5.6760     0.1720     0.0120 H     1 <1>   0.0800 
 25 H       -4.0830    -0.5570     1.7710 H     1 <1>   0.0800 
 26 H       -2.4670    -1.0350     1.3040 H     1 <1>   0.0800 
 27 H       -3.5780     6.0000    -0.1120 H     1 <1>   0.1500 
 28 H       -5.0180    -2.2270    -1.7080 H     1 <1>   0.0800 
 29 H       -6.6120    -1.7510    -1.2010 H     1 <1>   0.0800 
 30 H       -3.8790    -3.0060     1.8260 H     1 <1>   0.0800 
 31 H       -3.3120    -3.0110     0.1820 H     1 <1>   0.0800 
 32 H       -5.6780    -3.6190     0.1880 H     1 <1>   0.0800 
 33 H       -6.0760    -2.2090     1.1320 H     1 <1>   0.0800 
 34 H        2.5280     6.2380    -0.0610 H     1 <1>   0.0800 
 35 H        1.2220     7.2090     0.6020 H     1 <1>   0.0800 
 36 H        1.0740     6.5130    -1.0180 H     1 <1>   0.0800 
 37 H       -1.8410     8.9900     0.9620 H     1 <1>   0.0800 
 38 H       -2.9780     7.7230     1.4100 H     1 <1>   0.0800 
 39 H       -2.7480     8.1590    -0.2950 H     1 <1>   0.0800 
@<TRIPOS>BOND
  1   1   2  2   
  2   2   3  am  
  3   2   4  1   
  4   3   5  1   
  5   3  20  1   
  6   4   6  ar  
  7   4   7  ar  
  8   5   8  1   
  9   5   9  1   
 10   6  10  ar  
 11   6  21  1   
 12   7  11  ar  
 13   7  22  1   
 14   8  12  1   
 15   8  23  1   
 16   8  24  1   
 17   9  13  1   
 18   9  25  1   
 19   9  26  1   
 20  10  14  1   
 21  10  15  ar  
 22  11  15  ar  
 23  11  27  1   
 24  12  16  1   
 25  12  28  1   
 26  12  29  1   
 27  13  16  1   
 28  13  30  1   
 29  13  31  1   
 30  14  17  1   
 31  15  18  1   
 32  16  32  1   
 33  16  33  1   
 34  17  34  1   
 35  17  35  1   
 36  17  36  1   
 37  18  19  1   
 38  19  37  1   
 39  19  38  1   
 40  19  39  1   
@<TRIPOS>SUBSTRUCTURE
  1 ****   4 GROUP 4 **** **** 0

# MOE 2024.06 (io_trps.svl 2023.06)
