@<TRIPOS>MOLECULE
NONAME
40 41 1 0 0 
SMALL
USER_CHARGES


@<TRIPOS>ATOM
  1 CL      -1.7170     0.4760     1.3900 Cl    1 <1>  -0.1770 
  2 C       -0.9020     1.8850     0.7560 C.ar  1 <1>   0.1770 
  3 C       -1.4590     2.5660    -0.3140 C.ar  1 <1>  -0.1440 
  4 C        0.2810     2.3010     1.3460 C.ar  1 <1>  -0.1500 
  5 C       -0.7880     3.6860    -0.7680 C.ar  1 <1>   0.1900 
  6 C       -2.7410     2.1000    -0.9700 C.3   1 <1>   0.4860 
  7 C        0.9310     3.4280     0.8640 C.ar  1 <1>  -0.1500 
  8 F       -1.2990     4.3590    -1.7640 F     1 <1>  -0.1900 
  9 C        0.3940     4.1310    -0.2030 C.ar  1 <1>  -0.1500 
 10 N       -3.8970     2.3370    -0.0400 N.4   1 <1>  -0.9590 
 11 C       -5.1410     1.5810    -0.4120 C.3   1 <1>   0.4230 
 12 C       -4.1000     3.8250     0.0880 C.3   1 <1>   0.2630 
 13 C       -6.2750     1.8970     0.5780 C.3   1 <1>  -0.1600 
 14 C       -4.8710     0.0660    -0.4120 C.3   1 <1>  -0.1600 
 15 C       -7.5250     1.0560     0.3150 C.3   1 <1>   0.3430 
 16 C       -6.1420    -0.7490    -0.6610 C.3   1 <1>   0.3430 
 17 N       -7.1800    -0.3910     0.3430 N.4   1 <1>  -0.9590 
 18 C       -8.4110    -1.2240     0.1360 C.3   1 <1>   0.2630 
 19 H        0.6910     1.7500     2.1750 H     1 <1>   0.1500 
 20 H       -2.6350     1.0510    -1.1880 H     1 <1>   0.0800 
 21 H       -2.8950     2.6230    -1.9000 H     1 <1>   0.0800 
 22 H        1.8530     3.7560     1.3170 H     1 <1>   0.1500 
 23 H        0.8850     5.0080    -0.5900 H     1 <1>   0.1500 
 24 H       -3.5730     1.9900     0.8770 H     1 <1>   0.4500 
 25 H       -5.4530     1.8800    -1.4010 H     1 <1>   0.0800 
 26 H       -4.4420     4.2420    -0.8450 H     1 <1>   0.0800 
 27 H       -3.1750     4.3110     0.3570 H     1 <1>   0.0800 
 28 H       -4.8220     4.0490     0.8550 H     1 <1>   0.0800 
 29 H       -6.5710     2.9260     0.4880 H     1 <1>   0.0800 
 30 H       -5.9510     1.7270     1.5900 H     1 <1>   0.0800 
 31 H       -4.4470    -0.2420     0.5280 H     1 <1>   0.0800 
 32 H       -4.1820    -0.1950    -1.1930 H     1 <1>   0.0800 
 33 H       -7.9420     1.3120    -0.6470 H     1 <1>   0.0800 
 34 H       -8.2690     1.2710     1.0670 H     1 <1>   0.0800 
 35 H       -5.9130    -1.8020    -0.5930 H     1 <1>   0.0800 
 36 H       -6.5130    -0.5520    -1.6550 H     1 <1>   0.0800 
 37 H       -6.8210    -0.6250     1.2830 H     1 <1>   0.4500 
 38 H       -8.8420    -1.0290    -0.8330 H     1 <1>   0.0800 
 39 H       -9.1490    -0.9990     0.8900 H     1 <1>   0.0800 
 40 H       -8.1720    -2.2730     0.2000 H     1 <1>   0.0800 
@<TRIPOS>BOND
  1   1   2  1   
  2   2   3  ar  
  3   2   4  ar  
  4   3   5  ar  
  5   3   6  1   
  6   4   7  ar  
  7   4  19  1   
  8   5   8  1   
  9   5   9  ar  
 10   6  10  1   
 11   6  20  1   
 12   6  21  1   
 13   7   9  ar  
 14   7  22  1   
 15   9  23  1   
 16  10  11  1   
 17  10  12  1   
 18  10  24  1   
 19  11  13  1   
 20  11  14  1   
 21  11  25  1   
 22  12  26  1   
 23  12  27  1   
 24  12  28  1   
 25  13  15  1   
 26  13  29  1   
 27  13  30  1   
 28  14  16  1   
 29  14  31  1   
 30  14  32  1   
 31  15  17  1   
 32  15  33  1   
 33  15  34  1   
 34  16  17  1   
 35  16  35  1   
 36  16  36  1   
 37  17  18  1   
 38  17  37  1   
 39  18  38  1   
 40  18  39  1   
 41  18  40  1   
@<TRIPOS>SUBSTRUCTURE
  1 ****  10 GROUP 4 **** **** 0

# MOE 2024.06 (io_trps.svl 2023.06)
