@<TRIPOS>MOLECULE
NONAME
47 48 1 0 0 
SMALL
USER_CHARGES


@<TRIPOS>ATOM
  1 S       -0.2320     0.6040    -0.8450 S.3   1 <1>  -0.4600 
  2 C       -2.0190     0.9130    -0.7960 C.3   1 <1>   0.0700 
  3 C       -0.0180    -0.3640    -2.3620 C.3   1 <1>  -0.0100 
  4 C       -2.3220     1.7600     0.4360 C.3   1 <1>   0.1200 
  5 O       -3.7200     1.9530     0.5130 O.3   1 <1>  -0.4300 
  6 C       -4.2720     2.6950     1.4790 C.2   1 <1>   0.7060 
  7 O       -3.5390     3.1970     2.3100 O.2   1 <1>  -0.5700 
  8 C       -5.6900     2.8760     1.4850 C.2   1 <1>  -0.1240 
  9 C       -6.6630     2.0390     1.0280 C.2   1 <1>  -0.0290 
 10 C       -6.0830     4.2230     2.0970 C.3   1 <1>   0.5020 
 11 N       -7.9910     2.4030     1.1140 N.am  1 <1>  -0.5390 
 12 C       -6.4510     0.6640     0.4130 C.3   1 <1>  -0.1020 
 13 N       -7.5430     4.3760     2.2500 N.am  1 <1>  -0.7300 
 14 C       -5.5790     5.3770     1.2330 C.ar  1 <1>  -0.1430 
 15 C       -8.4370     3.5420     1.6970 C.2   1 <1>   0.6900 
 16 C       -6.1070     5.6040    -0.0300 C.ar  1 <1>  -0.1500 
 17 C       -4.5740     6.2130     1.6950 C.ar  1 <1>  -0.1500 
 18 O       -9.6180     3.8030     1.7050 O.2   1 <1>  -0.5700 
 19 C       -5.6570     6.6460    -0.8240 C.ar  1 <1>   0.0820 
 20 C       -4.1050     7.2520     0.9110 C.ar  1 <1>  -0.1500 
 21 O       -6.2730     6.7590    -2.0340 O.3   1 <1>  -0.3630 
 22 C       -4.6300     7.4810    -0.3590 C.ar  1 <1>   0.0820 
 23 C       -6.5720     8.0310    -2.5640 C.3   1 <1>   0.0400 
 24 O       -4.1530     8.4810    -1.1560 O.3   1 <1>  -0.3630 
 25 C       -2.9560     9.1650    -0.8570 C.3   1 <1>   0.0400 
 26 H       -2.5060    -0.0440    -0.7430 H     1 <1>   0.0800 
 27 H       -2.2810     1.4310    -1.7010 H     1 <1>   0.0800 
 28 H        1.0290    -0.5870    -2.4620 H     1 <1>   0.0800 
 29 H       -0.3630     0.2310    -3.1890 H     1 <1>   0.0800 
 30 H       -0.5930    -1.2670    -2.2660 H     1 <1>   0.0800 
 31 H       -1.8450     2.7230     0.3600 H     1 <1>   0.0800 
 32 H       -1.9960     1.2610     1.3320 H     1 <1>   0.0800 
 33 H       -5.6500     4.2960     3.0810 H     1 <1>   0.0800 
 34 H       -8.7370     1.8170     0.7390 H     1 <1>   0.3700 
 35 H       -7.1850    -0.0260     0.7910 H     1 <1>   0.0800 
 36 H       -5.4850     0.2610     0.6490 H     1 <1>   0.0800 
 37 H       -6.5520     0.7240    -0.6560 H     1 <1>   0.0800 
 38 H       -7.8780     5.3040     2.4990 H     1 <1>   0.3700 
 39 H       -6.8860     4.9690    -0.4150 H     1 <1>   0.1500 
 40 H       -4.1400     6.0530     2.6680 H     1 <1>   0.1500 
 41 H       -3.3250     7.8700     1.3120 H     1 <1>   0.1500 
 42 H       -7.3790     7.9200    -3.2650 H     1 <1>   0.0800 
 43 H       -5.7020     8.4100    -3.0690 H     1 <1>   0.0800 
 44 H       -6.8650     8.6870    -1.7640 H     1 <1>   0.0800 
 45 H       -2.1650     8.4460    -0.7330 H     1 <1>   0.0800 
 46 H       -3.0970     9.7440     0.0380 H     1 <1>   0.0800 
 47 H       -2.7300     9.8180    -1.6810 H     1 <1>   0.0800 
@<TRIPOS>BOND
  1   1   2  1   
  2   1   3  1   
  3   2   4  1   
  4   2  26  1   
  5   2  27  1   
  6   3  28  1   
  7   3  29  1   
  8   3  30  1   
  9   4   5  1   
 10   4  31  1   
 11   4  32  1   
 12   5   6  1   
 13   6   7  2   
 14   6   8  1   
 15   8   9  2   
 16   8  10  1   
 17   9  11  1   
 18   9  12  1   
 19  10  13  1   
 20  10  14  1   
 21  10  33  1   
 22  11  15  am  
 23  11  34  1   
 24  12  35  1   
 25  12  36  1   
 26  12  37  1   
 27  13  15  am  
 28  13  38  1   
 29  14  16  ar  
 30  14  17  ar  
 31  15  18  2   
 32  16  19  ar  
 33  16  39  1   
 34  17  20  ar  
 35  17  40  1   
 36  19  21  1   
 37  19  22  ar  
 38  20  22  ar  
 39  20  41  1   
 40  21  23  1   
 41  22  24  1   
 42  23  42  1   
 43  23  43  1   
 44  23  44  1   
 45  24  25  1   
 46  25  45  1   
 47  25  46  1   
 48  25  47  1   
@<TRIPOS>SUBSTRUCTURE
  1 ****  14 GROUP 4 **** **** 0

# MOE 2024.06 (io_trps.svl 2023.06)
