@<TRIPOS>MOLECULE
NONAME
36 37 1 0 0 
SMALL
USER_CHARGES


@<TRIPOS>ATOM
  1 S       -0.0450     0.1110    -0.6830 S.3   1 <1>  -0.0800 
  2 C        1.1000     0.5350     0.5520 C.2   1 <1>   0.4420 
  3 C       -1.2950     0.3940     0.4800 C.2   1 <1>   0.1980 
  4 N        0.5290     0.8360     1.6590 N.2   1 <1>  -0.3380 
  5 N        2.4610     0.5370     0.3320 N.am  1 <1>  -0.4940 
  6 N       -0.8350     0.7540     1.6120 N.2   1 <1>  -0.3380 
  7 C       -2.7380     0.1860     0.0270 C.3   1 <1>   0.1000 
  8 C        3.2030     0.2400    -0.7740 C.2   1 <1>   0.5690 
  9 C       -3.7320     0.9200     0.9390 C.3   1 <1>  -0.2400 
 10 C       -3.0780    -1.3100    -0.0190 C.3   1 <1>  -0.2400 
 11 O        2.7330    -0.1060    -1.8260 O.2   1 <1>  -0.5700 
 12 C        4.7070     0.3490    -0.6620 C.3   1 <1>  -0.0990 
 13 C        5.3160    -0.9680    -0.1660 C.3   1 <1>   0.0200 
 14 C        6.8200    -0.8760     0.0170 C.2   1 <1>  -0.0400 
 15 O        7.4320    -1.9130     0.5520 O.3   1 <1>  -0.2800 
 16 C        7.7120     0.0990    -0.2680 C.2   1 <1>  -0.1500 
 17 C        8.7170    -1.6320     0.6220 C.2   1 <1>  -0.0400 
 18 C        8.9580    -0.3990     0.1300 C.2   1 <1>  -0.1500 
 19 C        9.6530    -2.6680     1.2020 C.3   1 <1>  -0.0600 
 20 H        2.9830     0.8100     1.1600 H     1 <1>   0.3700 
 21 H       -2.8350     0.5920    -0.9650 H     1 <1>   0.0800 
 22 H       -3.6770     0.5340     1.9420 H     1 <1>   0.0800 
 23 H       -4.7370     0.8000     0.5750 H     1 <1>   0.0800 
 24 H       -3.5000     1.9700     0.9650 H     1 <1>   0.0800 
 25 H       -2.9730    -1.7450     0.9590 H     1 <1>   0.0800 
 26 H       -2.4170    -1.8220    -0.6950 H     1 <1>   0.0800 
 27 H       -4.0890    -1.4550    -0.3570 H     1 <1>   0.0800 
 28 H        4.9630     1.1490     0.0080 H     1 <1>   0.0800 
 29 H        5.1080     0.5830    -1.6320 H     1 <1>   0.0800 
 30 H        5.1010    -1.7540    -0.8690 H     1 <1>   0.0800 
 31 H        4.8770    -1.2400     0.7780 H     1 <1>   0.0800 
 32 H        7.5500     1.0660    -0.7090 H     1 <1>   0.1500 
 33 H        9.8960     0.1210     0.0450 H     1 <1>   0.1500 
 34 H        9.3670    -2.8880     2.2140 H     1 <1>   0.0800 
 35 H       10.6630    -2.3030     1.1940 H     1 <1>   0.0800 
 36 H        9.6000    -3.5690     0.6200 H     1 <1>   0.0800 
@<TRIPOS>BOND
  1   1   2  1   
  2   1   3  1   
  3   2   4  2   
  4   2   5  1   
  5   3   6  2   
  6   3   7  1   
  7   4   6  1   
  8   5   8  am  
  9   5  20  1   
 10   7   9  1   
 11   7  10  1   
 12   7  21  1   
 13   8  11  2   
 14   8  12  1   
 15   9  22  1   
 16   9  23  1   
 17   9  24  1   
 18  10  25  1   
 19  10  26  1   
 20  10  27  1   
 21  12  13  1   
 22  12  28  1   
 23  12  29  1   
 24  13  14  1   
 25  13  30  1   
 26  13  31  1   
 27  14  15  1   
 28  14  16  2   
 29  15  17  1   
 30  16  18  1   
 31  16  32  1   
 32  17  18  2   
 33  17  19  1   
 34  18  33  1   
 35  19  34  1   
 36  19  35  1   
 37  19  36  1   
@<TRIPOS>SUBSTRUCTURE
  1 ****   5 GROUP 4 **** **** 0

# MOE 2024.06 (io_trps.svl 2023.06)
