@<TRIPOS>MOLECULE
NONAME
41 42 1 0 0 
SMALL
USER_CHARGES


@<TRIPOS>ATOM
  1 O        0.7230    -1.0190    -1.1690 O.2   1 <1>  -0.5700 
  2 C       -0.1290    -1.7800    -0.7820 C.2   1 <1>   0.5690 
  3 N       -1.2500    -1.2770    -0.2020 N.am  1 <1>  -0.5470 
  4 C        0.0820    -3.2900    -0.9200 C.3   1 <1>  -0.0190 
  5 C       -2.3390    -1.9460     0.3590 C.ar  1 <1>   0.1170 
  6 C        0.4530    -3.9640     0.4290 C.3   1 <1>  -0.0190 
  7 C        1.0700    -3.6530    -2.0540 C.3   1 <1>  -0.0220 
  8 C       -3.2520    -2.6220    -0.4410 C.ar  1 <1>  -0.1500 
  9 C       -2.5230    -1.9400     1.7350 C.ar  1 <1>  -0.1500 
 10 C        1.7440    -3.4810     1.1040 C.2   1 <1>   0.5690 
 11 C        0.4450    -5.5010     0.2610 C.3   1 <1>  -0.0220 
 12 C        1.4050    -5.1330    -2.0410 C.2   1 <1>  -0.2880 
 13 C       -4.3210    -3.2920     0.1250 C.ar  1 <1>  -0.1500 
 14 C       -3.5910    -2.6090     2.3040 C.ar  1 <1>  -0.1500 
 15 O        2.0610    -3.9940     2.1510 O.2   1 <1>  -0.5700 
 16 N        2.4920    -2.4750     0.5870 N.am  1 <1>  -0.7300 
 17 C        1.1220    -5.9490    -1.0240 C.2   1 <1>  -0.2880 
 18 C       -4.4900    -3.2880     1.4990 C.ar  1 <1>  -0.1500 
 19 C        3.7260    -1.9580     1.1850 C.3   1 <1>   0.2780 
 20 C        3.9010    -0.5360     0.6980 C.2   1 <1>  -0.2880 
 21 C        4.9220    -0.0890    -0.0390 C.2   1 <1>  -0.3000 
 22 H       -1.2320    -0.2610    -0.0990 H     1 <1>   0.3700 
 23 H       -0.8610    -3.7060    -1.2190 H     1 <1>   0.0800 
 24 H       -0.3260    -3.7360     1.1340 H     1 <1>   0.0800 
 25 H        1.9880    -3.1000    -1.9680 H     1 <1>   0.0800 
 26 H        0.6240    -3.3950    -2.9990 H     1 <1>   0.0800 
 27 H       -3.1260    -2.6190    -1.5090 H     1 <1>   0.1500 
 28 H       -1.8240    -1.4160     2.3620 H     1 <1>   0.1500 
 29 H       -0.5720    -5.8510     0.2430 H     1 <1>   0.0800 
 30 H        0.9260    -5.9700     1.1020 H     1 <1>   0.0800 
 31 H        1.9020    -5.4650    -2.9380 H     1 <1>   0.1500 
 32 H       -5.0230    -3.8160    -0.5010 H     1 <1>   0.1500 
 33 H       -3.7240    -2.6040     3.3720 H     1 <1>   0.1500 
 34 H        2.1740    -1.9450    -0.2350 H     1 <1>   0.3700 
 35 H        1.3550    -7.0010    -1.0360 H     1 <1>   0.1500 
 36 H       -5.3220    -3.8100     1.9410 H     1 <1>   0.1500 
 37 H        4.5550    -2.5710     0.8750 H     1 <1>   0.0800 
 38 H        3.6560    -1.9830     2.2590 H     1 <1>   0.0800 
 39 H        3.0900     0.1000     1.0120 H     1 <1>   0.1500 
 40 H        5.0180     0.9300    -0.3740 H     1 <1>   0.1500 
 41 H        5.7440    -0.6990    -0.3720 H     1 <1>   0.1500 
@<TRIPOS>BOND
  1   1   2  2   
  2   2   3  am  
  3   2   4  1   
  4   3   5  1   
  5   3  22  1   
  6   4   6  1   
  7   4   7  1   
  8   4  23  1   
  9   5   8  ar  
 10   5   9  ar  
 11   6  10  1   
 12   6  11  1   
 13   6  24  1   
 14   7  12  1   
 15   7  25  1   
 16   7  26  1   
 17   8  13  ar  
 18   8  27  1   
 19   9  14  ar  
 20   9  28  1   
 21  10  15  2   
 22  10  16  am  
 23  11  17  1   
 24  11  29  1   
 25  11  30  1   
 26  12  17  2   
 27  12  31  1   
 28  13  18  ar  
 29  13  32  1   
 30  14  18  ar  
 31  14  33  1   
 32  16  19  1   
 33  16  34  1   
 34  17  35  1   
 35  18  36  1   
 36  19  20  1   
 37  19  37  1   
 38  19  38  1   
 39  20  21  2   
 40  20  39  1   
 41  21  40  1   
 42  21  41  1   
@<TRIPOS>SUBSTRUCTURE
  1 ****   4 GROUP 4 **** **** 0

# MOE 2024.06 (io_trps.svl 2023.06)
