@<TRIPOS>MOLECULE
NONAME
39 39 1 0 0 
SMALL
USER_CHARGES


@<TRIPOS>ATOM
  1 O       -0.2340     0.2910     0.7120 O.2   1 <1>  -0.5700 
  2 C       -0.8370     1.0590    -0.0120 C.2   1 <1>   0.6900 
  3 N       -2.1320     0.8510    -0.3810 N.am  1 <1>  -0.5470 
  4 N       -0.2320     2.1790    -0.4800 N.am  1 <1>  -0.7300 
  5 C       -2.9870    -0.2440    -0.1720 C.ar  1 <1>   0.1170 
  6 C        1.1510     2.5810    -0.1510 C.3   1 <1>   0.1400 
  7 C       -4.3710    -0.0510    -0.0800 C.ar  1 <1>  -0.1430 
  8 C       -2.4760    -1.5360    -0.0810 C.ar  1 <1>  -0.1500 
  9 C        1.2120     4.1030    -0.0250 C.3   1 <1>  -0.1600 
 10 C       -5.1970    -1.1560     0.0970 C.ar  1 <1>  -0.1500 
 11 C       -4.9370     1.3740    -0.1710 C.3   1 <1>  -0.0170 
 12 C       -3.3070    -2.6230     0.0990 C.ar  1 <1>  -0.1500 
 13 C        2.6290     4.5760     0.3170 C.3   1 <1>  -0.2400 
 14 C       -4.6720    -2.4330     0.1860 C.ar  1 <1>  -0.1500 
 15 C       -6.4490     1.5170     0.0650 C.3   1 <1>  -0.1600 
 16 C       -6.8910     2.9850    -0.0060 C.3   1 <1>  -0.1600 
 17 C       -8.3990     3.1170     0.2280 C.3   1 <1>  -0.2400 
 18 H       -2.5840     1.6740    -0.7560 H     1 <1>   0.3700 
 19 H       -0.6640     2.6880    -1.2460 H     1 <1>   0.3700 
 20 H        1.8130     2.2420    -0.9300 H     1 <1>   0.0800 
 21 H        1.4540     2.1230     0.7770 H     1 <1>   0.0800 
 22 H       -1.4160    -1.6960    -0.1530 H     1 <1>   0.1500 
 23 H        0.5390     4.4200     0.7530 H     1 <1>   0.0800 
 24 H        0.9070     4.5550    -0.9530 H     1 <1>   0.0800 
 25 H       -6.2630    -1.0540     0.1710 H     1 <1>   0.1500 
 26 H       -4.7090     1.7660    -1.1460 H     1 <1>   0.0800 
 27 H       -4.4300     1.9810     0.5590 H     1 <1>   0.0800 
 28 H       -2.8910    -3.6130     0.1690 H     1 <1>   0.1500 
 29 H        2.9510     4.1510     1.2520 H     1 <1>   0.0800 
 30 H        2.6490     5.6480     0.4050 H     1 <1>   0.0800 
 31 H        3.3220     4.2840    -0.4530 H     1 <1>   0.0800 
 32 H       -5.3250    -3.2760     0.3250 H     1 <1>   0.1500 
 33 H       -6.6960     1.1210     1.0350 H     1 <1>   0.0800 
 34 H       -6.9820     0.9550    -0.6820 H     1 <1>   0.0800 
 35 H       -6.6480     3.3920    -0.9730 H     1 <1>   0.0800 
 36 H       -6.3680     3.5590     0.7400 H     1 <1>   0.0800 
 37 H       -8.9460     2.5700    -0.5200 H     1 <1>   0.0800 
 38 H       -8.6910     4.1510     0.1760 H     1 <1>   0.0800 
 39 H       -8.6630     2.7360     1.1990 H     1 <1>   0.0800 
@<TRIPOS>BOND
  1   1   2  2   
  2   2   3  am  
  3   2   4  am  
  4   3   5  1   
  5   3  18  1   
  6   4   6  1   
  7   4  19  1   
  8   5   7  ar  
  9   5   8  ar  
 10   6   9  1   
 11   6  20  1   
 12   6  21  1   
 13   7  10  ar  
 14   7  11  1   
 15   8  12  ar  
 16   8  22  1   
 17   9  13  1   
 18   9  23  1   
 19   9  24  1   
 20  10  14  ar  
 21  10  25  1   
 22  11  15  1   
 23  11  26  1   
 24  11  27  1   
 25  12  14  ar  
 26  12  28  1   
 27  13  29  1   
 28  13  30  1   
 29  13  31  1   
 30  14  32  1   
 31  15  16  1   
 32  15  33  1   
 33  15  34  1   
 34  16  17  1   
 35  16  35  1   
 36  16  36  1   
 37  17  37  1   
 38  17  38  1   
 39  17  39  1   
@<TRIPOS>SUBSTRUCTURE
  1 ****   3 GROUP 4 **** **** 0

# MOE 2024.06 (io_trps.svl 2023.06)
