@<TRIPOS>MOLECULE
NONAME
31 31 1 0 0 
SMALL
USER_CHARGES


@<TRIPOS>ATOM
  1 O       -0.6870     1.6170     2.0830 O.2   1 <1>  -0.5700 
  2 C       -0.2390     2.0330     1.0460 C.2   1 <1>   0.5690 
  3 N        0.9790     1.6330     0.6380 N.am  1 <1>  -0.8000 
  4 C       -1.0440     3.0080     0.1890 C.3   1 <1>  -0.0190 
  5 C       -1.4200     4.2760     0.9810 C.3   1 <1>  -0.1600 
  6 C       -2.3070     2.3350    -0.3820 C.3   1 <1>  -0.1600 
  7 C       -2.2880     5.2290     0.1550 C.3   1 <1>   0.1400 
  8 C       -3.1570     3.3210    -1.1880 C.3   1 <1>   0.1400 
  9 N       -3.4880     4.4940    -0.3300 N.am  1 <1>  -0.6600 
 10 C       -4.7460     4.8310     0.1090 C.2   1 <1>   0.5690 
 11 O       -4.9390     5.7870     0.8230 O.2   1 <1>  -0.5700 
 12 C       -5.9610     4.0120    -0.2540 C.3   1 <1>  -0.0380 
 13 C       -5.9070     2.6770     0.4460 C.2   1 <1>   0.4480 
 14 O       -5.9270     1.6590    -0.1770 O.2   1 <1>  -0.5700 
 15 C       -5.8360     2.6650     1.9580 C.3   1 <1>  -0.1790 
 16 H        1.5010     0.9780     1.2220 H     1 <1>   0.3700 
 17 H        1.4280     1.9310    -0.2260 H     1 <1>   0.3700 
 18 H       -0.4280     3.3100    -0.6390 H     1 <1>   0.0800 
 19 H       -0.5260     4.7880     1.2920 H     1 <1>   0.0800 
 20 H       -1.9620     4.0020     1.8710 H     1 <1>   0.0800 
 21 H       -2.9030     1.9370     0.4220 H     1 <1>   0.0800 
 22 H       -2.0260     1.5100    -1.0120 H     1 <1>   0.0800 
 23 H       -1.7350     5.5990    -0.6900 H     1 <1>   0.0800 
 24 H       -2.5720     6.0730     0.7610 H     1 <1>   0.0800 
 25 H       -4.0410     2.8250    -1.5470 H     1 <1>   0.0800 
 26 H       -2.6040     3.6610    -2.0470 H     1 <1>   0.0800 
 27 H       -6.0070     3.8770    -1.3170 H     1 <1>   0.0800 
 28 H       -6.8490     4.5320     0.0520 H     1 <1>   0.0800 
 29 H       -6.6240     3.2680     2.3710 H     1 <1>   0.0800 
 30 H       -4.8870     3.0490     2.2850 H     1 <1>   0.0800 
 31 H       -5.9410     1.6580     2.3180 H     1 <1>   0.0800 
@<TRIPOS>BOND
  1   1   2  2   
  2   2   3  am  
  3   2   4  1   
  4   3  16  1   
  5   3  17  1   
  6   4   5  1   
  7   4   6  1   
  8   4  18  1   
  9   5   7  1   
 10   5  19  1   
 11   5  20  1   
 12   6   8  1   
 13   6  21  1   
 14   6  22  1   
 15   7   9  1   
 16   7  23  1   
 17   7  24  1   
 18   8   9  1   
 19   8  25  1   
 20   8  26  1   
 21   9  10  am  
 22  10  11  2   
 23  10  12  1   
 24  12  13  1   
 25  12  27  1   
 26  12  28  1   
 27  13  14  2   
 28  13  15  1   
 29  15  29  1   
 30  15  30  1   
 31  15  31  1   
@<TRIPOS>SUBSTRUCTURE
  1 ****   9 GROUP 4 **** **** 0

# MOE 2024.06 (io_trps.svl 2023.06)
