@<TRIPOS>MOLECULE
NONAME
42 45 1 0 0 
SMALL
USER_CHARGES


@<TRIPOS>ATOM
  1 S        1.9890     0.8610     2.3680 S.3   1 <1>  -0.2420 
  2 C        2.5370     1.2240     0.7310 C.2   1 <1>   0.6510 
  3 C        0.3860     1.5500     2.0450 C.2   1 <1>  -0.0490 
  4 N        3.7280     0.9440     0.3060 N.2   1 <1>  -0.6210 
  5 N        1.5250     1.8340     0.0390 N.am  1 <1>  -0.2290 
  6 C        0.3370     2.0050     0.7850 C.2   1 <1>  -0.0410 
  7 C        3.9950     1.2910    -0.9930 C.2   1 <1>   0.0330 
  8 C        1.7790     2.2100    -1.2560 C.2   1 <1>   0.6160 
  9 C        3.0670     1.9110    -1.7700 C.2   1 <1>  -0.1360 
 10 C        5.3930     0.9370    -1.5020 C.3   1 <1>   0.4810 
 11 O        0.9330     2.7820    -1.9230 O.2   1 <1>  -0.5700 
 12 N        6.3710     1.1970    -0.4120 N.4   1 <1>  -0.9590 
 13 C        6.6260     2.6680    -0.2010 C.3   1 <1>   0.3430 
 14 C        7.6530     0.4220    -0.5730 C.3   1 <1>   0.3430 
 15 C        7.6110     2.9440     0.9570 C.3   1 <1>   0.2090 
 16 C        8.6360     0.6550     0.5930 C.3   1 <1>   0.2090 
 17 N        8.8470     2.1130     0.8360 N.pl3 1 <1>  -0.8380 
 18 C       10.0500     2.6810     0.4180 C.ar  1 <1>   0.1000 
 19 C       10.1130     3.5990    -0.6270 C.ar  1 <1>  -0.1500 
 20 C       11.2330     2.3180     1.0510 C.ar  1 <1>  -0.1500 
 21 C       11.3240     4.1320    -1.0290 C.ar  1 <1>  -0.1500 
 22 C       12.4460     2.8480     0.6510 C.ar  1 <1>  -0.1500 
 23 C       12.4940     3.7570    -0.3910 C.ar  1 <1>  -0.1500 
 24 H       -0.3310     1.5300     2.8480 H     1 <1>   0.1500 
 25 H       -0.5050     2.4760     0.3020 H     1 <1>   0.1500 
 26 H        3.2410     2.1990    -2.7900 H     1 <1>   0.1500 
 27 H        5.6380     1.5060    -2.3830 H     1 <1>   0.0800 
 28 H        5.4050    -0.1110    -1.7520 H     1 <1>   0.0800 
 29 H        5.8810     0.8610     0.4360 H     1 <1>   0.4500 
 30 H        5.6980     3.1740     0.0060 H     1 <1>   0.0800 
 31 H        7.0420     3.0920    -1.0990 H     1 <1>   0.0800 
 32 H        8.1440     0.7230    -1.4840 H     1 <1>   0.0800 
 33 H        7.4400    -0.6320    -0.6430 H     1 <1>   0.0800 
 34 H        7.1340     2.7230     1.8960 H     1 <1>   0.0800 
 35 H        7.8750     3.9870     0.9690 H     1 <1>   0.0800 
 36 H        9.5780     0.1860     0.3610 H     1 <1>   0.0800 
 37 H        8.2560     0.1990     1.4910 H     1 <1>   0.0800 
 38 H        9.2200     3.9000    -1.1350 H     1 <1>   0.1500 
 39 H       11.1970     1.6210     1.8670 H     1 <1>   0.1500 
 40 H       11.3630     4.8420    -1.8380 H     1 <1>   0.1500 
 41 H       13.3540     2.5570     1.1520 H     1 <1>   0.1500 
 42 H       13.4370     4.1710    -0.7030 H     1 <1>   0.1500 
@<TRIPOS>BOND
  1   1   2  1   
  2   1   3  1   
  3   2   4  2   
  4   2   5  1   
  5   3   6  2   
  6   3  24  1   
  7   4   7  1   
  8   5   6  1   
  9   5   8  am  
 10   6  25  1   
 11   7   9  2   
 12   7  10  1   
 13   8   9  1   
 14   8  11  2   
 15   9  26  1   
 16  10  12  1   
 17  10  27  1   
 18  10  28  1   
 19  12  13  1   
 20  12  14  1   
 21  12  29  1   
 22  13  15  1   
 23  13  30  1   
 24  13  31  1   
 25  14  16  1   
 26  14  32  1   
 27  14  33  1   
 28  15  17  1   
 29  15  34  1   
 30  15  35  1   
 31  16  17  1   
 32  16  36  1   
 33  16  37  1   
 34  17  18  1   
 35  18  19  ar  
 36  18  20  ar  
 37  19  21  ar  
 38  19  38  1   
 39  20  22  ar  
 40  20  39  1   
 41  21  23  ar  
 42  21  40  1   
 43  22  23  ar  
 44  22  41  1   
 45  23  42  1   
@<TRIPOS>SUBSTRUCTURE
  1 ****  13 GROUP 4 **** **** 0

# MOE 2024.06 (io_trps.svl 2023.06)
