@<TRIPOS>MOLECULE
z
40 41 1 0 0 
SMALL
USER_CHARGES


@<TRIPOS>ATOM
  1 O       -0.4950    -0.0790    -1.1670 O.2   1 <1>  -0.5700 
  2 C       -1.4550     0.5230    -0.7320 C.2   1 <1>   0.7800 
  3 O       -2.5440    -0.1640    -0.4000 O.3   1 <1>  -0.4300 
  4 N       -1.4990     1.8870    -0.5780 N.am  1 <1>  -0.6600 
  5 C       -2.5780    -1.5650    -0.5390 C.3   1 <1>   0.2640 
  6 C       -0.2830     2.7880    -0.6960 C.3   1 <1>   0.2810 
  7 C       -2.8110     2.6010    -0.5270 C.3   1 <1>   0.1400 
  8 C       -3.9510    -2.0520    -0.1060 C.ar  1 <1>  -0.1440 
  9 C        1.1120     2.1260    -0.7150 C.2   1 <1>   0.6590 
 10 C       -0.3190     3.8360     0.4310 C.3   1 <1>  -0.1600 
 11 C       -2.8200     3.6140     0.6150 C.3   1 <1>  -0.1600 
 12 C       -4.9490    -2.2650    -1.0450 C.ar  1 <1>  -0.1500 
 13 C       -4.2180    -2.2830     1.2350 C.ar  1 <1>  -0.1500 
 14 O        1.8430     2.2360    -1.6680 O.2   1 <1>  -0.5700 
 15 O        1.4890     1.4780     0.3870 O.3   1 <1>  -0.4300 
 16 C       -1.6500     4.5790     0.4610 C.3   1 <1>   0.2000 
 17 C       -6.1980    -2.7090    -0.6480 C.ar  1 <1>  -0.1500 
 18 C       -5.4670    -2.7270     1.6330 C.ar  1 <1>  -0.1500 
 19 C        2.7210     0.7910     0.4520 C.3   1 <1>   0.0400 
 20 O       -1.6470     5.4340     1.5390 O.3   1 <1>  -0.6800 
 21 C       -6.4580    -2.9410     0.6910 C.ar  1 <1>  -0.1500 
 22 H       -2.3880    -1.8120    -1.5690 H     1 <1>   0.0800 
 23 H       -1.8070    -1.9890     0.0800 H     1 <1>   0.0800 
 24 H       -0.3710     3.3090    -1.6320 H     1 <1>   0.0800 
 25 H       -2.9660     3.1080    -1.4640 H     1 <1>   0.0800 
 26 H       -3.6280     1.9130    -0.3910 H     1 <1>   0.0800 
 27 H        0.4760     4.5440     0.2770 H     1 <1>   0.0800 
 28 H       -0.1550     3.3390     1.3710 H     1 <1>   0.0800 
 29 H       -2.7570     3.0830     1.5480 H     1 <1>   0.0800 
 30 H       -3.7450     4.1620     0.5900 H     1 <1>   0.0800 
 31 H       -4.7570    -2.0840    -2.0890 H     1 <1>   0.1500 
 32 H       -3.4540    -2.1140     1.9740 H     1 <1>   0.1500 
 33 H       -1.7690     5.1750    -0.4280 H     1 <1>   0.0800 
 34 H       -6.9690    -2.8730    -1.3810 H     1 <1>   0.1500 
 35 H       -5.6680    -2.9060     2.6750 H     1 <1>   0.1500 
 36 H        2.8100     0.3420     1.4250 H     1 <1>   0.0800 
 37 H        3.5210     1.4920     0.2890 H     1 <1>   0.0800 
 38 H        2.7300     0.0310    -0.3100 H     1 <1>   0.0800 
 39 H       -1.5620     4.9290     2.3700 H     1 <1>   0.4000 
 40 H       -7.4290    -3.2860     1.0000 H     1 <1>   0.1500 
@<TRIPOS>BOND
  1   1   2  2   
  2   2   3  1   
  3   2   4  am  
  4   3   5  1   
  5   4   6  1   
  6   4   7  1   
  7   5   8  1   
  8   5  22  1   
  9   5  23  1   
 10   6   9  1   
 11   6  10  1   
 12   6  24  1   
 13   7  11  1   
 14   7  25  1   
 15   7  26  1   
 16   8  12  ar  
 17   8  13  ar  
 18   9  14  2   
 19   9  15  1   
 20  10  16  1   
 21  10  27  1   
 22  10  28  1   
 23  11  16  1   
 24  11  29  1   
 25  11  30  1   
 26  12  17  ar  
 27  12  31  1   
 28  13  18  ar  
 29  13  32  1   
 30  15  19  1   
 31  16  20  1   
 32  16  33  1   
 33  17  21  ar  
 34  17  34  1   
 35  18  21  ar  
 36  18  35  1   
 37  19  36  1   
 38  19  37  1   
 39  19  38  1   
 40  20  39  1   
 41  21  40  1   
@<TRIPOS>SUBSTRUCTURE
  1 ****   2 GROUP 4 z **** 0

# MOE 2024.06 (io_trps.svl 2023.06)
