@<TRIPOS>MOLECULE
NONAME
47 48 1 0 0 
SMALL
USER_CHARGES


@<TRIPOS>ATOM
  1 O       -0.5770     3.8250    -0.4240 O.2   1 <1>  -0.5700 
  2 C        0.0970     3.1330     0.3130 C.2   1 <1>   0.5440 
  3 N       -0.3570     2.8680     1.5790 N.am  1 <1>  -0.7300 
  4 C        1.3570     2.5650    -0.1240 C.ar  1 <1>   0.0860 
  5 C       -1.4060     3.5710     2.3940 C.3   1 <1>   0.1400 
  6 C        2.5610     3.2460     0.0940 C.ar  1 <1>  -0.1430 
  7 C        1.4030     1.3140    -0.7520 C.ar  1 <1>  -0.1430 
  8 C       -2.5790     4.2120     1.6140 C.3   1 <1>   0.3430 
  9 C        3.7640     2.6800    -0.2900 C.ar  1 <1>  -0.1500 
 10 C        2.5730     4.6220     0.7490 C.3   1 <1>  -0.0960 
 11 C        2.6160     0.7650    -1.1290 C.ar  1 <1>  -0.1500 
 12 C        0.1260     0.5360    -1.0410 C.3   1 <1>  -0.0970 
 13 N       -3.0940     3.3470     0.5120 N.4   1 <1>  -0.9590 
 14 C        3.8010     1.4400    -0.9010 C.ar  1 <1>  -0.1430 
 15 C       -4.0380     4.0810    -0.3700 C.3   1 <1>   0.3430 
 16 C       -3.6040     2.0200     0.9520 C.3   1 <1>   0.3430 
 17 C        5.1260     0.8280    -1.3170 C.3   1 <1>  -0.0970 
 18 C       -4.3390     3.2400    -1.6120 C.3   1 <1>  -0.1600 
 19 C       -3.9050     1.1530    -0.2710 C.3   1 <1>  -0.1600 
 20 C       -4.8680     1.8480    -1.2430 C.3   1 <1>  -0.1600 
 21 H        0.2780     2.2880     2.1390 H     1 <1>   0.3700 
 22 H       -0.9260     4.3410     2.9740 H     1 <1>   0.0800 
 23 H       -1.8150     2.8640     3.0950 H     1 <1>   0.0800 
 24 H       -2.2200     5.1350     1.1870 H     1 <1>   0.0800 
 25 H       -3.3750     4.4550     2.2970 H     1 <1>   0.0800 
 26 H        4.6870     3.2060    -0.1170 H     1 <1>   0.1500 
 27 H        3.5670     5.0340     0.7630 H     1 <1>   0.0800 
 28 H        1.9410     5.2970     0.1990 H     1 <1>   0.0800 
 29 H        2.2200     4.5560     1.7620 H     1 <1>   0.0800 
 30 H        2.6470    -0.1980    -1.6090 H     1 <1>   0.1500 
 31 H       -0.3800     0.2980    -0.1230 H     1 <1>   0.0800 
 32 H        0.3420    -0.3840    -1.5540 H     1 <1>   0.0800 
 33 H       -0.5250     1.1210    -1.6650 H     1 <1>   0.0800 
 34 H       -2.2400     3.1850    -0.0640 H     1 <1>   0.4500 
 35 H       -3.6030     5.0200    -0.6740 H     1 <1>   0.0800 
 36 H       -4.9540     4.2830     0.1610 H     1 <1>   0.0800 
 37 H       -4.5030     2.1500     1.5330 H     1 <1>   0.0800 
 38 H       -2.8670     1.5260     1.5640 H     1 <1>   0.0800 
 39 H        5.8330     1.5980    -1.5710 H     1 <1>   0.0800 
 40 H        4.9960     0.1940    -2.1750 H     1 <1>   0.0800 
 41 H        5.5270     0.2420    -0.5090 H     1 <1>   0.0800 
 42 H       -3.4410     3.1490    -2.1990 H     1 <1>   0.0800 
 43 H       -5.0670     3.7520    -2.2160 H     1 <1>   0.0800 
 44 H       -4.3360     0.2220     0.0540 H     1 <1>   0.0800 
 45 H       -2.9830     0.9220    -0.7760 H     1 <1>   0.0800 
 46 H       -4.9810     1.2530    -2.1340 H     1 <1>   0.0800 
 47 H       -5.8390     1.9410    -0.7850 H     1 <1>   0.0800 
@<TRIPOS>BOND
  1   1   2  2   
  2   2   3  am  
  3   2   4  1   
  4   3   5  1   
  5   3  21  1   
  6   4   6  ar  
  7   4   7  ar  
  8   5   8  1   
  9   5  22  1   
 10   5  23  1   
 11   6   9  ar  
 12   6  10  1   
 13   7  11  ar  
 14   7  12  1   
 15   8  13  1   
 16   8  24  1   
 17   8  25  1   
 18   9  14  ar  
 19   9  26  1   
 20  10  27  1   
 21  10  28  1   
 22  10  29  1   
 23  11  14  ar  
 24  11  30  1   
 25  12  31  1   
 26  12  32  1   
 27  12  33  1   
 28  13  15  1   
 29  13  16  1   
 30  13  34  1   
 31  14  17  1   
 32  15  18  1   
 33  15  35  1   
 34  15  36  1   
 35  16  19  1   
 36  16  37  1   
 37  16  38  1   
 38  17  39  1   
 39  17  40  1   
 40  17  41  1   
 41  18  20  1   
 42  18  42  1   
 43  18  43  1   
 44  19  20  1   
 45  19  44  1   
 46  19  45  1   
 47  20  46  1   
 48  20  47  1   
@<TRIPOS>SUBSTRUCTURE
  1 ****   2 GROUP 4 **** **** 0

# MOE 2024.06 (io_trps.svl 2023.06)
