@<TRIPOS>MOLECULE
NONAME
38 40 1 0 0 
SMALL
USER_CHARGES


@<TRIPOS>ATOM
  1 O        0.0570    -1.0400    -1.2140 O.co2 1 <1>  -0.9000 
  2 C        0.1180    -1.3580    -0.0260 C.2   1 <1>   0.9060 
  3 O        1.1720    -1.2810     0.6180 O.co2 1 <1>  -0.9000 
  4 C       -1.0900    -1.9350     0.6960 C.3   1 <1>  -0.1860 
  5 C       -1.1790    -3.6250     0.7680 C.3   1 <1>  -0.0190 
  6 C       -2.5080    -1.3870     0.0720 C.3   1 <1>  -0.0800 
  7 C        0.0300    -4.5090     0.3940 C.2   1 <1>   0.5690 
  8 C       -2.5650    -4.0590    -0.0050 C.3   1 <1>  -0.0800 
  9 C       -2.5440    -2.7220     0.0570 C.3   1 <1>  -0.1600 
 10 C       -3.9010    -1.8420    -0.6510 C.3   1 <1>  -0.1600 
 11 O       -0.1910    -5.6720     0.1380 O.2   1 <1>  -0.5700 
 12 N        1.3010    -4.0110     0.4400 N.am  1 <1>  -0.5470 
 13 C       -3.9880    -3.5090    -0.5860 C.3   1 <1>  -0.1600 
 14 C        2.5540    -4.5860     0.1890 C.ar  1 <1>   0.1170 
 15 C        3.6080    -3.7340    -0.1100 C.ar  1 <1>  -0.1500 
 16 C        2.8050    -5.9530     0.2380 C.ar  1 <1>  -0.1500 
 17 C        4.8770    -4.2280    -0.3570 C.ar  1 <1>  -0.1500 
 18 C        4.0730    -6.4510    -0.0080 C.ar  1 <1>  -0.1500 
 19 C        5.1180    -5.5920    -0.3090 C.ar  1 <1>  -0.1440 
 20 C        6.5080    -6.1360    -0.5790 C.3   1 <1>  -0.0970 
 21 H       -0.9970    -1.5710     1.7060 H     1 <1>   0.0800 
 22 H       -1.3190    -3.8660     1.8110 H     1 <1>   0.0800 
 23 H       -2.8880    -0.8130     0.9060 H     1 <1>   0.0800 
 24 H       -2.1860    -4.5800    -0.8750 H     1 <1>   0.0800 
 25 H       -3.0490    -2.7250     1.1180 H     1 <1>   0.0800 
 26 H       -2.0270    -2.7050    -1.0010 H     1 <1>   0.0800 
 27 H       -3.8970    -1.5120    -1.6790 H     1 <1>   0.0800 
 28 H       -4.7550    -1.3960    -0.1680 H     1 <1>   0.0800 
 29 H        1.3550    -2.9830     0.5680 H     1 <1>   0.3700 
 30 H       -4.7960    -3.8160     0.0620 H     1 <1>   0.0800 
 31 H       -4.1840    -3.9140    -1.5660 H     1 <1>   0.0800 
 32 H        3.4210    -2.6730    -0.1510 H     1 <1>   0.1500 
 33 H        2.0070    -6.6310     0.4740 H     1 <1>   0.1500 
 34 H        5.6710    -3.5410    -0.5870 H     1 <1>   0.1500 
 35 H        4.2390    -7.5120     0.0360 H     1 <1>   0.1500 
 36 H        7.0370    -5.4920    -1.2580 H     1 <1>   0.0800 
 37 H        6.4480    -7.1160    -1.0180 H     1 <1>   0.0800 
 38 H        7.0580    -6.1990     0.3420 H     1 <1>   0.0800 
@<TRIPOS>BOND
  1   1   2  ar  
  2   2   3  ar  
  3   2   4  1   
  4   4   5  1   
  5   4   6  1   
  6   4  21  1   
  7   5   7  1   
  8   5   8  1   
  9   5  22  1   
 10   6   9  1   
 11   6  10  1   
 12   6  23  1   
 13   7  11  2   
 14   7  12  am  
 15   8   9  1   
 16   8  13  1   
 17   8  24  1   
 18   9  25  1   
 19   9  26  1   
 20  10  13  1   
 21  10  27  1   
 22  10  28  1   
 23  12  14  1   
 24  12  29  1   
 25  13  30  1   
 26  13  31  1   
 27  14  15  ar  
 28  14  16  ar  
 29  15  17  ar  
 30  15  32  1   
 31  16  18  ar  
 32  16  33  1   
 33  17  19  ar  
 34  17  34  1   
 35  18  19  ar  
 36  18  35  1   
 37  19  20  1   
 38  20  36  1   
 39  20  37  1   
 40  20  38  1   
@<TRIPOS>SUBSTRUCTURE
  1 ****  12 GROUP 4 **** **** 0

# MOE 2024.06 (io_trps.svl 2023.06)
