@<TRIPOS>MOLECULE
NONAME
37 38 1 0 0 
SMALL
USER_CHARGES


@<TRIPOS>ATOM
  1 CL       0.4550     1.1510    -0.2010 Cl    1 <1>  -0.1770 
  2 C        1.6520    -0.0960     0.0350 C.ar  1 <1>   0.1770 
  3 C        1.2480    -1.3470     0.4560 C.ar  1 <1>  -0.1500 
  4 C        2.9830     0.1920    -0.2040 C.ar  1 <1>  -0.1500 
  5 C        2.2170    -2.3150     0.6320 C.ar  1 <1>   0.1770 
  6 C        3.9570    -0.7850    -0.0220 C.ar  1 <1>   0.1170 
  7 CL       1.7370    -3.9080     1.1570 Cl    1 <1>  -0.1770 
  8 C        3.5530    -2.0500     0.3990 C.ar  1 <1>  -0.1500 
  9 N        5.2960    -0.4630    -0.2850 N.am  1 <1>  -0.5470 
 10 C        6.4420    -0.9890     0.2310 C.2   1 <1>   0.6900 
 11 O        6.4330    -1.8070     1.1290 O.2   1 <1>  -0.5700 
 12 N        7.6250    -0.5730    -0.2850 N.am  1 <1>  -0.7300 
 13 C        8.9250    -1.0270     0.2300 C.3   1 <1>   0.2200 
 14 C        9.9750     0.0610     0.0280 C.3   1 <1>  -0.1600 
 15 C        9.3320    -2.3140    -0.4840 C.3   1 <1>  -0.1600 
 16 C       11.3400    -0.4310     0.5070 C.3   1 <1>   0.3430 
 17 C       10.7010    -2.7770     0.0050 C.3   1 <1>   0.3430 
 18 N       11.7080    -1.6920    -0.2060 N.4   1 <1>  -0.9590 
 19 C       13.0700    -2.1540     0.2050 C.3   1 <1>   0.2630 
 20 H        0.2110    -1.5620     0.6400 H     1 <1>   0.1500 
 21 H        3.2520     1.1800    -0.5280 H     1 <1>   0.1500 
 22 H        4.2720    -2.8350     0.5460 H     1 <1>   0.1500 
 23 H        5.4390     0.3710    -0.8450 H     1 <1>   0.3700 
 24 H        7.6270    -0.0490    -1.1580 H     1 <1>   0.3700 
 25 H        8.8280    -1.2270     1.2870 H     1 <1>   0.0800 
 26 H        9.7000     0.9300     0.6010 H     1 <1>   0.0800 
 27 H       10.0380     0.3430    -1.0080 H     1 <1>   0.0800 
 28 H        9.3550    -2.1690    -1.5490 H     1 <1>   0.0800 
 29 H        8.6110    -3.0820    -0.2640 H     1 <1>   0.0800 
 30 H       11.3020    -0.6120     1.5690 H     1 <1>   0.0800 
 31 H       12.0820     0.3290     0.3200 H     1 <1>   0.0800 
 32 H       10.9930    -3.6650    -0.5340 H     1 <1>   0.0800 
 33 H       10.6410    -3.0230     1.0530 H     1 <1>   0.0800 
 34 H       11.7300    -1.4850    -1.2160 H     1 <1>   0.4500 
 35 H       13.0860    -2.3840     1.2580 H     1 <1>   0.0800 
 36 H       13.8010    -1.3860     0.0080 H     1 <1>   0.0800 
 37 H       13.3470    -3.0390    -0.3450 H     1 <1>   0.0800 
@<TRIPOS>BOND
  1   1   2  1   
  2   2   3  ar  
  3   2   4  ar  
  4   3   5  ar  
  5   3  20  1   
  6   4   6  ar  
  7   4  21  1   
  8   5   7  1   
  9   5   8  ar  
 10   6   8  ar  
 11   6   9  1   
 12   8  22  1   
 13   9  10  am  
 14   9  23  1   
 15  10  11  2   
 16  10  12  am  
 17  12  13  1   
 18  12  24  1   
 19  13  14  1   
 20  13  15  1   
 21  13  25  1   
 22  14  16  1   
 23  14  26  1   
 24  14  27  1   
 25  15  17  1   
 26  15  28  1   
 27  15  29  1   
 28  16  18  1   
 29  16  30  1   
 30  16  31  1   
 31  17  18  1   
 32  17  32  1   
 33  17  33  1   
 34  18  19  1   
 35  18  34  1   
 36  19  35  1   
 37  19  36  1   
 38  19  37  1   
@<TRIPOS>SUBSTRUCTURE
  1 ****  10 GROUP 4 **** **** 0

# MOE 2024.06 (io_trps.svl 2023.06)
