@<TRIPOS>MOLECULE
NONAME
33 33 1 0 0 
SMALL
USER_CHARGES


@<TRIPOS>ATOM
  1 S       -0.0760    -0.1700    -0.5110 S.3   1 <1>  -0.0800 
  2 C       -1.3390     0.9720    -0.0790 C.2   1 <1>  -0.1400 
  3 C        1.1800     1.0060    -0.1600 C.2   1 <1>  -0.1400 
  4 C       -0.7990     2.1470     0.2970 C.2   1 <1>  -0.1500 
  5 C       -2.7770     0.4990    -0.1930 C.3   1 <1>   0.3530 
  6 C        0.6310     2.1650     0.2510 C.2   1 <1>  -0.1500 
  7 C        2.6110     0.5400    -0.3660 C.3   1 <1>   0.0200 
  8 N       -3.0760    -0.4870     0.8320 N.2   1 <1>  -0.1710 
  9 C        3.6330     1.6340    -0.0340 C.3   1 <1>  -0.1600 
 10 O       -3.9680    -0.2540     1.5540 O.2   1 <1>  -0.1620 
 11 C        5.0700     1.1400    -0.2490 C.3   1 <1>  -0.1600 
 12 C        6.0890     2.2360     0.0840 C.3   1 <1>  -0.1600 
 13 C        7.5210     1.7350    -0.1340 C.3   1 <1>  -0.1600 
 14 C        8.5530     2.8250     0.1970 C.3   1 <1>  -0.2660 
 15 C        9.9730     2.3500    -0.0130 C.2   1 <1>   0.9060 
 16 O       10.5610     1.8180     0.9330 O.co2 1 <1>  -0.9000 
 17 O       10.4900     2.5090    -1.1220 O.co2 1 <1>  -0.9000 
 18 H       -1.3460     3.0180     0.6120 H     1 <1>   0.1500 
 19 H       -2.9360     0.0540    -1.1580 H     1 <1>   0.0800 
 20 H       -3.4420     1.3380    -0.0880 H     1 <1>   0.0800 
 21 H        1.1720     3.0510     0.5310 H     1 <1>   0.1500 
 22 H        2.7310     0.2370    -1.3910 H     1 <1>   0.0800 
 23 H        2.7880    -0.3170     0.2590 H     1 <1>   0.0800 
 24 H        3.5090     1.9340     0.9930 H     1 <1>   0.0800 
 25 H        3.4520     2.4900    -0.6600 H     1 <1>   0.0800 
 26 H        5.1980     0.8390    -1.2750 H     1 <1>   0.0800 
 27 H        5.2550     0.2840     0.3760 H     1 <1>   0.0800 
 28 H        5.9740     2.5390     1.1100 H     1 <1>   0.0800 
 29 H        5.9170     3.0940    -0.5430 H     1 <1>   0.0800 
 30 H        7.6560     1.4340    -1.1600 H     1 <1>   0.0800 
 31 H        7.7130     0.8790     0.4910 H     1 <1>   0.0800 
 32 H        8.4580     3.1280     1.2220 H     1 <1>   0.0800 
 33 H        8.4010     3.6830    -0.4300 H     1 <1>   0.0800 
@<TRIPOS>BOND
  1   1   2  1   
  2   1   3  1   
  3   2   4  2   
  4   2   5  1   
  5   3   6  2   
  6   3   7  1   
  7   4   6  1   
  8   4  18  1   
  9   5   8  1   
 10   5  19  1   
 11   5  20  1   
 12   6  21  1   
 13   7   9  1   
 14   7  22  1   
 15   7  23  1   
 16   8  10  2   
 17   9  11  1   
 18   9  24  1   
 19   9  25  1   
 20  11  12  1   
 21  11  26  1   
 22  11  27  1   
 23  12  13  1   
 24  12  28  1   
 25  12  29  1   
 26  13  14  1   
 27  13  30  1   
 28  13  31  1   
 29  14  15  1   
 30  14  32  1   
 31  14  33  1   
 32  15  16  ar  
 33  15  17  ar  
@<TRIPOS>SUBSTRUCTURE
  1 ****   9 GROUP 4 **** **** 0

# MOE 2024.06 (io_trps.svl 2023.06)
