@<TRIPOS>MOLECULE
NONAME
43 43 1 0 0 
SMALL
USER_CHARGES


@<TRIPOS>ATOM
  1 O       -1.9800    -5.8790     0.1980 O.3   1 <1>  -0.3630 
  2 C       -3.2080    -5.3050     0.1410 C.ar  1 <1>   0.0830 
  3 C       -0.8160    -5.1500    -0.1030 C.3   1 <1>   0.1200 
  4 C       -3.4290    -3.9770    -0.2140 C.ar  1 <1>  -0.1500 
  5 C       -4.2880    -6.1110     0.4590 C.ar  1 <1>  -0.1500 
  6 C        0.3730    -6.0980     0.0640 C.3   1 <1>  -0.1600 
  7 C       -4.7190    -3.4750    -0.2460 C.ar  1 <1>  -0.1500 
  8 C       -5.5760    -5.6060     0.4260 C.ar  1 <1>  -0.1500 
  9 C        1.7080    -5.4040    -0.2400 C.3   1 <1>  -0.1600 
 10 C       -5.7980    -4.2840     0.0750 C.ar  1 <1>  -0.1430 
 11 C        2.8680    -6.3820    -0.0640 C.3   1 <1>   0.3430 
 12 C       -7.2100    -3.7290     0.0370 C.3   1 <1>  -0.0970 
 13 N        4.1420    -5.6850    -0.3660 N.4   1 <1>  -0.9060 
 14 C        5.3390    -6.5260    -0.1930 C.3   1 <1>   0.4230 
 15 C        6.5560    -5.5930    -0.1300 C.3   1 <1>  -0.1600 
 16 C        5.4200    -7.5090    -1.3620 C.3   1 <1>  -0.2400 
 17 C        7.8620    -6.3200     0.2250 C.3   1 <1>  -0.2400 
 18 H       -0.7520    -4.3210     0.5810 H     1 <1>   0.0800 
 19 H       -0.8930    -4.7970    -1.1170 H     1 <1>   0.0800 
 20 H       -2.6200    -3.3210    -0.4680 H     1 <1>   0.1500 
 21 H       -4.1150    -7.1360     0.7310 H     1 <1>   0.1500 
 22 H        0.2360    -6.9340    -0.6020 H     1 <1>   0.0800 
 23 H        0.3750    -6.4650     1.0770 H     1 <1>   0.0800 
 24 H       -4.8820    -2.4480    -0.5230 H     1 <1>   0.1500 
 25 H       -6.4030    -6.2470     0.6740 H     1 <1>   0.1500 
 26 H        1.8280    -4.5700     0.4310 H     1 <1>   0.0800 
 27 H        1.6880    -5.0400    -1.2530 H     1 <1>   0.0800 
 28 H        2.7350    -7.2200    -0.7300 H     1 <1>   0.0800 
 29 H        2.8790    -6.7510     0.9500 H     1 <1>   0.0800 
 30 H       -7.2080    -2.6800     0.2730 H     1 <1>   0.0800 
 31 H       -7.8320    -4.2360     0.7520 H     1 <1>   0.0800 
 32 H       -7.6270    -3.8650    -0.9450 H     1 <1>   0.0800 
 33 H        4.2300    -4.8680     0.2480 H     1 <1>   0.4500 
 34 H        4.1300    -5.3330    -1.3290 H     1 <1>   0.4500 
 35 H        5.2700    -7.0700     0.7360 H     1 <1>   0.0800 
 36 H        6.3910    -4.8460     0.6270 H     1 <1>   0.0800 
 37 H        6.6890    -5.0910    -1.0740 H     1 <1>   0.0800 
 38 H        5.5270    -6.9910    -2.2990 H     1 <1>   0.0800 
 39 H        4.5550    -8.1450    -1.4010 H     1 <1>   0.0800 
 40 H        6.2730    -8.1510    -1.2410 H     1 <1>   0.0800 
 41 H        7.7600    -6.8650     1.1480 H     1 <1>   0.0800 
 42 H        8.6570    -5.6030     0.3480 H     1 <1>   0.0800 
 43 H        8.1570    -7.0030    -0.5520 H     1 <1>   0.0800 
@<TRIPOS>BOND
  1   1   2  1   
  2   1   3  1   
  3   2   4  ar  
  4   2   5  ar  
  5   3   6  1   
  6   3  18  1   
  7   3  19  1   
  8   4   7  ar  
  9   4  20  1   
 10   5   8  ar  
 11   5  21  1   
 12   6   9  1   
 13   6  22  1   
 14   6  23  1   
 15   7  10  ar  
 16   7  24  1   
 17   8  10  ar  
 18   8  25  1   
 19   9  11  1   
 20   9  26  1   
 21   9  27  1   
 22  10  12  1   
 23  11  13  1   
 24  11  28  1   
 25  11  29  1   
 26  12  30  1   
 27  12  31  1   
 28  12  32  1   
 29  13  14  1   
 30  13  33  1   
 31  13  34  1   
 32  14  15  1   
 33  14  16  1   
 34  14  35  1   
 35  15  17  1   
 36  15  36  1   
 37  15  37  1   
 38  16  38  1   
 39  16  39  1   
 40  16  40  1   
 41  17  41  1   
 42  17  42  1   
 43  17  43  1   
@<TRIPOS>SUBSTRUCTURE
  1 ****   3 GROUP 4 **** **** 0

# MOE 2024.06 (io_trps.svl 2023.06)
