@<TRIPOS>MOLECULE
NONAME
37 36 1 0 0 
SMALL
USER_CHARGES


@<TRIPOS>ATOM
  1 O        2.9930    -2.3790     1.3430 O.2   1 <1>  -0.5700 
  2 C        1.8580    -2.3130     0.9410 C.2   1 <1>   0.6590 
  3 O        1.2750    -3.2810     0.2620 O.3   1 <1>  -0.4300 
  4 C        1.0110    -1.0930     1.1900 C.3   1 <1>  -0.1790 
  5 C        1.8760    -4.5200    -0.0520 C.3   1 <1>   0.2000 
  6 C        2.4600    -4.4720    -1.4760 C.3   1 <1>   0.0400 
  7 C        0.7850    -5.5830     0.0760 C.3   1 <1>  -0.2400 
  8 C        3.6230    -3.5410    -1.5740 C.1   1 <1>  -0.2000 
  9 C        4.5400    -2.7850    -1.5700 C.1   1 <1>  -0.2000 
 10 C        5.6770    -1.8350    -1.4570 C.3   1 <1>   0.5430 
 11 N        6.6420    -2.3900    -0.4730 N.4   1 <1>  -0.9590 
 12 C        6.0930    -2.3160     0.9110 C.3   1 <1>   0.3430 
 13 C        7.9720    -1.7450    -0.6120 C.3   1 <1>   0.3430 
 14 C        5.9990    -3.7280     1.4720 C.3   1 <1>  -0.2400 
 15 C        9.0320    -2.5680     0.1120 C.3   1 <1>  -0.2400 
 16 H        0.7240    -0.6580     0.2520 H     1 <1>   0.0800 
 17 H        0.1300    -1.3750     1.7340 H     1 <1>   0.0800 
 18 H        1.5640    -0.3720     1.7630 H     1 <1>   0.0800 
 19 H        2.6550    -4.7220     0.6640 H     1 <1>   0.0800 
 20 H        1.6940    -4.1770    -2.1720 H     1 <1>   0.0800 
 21 H        2.7930    -5.4560    -1.7510 H     1 <1>   0.0800 
 22 H       -0.0160    -5.3880    -0.6140 H     1 <1>   0.0800 
 23 H        0.3950    -5.5890     1.0790 H     1 <1>   0.0800 
 24 H        1.1890    -6.5570    -0.1330 H     1 <1>   0.0800 
 25 H        5.3230    -0.8700    -1.1360 H     1 <1>   0.0800 
 26 H        6.1440    -1.7320    -2.4230 H     1 <1>   0.0800 
 27 H        6.7220    -3.3870    -0.7050 H     1 <1>   0.4500 
 28 H        5.1140    -1.8670     0.9030 H     1 <1>   0.0800 
 29 H        6.7310    -1.7150     1.5390 H     1 <1>   0.0800 
 30 H        7.9440    -0.7440    -0.2100 H     1 <1>   0.0800 
 31 H        8.2380    -1.6830    -1.6550 H     1 <1>   0.0800 
 32 H        5.3320    -4.3280     0.8790 H     1 <1>   0.0800 
 33 H        5.5950    -3.6800     2.4680 H     1 <1>   0.0800 
 34 H        6.9660    -4.1950     1.5240 H     1 <1>   0.0800 
 35 H        8.8660    -2.5730     1.1740 H     1 <1>   0.0800 
 36 H        9.9980    -2.1300    -0.0650 H     1 <1>   0.0800 
 37 H        9.0520    -3.5770    -0.2590 H     1 <1>   0.0800 
@<TRIPOS>BOND
  1   1   2  2   
  2   2   3  1   
  3   2   4  1   
  4   3   5  1   
  5   4  16  1   
  6   4  17  1   
  7   4  18  1   
  8   5   6  1   
  9   5   7  1   
 10   5  19  1   
 11   6   8  1   
 12   6  20  1   
 13   6  21  1   
 14   7  22  1   
 15   7  23  1   
 16   7  24  1   
 17   8   9  3   
 18   9  10  1   
 19  10  11  1   
 20  10  25  1   
 21  10  26  1   
 22  11  12  1   
 23  11  13  1   
 24  11  27  1   
 25  12  14  1   
 26  12  28  1   
 27  12  29  1   
 28  13  15  1   
 29  13  30  1   
 30  13  31  1   
 31  14  32  1   
 32  14  33  1   
 33  14  34  1   
 34  15  35  1   
 35  15  36  1   
 36  15  37  1   
@<TRIPOS>SUBSTRUCTURE
  1 ****   9 GROUP 4 **** **** 0

# MOE 2024.06 (io_trps.svl 2023.06)
