@<TRIPOS>MOLECULE
NONAME
30 31 1 0 0 
SMALL
USER_CHARGES


@<TRIPOS>ATOM
  1 O        0.2780     0.1830     0.1730 O.2   1 <1>  -0.5700 
  2 C        1.3020     0.8440     0.0880 C.2   1 <1>   0.6160 
  3 N        2.4870     0.1620     0.0770 N.am  1 <1>  -0.5390 
  4 C        1.3400     2.2690     0.0020 C.2   1 <1>   0.0790 
  5 C        3.7000     0.7990    -0.0130 C.2   1 <1>  -0.0290 
  6 C        0.1020     2.9770     0.0160 C.1   1 <1>   0.4920 
  7 C        2.5490     2.9050    -0.0890 C.2   1 <1>  -0.1500 
  8 C        3.7520     2.1560    -0.1010 C.2   1 <1>  -0.1380 
  9 C        4.9650    -0.0390    -0.0210 C.3   1 <1>  -0.0220 
 10 N       -0.8500     3.6060     0.0240 N.1   1 <1>  -0.5570 
 11 C        5.0940     2.8770    -0.2110 C.3   1 <1>   0.2580 
 12 C        6.1940     0.8460     0.2410 C.3   1 <1>   0.2000 
 13 O        6.1090     1.9830    -0.5640 O.3   1 <1>  -0.5600 
 14 C        7.5090     0.1190    -0.0720 C.3   1 <1>  -0.1600 
 15 C        8.7450     0.9790     0.2310 C.3   1 <1>  -0.1600 
 16 C       10.0370     0.2040    -0.0420 C.3   1 <1>  -0.2400 
 17 H        2.3980    -0.8550     0.1280 H     1 <1>   0.3700 
 18 H        2.6080     3.9790    -0.1570 H     1 <1>   0.1500 
 19 H        5.0610    -0.5230    -0.9770 H     1 <1>   0.0800 
 20 H        4.9110    -0.7970     0.7380 H     1 <1>   0.0800 
 21 H        5.3570     3.3400     0.7240 H     1 <1>   0.0800 
 22 H        5.0540     3.6320    -0.9770 H     1 <1>   0.0800 
 23 H        6.2000     1.1660     1.2700 H     1 <1>   0.0800 
 24 H        7.5150    -0.1700    -1.1080 H     1 <1>   0.0800 
 25 H        7.5560    -0.7780     0.5200 H     1 <1>   0.0800 
 26 H        8.7280     1.2900     1.2620 H     1 <1>   0.0800 
 27 H        8.7290     1.8640    -0.3830 H     1 <1>   0.0800 
 28 H       10.0900    -0.6730     0.5780 H     1 <1>   0.0800 
 29 H       10.8890     0.8250     0.1710 H     1 <1>   0.0800 
 30 H       10.0830    -0.0960    -1.0740 H     1 <1>   0.0800 
@<TRIPOS>BOND
  1   1   2  2   
  2   2   3  am  
  3   2   4  1   
  4   3   5  1   
  5   3  17  1   
  6   4   6  1   
  7   4   7  2   
  8   5   8  2   
  9   5   9  1   
 10   6  10  3   
 11   7   8  1   
 12   7  18  1   
 13   8  11  1   
 14   9  12  1   
 15   9  19  1   
 16   9  20  1   
 17  11  13  1   
 18  11  21  1   
 19  11  22  1   
 20  12  13  1   
 21  12  14  1   
 22  12  23  1   
 23  14  15  1   
 24  14  24  1   
 25  14  25  1   
 26  15  16  1   
 27  15  26  1   
 28  15  27  1   
 29  16  28  1   
 30  16  29  1   
 31  16  30  1   
@<TRIPOS>SUBSTRUCTURE
  1 ****   5 GROUP 4 **** **** 0

# MOE 2024.06 (io_trps.svl 2023.06)
