@<TRIPOS>MOLECULE
NONAME
36 36 1 0 0 
SMALL
USER_CHARGES


@<TRIPOS>ATOM
  1 S        0.2510     0.0730     0.1520 S.o2  1 <1>   1.3330 
  2 O       -1.1020     0.4310    -0.1930 O.2   1 <1>  -0.6500 
  3 O        1.3620     0.9470    -0.1260 O.2   1 <1>  -0.6500 
  4 N        0.6390    -1.3990    -0.6310 N.am  1 <1>  -0.7570 
  5 C        0.3180    -0.3950     1.8680 C.3   1 <1>  -0.1350 
  6 C       -0.0100    -2.6100    -0.4110 C.ar  1 <1>   0.1990 
  7 C        0.7300    -3.7280    -0.0180 C.ar  1 <1>   0.0830 
  8 C       -1.3840    -2.7240    -0.5700 C.ar  1 <1>  -0.1500 
  9 O        2.0810    -3.5700     0.1260 O.3   1 <1>  -0.3630 
 10 C        0.0760    -4.9300     0.2160 C.ar  1 <1>  -0.1500 
 11 C       -2.0560    -3.9200    -0.3340 C.ar  1 <1>  -0.1430 
 12 C        2.9180    -4.6800     0.3720 C.3   1 <1>   0.0400 
 13 C       -1.2970    -5.0170     0.0600 C.ar  1 <1>  -0.1500 
 14 C       -3.5850    -4.0680    -0.4950 C.3   1 <1>   0.1440 
 15 C       -4.2030    -4.4920     0.8450 C.3   1 <1>  -0.2400 
 16 C       -4.2780    -2.7670    -0.9340 C.3   1 <1>  -0.2400 
 17 C       -3.8880    -5.1350    -1.5580 C.3   1 <1>  -0.2400 
 18 H        1.6490    -1.4830    -0.7190 H     1 <1>   0.4200 
 19 H        0.1340     0.4590     2.4880 H     1 <1>   0.0800 
 20 H        1.2840    -0.7950     2.1060 H     1 <1>   0.0800 
 21 H       -0.4260    -1.1390     2.0770 H     1 <1>   0.0800 
 22 H       -1.9100    -1.8460    -0.8910 H     1 <1>   0.1500 
 23 H        0.6090    -5.8100     0.5220 H     1 <1>   0.1500 
 24 H        3.9370    -4.3350     0.3850 H     1 <1>   0.0800 
 25 H        2.7870    -5.3990    -0.4180 H     1 <1>   0.0800 
 26 H        2.6660    -5.1050     1.3270 H     1 <1>   0.0800 
 27 H       -1.7730    -5.9620     0.2520 H     1 <1>   0.1500 
 28 H       -3.9690    -3.7660     1.6030 H     1 <1>   0.0800 
 29 H       -3.8260    -5.4460     1.1640 H     1 <1>   0.0800 
 30 H       -5.2730    -4.5670     0.7630 H     1 <1>   0.0800 
 31 H       -3.9020    -2.4400    -1.8870 H     1 <1>   0.0800 
 32 H       -4.1150    -1.9880    -0.2100 H     1 <1>   0.0800 
 33 H       -5.3390    -2.9150    -1.0290 H     1 <1>   0.0800 
 34 H       -3.5080    -6.0960    -1.2640 H     1 <1>   0.0800 
 35 H       -3.4300    -4.8620    -2.4920 H     1 <1>   0.0800 
 36 H       -4.9480    -5.2290    -1.7110 H     1 <1>   0.0800 
@<TRIPOS>BOND
  1   1   2  2   
  2   1   3  2   
  3   1   4  am  
  4   1   5  1   
  5   4   6  1   
  6   4  18  1   
  7   5  19  1   
  8   5  20  1   
  9   5  21  1   
 10   6   7  ar  
 11   6   8  ar  
 12   7   9  1   
 13   7  10  ar  
 14   8  11  ar  
 15   8  22  1   
 16   9  12  1   
 17  10  13  ar  
 18  10  23  1   
 19  11  13  ar  
 20  11  14  1   
 21  12  24  1   
 22  12  25  1   
 23  12  26  1   
 24  13  27  1   
 25  14  15  1   
 26  14  16  1   
 27  14  17  1   
 28  15  28  1   
 29  15  29  1   
 30  15  30  1   
 31  16  31  1   
 32  16  32  1   
 33  16  33  1   
 34  17  34  1   
 35  17  35  1   
 36  17  36  1   
@<TRIPOS>SUBSTRUCTURE
  1 ****   8 GROUP 4 **** **** 0

# MOE 2024.06 (io_trps.svl 2023.06)
