@<TRIPOS>MOLECULE
NONAME
50 53 1 0 0 
SMALL
USER_CHARGES


@<TRIPOS>ATOM
  1 O        2.8680    -3.0080     2.3440 O.2   1 <1>  -0.5700 
  2 C        2.9870    -2.6350     1.2070 C.2   1 <1>   0.5690 
  3 N        3.5120    -1.4160     0.9590 N.am  1 <1>  -0.7300 
  4 C        2.5290    -3.5760     0.0880 C.3   1 <1>  -0.0190 
  5 C        3.8130    -0.7400    -0.3130 C.3   1 <1>   0.2840 
  6 C        1.0130    -3.8310     0.1930 C.3   1 <1>  -0.1600 
  7 C        3.3030    -4.9080     0.1530 C.3   1 <1>  -0.1600 
  8 C        4.6020     0.5160    -0.0090 C.ar  1 <1>  -0.1440 
  9 C        0.5290    -4.8890    -0.7940 C.3   1 <1>   0.3430 
 10 C        2.7670    -5.9440    -0.8320 C.3   1 <1>   0.3430 
 11 C        3.9980     1.7640    -0.0820 C.ar  1 <1>   0.1600 
 12 C        5.9340     0.4430     0.3490 C.ar  1 <1>  -0.1500 
 13 N        1.3130    -6.1420    -0.5950 N.4   1 <1>  -0.9590 
 14 N        4.6040     2.9140     0.1620 N.ar  1 <1>  -0.6200 
 15 C        6.5800     1.6320     0.6080 C.ar  1 <1>  -0.1500 
 16 C        0.7700    -7.2720    -1.4000 C.3   1 <1>   0.4860 
 17 C        5.8790     2.8220     0.5010 C.ar  1 <1>   0.1600 
 18 C       -0.6470    -7.5540    -0.9390 C.ar  1 <1>  -0.1440 
 19 C       -0.8700    -8.1000     0.3230 C.ar  1 <1>  -0.1500 
 20 C       -1.7270    -7.2580    -1.7730 C.ar  1 <1>  -0.1500 
 21 C       -2.1740    -8.3160     0.7160 C.ar  1 <1>   0.0820 
 22 C       -3.0330    -7.4890    -1.3570 C.ar  1 <1>  -0.1500 
 23 O       -2.6130    -8.8130     1.8750 O.3   1 <1>  -0.3620 
 24 C       -3.2260    -8.0190    -0.0980 C.ar  1 <1>   0.0820 
 25 C       -4.0380    -8.8470     1.7920 C.3   1 <1>   0.4000 
 26 O       -4.3770    -8.3160     0.5120 O.3   1 <1>  -0.3620 
 27 H        3.7750    -0.8730     1.7880 H     1 <1>   0.3700 
 28 H        2.7260    -3.1200    -0.8640 H     1 <1>   0.0800 
 29 H        2.8950    -0.4930    -0.8180 H     1 <1>   0.0800 
 30 H        4.3970    -1.3880    -0.9450 H     1 <1>   0.0800 
 31 H        0.4830    -2.9120     0.0130 H     1 <1>   0.0800 
 32 H        0.7620    -4.1480     1.1920 H     1 <1>   0.0800 
 33 H        3.2480    -5.3160     1.1490 H     1 <1>   0.0800 
 34 H        4.3430    -4.7270    -0.0550 H     1 <1>   0.0800 
 35 H        0.6540    -4.5330    -1.8040 H     1 <1>   0.0800 
 36 H       -0.5210    -5.0750    -0.6260 H     1 <1>   0.0800 
 37 H        3.2970    -6.8740    -0.6940 H     1 <1>   0.0800 
 38 H        2.9320    -5.6050    -1.8420 H     1 <1>   0.0800 
 39 H        2.9580     1.8260    -0.3540 H     1 <1>   0.1500 
 40 H        6.4510    -0.4980     0.4270 H     1 <1>   0.1500 
 41 H        1.1840    -6.4060     0.3920 H     1 <1>   0.4500 
 42 H        7.6170     1.6420     0.8910 H     1 <1>   0.1500 
 43 H        1.3710    -8.1550    -1.2540 H     1 <1>   0.0800 
 44 H        0.7750    -7.0220    -2.4480 H     1 <1>   0.0800 
 45 H        6.3950     3.7450     0.7050 H     1 <1>   0.1500 
 46 H       -0.0740    -8.3610     0.9980 H     1 <1>   0.1500 
 47 H       -1.5700    -6.8480    -2.7570 H     1 <1>   0.1500 
 48 H       -3.8790    -7.2700    -1.9840 H     1 <1>   0.1500 
 49 H       -4.4610    -8.2280     2.5640 H     1 <1>   0.0800 
 50 H       -4.3810    -9.8640     1.8640 H     1 <1>   0.0800 
@<TRIPOS>BOND
  1   1   2  2   
  2   2   3  am  
  3   2   4  1   
  4   3   5  1   
  5   3  27  1   
  6   4   6  1   
  7   4   7  1   
  8   4  28  1   
  9   5   8  1   
 10   5  29  1   
 11   5  30  1   
 12   6   9  1   
 13   6  31  1   
 14   6  32  1   
 15   7  10  1   
 16   7  33  1   
 17   7  34  1   
 18   8  11  ar  
 19   8  12  ar  
 20   9  13  1   
 21   9  35  1   
 22   9  36  1   
 23  10  13  1   
 24  10  37  1   
 25  10  38  1   
 26  11  14  ar  
 27  11  39  1   
 28  12  15  ar  
 29  12  40  1   
 30  13  16  1   
 31  13  41  1   
 32  14  17  ar  
 33  15  17  ar  
 34  15  42  1   
 35  16  18  1   
 36  16  43  1   
 37  16  44  1   
 38  17  45  1   
 39  18  19  ar  
 40  18  20  ar  
 41  19  21  ar  
 42  19  46  1   
 43  20  22  ar  
 44  20  47  1   
 45  21  23  1   
 46  21  24  ar  
 47  22  24  ar  
 48  22  48  1   
 49  23  25  1   
 50  24  26  1   
 51  25  26  1   
 52  25  49  1   
 53  25  50  1   
@<TRIPOS>SUBSTRUCTURE
  1 ****   6 GROUP 4 **** **** 0

# MOE 2024.06 (io_trps.svl 2023.06)
