@<TRIPOS>MOLECULE
NONAME
49 51 1 0 0 
SMALL
USER_CHARGES


@<TRIPOS>ATOM
  1 O        0.4460    -0.2780     1.0280 O.2   1 <1>  -0.5700 
  2 C        0.9040    -1.2080     0.3920 C.2   1 <1>   0.6900 
  3 N        2.2580    -1.3070     0.1970 N.am  1 <1>  -0.6600 
  4 N        0.0920    -2.1850    -0.1120 N.am  1 <1>  -0.5470 
  5 C        3.2150    -0.4380     0.9520 C.3   1 <1>   0.1400 
  6 C        2.9270    -2.1340    -0.8550 C.3   1 <1>   0.1400 
  7 C       -1.3040    -2.2810    -0.1960 C.ar  1 <1>   0.1170 
  8 C        4.3820    -1.2510     1.5430 C.3   1 <1>   0.2090 
  9 C        4.0610    -2.9890    -0.2620 C.3   1 <1>   0.2090 
 10 C       -2.1370    -1.1670    -0.2130 C.ar  1 <1>  -0.1500 
 11 C       -1.8850    -3.5410    -0.2900 C.ar  1 <1>  -0.1500 
 12 N        5.0110    -2.1740     0.5470 N.pl3 1 <1>  -0.8380 
 13 C       -3.5120    -1.3000    -0.3150 C.ar  1 <1>  -0.1430 
 14 C       -3.2560    -3.6840    -0.3940 C.ar  1 <1>  -0.1500 
 15 C        6.2260    -1.8130    -0.0370 C.ar  1 <1>   0.1000 
 16 C       -4.0690    -2.5650    -0.4070 C.ar  1 <1>  -0.1500 
 17 C       -4.4040    -0.0720    -0.3280 C.3   1 <1>  -0.0970 
 18 C        7.4010    -2.5280     0.2220 C.ar  1 <1>  -0.1430 
 19 C        6.2690    -0.7290    -0.9060 C.ar  1 <1>  -0.1500 
 20 C        8.5890    -2.1580    -0.4060 C.ar  1 <1>  -0.1430 
 21 C        7.3510    -3.7120     1.1890 C.3   1 <1>  -0.0970 
 22 C        7.4480    -0.3570    -1.5170 C.ar  1 <1>  -0.1500 
 23 C        8.6030    -1.0720    -1.2680 C.ar  1 <1>  -0.1500 
 24 C        9.8940    -2.9110    -0.1850 C.3   1 <1>  -0.0970 
 25 H        0.5990    -3.0250    -0.3550 H     1 <1>   0.3700 
 26 H        2.7100     0.0710     1.7540 H     1 <1>   0.0800 
 27 H        3.6040     0.3120     0.2880 H     1 <1>   0.0800 
 28 H        3.3450    -1.4770    -1.5970 H     1 <1>   0.0800 
 29 H        2.2230    -2.7740    -1.3540 H     1 <1>   0.0800 
 30 H        4.0160    -1.8330     2.3690 H     1 <1>   0.0800 
 31 H        5.1280    -0.5760     1.9250 H     1 <1>   0.0800 
 32 H        4.5990    -3.4720    -1.0600 H     1 <1>   0.0800 
 33 H        3.6410    -3.7550     0.3640 H     1 <1>   0.0800 
 34 H       -1.7040    -0.1860    -0.1490 H     1 <1>   0.1500 
 35 H       -1.2640    -4.4170    -0.2780 H     1 <1>   0.1500 
 36 H       -3.6940    -4.6640    -0.4650 H     1 <1>   0.1500 
 37 H       -5.1360    -2.6810    -0.4880 H     1 <1>   0.1500 
 38 H       -3.8980     0.7670     0.1160 H     1 <1>   0.0800 
 39 H       -5.3030    -0.2580     0.2310 H     1 <1>   0.0800 
 40 H       -4.6660     0.1770    -1.3400 H     1 <1>   0.0800 
 41 H        5.3710    -0.1790    -1.1050 H     1 <1>   0.1500 
 42 H        6.6510    -3.5230     1.9820 H     1 <1>   0.0800 
 43 H        8.3030    -3.8960     1.6490 H     1 <1>   0.0800 
 44 H        7.0400    -4.5930     0.6600 H     1 <1>   0.0800 
 45 H        7.4680     0.4840    -2.1870 H     1 <1>   0.1500 
 46 H        9.5160    -0.7750    -1.7530 H     1 <1>   0.1500 
 47 H        9.7440    -3.9650    -0.3370 H     1 <1>   0.0800 
 48 H       10.2470    -2.7440     0.8160 H     1 <1>   0.0800 
 49 H       10.6520    -2.5810    -0.8710 H     1 <1>   0.0800 
@<TRIPOS>BOND
  1   1   2  2   
  2   2   3  am  
  3   2   4  am  
  4   3   5  1   
  5   3   6  1   
  6   4   7  1   
  7   4  25  1   
  8   5   8  1   
  9   5  26  1   
 10   5  27  1   
 11   6   9  1   
 12   6  28  1   
 13   6  29  1   
 14   7  10  ar  
 15   7  11  ar  
 16   8  12  1   
 17   8  30  1   
 18   8  31  1   
 19   9  12  1   
 20   9  32  1   
 21   9  33  1   
 22  10  13  ar  
 23  10  34  1   
 24  11  14  ar  
 25  11  35  1   
 26  12  15  1   
 27  13  16  ar  
 28  13  17  1   
 29  14  16  ar  
 30  14  36  1   
 31  15  18  ar  
 32  15  19  ar  
 33  16  37  1   
 34  17  38  1   
 35  17  39  1   
 36  17  40  1   
 37  18  20  ar  
 38  18  21  1   
 39  19  22  ar  
 40  19  41  1   
 41  20  23  ar  
 42  20  24  1   
 43  21  42  1   
 44  21  43  1   
 45  21  44  1   
 46  22  23  ar  
 47  22  45  1   
 48  23  46  1   
 49  24  47  1   
 50  24  48  1   
 51  24  49  1   
@<TRIPOS>SUBSTRUCTURE
  1 ****   3 GROUP 4 **** **** 0

# MOE 2024.06 (io_trps.svl 2023.06)
