@<TRIPOS>MOLECULE
NONAME
39 40 1 0 0 
SMALL
USER_CHARGES


@<TRIPOS>ATOM
  1 BR       3.0610     1.8870     2.3870 Br    1 <1>  -0.1110 
  2 C        1.7760     2.5620     1.1140 C.ar  1 <1>   0.1110 
  3 C        2.1550     2.7330    -0.2110 C.ar  1 <1>   0.0830 
  4 C        0.5050     2.8560     1.5660 C.ar  1 <1>  -0.1500 
  5 O        3.4280     2.4150    -0.5600 O.3   1 <1>  -0.3630 
  6 C        1.2050     3.2200    -1.1050 C.ar  1 <1>  -0.1500 
  7 C       -0.4340     3.3410     0.6680 C.ar  1 <1>  -0.1430 
  8 C        3.8920     2.5360    -1.8990 C.3   1 <1>   0.1810 
  9 C       -0.0750     3.5190    -0.6620 C.ar  1 <1>  -0.1500 
 10 C       -1.8420     3.6710     1.1360 C.3   1 <1>  -0.0160 
 11 C        5.3460     2.0940    -2.0150 C.2   1 <1>   0.5690 
 12 C       -2.7490     2.4460     1.0060 C.3   1 <1>  -0.2400 
 13 O        5.8840     2.1490    -3.0950 O.2   1 <1>  -0.5700 
 14 N        5.9940     1.6530    -0.9060 N.am  1 <1>  -0.7300 
 15 C        7.3860     1.1900    -0.8260 C.3   1 <1>   0.2200 
 16 C        7.3980    -0.2150    -0.2380 C.3   1 <1>  -0.1600 
 17 C        8.1130     2.0160     0.2280 C.3   1 <1>  -0.1600 
 18 C        7.2680    -0.0330     1.2790 C.3   1 <1>  -0.1600 
 19 C        7.7270     1.4010     1.5780 C.3   1 <1>  -0.1600 
 20 H        0.2580     2.7040     2.6010 H     1 <1>   0.1500 
 21 H        1.4370     3.3740    -2.1410 H     1 <1>   0.1500 
 22 H        3.8090     3.5640    -2.1970 H     1 <1>   0.0800 
 23 H        3.2820     1.9150    -2.5290 H     1 <1>   0.0800 
 24 H       -0.8010     3.8930    -1.3630 H     1 <1>   0.1500 
 25 H       -2.2410     4.4800     0.5490 H     1 <1>   0.0800 
 26 H       -1.8180     3.9940     2.1630 H     1 <1>   0.0800 
 27 H       -2.7950     2.1240    -0.0190 H     1 <1>   0.0800 
 28 H       -3.7440     2.6840     1.3380 H     1 <1>   0.0800 
 29 H       -2.3700     1.6370     1.6050 H     1 <1>   0.0800 
 30 H        5.4780     1.6340    -0.0230 H     1 <1>   0.3700 
 31 H        7.8610     1.2400    -1.7930 H     1 <1>   0.0800 
 32 H        8.3510    -0.6660    -0.4560 H     1 <1>   0.0800 
 33 H        6.6220    -0.8350    -0.6520 H     1 <1>   0.0800 
 34 H        7.8710     3.0620     0.1620 H     1 <1>   0.0800 
 35 H        9.1720     1.8980     0.0800 H     1 <1>   0.0800 
 36 H        7.8650    -0.7570     1.8060 H     1 <1>   0.0800 
 37 H        6.2390    -0.1510     1.5740 H     1 <1>   0.0800 
 38 H        6.9140     1.9560     2.0140 H     1 <1>   0.0800 
 39 H        8.5610     1.4140     2.2590 H     1 <1>   0.0800 
@<TRIPOS>BOND
  1   1   2  1   
  2   2   3  ar  
  3   2   4  ar  
  4   3   5  1   
  5   3   6  ar  
  6   4   7  ar  
  7   4  20  1   
  8   5   8  1   
  9   6   9  ar  
 10   6  21  1   
 11   7   9  ar  
 12   7  10  1   
 13   8  11  1   
 14   8  22  1   
 15   8  23  1   
 16   9  24  1   
 17  10  12  1   
 18  10  25  1   
 19  10  26  1   
 20  11  13  2   
 21  11  14  am  
 22  12  27  1   
 23  12  28  1   
 24  12  29  1   
 25  14  15  1   
 26  14  30  1   
 27  15  16  1   
 28  15  17  1   
 29  15  31  1   
 30  16  18  1   
 31  16  32  1   
 32  16  33  1   
 33  17  19  1   
 34  17  34  1   
 35  17  35  1   
 36  18  19  1   
 37  18  36  1   
 38  18  37  1   
 39  19  38  1   
 40  19  39  1   
@<TRIPOS>SUBSTRUCTURE
  1 ****   5 GROUP 4 **** **** 0

# MOE 2024.06 (io_trps.svl 2023.06)
