@<TRIPOS>MOLECULE
NONAME
31 31 1 0 0 
SMALL
USER_CHARGES


@<TRIPOS>ATOM
  1 I        0.2870    -0.4070     0.2000 I     1 <1>  -0.0810 
  2 C       -1.8180    -0.1060     0.0770 C.ar  1 <1>   0.0810 
  3 C       -2.6190    -1.1690    -0.2940 C.ar  1 <1>  -0.1500 
  4 C       -2.3270     1.1460     0.3720 C.ar  1 <1>  -0.1500 
  5 C       -3.9860    -0.9620    -0.3700 C.ar  1 <1>  -0.1500 
  6 C       -3.6960     1.3390     0.2910 C.ar  1 <1>  -0.1500 
  7 C       -4.5300     0.2830    -0.0810 C.ar  1 <1>   0.0830 
  8 O       -5.8790     0.3900    -0.1830 O.3   1 <1>  -0.3630 
  9 C       -6.5420     1.5980     0.0890 C.3   1 <1>   0.1200 
 10 C       -8.0360     1.3480    -0.1190 C.3   1 <1>  -0.1600 
 11 C       -8.8430     2.6130     0.1660 C.3   1 <1>   0.3430 
 12 N      -10.2880     2.3890    -0.1380 N.4   1 <1>  -0.9590 
 13 C      -11.0220     3.6910    -0.1890 C.3   1 <1>   0.2630 
 14 C      -10.9410     1.4640     0.8440 C.3   1 <1>   0.2630 
 15 H       -2.1910    -2.1300    -0.5170 H     1 <1>   0.1500 
 16 H       -1.6710     1.9490     0.6570 H     1 <1>   0.1500 
 17 H       -4.6390    -1.7680    -0.6560 H     1 <1>   0.1500 
 18 H       -4.0860     2.3120     0.5200 H     1 <1>   0.1500 
 19 H       -6.1710     2.3460    -0.5920 H     1 <1>   0.0800 
 20 H       -6.3300     1.8760     1.1080 H     1 <1>   0.0800 
 21 H       -8.3360     0.5570     0.5440 H     1 <1>   0.0800 
 22 H       -8.1890     1.0420    -1.1390 H     1 <1>   0.0800 
 23 H       -8.4670     3.4110    -0.4540 H     1 <1>   0.0800 
 24 H       -8.7230     2.9030     1.1970 H     1 <1>   0.0800 
 25 H      -10.3440     1.9550    -1.0730 H     1 <1>   0.4500 
 26 H      -10.9850     4.1810     0.7710 H     1 <1>   0.0800 
 27 H      -12.0560     3.5280    -0.4510 H     1 <1>   0.0800 
 28 H      -10.5820     4.3430    -0.9260 H     1 <1>   0.0800 
 29 H      -10.8740     1.8670     1.8410 H     1 <1>   0.0800 
 30 H      -10.4630     0.4980     0.8290 H     1 <1>   0.0800 
 31 H      -11.9820     1.3310     0.5960 H     1 <1>   0.0800 
@<TRIPOS>BOND
  1   1   2  1   
  2   2   3  ar  
  3   2   4  ar  
  4   3   5  ar  
  5   3  15  1   
  6   4   6  ar  
  7   4  16  1   
  8   5   7  ar  
  9   5  17  1   
 10   6   7  ar  
 11   6  18  1   
 12   7   8  1   
 13   8   9  1   
 14   9  10  1   
 15   9  19  1   
 16   9  20  1   
 17  10  11  1   
 18  10  21  1   
 19  10  22  1   
 20  11  12  1   
 21  11  23  1   
 22  11  24  1   
 23  12  13  1   
 24  12  14  1   
 25  12  25  1   
 26  13  26  1   
 27  13  27  1   
 28  13  28  1   
 29  14  29  1   
 30  14  30  1   
 31  14  31  1   
@<TRIPOS>SUBSTRUCTURE
  1 ****   8 GROUP 4 **** **** 0

# MOE 2024.06 (io_trps.svl 2023.06)
