@<TRIPOS>MOLECULE
NONAME
33 34 1 0 0 
SMALL
USER_CHARGES


@<TRIPOS>ATOM
  1 CL      -0.3510     0.5600    -1.6850 Cl    1 <1>  -0.1770 
  2 C       -1.1170     1.8080    -0.7220 C.ar  1 <1>   0.1770 
  3 C       -0.3930     2.9270    -0.3250 C.ar  1 <1>   0.0820 
  4 C       -2.4440     1.6460    -0.3750 C.ar  1 <1>  -0.1500 
  5 O        0.9120     3.0270    -0.6990 O.3   1 <1>  -0.3630 
  6 C       -1.0420     3.8920     0.4400 C.ar  1 <1>  -0.1500 
  7 C       -3.0990     2.6040     0.3870 C.ar  1 <1>  -0.0090 
  8 C        1.6970     4.1420    -0.3430 C.3   1 <1>   0.0400 
  9 C       -2.3740     3.7200     0.7830 C.ar  1 <1>  -0.1500 
 10 S       -4.8380     2.4030     0.8720 S.o2  1 <1>   0.9740 
 11 O       -4.8670     2.2790     2.3220 O.co2 1 <1>  -0.6500 
 12 O       -5.4190     1.3540     0.0470 O.co2 1 <1>  -0.6500 
 13 N       -5.4600     3.8420     0.4640 N.2   1 <1>  -0.7400 
 14 C       -6.7690     4.2710     0.8600 C.3   1 <1>  -0.0050 
 15 C       -7.8420     3.6470    -0.0250 C.3   1 <1>  -0.1600 
 16 C       -6.9090     5.7620     0.5730 C.3   1 <1>  -0.1600 
 17 C       -7.8600     4.4940    -1.2990 C.3   1 <1>  -0.1600 
 18 C       -7.3110     5.8700    -0.9020 C.3   1 <1>  -0.1600 
 19 H       -2.9840     0.7730    -0.6960 H     1 <1>   0.1500 
 20 H       -0.5410     4.7780     0.7770 H     1 <1>   0.1500 
 21 H        2.6800     4.0020    -0.7540 H     1 <1>   0.0800 
 22 H        1.7530     4.2020     0.7290 H     1 <1>   0.0800 
 23 H        1.2510     5.0290    -0.7580 H     1 <1>   0.0800 
 24 H       -2.8850     4.4630     1.3730 H     1 <1>   0.1500 
 25 H       -6.9150     4.0480     1.9040 H     1 <1>   0.0800 
 26 H       -8.7900     3.7370     0.4730 H     1 <1>   0.0800 
 27 H       -7.6560     2.6070    -0.2250 H     1 <1>   0.0800 
 28 H       -6.0020     6.2970     0.7940 H     1 <1>   0.0800 
 29 H       -7.7020     6.1520     1.1840 H     1 <1>   0.0800 
 30 H       -8.8490     4.5550    -1.7160 H     1 <1>   0.0800 
 31 H       -7.1970     4.0450    -2.0190 H     1 <1>   0.0800 
 32 H       -6.4390     6.0860    -1.4940 H     1 <1>   0.0800 
 33 H       -8.0420     6.6450    -1.0460 H     1 <1>   0.0800 
@<TRIPOS>BOND
  1   1   2  1   
  2   2   3  ar  
  3   2   4  ar  
  4   3   5  1   
  5   3   6  ar  
  6   4   7  ar  
  7   4  19  1   
  8   5   8  1   
  9   6   9  ar  
 10   6  20  1   
 11   7   9  ar  
 12   7  10  1   
 13   8  21  1   
 14   8  22  1   
 15   8  23  1   
 16   9  24  1   
 17  10  11  ar  
 18  10  12  ar  
 19  10  13  2   
 20  13  14  1   
 21  14  15  1   
 22  14  16  1   
 23  14  25  1   
 24  15  17  1   
 25  15  26  1   
 26  15  27  1   
 27  16  18  1   
 28  16  28  1   
 29  16  29  1   
 30  17  18  1   
 31  17  30  1   
 32  17  31  1   
 33  18  32  1   
 34  18  33  1   
@<TRIPOS>SUBSTRUCTURE
  1 ****   7 GROUP 4 **** **** 0

# MOE 2024.06 (io_trps.svl 2023.06)
