@<TRIPOS>MOLECULE
NONAME
42 42 1 0 0 
SMALL
USER_CHARGES


@<TRIPOS>ATOM
  1 O       -1.0270     1.1010     0.7970 O.3   1 <1>  -0.5600 
  2 C       -1.0350     1.6230    -0.5010 C.3   1 <1>   0.1200 
  3 C       -2.1380     0.2950     1.0700 C.3   1 <1>   0.1200 
  4 C       -2.3020     2.4650    -0.7350 C.3   1 <1>   0.1100 
  5 C       -3.4440     1.0870     0.8820 C.3   1 <1>   0.1100 
  6 N       -3.5200     1.6770    -0.4720 N.3   1 <1>  -0.8100 
  7 C       -4.7270     2.5000    -0.6510 C.3   1 <1>   0.3100 
  8 C       -5.9600     1.6630    -0.5960 C.1   1 <1>  -0.2000 
  9 C       -6.9570     1.0160    -0.5580 C.1   1 <1>  -0.2000 
 10 C       -8.2140     0.2120    -0.5200 C.3   1 <1>   0.0400 
 11 C       -9.4320     0.9630    -1.0960 C.3   1 <1>   0.2000 
 12 O       -9.5890     2.2690    -0.5880 O.3   1 <1>  -0.5600 
 13 C      -10.7270     0.1470    -1.0520 C.3   1 <1>  -0.2400 
 14 C      -10.0980     2.6780     0.6520 C.3   1 <1>   0.2800 
 15 C      -11.6250     2.7620     0.5780 C.3   1 <1>  -0.2400 
 16 C       -9.5390     4.0890     0.8300 C.3   1 <1>  -0.2400 
 17 C       -9.6320     1.8170     1.8290 C.3   1 <1>  -0.2400 
 18 H       -0.9910     0.8070    -1.2010 H     1 <1>   0.0800 
 19 H       -0.1550     2.2300    -0.6170 H     1 <1>   0.0800 
 20 H       -2.0540    -0.0490     2.0850 H     1 <1>   0.0800 
 21 H       -2.1180    -0.5550     0.4110 H     1 <1>   0.0800 
 22 H       -2.3110     2.8060    -1.7560 H     1 <1>   0.0800 
 23 H       -2.2710     3.3270    -0.0900 H     1 <1>   0.0800 
 24 H       -3.4940     1.8620     1.6280 H     1 <1>   0.0800 
 25 H       -4.2760     0.4210     1.0340 H     1 <1>   0.0800 
 26 H       -4.6910     2.9800    -1.6140 H     1 <1>   0.0800 
 27 H       -4.7730     3.2610     0.1080 H     1 <1>   0.0800 
 28 H       -8.4020    -0.1250     0.4790 H     1 <1>   0.0800 
 29 H       -8.0550    -0.6700    -1.1130 H     1 <1>   0.0800 
 30 H       -9.2070     1.1180    -2.1370 H     1 <1>   0.0800 
 31 H      -10.9810    -0.1350    -0.0490 H     1 <1>   0.0800 
 32 H      -10.6010    -0.7530    -1.6250 H     1 <1>   0.0800 
 33 H      -11.5290     0.7110    -1.4940 H     1 <1>   0.0800 
 34 H      -11.9230     3.2780    -0.3170 H     1 <1>   0.0800 
 35 H      -12.0030     3.3040     1.4250 H     1 <1>   0.0800 
 36 H      -12.0740     1.7900     0.5970 H     1 <1>   0.0800 
 37 H       -8.4640     4.0590     0.8450 H     1 <1>   0.0800 
 38 H       -9.8830     4.5210     1.7520 H     1 <1>   0.0800 
 39 H       -9.8570     4.7190     0.0180 H     1 <1>   0.0800 
 40 H       -9.9730     2.2530     2.7500 H     1 <1>   0.0800 
 41 H      -10.0400     0.8260     1.7760 H     1 <1>   0.0800 
 42 H       -8.5590     1.7770     1.8620 H     1 <1>   0.0800 
@<TRIPOS>BOND
  1   1   2  1   
  2   1   3  1   
  3   2   4  1   
  4   2  18  1   
  5   2  19  1   
  6   3   5  1   
  7   3  20  1   
  8   3  21  1   
  9   4   6  1   
 10   4  22  1   
 11   4  23  1   
 12   5   6  1   
 13   5  24  1   
 14   5  25  1   
 15   6   7  1   
 16   7   8  1   
 17   7  26  1   
 18   7  27  1   
 19   8   9  3   
 20   9  10  1   
 21  10  11  1   
 22  10  28  1   
 23  10  29  1   
 24  11  12  1   
 25  11  13  1   
 26  11  30  1   
 27  12  14  1   
 28  13  31  1   
 29  13  32  1   
 30  13  33  1   
 31  14  15  1   
 32  14  16  1   
 33  14  17  1   
 34  15  34  1   
 35  15  35  1   
 36  15  36  1   
 37  16  37  1   
 38  16  38  1   
 39  16  39  1   
 40  17  40  1   
 41  17  41  1   
 42  17  42  1   
@<TRIPOS>SUBSTRUCTURE
  1 ****   8 GROUP 4 **** **** 0

# MOE 2024.06 (io_trps.svl 2023.06)
