@<TRIPOS>MOLECULE
NONAME
35 36 1 0 0 
SMALL
USER_CHARGES


@<TRIPOS>ATOM
  1 O       -0.0500    -3.1770     2.3560 O.2   1 <1>  -0.5700 
  2 C       -0.5970    -2.5010     1.5190 C.2   1 <1>   0.5690 
  3 N        0.0930    -1.6820     0.6870 N.am  1 <1>  -0.7300 
  4 C       -2.1110    -2.5690     1.3960 C.3   1 <1>   0.0440 
  5 C        1.5450    -1.4660     0.6650 C.3   1 <1>   0.2200 
  6 C       -2.6590    -1.6530     0.3040 C.ar  1 <1>  -0.1440 
  7 C        1.8160     0.0170     0.8820 C.3   1 <1>  -0.1600 
  8 C        2.0470    -1.7080    -0.7520 C.3   1 <1>  -0.1600 
  9 C       -2.8940    -0.3130     0.5720 C.ar  1 <1>  -0.1500 
 10 C       -2.8990    -2.1440    -0.9700 C.ar  1 <1>  -0.1500 
 11 C        1.5770     0.6840    -0.4780 C.3   1 <1>  -0.1600 
 12 C        1.7340    -0.4230    -1.5290 C.3   1 <1>  -0.1600 
 13 C       -3.3590     0.5350    -0.4190 C.ar  1 <1>  -0.1440 
 14 C       -3.3680    -1.3030    -1.9630 C.ar  1 <1>  -0.1500 
 15 C       -3.5970     0.0340    -1.6880 C.ar  1 <1>  -0.1500 
 16 C       -3.6100     2.0010    -0.1140 C.3   1 <1>  -0.0970 
 17 H       -0.4340    -1.1320     0.0030 H     1 <1>   0.3700 
 18 H       -2.5390    -2.2990     2.3440 H     1 <1>   0.0800 
 19 H       -2.3870    -3.5870     1.1950 H     1 <1>   0.0800 
 20 H        2.0360    -2.0910     1.3940 H     1 <1>   0.0800 
 21 H        2.8490     0.1370     1.1550 H     1 <1>   0.0800 
 22 H        1.2030     0.4310     1.6640 H     1 <1>   0.0800 
 23 H        1.6050    -2.5830    -1.1960 H     1 <1>   0.0800 
 24 H        3.1140    -1.8440    -0.7160 H     1 <1>   0.0800 
 25 H       -2.7090     0.0750     1.5590 H     1 <1>   0.1500 
 26 H       -2.7200    -3.1810    -1.1960 H     1 <1>   0.1500 
 27 H        2.2760     1.4860    -0.6410 H     1 <1>   0.0800 
 28 H        0.5770     1.0810    -0.5190 H     1 <1>   0.0800 
 29 H        0.8100    -0.5400    -2.0710 H     1 <1>   0.0800 
 30 H        2.5200    -0.1960    -2.2280 H     1 <1>   0.0800 
 31 H       -3.5550    -1.6880    -2.9500 H     1 <1>   0.1500 
 32 H       -3.9620     0.6800    -2.4660 H     1 <1>   0.1500 
 33 H       -3.5010     2.5960    -1.0030 H     1 <1>   0.0800 
 34 H       -2.9090     2.3570     0.6190 H     1 <1>   0.0800 
 35 H       -4.6070     2.1270     0.2680 H     1 <1>   0.0800 
@<TRIPOS>BOND
  1   1   2  2   
  2   2   3  am  
  3   2   4  1   
  4   3   5  1   
  5   3  17  1   
  6   4   6  1   
  7   4  18  1   
  8   4  19  1   
  9   5   7  1   
 10   5   8  1   
 11   5  20  1   
 12   6   9  ar  
 13   6  10  ar  
 14   7  11  1   
 15   7  21  1   
 16   7  22  1   
 17   8  12  1   
 18   8  23  1   
 19   8  24  1   
 20   9  13  ar  
 21   9  25  1   
 22  10  14  ar  
 23  10  26  1   
 24  11  12  1   
 25  11  27  1   
 26  11  28  1   
 27  12  29  1   
 28  12  30  1   
 29  13  15  ar  
 30  13  16  1   
 31  14  15  ar  
 32  14  31  1   
 33  15  32  1   
 34  16  33  1   
 35  16  34  1   
 36  16  35  1   
@<TRIPOS>SUBSTRUCTURE
  1 ****   3 GROUP 4 **** **** 0

# MOE 2024.06 (io_trps.svl 2023.06)
