@<TRIPOS>MOLECULE
NONAME
42 43 1 0 0 
SMALL
USER_CHARGES


@<TRIPOS>ATOM
  1 N        0.0340     0.1310    -0.0690 N.4   1 <1>  -0.9590 
  2 C        1.2300     0.9890    -0.2630 C.3   1 <1>   0.4230 
  3 C       -1.2480     0.7450    -0.5500 C.3   1 <1>   0.3430 
  4 C       -0.1520    -0.4680     1.2980 C.3   1 <1>   0.3430 
  5 C        2.4920     0.1290    -0.1210 C.3   1 <1>  -0.1600 
  6 C        1.2110     2.1660     0.7170 C.3   1 <1>  -0.2400 
  7 C       -2.4090    -0.2800    -0.5090 C.3   1 <1>   0.1100 
  8 C       -1.3160    -1.4900     1.3020 C.3   1 <1>   0.1100 
  9 C        3.7600     0.8350    -0.6250 C.3   1 <1>  -0.0170 
 10 N       -1.9650    -1.6080    -0.0250 N.3   1 <1>  -0.8100 
 11 C        4.9430    -0.1100    -0.5190 C.ar  1 <1>  -0.1430 
 12 C       -3.0790    -2.5660     0.0070 C.3   1 <1>   0.0300 
 13 C        5.2660    -0.9500    -1.5730 C.ar  1 <1>  -0.1500 
 14 C        5.7090    -0.1440     0.6370 C.ar  1 <1>  -0.1500 
 15 C        6.3400    -1.8180    -1.4730 C.ar  1 <1>  -0.1500 
 16 C        6.7840    -1.0110     0.7380 C.ar  1 <1>  -0.1500 
 17 C        7.0990    -1.8490    -0.3170 C.ar  1 <1>  -0.1500 
 18 H        0.1220    -0.7040    -0.6690 H     1 <1>   0.4500 
 19 H        1.2060     1.3790    -1.2690 H     1 <1>   0.0800 
 20 H       -1.1300     1.0940    -1.5630 H     1 <1>   0.0800 
 21 H       -1.5050     1.5940     0.0610 H     1 <1>   0.0800 
 22 H       -0.3590     0.3080     2.0160 H     1 <1>   0.0800 
 23 H        0.7490    -0.9700     1.6080 H     1 <1>   0.0800 
 24 H        2.3720    -0.7710    -0.6980 H     1 <1>   0.0800 
 25 H        2.6440    -0.1480     0.9070 H     1 <1>   0.0800 
 26 H        1.3430     1.8360     1.7310 H     1 <1>   0.0800 
 27 H        0.2960     2.7230     0.6380 H     1 <1>   0.0800 
 28 H        2.0130     2.8440     0.4870 H     1 <1>   0.0800 
 29 H       -2.8190    -0.3810    -1.5000 H     1 <1>   0.0800 
 30 H       -3.1920     0.0990     0.1270 H     1 <1>   0.0800 
 31 H       -2.0420    -1.1950     2.0410 H     1 <1>   0.0800 
 32 H       -0.9310    -2.4520     1.5940 H     1 <1>   0.0800 
 33 H        3.9660     1.7170    -0.0440 H     1 <1>   0.0800 
 34 H        3.6380     1.1380    -1.6510 H     1 <1>   0.0800 
 35 H       -3.5060    -2.6680    -0.9760 H     1 <1>   0.0800 
 36 H       -3.8460    -2.2380     0.6890 H     1 <1>   0.0800 
 37 H       -2.7230    -3.5330     0.3200 H     1 <1>   0.0800 
 38 H        4.6870    -0.9370    -2.4800 H     1 <1>   0.1500 
 39 H        5.4780     0.5020     1.4650 H     1 <1>   0.1500 
 40 H        6.5860    -2.4680    -2.2940 H     1 <1>   0.1500 
 41 H        7.3760    -1.0330     1.6360 H     1 <1>   0.1500 
 42 H        7.9340    -2.5230    -0.2390 H     1 <1>   0.1500 
@<TRIPOS>BOND
  1   1   2  1   
  2   1   3  1   
  3   1   4  1   
  4   1  18  1   
  5   2   5  1   
  6   2   6  1   
  7   2  19  1   
  8   3   7  1   
  9   3  20  1   
 10   3  21  1   
 11   4   8  1   
 12   4  22  1   
 13   4  23  1   
 14   5   9  1   
 15   5  24  1   
 16   5  25  1   
 17   6  26  1   
 18   6  27  1   
 19   6  28  1   
 20   7  10  1   
 21   7  29  1   
 22   7  30  1   
 23   8  10  1   
 24   8  31  1   
 25   8  32  1   
 26   9  11  1   
 27   9  33  1   
 28   9  34  1   
 29  10  12  1   
 30  11  13  ar  
 31  11  14  ar  
 32  12  35  1   
 33  12  36  1   
 34  12  37  1   
 35  13  15  ar  
 36  13  38  1   
 37  14  16  ar  
 38  14  39  1   
 39  15  17  ar  
 40  15  40  1   
 41  16  17  ar  
 42  16  41  1   
 43  17  42  1   
@<TRIPOS>SUBSTRUCTURE
  1 ****   5 GROUP 4 **** **** 0

# MOE 2024.06 (io_trps.svl 2023.06)
