@<TRIPOS>MOLECULE
NONAME
51 52 1 0 0 
SMALL
USER_CHARGES


@<TRIPOS>ATOM
  1 BR       2.7690     0.9910    -1.5690 Br    1 <1>  -0.1110 
  2 C        1.5910     2.1780    -0.6050 C.ar  1 <1>   0.1110 
  3 C        1.9280     2.5830     0.6790 C.ar  1 <1>   0.0830 
  4 C        0.4390     2.6030    -1.2370 C.ar  1 <1>  -0.1500 
  5 O        3.0820     2.1290     1.2290 O.3   1 <1>  -0.3630 
  6 C        1.0610     3.4440     1.3410 C.ar  1 <1>  -0.1500 
  7 C       -0.4200     3.4680    -0.5740 C.ar  1 <1>  -0.1430 
  8 C        3.7750     2.9250     2.1800 C.3   1 <1>   0.1810 
  9 C       -0.0970     3.8800     0.7150 C.ar  1 <1>  -0.1500 
 10 C       -1.6950     3.9470    -1.2640 C.3   1 <1>   0.0640 
 11 C        5.1990     2.4200     2.4000 C.2   1 <1>   0.5690 
 12 C       -1.6820     5.4690    -1.4380 C.3   1 <1>  -0.2400 
 13 C       -2.9380     3.4980    -0.4910 C.3   1 <1>  -0.2400 
 14 O        5.4950     2.1140     3.5340 O.2   1 <1>  -0.5700 
 15 N        6.1140     2.3450     1.3730 N.am  1 <1>  -0.6600 
 16 C        5.8280     2.7000    -0.0470 C.3   1 <1>   0.1400 
 17 C        7.4820     1.8020     1.6020 C.3   1 <1>   0.1400 
 18 C        6.8600     3.7150    -0.5420 C.3   1 <1>  -0.1600 
 19 C        8.5260     2.8150     1.1260 C.3   1 <1>  -0.1600 
 20 C        8.3050     3.2100    -0.3470 C.3   1 <1>  -0.0190 
 21 C        9.3550     4.2210    -0.8070 C.2   1 <1>   0.6590 
 22 O        9.0950     5.3770    -1.0260 O.2   1 <1>  -0.5700 
 23 O       10.5820     3.7390    -0.9500 O.3   1 <1>  -0.4300 
 24 C       11.6510     4.5600    -1.3590 C.3   1 <1>   0.1200 
 25 C       12.9120     3.7050    -1.4090 C.3   1 <1>  -0.2400 
 26 H        0.2260     2.2590    -2.2330 H     1 <1>   0.1500 
 27 H        1.2650     3.7770     2.3420 H     1 <1>   0.1500 
 28 H        3.2350     2.8820     3.1080 H     1 <1>   0.0800 
 29 H        3.8070     3.9370     1.8240 H     1 <1>   0.0800 
 30 H       -0.7560     4.5460     1.2430 H     1 <1>   0.1500 
 31 H       -1.7440     3.5070    -2.2460 H     1 <1>   0.0800 
 32 H       -1.6860     5.9650    -0.4840 H     1 <1>   0.0800 
 33 H       -2.5460     5.7880    -1.9940 H     1 <1>   0.0800 
 34 H       -0.8000     5.7680    -1.9770 H     1 <1>   0.0800 
 35 H       -2.9700     3.9500     0.4840 H     1 <1>   0.0800 
 36 H       -2.9290     2.4290    -0.3720 H     1 <1>   0.0800 
 37 H       -3.8290     3.7740    -1.0260 H     1 <1>   0.0800 
 38 H        4.8470     3.1220    -0.1590 H     1 <1>   0.0800 
 39 H        5.8730     1.8050    -0.6460 H     1 <1>   0.0800 
 40 H        7.5860     0.8790     1.0570 H     1 <1>   0.0800 
 41 H        7.6400     1.5890     2.6460 H     1 <1>   0.0800 
 42 H        6.7210     4.6390    -0.0060 H     1 <1>   0.0800 
 43 H        6.6860     3.9170    -1.5840 H     1 <1>   0.0800 
 44 H        9.5060     2.3870     1.2450 H     1 <1>   0.0800 
 45 H        8.4710     3.6890     1.7520 H     1 <1>   0.0800 
 46 H        8.4320     2.3310    -0.9530 H     1 <1>   0.0800 
 47 H       11.7550     5.3630    -0.6490 H     1 <1>   0.0800 
 48 H       11.4180     4.9650    -2.3300 H     1 <1>   0.0800 
 49 H       13.1250     3.2990    -0.4360 H     1 <1>   0.0800 
 50 H       13.7470     4.3080    -1.7180 H     1 <1>   0.0800 
 51 H       12.7900     2.9040    -2.1160 H     1 <1>   0.0800 
@<TRIPOS>BOND
  1   1   2  1   
  2   2   3  ar  
  3   2   4  ar  
  4   3   5  1   
  5   3   6  ar  
  6   4   7  ar  
  7   4  26  1   
  8   5   8  1   
  9   6   9  ar  
 10   6  27  1   
 11   7   9  ar  
 12   7  10  1   
 13   8  11  1   
 14   8  28  1   
 15   8  29  1   
 16   9  30  1   
 17  10  12  1   
 18  10  13  1   
 19  10  31  1   
 20  11  14  2   
 21  11  15  am  
 22  12  32  1   
 23  12  33  1   
 24  12  34  1   
 25  13  35  1   
 26  13  36  1   
 27  13  37  1   
 28  15  16  1   
 29  15  17  1   
 30  16  18  1   
 31  16  38  1   
 32  16  39  1   
 33  17  19  1   
 34  17  40  1   
 35  17  41  1   
 36  18  20  1   
 37  18  42  1   
 38  18  43  1   
 39  19  20  1   
 40  19  44  1   
 41  19  45  1   
 42  20  21  1   
 43  20  46  1   
 44  21  22  2   
 45  21  23  1   
 46  23  24  1   
 47  24  25  1   
 48  24  47  1   
 49  24  48  1   
 50  25  49  1   
 51  25  50  1   
 52  25  51  1   
@<TRIPOS>SUBSTRUCTURE
  1 ****  16 GROUP 4 **** **** 0

# MOE 2024.06 (io_trps.svl 2023.06)
