@<TRIPOS>MOLECULE
NONAME
52 53 1 0 0 
SMALL
USER_CHARGES


@<TRIPOS>ATOM
  1 S        0.6120    -0.3130     2.0700 S.o2  1 <1>   1.3330 
  2 O        1.6480    -1.2990     2.2960 O.2   1 <1>  -0.6500 
  3 O       -0.4150    -0.1380     3.0690 O.2   1 <1>  -0.6500 
  4 N       -0.1370    -0.7020     0.6040 N.am  1 <1>  -0.8490 
  5 C        1.3340     1.2880     1.7600 C.3   1 <1>  -0.1350 
  6 C       -1.4110    -1.3940     0.8440 C.3   1 <1>   0.3390 
  7 C        0.7320    -1.4630    -0.3480 C.3   1 <1>   0.2570 
  8 C       -2.1380    -1.7340    -0.4520 C.ar  1 <1>  -0.1440 
  9 C        2.0620    -0.7990    -0.7430 C.2   1 <1>   0.5690 
 10 C       -2.4560    -0.7330    -1.3580 C.ar  1 <1>  -0.1500 
 11 C       -2.4880    -3.0450    -0.7400 C.ar  1 <1>  -0.1500 
 12 O        2.0760    -0.0490    -1.6880 O.2   1 <1>  -0.5700 
 13 N        3.1730    -1.0760     0.0100 N.am  1 <1>  -0.5470 
 14 C       -3.1100    -1.0370    -2.5390 C.ar  1 <1>  -0.1500 
 15 C       -3.1430    -3.3510    -1.9200 C.ar  1 <1>  -0.1500 
 16 C        4.5030    -0.6490    -0.1020 C.ar  1 <1>   0.1170 
 17 C       -3.4540    -2.3470    -2.8200 C.ar  1 <1>  -0.1500 
 18 C        5.0590    -0.1870    -1.2900 C.ar  1 <1>  -0.1500 
 19 C        5.3110    -0.7010     1.0270 C.ar  1 <1>  -0.1500 
 20 C        6.3810     0.2160    -1.3440 C.ar  1 <1>  -0.1500 
 21 C        6.6330    -0.2990     0.9750 C.ar  1 <1>  -0.1500 
 22 C        7.1780     0.1650    -0.2120 C.ar  1 <1>  -0.1430 
 23 C        8.6320     0.6070    -0.2740 C.3   1 <1>  -0.0170 
 24 C        9.5380    -0.5750    -0.6380 C.3   1 <1>  -0.1600 
 25 C       11.0110    -0.1530    -0.7130 C.3   1 <1>  -0.1600 
 26 C       11.9050    -1.3410    -1.0770 C.3   1 <1>  -0.2400 
 27 H        2.0590     1.2430     0.9730 H     1 <1>   0.0800 
 28 H        1.8170     1.6490     2.6460 H     1 <1>   0.0800 
 29 H        0.5700     1.9850     1.4790 H     1 <1>   0.0800 
 30 H       -2.0630    -0.7590     1.4220 H     1 <1>   0.0800 
 31 H       -1.2350    -2.2900     1.4150 H     1 <1>   0.0800 
 32 H        0.2020    -1.6160    -1.2710 H     1 <1>   0.0800 
 33 H        0.9440    -2.4350     0.0610 H     1 <1>   0.0800 
 34 H       -2.1850     0.2880    -1.1460 H     1 <1>   0.1500 
 35 H       -2.2550    -3.8370    -0.0490 H     1 <1>   0.1500 
 36 H        2.9610    -1.5530     0.8970 H     1 <1>   0.3700 
 37 H       -3.3510    -0.2550    -3.2370 H     1 <1>   0.1500 
 38 H       -3.4130    -4.3700    -2.1390 H     1 <1>   0.1500 
 39 H       -3.9640    -2.5850    -3.7380 H     1 <1>   0.1500 
 40 H        4.4620    -0.1430    -2.1820 H     1 <1>   0.1500 
 41 H        4.9040    -1.0580     1.9560 H     1 <1>   0.1500 
 42 H        6.7880     0.5700    -2.2750 H     1 <1>   0.1500 
 43 H        7.2410    -0.3490     1.8620 H     1 <1>   0.1500 
 44 H        8.9260     1.0110     0.6790 H     1 <1>   0.0800 
 45 H        8.7390     1.3870    -1.0070 H     1 <1>   0.0800 
 46 H        9.2290    -0.9750    -1.5880 H     1 <1>   0.0800 
 47 H        9.4210    -1.3490     0.1010 H     1 <1>   0.0800 
 48 H       11.3230     0.2450     0.2380 H     1 <1>   0.0800 
 49 H       11.1300     0.6190    -1.4540 H     1 <1>   0.0800 
 50 H       11.8190    -2.1170    -0.3380 H     1 <1>   0.0800 
 51 H       12.9330    -1.0270    -1.1260 H     1 <1>   0.0800 
 52 H       11.6250    -1.7430    -2.0350 H     1 <1>   0.0800 
@<TRIPOS>BOND
  1   1   2  2   
  2   1   3  2   
  3   1   4  am  
  4   1   5  1   
  5   4   6  1   
  6   4   7  1   
  7   5  27  1   
  8   5  28  1   
  9   5  29  1   
 10   6   8  1   
 11   6  30  1   
 12   6  31  1   
 13   7   9  1   
 14   7  32  1   
 15   7  33  1   
 16   8  10  ar  
 17   8  11  ar  
 18   9  12  2   
 19   9  13  am  
 20  10  14  ar  
 21  10  34  1   
 22  11  15  ar  
 23  11  35  1   
 24  13  16  1   
 25  13  36  1   
 26  14  17  ar  
 27  14  37  1   
 28  15  17  ar  
 29  15  38  1   
 30  16  18  ar  
 31  16  19  ar  
 32  17  39  1   
 33  18  20  ar  
 34  18  40  1   
 35  19  21  ar  
 36  19  41  1   
 37  20  22  ar  
 38  20  42  1   
 39  21  22  ar  
 40  21  43  1   
 41  22  23  1   
 42  23  24  1   
 43  23  44  1   
 44  23  45  1   
 45  24  25  1   
 46  24  46  1   
 47  24  47  1   
 48  25  26  1   
 49  25  48  1   
 50  25  49  1   
 51  26  50  1   
 52  26  51  1   
 53  26  52  1   
@<TRIPOS>SUBSTRUCTURE
  1 ****  13 GROUP 4 **** **** 0

# MOE 2024.06 (io_trps.svl 2023.06)
