@<TRIPOS>MOLECULE
NONAME
57 58 1 0 0 
SMALL
USER_CHARGES


@<TRIPOS>ATOM
  1 O       -0.8510    -3.1290    -0.2450 O.3   1 <1>  -0.5600 
  2 C       -2.2070    -2.8240    -0.3600 C.3   1 <1>   0.2000 
  3 C        0.0070    -2.3960    -1.0680 C.3   1 <1>   0.1200 
  4 C       -2.5350    -1.6280     0.5470 C.3   1 <1>  -0.1600 
  5 C       -2.9820    -4.0720     0.0690 C.3   1 <1>  -0.1600 
  6 C        1.4410    -2.8740    -0.8020 C.3   1 <1>   0.2000 
  7 C       -4.0470    -1.3240     0.6090 C.3   1 <1>   0.0000 
  8 C       -4.4960    -3.8130     0.0870 C.3   1 <1>  -0.0800 
  9 O        1.6310    -2.9360     0.5780 O.3   1 <1>  -0.6800 
 10 C        2.5150    -1.9530    -1.4190 C.3   1 <1>   0.3430 
 11 C       -4.8260    -2.6040     0.9830 C.3   1 <1>  -0.1600 
 12 C       -4.5430    -0.7550    -0.7330 C.3   1 <1>  -0.2400 
 13 C       -4.2960    -0.2610     1.6890 C.3   1 <1>  -0.2400 
 14 C       -5.2440    -5.0580     0.5770 C.3   1 <1>  -0.2400 
 15 N        3.8130    -2.1140    -0.6940 N.4   1 <1>  -0.9590 
 16 C        4.6570    -0.8900    -0.7390 C.3   1 <1>   0.3430 
 17 C        4.5490    -3.3460    -1.0930 C.3   1 <1>   0.3430 
 18 C        5.8620    -1.0600     0.1860 C.3   1 <1>  -0.1600 
 19 C        5.7520    -3.5470    -0.1720 C.3   1 <1>  -0.1600 
 20 C        6.6730    -2.3180    -0.1610 C.3   1 <1>  -0.0800 
 21 C        7.8210    -2.5120     0.8350 C.3   1 <1>  -0.2400 
 22 H       -2.4340    -2.6020    -1.3890 H     1 <1>   0.0800 
 23 H       -0.0930    -1.3500    -0.8320 H     1 <1>   0.0800 
 24 H       -0.2670    -2.5640    -2.0950 H     1 <1>   0.0800 
 25 H       -2.0160    -0.7520     0.2050 H     1 <1>   0.0800 
 26 H       -2.1880    -1.8570     1.5390 H     1 <1>   0.0800 
 27 H       -2.6610    -4.3620     1.0540 H     1 <1>   0.0800 
 28 H       -2.7640    -4.8740    -0.6120 H     1 <1>   0.0800 
 29 H        1.5490    -3.8720    -1.1900 H     1 <1>   0.0800 
 30 H       -4.8240    -3.6070    -0.9170 H     1 <1>   0.0800 
 31 H        0.7770    -3.2540     0.9630 H     1 <1>   0.4000 
 32 H        2.1760    -0.9360    -1.3150 H     1 <1>   0.0800 
 33 H        2.6310    -2.1600    -2.4690 H     1 <1>   0.0800 
 34 H       -5.8840    -2.4070     0.9410 H     1 <1>   0.0800 
 35 H       -4.5920    -2.8650     2.0010 H     1 <1>   0.0800 
 36 H       -5.5950    -0.5350    -0.6770 H     1 <1>   0.0800 
 37 H       -4.3930    -1.4450    -1.5410 H     1 <1>   0.0800 
 38 H       -4.0230     0.1560    -0.9700 H     1 <1>   0.0800 
 39 H       -3.9630    -0.6090     2.6510 H     1 <1>   0.0800 
 40 H       -5.3450    -0.0320     1.7590 H     1 <1>   0.0800 
 41 H       -3.7660     0.6470     1.4580 H     1 <1>   0.0800 
 42 H       -4.9480    -5.3110     1.5800 H     1 <1>   0.0800 
 43 H       -5.0320    -5.8960    -0.0640 H     1 <1>   0.0800 
 44 H       -6.3050    -4.8840     0.5660 H     1 <1>   0.0800 
 45 H        3.5090    -2.2670     0.2890 H     1 <1>   0.4500 
 46 H        4.0830    -0.0330    -0.4230 H     1 <1>   0.0800 
 47 H        4.9990    -0.7200    -1.7470 H     1 <1>   0.0800 
 48 H        4.8880    -3.2560    -2.1120 H     1 <1>   0.0800 
 49 H        3.9000    -4.2040    -1.0210 H     1 <1>   0.0800 
 50 H        5.5190    -1.1090     1.2060 H     1 <1>   0.0800 
 51 H        6.4920    -0.1920     0.1000 H     1 <1>   0.0800 
 52 H        6.3060    -4.4070    -0.5060 H     1 <1>   0.0800 
 53 H        5.4010    -3.7580     0.8240 H     1 <1>   0.0800 
 54 H        7.0980    -2.1950    -1.1450 H     1 <1>   0.0800 
 55 H        7.4470    -2.6400     1.8360 H     1 <1>   0.0800 
 56 H        8.4770    -1.6580     0.8230 H     1 <1>   0.0800 
 57 H        8.4010    -3.3800     0.5740 H     1 <1>   0.0800 
@<TRIPOS>BOND
  1   1   2  1   
  2   1   3  1   
  3   2   4  1   
  4   2   5  1   
  5   2  22  1   
  6   3   6  1   
  7   3  23  1   
  8   3  24  1   
  9   4   7  1   
 10   4  25  1   
 11   4  26  1   
 12   5   8  1   
 13   5  27  1   
 14   5  28  1   
 15   6   9  1   
 16   6  10  1   
 17   6  29  1   
 18   7  11  1   
 19   7  12  1   
 20   7  13  1   
 21   8  11  1   
 22   8  14  1   
 23   8  30  1   
 24   9  31  1   
 25  10  15  1   
 26  10  32  1   
 27  10  33  1   
 28  11  34  1   
 29  11  35  1   
 30  12  36  1   
 31  12  37  1   
 32  12  38  1   
 33  13  39  1   
 34  13  40  1   
 35  13  41  1   
 36  14  42  1   
 37  14  43  1   
 38  14  44  1   
 39  15  16  1   
 40  15  17  1   
 41  15  45  1   
 42  16  18  1   
 43  16  46  1   
 44  16  47  1   
 45  17  19  1   
 46  17  48  1   
 47  17  49  1   
 48  18  20  1   
 49  18  50  1   
 50  18  51  1   
 51  19  20  1   
 52  19  52  1   
 53  19  53  1   
 54  20  21  1   
 55  20  54  1   
 56  21  55  1   
 57  21  56  1   
 58  21  57  1   
@<TRIPOS>SUBSTRUCTURE
  1 ****   3 GROUP 4 **** **** 0

# MOE 2024.06 (io_trps.svl 2023.06)
