@<TRIPOS>MOLECULE
NONAME
42 44 1 0 0 
SMALL
USER_CHARGES


@<TRIPOS>ATOM
  1 S       -0.0260    -0.1440     0.3090 S.3   1 <1>  -0.3320 
  2 C       -0.2200     1.6340     0.1910 C.ar  1 <1>   0.4120 
  3 C        1.7800    -0.4150     0.6010 C.3   1 <1>  -0.0100 
  4 N        0.8870     2.3280     0.2530 N.ar  1 <1>  -0.6200 
  5 C       -1.4790     2.1680     0.0220 C.ar  1 <1>   0.0860 
  6 C        0.7500     3.6490     0.1350 C.ar  1 <1>   0.6200 
  7 C       -1.5070     3.5540    -0.0940 C.ar  1 <1>   0.4100 
  8 C       -2.6540     1.3660    -0.0590 C.2   1 <1>   0.4230 
  9 N       -0.4030     4.2770    -0.0450 N.ar  1 <1>  -0.6200 
 10 C        1.9580     4.4570     0.2030 C.ar  1 <1>   0.0000 
 11 N       -2.6770     4.2550    -0.2690 N.pl3 1 <1>  -0.8380 
 12 O       -3.2840     1.0090     0.9050 O.2   1 <1>  -0.5700 
 13 C       -3.1630     0.9480    -1.4210 C.3   1 <1>  -0.1790 
 14 C        1.9370     5.7620     0.7060 C.ar  1 <1>  -0.1500 
 15 C        3.1950     3.9690    -0.2290 C.ar  1 <1>  -0.1500 
 16 C       -3.7410     4.2350     0.7850 C.3   1 <1>   0.2090 
 17 C       -2.7360     5.4840    -1.1220 C.3   1 <1>   0.2090 
 18 C        3.0810     6.5350     0.7730 C.ar  1 <1>  -0.1500 
 19 C        4.3440     4.7360    -0.1650 C.ar  1 <1>  -0.1500 
 20 C       -3.8100     5.5810     1.5300 C.3   1 <1>   0.1200 
 21 C       -2.8420     6.7500    -0.2540 C.3   1 <1>   0.1200 
 22 C        4.2890     6.0230     0.3370 C.ar  1 <1>  -0.1500 
 23 O       -3.9220     6.6540     0.6350 O.3   1 <1>  -0.5600 
 24 H        1.9410    -1.4720     0.7050 H     1 <1>   0.0800 
 25 H        2.0500     0.1080     1.5010 H     1 <1>   0.0800 
 26 H        2.3140    -0.0240    -0.2460 H     1 <1>   0.0800 
 27 H       -2.5460     1.3540    -2.2010 H     1 <1>   0.0800 
 28 H       -4.1690     1.3030    -1.5490 H     1 <1>   0.0800 
 29 H       -3.1590    -0.1250    -1.4890 H     1 <1>   0.0800 
 30 H        1.0060     6.1770     1.0520 H     1 <1>   0.1500 
 31 H        3.2590     2.9700    -0.6250 H     1 <1>   0.1500 
 32 H       -3.5430     3.4580     1.5040 H     1 <1>   0.0800 
 33 H       -4.6930     4.0290     0.3290 H     1 <1>   0.0800 
 34 H       -3.5940     5.4260    -1.7670 H     1 <1>   0.0800 
 35 H       -1.8600     5.5480    -1.7450 H     1 <1>   0.0800 
 36 H        3.0330     7.5360     1.1650 H     1 <1>   0.1500 
 37 H        5.2820     4.3330    -0.5050 H     1 <1>   0.1500 
 38 H       -2.9250     5.7220     2.1250 H     1 <1>   0.0800 
 39 H       -4.6680     5.6020     2.1770 H     1 <1>   0.0800 
 40 H       -3.0020     7.6130    -0.8750 H     1 <1>   0.0800 
 41 H       -1.9380     6.8910     0.3110 H     1 <1>   0.0800 
 42 H        5.1810     6.6230     0.3890 H     1 <1>   0.1500 
@<TRIPOS>BOND
  1   1   2  1   
  2   1   3  1   
  3   2   4  ar  
  4   2   5  ar  
  5   3  24  1   
  6   3  25  1   
  7   3  26  1   
  8   4   6  ar  
  9   5   7  ar  
 10   5   8  1   
 11   6   9  ar  
 12   6  10  1   
 13   7   9  ar  
 14   7  11  1   
 15   8  12  2   
 16   8  13  1   
 17  10  14  ar  
 18  10  15  ar  
 19  11  16  1   
 20  11  17  1   
 21  13  27  1   
 22  13  28  1   
 23  13  29  1   
 24  14  18  ar  
 25  14  30  1   
 26  15  19  ar  
 27  15  31  1   
 28  16  20  1   
 29  16  32  1   
 30  16  33  1   
 31  17  21  1   
 32  17  34  1   
 33  17  35  1   
 34  18  22  ar  
 35  18  36  1   
 36  19  22  ar  
 37  19  37  1   
 38  20  23  1   
 39  20  38  1   
 40  20  39  1   
 41  21  23  1   
 42  21  40  1   
 43  21  41  1   
 44  22  42  1   
@<TRIPOS>SUBSTRUCTURE
  1 ****   9 GROUP 4 **** **** 0

# MOE 2024.06 (io_trps.svl 2023.06)
