@<TRIPOS>MOLECULE
NONAME
37 37 1 0 0 
SMALL
USER_CHARGES


@<TRIPOS>ATOM
  1 O        2.8260    -5.7580    -0.2780 O.3   1 <1>  -0.3630 
  2 C        4.0290    -5.1390    -0.3920 C.ar  1 <1>   0.0830 
  3 C        1.6300    -5.0260    -0.2270 C.3   1 <1>   0.1200 
  4 C        5.1470    -5.9580    -0.4320 C.ar  1 <1>  -0.1500 
  5 C        4.1870    -3.7580    -0.4670 C.ar  1 <1>  -0.1500 
  6 C        0.4920    -6.0390    -0.0990 C.3   1 <1>   0.3430 
  7 C        6.4160    -5.4170    -0.5470 C.ar  1 <1>  -0.1440 
  8 C        5.4550    -3.2160    -0.5800 C.ar  1 <1>  -0.1500 
  9 N       -0.8470    -5.3690    -0.0350 N.4   1 <1>  -0.9060 
 10 C        6.5650    -4.0420    -0.6190 C.ar  1 <1>  -0.1500 
 11 C        7.6380    -6.3170    -0.5890 C.3   1 <1>  -0.0970 
 12 C       -2.0090    -6.2530     0.0890 C.3   1 <1>   0.5030 
 13 C       -3.2330    -5.3440     0.1340 C.3   1 <1>  -0.2400 
 14 C       -2.0920    -7.1740    -1.1280 C.3   1 <1>  -0.2400 
 15 C       -1.9130    -7.0580     1.3840 C.3   1 <1>  -0.2400 
 16 H        1.5470    -4.4600    -1.1380 H     1 <1>   0.0800 
 17 H        1.6730    -4.3780     0.6320 H     1 <1>   0.0800 
 18 H        5.0150    -7.0230    -0.3720 H     1 <1>   0.1500 
 19 H        3.3510    -3.0870    -0.4390 H     1 <1>   0.1500 
 20 H        0.6520    -6.6200     0.7940 H     1 <1>   0.0800 
 21 H        0.5280    -6.7010    -0.9490 H     1 <1>   0.0800 
 22 H        5.5850    -2.1490    -0.6380 H     1 <1>   0.1500 
 23 H       -0.9900    -4.8040    -0.8780 H     1 <1>   0.4500 
 24 H       -0.8730    -4.7280     0.7650 H     1 <1>   0.4500 
 25 H        7.5470    -3.6100    -0.7060 H     1 <1>   0.1500 
 26 H        7.3650    -7.3170    -0.8750 H     1 <1>   0.0800 
 27 H        8.1010    -6.3480     0.3810 H     1 <1>   0.0800 
 28 H        8.3510    -5.9440    -1.3030 H     1 <1>   0.0800 
 29 H       -3.1980    -4.6820     0.9810 H     1 <1>   0.0800 
 30 H       -4.1260    -5.9390     0.2250 H     1 <1>   0.0800 
 31 H       -3.3220    -4.7630    -0.7670 H     1 <1>   0.0800 
 32 H       -2.1080    -6.6100    -2.0430 H     1 <1>   0.0800 
 33 H       -2.9990    -7.7510    -1.0830 H     1 <1>   0.0800 
 34 H       -1.2750    -7.8730    -1.1540 H     1 <1>   0.0800 
 35 H       -1.8040    -6.4120     2.2370 H     1 <1>   0.0800 
 36 H       -1.0960    -7.7570     1.3590 H     1 <1>   0.0800 
 37 H       -2.8140    -7.6310     1.5210 H     1 <1>   0.0800 
@<TRIPOS>BOND
  1   1   2  1   
  2   1   3  1   
  3   2   4  ar  
  4   2   5  ar  
  5   3   6  1   
  6   3  16  1   
  7   3  17  1   
  8   4   7  ar  
  9   4  18  1   
 10   5   8  ar  
 11   5  19  1   
 12   6   9  1   
 13   6  20  1   
 14   6  21  1   
 15   7  10  ar  
 16   7  11  1   
 17   8  10  ar  
 18   8  22  1   
 19   9  12  1   
 20   9  23  1   
 21   9  24  1   
 22  10  25  1   
 23  11  26  1   
 24  11  27  1   
 25  11  28  1   
 26  12  13  1   
 27  12  14  1   
 28  12  15  1   
 29  13  29  1   
 30  13  30  1   
 31  13  31  1   
 32  14  32  1   
 33  14  33  1   
 34  14  34  1   
 35  15  35  1   
 36  15  36  1   
 37  15  37  1   
@<TRIPOS>SUBSTRUCTURE
  1 ****   1 GROUP 4 **** **** 0

# MOE 2024.06 (io_trps.svl 2023.06)
