@<TRIPOS>MOLECULE
NONAME
44 45 1 0 0 
SMALL
USER_CHARGES


@<TRIPOS>ATOM
  1 P        0.4590     0.3270    -0.6340 P.3   1 <1>   1.2420 
  2 O        0.1290     0.9700    -1.9080 O.2   1 <1>  -0.7000 
  3 O       -0.0210     1.1810     0.6440 O.3   1 <1>  -0.5510 
  4 O       -0.3350    -1.0630    -0.4400 O.3   1 <1>  -0.5510 
  5 C        2.2100    -0.0990    -0.3570 C.3   1 <1>   0.4330 
  6 C       -1.3010     1.7090     0.7130 C.3   1 <1>   0.0400 
  7 C       -1.4820    -1.3330    -1.1770 C.3   1 <1>   0.0400 
  8 N        2.5350    -0.9720     0.8420 N.pl3 1 <1>  -0.8690 
  9 C        3.1220     1.1290    -0.3040 C.ar  1 <1>  -0.1430 
 10 C        3.4660    -1.9820     0.6680 C.ar  1 <1>   0.1000 
 11 C        3.8280     1.5210    -1.4330 C.ar  1 <1>  -0.1500 
 12 C        3.2520     1.8730     0.8600 C.ar  1 <1>  -0.1500 
 13 C        4.7880    -1.6870     0.3600 C.ar  1 <1>  -0.1500 
 14 C        3.0880    -3.3100     0.8030 C.ar  1 <1>  -0.1500 
 15 C        4.6520     2.6320    -1.3950 C.ar  1 <1>  -0.1500 
 16 C        4.0760     2.9840     0.8970 C.ar  1 <1>  -0.1500 
 17 C        5.7290    -2.6900     0.1670 C.ar  1 <1>  -0.1430 
 18 C        4.0100    -4.3220     0.6200 C.ar  1 <1>  -0.1500 
 19 C        4.7830     3.3690    -0.2300 C.ar  1 <1>  -0.1430 
 20 C        5.3230    -4.0160     0.3020 C.ar  1 <1>  -0.1500 
 21 C        7.1830    -2.3340    -0.1750 C.3   1 <1>   1.1630 
 22 C        5.6870     4.5870    -0.1890 C.3   1 <1>  -0.0970 
 23 F        7.2820    -1.2610    -0.9520 F     1 <1>  -0.3400 
 24 F        7.9050    -2.0800     0.9090 F     1 <1>  -0.3400 
 25 F        7.8140    -3.3100    -0.8200 F     1 <1>  -0.3400 
 26 H        2.5220    -0.6640    -1.2160 H     1 <1>   0.0800 
 27 H       -1.3740     2.3010     1.6090 H     1 <1>   0.0800 
 28 H       -2.0140     0.9040     0.7490 H     1 <1>   0.0800 
 29 H       -1.4720     2.3290    -0.1510 H     1 <1>   0.0800 
 30 H       -1.8610    -2.2950    -0.8780 H     1 <1>   0.0800 
 31 H       -1.2310    -1.3470    -2.2250 H     1 <1>   0.0800 
 32 H       -2.2170    -0.5720    -0.9860 H     1 <1>   0.0800 
 33 H        1.6620    -1.2920     1.2770 H     1 <1>   0.4000 
 34 H        3.7430     0.9680    -2.3520 H     1 <1>   0.1500 
 35 H        2.7130     1.5850     1.7460 H     1 <1>   0.1500 
 36 H        5.0730    -0.6510     0.2830 H     1 <1>   0.1500 
 37 H        2.0700    -3.5490     1.0490 H     1 <1>   0.1500 
 38 H        5.1920     2.9220    -2.2790 H     1 <1>   0.1500 
 39 H        4.1640     3.5470     1.8090 H     1 <1>   0.1500 
 40 H        3.7080    -5.3490     0.7250 H     1 <1>   0.1500 
 41 H        6.0260    -4.8210     0.1650 H     1 <1>   0.1500 
 42 H        5.1230     5.4660    -0.4460 H     1 <1>   0.0800 
 43 H        6.4980     4.4770    -0.8850 H     1 <1>   0.0800 
 44 H        6.1000     4.7140     0.7960 H     1 <1>   0.0800 
@<TRIPOS>BOND
  1   1   2  2   
  2   1   3  1   
  3   1   4  1   
  4   1   5  1   
  5   3   6  1   
  6   4   7  1   
  7   5   8  1   
  8   5   9  1   
  9   5  26  1   
 10   6  27  1   
 11   6  28  1   
 12   6  29  1   
 13   7  30  1   
 14   7  31  1   
 15   7  32  1   
 16   8  10  1   
 17   8  33  1   
 18   9  11  ar  
 19   9  12  ar  
 20  10  13  ar  
 21  10  14  ar  
 22  11  15  ar  
 23  11  34  1   
 24  12  16  ar  
 25  12  35  1   
 26  13  17  ar  
 27  13  36  1   
 28  14  18  ar  
 29  14  37  1   
 30  15  19  ar  
 31  15  38  1   
 32  16  19  ar  
 33  16  39  1   
 34  17  20  ar  
 35  17  21  1   
 36  18  20  ar  
 37  18  40  1   
 38  19  22  1   
 39  20  41  1   
 40  21  23  1   
 41  21  24  1   
 42  21  25  1   
 43  22  42  1   
 44  22  43  1   
 45  22  44  1   
@<TRIPOS>SUBSTRUCTURE
  1 ****   5 GROUP 4 **** **** 0

# MOE 2024.06 (io_trps.svl 2023.06)
