@<TRIPOS>MOLECULE
NONAME
29 30 1 0 0 
SMALL
USER_CHARGES


@<TRIPOS>ATOM
  1 O       -3.2330    -1.5430     1.5240 O.3   1 <1>  -0.6800 
  2 C       -3.5970    -1.8900     0.2320 C.3   1 <1>   0.4240 
  3 C       -4.9600    -2.5780     0.3450 C.ar  1 <1>  -0.1440 
  4 C       -2.4840    -2.8050    -0.3160 C.3   1 <1>  -0.1600 
  5 C       -3.6670    -0.5800    -0.5980 C.3   1 <1>   0.3430 
  6 C       -5.1070    -3.9450     0.1140 C.ar  1 <1>  -0.1440 
  7 C       -6.0810    -1.8370     0.7130 C.ar  1 <1>  -0.1500 
  8 C       -2.5960    -4.2410     0.2070 C.3   1 <1>  -0.1600 
  9 N       -2.6170     0.3990    -0.1650 N.4   1 <1>  -0.8530 
 10 C       -6.3590    -4.5320     0.2120 C.ar  1 <1>  -0.1500 
 11 C       -3.9300    -4.8450    -0.2390 C.3   1 <1>  -0.0170 
 12 C       -7.3250    -2.4310     0.8110 C.ar  1 <1>  -0.1500 
 13 C       -7.4660    -3.7800     0.5550 C.ar  1 <1>  -0.1500 
 14 H       -3.4940    -2.2870     2.1100 H     1 <1>   0.4000 
 15 H       -1.5150    -2.4050    -0.0730 H     1 <1>   0.0800 
 16 H       -2.5580    -2.8460    -1.3890 H     1 <1>   0.0800 
 17 H       -4.6390    -0.1420    -0.4500 H     1 <1>   0.0800 
 18 H       -3.5750    -0.8070    -1.6470 H     1 <1>   0.0800 
 19 H       -6.0080    -0.7900     0.9430 H     1 <1>   0.1500 
 20 H       -2.5360    -4.2540     1.2820 H     1 <1>   0.0800 
 21 H       -1.7870    -4.8390    -0.1770 H     1 <1>   0.0800 
 22 H       -2.5530     0.2900     0.8630 H     1 <1>   0.4500 
 23 H       -2.8560     1.3700    -0.3890 H     1 <1>   0.4500 
 24 H       -1.6950     0.1660    -0.5450 H     1 <1>   0.4500 
 25 H       -6.4810    -5.5850     0.0240 H     1 <1>   0.1500 
 26 H       -3.9200    -5.0020    -1.3040 H     1 <1>   0.0800 
 27 H       -4.0520    -5.8070     0.2300 H     1 <1>   0.0800 
 28 H       -8.1860    -1.8480     1.0920 H     1 <1>   0.1500 
 29 H       -8.4340    -4.2470     0.6270 H     1 <1>   0.1500 
@<TRIPOS>BOND
  1   1   2  1   
  2   1  14  1   
  3   2   3  1   
  4   2   4  1   
  5   2   5  1   
  6   3   6  ar  
  7   3   7  ar  
  8   4   8  1   
  9   4  15  1   
 10   4  16  1   
 11   5   9  1   
 12   5  17  1   
 13   5  18  1   
 14   6  10  ar  
 15   6  11  1   
 16   7  12  ar  
 17   7  19  1   
 18   8  11  1   
 19   8  20  1   
 20   8  21  1   
 21   9  22  1   
 22   9  23  1   
 23   9  24  1   
 24  10  13  ar  
 25  10  25  1   
 26  11  26  1   
 27  11  27  1   
 28  12  13  ar  
 29  12  28  1   
 30  13  29  1   
@<TRIPOS>SUBSTRUCTURE
  1 ****   3 GROUP 4 **** **** 0

# MOE 2024.06 (io_trps.svl 2023.06)
