@<TRIPOS>MOLECULE
NONAME
54 56 1 0 0 
SMALL
USER_CHARGES


@<TRIPOS>ATOM
  1 S       -0.3330     1.0720    -1.3840 S.o2  1 <1>   1.4470 
  2 O       -1.2800     1.0430    -2.4770 O.2   1 <1>  -0.6500 
  3 O       -0.0920     2.3010    -0.6610 O.2   1 <1>  -0.6500 
  4 N        1.1880     0.5470    -2.0460 N.am  1 <1>  -0.6930 
  5 C       -0.7050    -0.2730    -0.2270 C.ar  1 <1>  -0.0090 
  6 C        2.3440     0.5230    -1.2800 C.ar  1 <1>   0.1990 
  7 C        1.1420    -0.1800    -3.3380 C.3   1 <1>   0.1160 
  8 C       -0.0630    -0.3530     1.0050 C.ar  1 <1>  -0.1500 
  9 C       -1.6170    -1.2740    -0.5480 C.ar  1 <1>  -0.1500 
 10 C        2.9000     1.6950    -0.7810 C.ar  1 <1>  -0.1500 
 11 C        2.9810    -0.6760    -0.9790 C.ar  1 <1>  -0.1500 
 12 C       -0.3190    -1.3920     1.8810 C.ar  1 <1>  -0.1500 
 13 C       -1.8810    -2.3180     0.3230 C.ar  1 <1>  -0.1500 
 14 C        4.0480     1.6700    -0.0150 C.ar  1 <1>  -0.1500 
 15 C        4.1320    -0.7000    -0.2150 C.ar  1 <1>  -0.1500 
 16 C       -1.2270    -2.3820     1.5490 C.ar  1 <1>   0.0830 
 17 C        4.7040     0.4740     0.2840 C.ar  1 <1>   0.0860 
 18 O       -1.4220    -3.3660     2.4590 O.3   1 <1>  -0.3630 
 19 C        5.9210     0.4600     1.0750 C.2   1 <1>   0.5440 
 20 C       -2.3550    -4.4000     2.2380 C.3   1 <1>   0.0400 
 21 O        6.1960     1.3770     1.8270 O.2   1 <1>  -0.5700 
 22 N        6.8510    -0.5480     0.9660 N.am  1 <1>  -0.6600 
 23 C        7.5670    -0.7180    -0.3300 C.3   1 <1>   0.1400 
 24 C        7.7020    -0.8620     2.1520 C.3   1 <1>   0.1400 
 25 C        8.8480     0.1460    -0.3430 C.3   1 <1>   0.3430 
 26 C        8.9650     0.0210     2.1420 C.3   1 <1>   0.3430 
 27 N        9.7360    -0.1140     0.8510 N.4   1 <1>  -0.9590 
 28 C       10.9110     0.8100     0.8480 C.3   1 <1>   0.2630 
 29 H        0.6850     0.4450    -4.0880 H     1 <1>   0.0800 
 30 H        0.5610    -1.0790    -3.2320 H     1 <1>   0.0800 
 31 H        2.1360    -0.4330    -3.6630 H     1 <1>   0.0800 
 32 H        0.6470     0.4100     1.2810 H     1 <1>   0.1500 
 33 H       -2.1310    -1.2350    -1.4940 H     1 <1>   0.1500 
 34 H        2.4210     2.6350    -0.9980 H     1 <1>   0.1500 
 35 H        2.5600    -1.5970    -1.3390 H     1 <1>   0.1500 
 36 H        0.1840    -1.4410     2.8310 H     1 <1>   0.1500 
 37 H       -2.5940    -3.0660     0.0320 H     1 <1>   0.1500 
 38 H        4.4480     2.5960     0.3650 H     1 <1>   0.1500 
 39 H        4.5920    -1.6460     0.0100 H     1 <1>   0.1500 
 40 H       -2.3450    -5.0470     3.0970 H     1 <1>   0.0800 
 41 H       -2.0640    -4.9520     1.3620 H     1 <1>   0.0800 
 42 H       -3.3330    -3.9690     2.1170 H     1 <1>   0.0800 
 43 H        6.9290    -0.4170    -1.1440 H     1 <1>   0.0800 
 44 H        7.8160    -1.7550    -0.4720 H     1 <1>   0.0800 
 45 H        7.9700    -1.9030     2.1440 H     1 <1>   0.0800 
 46 H        7.1440    -0.6720     3.0550 H     1 <1>   0.0800 
 47 H        8.5510     1.1820    -0.3470 H     1 <1>   0.0800 
 48 H        9.3930    -0.0440    -1.2530 H     1 <1>   0.0800 
 49 H        9.5910    -0.2460     2.9780 H     1 <1>   0.0800 
 50 H        8.6540     1.0450     2.2760 H     1 <1>   0.0800 
 51 H       10.0760    -1.0840     0.7900 H     1 <1>   0.4500 
 52 H       10.5810     1.8340     0.9200 H     1 <1>   0.0800 
 53 H       11.4780     0.6940    -0.0610 H     1 <1>   0.0800 
 54 H       11.5570     0.5980     1.6850 H     1 <1>   0.0800 
@<TRIPOS>BOND
  1   1   2  2   
  2   1   3  2   
  3   1   4  am  
  4   1   5  1   
  5   4   6  1   
  6   4   7  1   
  7   5   8  ar  
  8   5   9  ar  
  9   6  10  ar  
 10   6  11  ar  
 11   7  29  1   
 12   7  30  1   
 13   7  31  1   
 14   8  12  ar  
 15   8  32  1   
 16   9  13  ar  
 17   9  33  1   
 18  10  14  ar  
 19  10  34  1   
 20  11  15  ar  
 21  11  35  1   
 22  12  16  ar  
 23  12  36  1   
 24  13  16  ar  
 25  13  37  1   
 26  14  17  ar  
 27  14  38  1   
 28  15  17  ar  
 29  15  39  1   
 30  16  18  1   
 31  17  19  1   
 32  18  20  1   
 33  19  21  2   
 34  19  22  am  
 35  20  40  1   
 36  20  41  1   
 37  20  42  1   
 38  22  23  1   
 39  22  24  1   
 40  23  25  1   
 41  23  43  1   
 42  23  44  1   
 43  24  26  1   
 44  24  45  1   
 45  24  46  1   
 46  25  27  1   
 47  25  47  1   
 48  25  48  1   
 49  26  27  1   
 50  26  49  1   
 51  26  50  1   
 52  27  28  1   
 53  27  51  1   
 54  28  52  1   
 55  28  53  1   
 56  28  54  1   
@<TRIPOS>SUBSTRUCTURE
  1 ****  11 GROUP 4 **** **** 0

# MOE 2024.06 (io_trps.svl 2023.06)
