@<TRIPOS>MOLECULE
NONAME
41 43 1 0 0 
SMALL
USER_CHARGES


@<TRIPOS>ATOM
  1 S        0.0530     0.1000     0.3200 S.o2  1 <1>   1.4470 
  2 O        0.2410    -0.8840    -0.7210 O.2   1 <1>  -0.6500 
  3 O        0.2810    -0.2450     1.7040 O.2   1 <1>  -0.6500 
  4 N        1.1420     1.3410     0.0370 N.am  1 <1>  -0.9140 
  5 C       -1.5620     0.9070     0.1290 C.ar  1 <1>  -0.0090 
  6 C        2.4580     0.8550    -0.3490 C.3   1 <1>   0.1960 
  7 C       -2.5480     0.7920     1.1020 C.ar  1 <1>  -0.1500 
  8 C       -1.8580     1.6550    -1.0030 C.ar  1 <1>  -0.1500 
  9 C        3.4650     2.0150    -0.3990 C.3   1 <1>  -0.0800 
 10 C       -3.7820     1.4010     0.9540 C.ar  1 <1>  -0.1500 
 11 C       -3.0890     2.2670    -1.1610 C.ar  1 <1>  -0.1500 
 12 C        4.8190     1.5020    -0.9230 C.3   1 <1>  -0.1600 
 13 C        3.6450     2.6920     0.9760 C.3   1 <1>  -0.1600 
 14 C       -4.0730     2.1480    -0.1850 C.ar  1 <1>  -0.0230 
 15 C        5.8670     2.6210    -0.9770 C.3   1 <1>  -0.1600 
 16 C        4.7000     3.8060     0.9240 C.3   1 <1>  -0.1600 
 17 N       -5.3440     2.7730    -0.3530 N.pl3 1 <1>   0.5930 
 18 C        6.0400     3.2820     0.3950 C.3   1 <1>  -0.1600 
 19 N       -5.5450     3.9370    -0.9520 N.2   1 <1>  -0.4180 
 20 C       -6.5400     2.3450     0.0260 C.2   1 <1>   0.0370 
 21 N       -6.8070     4.1690    -0.9120 N.2   1 <1>   0.0000 
 22 N       -7.4480     3.1800    -0.3010 N.2   1 <1>  -0.3380 
 23 H        1.2560     1.7680     0.9530 H     1 <1>   0.4200 
 24 H        2.3940     0.3930    -1.3210 H     1 <1>   0.0800 
 25 H        2.7960     0.1110     0.3560 H     1 <1>   0.0800 
 26 H       -2.3430     0.2180     1.9910 H     1 <1>   0.1500 
 27 H       -1.1100     1.7590    -1.7730 H     1 <1>   0.1500 
 28 H        3.0940     2.7440    -1.1000 H     1 <1>   0.0800 
 29 H       -4.5130     1.2930     1.7380 H     1 <1>   0.1500 
 30 H       -3.2820     2.8430    -2.0520 H     1 <1>   0.1500 
 31 H        4.6940     1.0910    -1.9110 H     1 <1>   0.0800 
 32 H        5.1800     0.7150    -0.2820 H     1 <1>   0.0800 
 33 H        3.9450     1.9570     1.7030 H     1 <1>   0.0800 
 34 H        2.7150     3.1230     1.3030 H     1 <1>   0.0800 
 35 H        5.5620     3.3630    -1.6950 H     1 <1>   0.0800 
 36 H        6.8100     2.2160    -1.3030 H     1 <1>   0.0800 
 37 H        4.8380     4.2180     1.9090 H     1 <1>   0.0800 
 38 H        4.3500     4.5970     0.2830 H     1 <1>   0.0800 
 39 H        6.7400     4.0960     0.3180 H     1 <1>   0.0800 
 40 H        6.4420     2.5640     1.0900 H     1 <1>   0.0800 
 41 H       -6.6970     1.4150     0.5360 H     1 <1>   0.1500 
@<TRIPOS>BOND
  1   1   2  2   
  2   1   3  2   
  3   1   4  am  
  4   1   5  1   
  5   4   6  1   
  6   4  23  1   
  7   5   7  ar  
  8   5   8  ar  
  9   6   9  1   
 10   6  24  1   
 11   6  25  1   
 12   7  10  ar  
 13   7  26  1   
 14   8  11  ar  
 15   8  27  1   
 16   9  12  1   
 17   9  13  1   
 18   9  28  1   
 19  10  14  ar  
 20  10  29  1   
 21  11  14  ar  
 22  11  30  1   
 23  12  15  1   
 24  12  31  1   
 25  12  32  1   
 26  13  16  1   
 27  13  33  1   
 28  13  34  1   
 29  14  17  1   
 30  15  18  1   
 31  15  35  1   
 32  15  36  1   
 33  16  18  1   
 34  16  37  1   
 35  16  38  1   
 36  17  19  1   
 37  17  20  1   
 38  18  39  1   
 39  18  40  1   
 40  19  21  2   
 41  20  22  2   
 42  20  41  1   
 43  21  22  1   
@<TRIPOS>SUBSTRUCTURE
  1 ****   5 GROUP 4 **** **** 0

# MOE 2024.06 (io_trps.svl 2023.06)
