@<TRIPOS>MOLECULE
NONAME
42 43 1 0 0 
SMALL
USER_CHARGES


@<TRIPOS>ATOM
  1 O        0.1290    -0.4340    -0.2640 O.2   1 <1>  -0.5700 
  2 C       -0.8190    -1.1700    -0.2750 C.2   1 <1>   0.6590 
  3 O       -0.7360    -2.3580     0.3200 O.3   1 <1>  -0.4300 
  4 C       -2.0790    -0.7410    -0.9950 C.3   1 <1>  -0.0990 
  5 C       -1.6930    -3.3950     0.2860 C.3   1 <1>   0.0400 
  6 C       -2.9970     0.0620    -0.0830 C.3   1 <1>   0.5600 
  7 O       -4.1070     0.4580    -0.8210 O.3   1 <1>  -0.5600 
  8 O       -3.5310    -0.7660     0.8910 O.3   1 <1>  -0.5600 
  9 C       -2.3510     1.2970     0.5520 C.3   1 <1>  -0.2400 
 10 C       -5.2430     0.4090    -0.0300 C.3   1 <1>   0.2000 
 11 C       -4.7720    -0.2820     1.2410 C.3   1 <1>   0.1200 
 12 C       -6.3040    -0.3860    -0.8130 C.3   1 <1>   0.3430 
 13 N       -7.6380    -0.4930    -0.1250 N.4   1 <1>  -0.9590 
 14 C       -8.5030    -1.4720    -0.8500 C.3   1 <1>   0.3430 
 15 C       -8.3210     0.8330    -0.0030 C.3   1 <1>   0.3430 
 16 C       -9.8030    -1.6870    -0.0720 C.3   1 <1>  -0.1600 
 17 C       -9.6160     0.6730     0.7950 C.3   1 <1>  -0.1600 
 18 C      -10.5490    -0.3670     0.1620 C.3   1 <1>  -0.1600 
 19 H       -2.6020    -1.5800    -1.4060 H     1 <1>   0.0800 
 20 H       -1.7810    -0.1100    -1.8110 H     1 <1>   0.0800 
 21 H       -1.2950    -4.2290     0.8360 H     1 <1>   0.0800 
 22 H       -1.8640    -3.6850    -0.7360 H     1 <1>   0.0800 
 23 H       -2.6010    -3.0580     0.7510 H     1 <1>   0.0800 
 24 H       -1.5950     0.9980     1.2560 H     1 <1>   0.0800 
 25 H       -3.0700     1.9100     1.0600 H     1 <1>   0.0800 
 26 H       -1.8760     1.8870    -0.2100 H     1 <1>   0.0800 
 27 H       -5.5620     1.4180     0.1590 H     1 <1>   0.0800 
 28 H       -4.6540     0.4180     2.0510 H     1 <1>   0.0800 
 29 H       -5.3960    -1.1000     1.5510 H     1 <1>   0.0800 
 30 H       -5.9110    -1.3750    -0.9810 H     1 <1>   0.0800 
 31 H       -6.4380     0.0870    -1.7720 H     1 <1>   0.0800 
 32 H       -7.5110    -0.8670     0.8240 H     1 <1>   0.4500 
 33 H       -7.9900    -2.4150    -0.9560 H     1 <1>   0.0800 
 34 H       -8.7330    -1.0980    -1.8360 H     1 <1>   0.0800 
 35 H       -8.5490     1.2180    -0.9840 H     1 <1>   0.0800 
 36 H       -7.6810     1.5410     0.4990 H     1 <1>   0.0800 
 37 H       -9.5850    -2.1590     0.8700 H     1 <1>   0.0800 
 38 H      -10.4370    -2.3580    -0.6260 H     1 <1>   0.0800 
 39 H      -10.1220     1.6230     0.8360 H     1 <1>   0.0800 
 40 H       -9.3840     0.3910     1.8070 H     1 <1>   0.0800 
 41 H      -11.4000    -0.5350     0.8010 H     1 <1>   0.0800 
 42 H      -10.9180     0.0080    -0.7790 H     1 <1>   0.0800 
@<TRIPOS>BOND
  1   1   2  2   
  2   2   3  1   
  3   2   4  1   
  4   3   5  1   
  5   4   6  1   
  6   4  19  1   
  7   4  20  1   
  8   5  21  1   
  9   5  22  1   
 10   5  23  1   
 11   6   7  1   
 12   6   8  1   
 13   6   9  1   
 14   7  10  1   
 15   8  11  1   
 16   9  24  1   
 17   9  25  1   
 18   9  26  1   
 19  10  11  1   
 20  10  12  1   
 21  10  27  1   
 22  11  28  1   
 23  11  29  1   
 24  12  13  1   
 25  12  30  1   
 26  12  31  1   
 27  13  14  1   
 28  13  15  1   
 29  13  32  1   
 30  14  16  1   
 31  14  33  1   
 32  14  34  1   
 33  15  17  1   
 34  15  35  1   
 35  15  36  1   
 36  16  18  1   
 37  16  37  1   
 38  16  38  1   
 39  17  18  1   
 40  17  39  1   
 41  17  40  1   
 42  18  41  1   
 43  18  42  1   
@<TRIPOS>SUBSTRUCTURE
  1 ****  10 GROUP 4 **** **** 0

# MOE 2024.06 (io_trps.svl 2023.06)
