@<TRIPOS>MOLECULE
NONAME
41 42 1 0 0 
SMALL
USER_CHARGES


@<TRIPOS>ATOM
  1 O        0.4190     1.5550    -1.2390 O.2   1 <1>  -0.5700 
  2 C        0.3360     1.8690    -0.0760 C.2   1 <1>   0.5690 
  3 N        1.2680     1.5390     0.8570 N.am  1 <1>  -0.7300 
  4 C       -0.8610     2.6990     0.3870 C.3   1 <1>  -0.0190 
  5 C        2.5790     0.8670     0.6890 C.3   1 <1>   0.3640 
  6 C       -2.2240     2.1340    -0.0190 C.3   1 <1>  -0.1600 
  7 C       -0.8840     4.1180    -0.1850 C.3   1 <1>  -0.1600 
  8 C        3.6460     1.9130     0.3810 C.ar  1 <1>  -0.1440 
  9 C        2.5900    -0.2950    -0.3200 C.3   1 <1>  -0.1600 
 10 C       -3.1890     3.3170     0.0910 C.3   1 <1>  -0.1600 
 11 C       -2.3340     4.5850    -0.0380 C.3   1 <1>  -0.1600 
 12 C        3.5990     2.6650    -0.7840 C.ar  1 <1>  -0.1500 
 13 C        4.6880     2.1270     1.2730 C.ar  1 <1>  -0.1500 
 14 C        1.5860    -1.4110     0.0150 C.3   1 <1>  -0.2400 
 15 C        4.5720     3.6120    -1.0520 C.ar  1 <1>  -0.1500 
 16 C        5.6610     3.0750     1.0050 C.ar  1 <1>  -0.1500 
 17 C        5.6080     3.8240    -0.1590 C.ar  1 <1>  -0.1440 
 18 C        6.6740     4.8620    -0.4550 C.3   1 <1>  -0.0970 
 19 H        1.1740     1.9670     1.7750 H     1 <1>   0.3700 
 20 H       -0.8430     2.7730     1.4590 H     1 <1>   0.0800 
 21 H        2.8200     0.4310     1.6440 H     1 <1>   0.0800 
 22 H       -2.5200     1.3080     0.6030 H     1 <1>   0.0800 
 23 H       -2.1860     1.8050    -1.0440 H     1 <1>   0.0800 
 24 H       -0.6280     4.0820    -1.2310 H     1 <1>   0.0800 
 25 H       -0.1920     4.7680     0.3220 H     1 <1>   0.0800 
 26 H        3.5790    -0.7180    -0.3250 H     1 <1>   0.0800 
 27 H        2.4100     0.0730    -1.3130 H     1 <1>   0.0800 
 28 H       -3.6730     3.3060     1.0520 H     1 <1>   0.0800 
 29 H       -3.9420     3.2700    -0.6780 H     1 <1>   0.0800 
 30 H       -2.6320     5.1720    -0.8900 H     1 <1>   0.0800 
 31 H       -2.4400     5.1840     0.8500 H     1 <1>   0.0800 
 32 H        2.8010     2.5150    -1.4910 H     1 <1>   0.1500 
 33 H        4.7520     1.5580     2.1830 H     1 <1>   0.1500 
 34 H        0.5790    -1.0360    -0.0360 H     1 <1>   0.0800 
 35 H        1.7650    -1.8000     1.0010 H     1 <1>   0.0800 
 36 H        1.6820    -2.2130    -0.6960 H     1 <1>   0.0800 
 37 H        4.5150     4.1820    -1.9620 H     1 <1>   0.1500 
 38 H        6.4620     3.2260     1.7060 H     1 <1>   0.1500 
 39 H        6.2580     5.6760    -1.0210 H     1 <1>   0.0800 
 40 H        7.4690     4.4130    -1.0240 H     1 <1>   0.0800 
 41 H        7.0800     5.2570     0.4590 H     1 <1>   0.0800 
@<TRIPOS>BOND
  1   1   2  2   
  2   2   3  am  
  3   2   4  1   
  4   3   5  1   
  5   3  19  1   
  6   4   6  1   
  7   4   7  1   
  8   4  20  1   
  9   5   8  1   
 10   5   9  1   
 11   5  21  1   
 12   6  10  1   
 13   6  22  1   
 14   6  23  1   
 15   7  11  1   
 16   7  24  1   
 17   7  25  1   
 18   8  12  ar  
 19   8  13  ar  
 20   9  14  1   
 21   9  26  1   
 22   9  27  1   
 23  10  11  1   
 24  10  28  1   
 25  10  29  1   
 26  11  30  1   
 27  11  31  1   
 28  12  15  ar  
 29  12  32  1   
 30  13  16  ar  
 31  13  33  1   
 32  14  34  1   
 33  14  35  1   
 34  14  36  1   
 35  15  17  ar  
 36  15  37  1   
 37  16  17  ar  
 38  16  38  1   
 39  17  18  1   
 40  18  39  1   
 41  18  40  1   
 42  18  41  1   
@<TRIPOS>SUBSTRUCTURE
  1 ****   3 GROUP 4 **** **** 0

# MOE 2024.06 (io_trps.svl 2023.06)
