@<TRIPOS>MOLECULE
NONAME
42 43 1 0 0 
SMALL
USER_CHARGES


@<TRIPOS>ATOM
  1 O        0.5590    -1.6440     2.2960 O.3   1 <1>  -0.3630 
  2 C        0.0930    -2.4160     1.2780 C.ar  1 <1>   0.0830 
  3 C        0.2990    -0.2650     2.1610 C.3   1 <1>   0.0400 
  4 C        0.8050    -2.5250     0.0780 C.ar  1 <1>   0.1000 
  5 C       -1.0930    -3.1020     1.4640 C.ar  1 <1>  -0.1500 
  6 N        2.0280    -1.8750    -0.0990 N.pl3 1 <1>  -0.8690 
  7 C        0.2680    -3.3050    -0.9360 C.ar  1 <1>  -0.1500 
  8 C       -1.6060    -3.8910     0.4480 C.ar  1 <1>  -0.1500 
  9 C        3.2160    -2.7310    -0.3150 C.3   1 <1>   0.2890 
 10 C       -0.9240    -3.9900    -0.7630 C.ar  1 <1>   0.0830 
 11 C        3.7950    -3.1770     1.0470 C.3   1 <1>   0.2000 
 12 C        4.2330    -1.9470    -1.1640 C.3   1 <1>  -0.1600 
 13 O       -1.3570    -4.7360    -1.8140 O.3   1 <1>  -0.3630 
 14 O        4.1000    -2.0380     1.8140 O.3   1 <1>  -0.5600 
 15 C        5.0680    -4.0350     0.8830 C.3   1 <1>  -0.1600 
 16 C        5.6980    -2.3570    -0.9150 C.3   1 <1>  -0.1600 
 17 C       -2.5780    -5.4390    -1.7520 C.3   1 <1>   0.0400 
 18 C        3.8830    -2.1810     3.1820 C.3   1 <1>   0.0400 
 19 C        5.8100    -3.8120    -0.4500 C.3   1 <1>  -0.1600 
 20 H        0.7360     0.2450     3.0000 H     1 <1>   0.0800 
 21 H       -0.7650    -0.1130     2.1460 H     1 <1>   0.0800 
 22 H        0.7370     0.0900     1.2440 H     1 <1>   0.0800 
 23 H       -1.6110    -3.0140     2.4010 H     1 <1>   0.1500 
 24 H        2.2580    -1.3220     0.7400 H     1 <1>   0.4000 
 25 H        0.7820    -3.3780    -1.8750 H     1 <1>   0.1500 
 26 H       -2.5280    -4.4130     0.6170 H     1 <1>   0.1500 
 27 H        2.9310    -3.6160    -0.8570 H     1 <1>   0.0800 
 28 H        3.0380    -3.7470     1.5620 H     1 <1>   0.0800 
 29 H        4.1420    -0.8950    -0.9560 H     1 <1>   0.0800 
 30 H        3.9880    -2.1000    -2.1990 H     1 <1>   0.0800 
 31 H        4.7930    -5.0730     0.9380 H     1 <1>   0.0800 
 32 H        5.7370    -3.8380     1.7020 H     1 <1>   0.0800 
 33 H        6.1110    -1.7220    -0.1490 H     1 <1>   0.0800 
 34 H        6.2750    -2.2040    -1.8110 H     1 <1>   0.0800 
 35 H       -2.7230    -5.9380    -2.6930 H     1 <1>   0.0800 
 36 H       -3.3760    -4.7380    -1.5820 H     1 <1>   0.0800 
 37 H       -2.5230    -6.1630    -0.9580 H     1 <1>   0.0800 
 38 H        4.1610    -1.2600     3.6630 H     1 <1>   0.0800 
 39 H        4.4880    -2.9860     3.5590 H     1 <1>   0.0800 
 40 H        2.8390    -2.3800     3.3570 H     1 <1>   0.0800 
 41 H        5.3900    -4.4520    -1.2090 H     1 <1>   0.0800 
 42 H        6.8460    -4.0810    -0.3340 H     1 <1>   0.0800 
@<TRIPOS>BOND
  1   1   2  1   
  2   1   3  1   
  3   2   4  ar  
  4   2   5  ar  
  5   3  20  1   
  6   3  21  1   
  7   3  22  1   
  8   4   6  1   
  9   4   7  ar  
 10   5   8  ar  
 11   5  23  1   
 12   6   9  1   
 13   6  24  1   
 14   7  10  ar  
 15   7  25  1   
 16   8  10  ar  
 17   8  26  1   
 18   9  11  1   
 19   9  12  1   
 20   9  27  1   
 21  10  13  1   
 22  11  14  1   
 23  11  15  1   
 24  11  28  1   
 25  12  16  1   
 26  12  29  1   
 27  12  30  1   
 28  13  17  1   
 29  14  18  1   
 30  15  19  1   
 31  15  31  1   
 32  15  32  1   
 33  16  19  1   
 34  16  33  1   
 35  16  34  1   
 36  17  35  1   
 37  17  36  1   
 38  17  37  1   
 39  18  38  1   
 40  18  39  1   
 41  18  40  1   
 42  19  41  1   
 43  19  42  1   
@<TRIPOS>SUBSTRUCTURE
  1 ****   4 GROUP 4 **** **** 0

# MOE 2024.06 (io_trps.svl 2023.06)
