@<TRIPOS>MOLECULE
NONAME
46 48 1 0 0 
SMALL
USER_CHARGES


@<TRIPOS>ATOM
  1 F       -0.5110     0.5360    -0.6380 F     1 <1>  -0.1900 
  2 C        0.1340     1.6330    -0.3210 C.ar  1 <1>   0.1900 
  3 C       -0.5870     2.8180    -0.1860 C.ar  1 <1>   0.1170 
  4 C        1.5000     1.5510    -0.1370 C.ar  1 <1>  -0.1500 
  5 N       -1.9830     2.8040    -0.3950 N.am  1 <1>  -0.5470 
  6 C        0.1420     3.9560     0.1530 C.ar  1 <1>  -0.1500 
  7 C        2.1930     2.7000     0.1990 C.ar  1 <1>  -0.1500 
  8 C       -2.9380     3.7830    -0.3580 C.2   1 <1>   0.5690 
  9 C        1.5160     3.9020     0.3450 C.ar  1 <1>  -0.1440 
 10 O       -2.6980     4.9430    -0.1310 O.2   1 <1>  -0.5700 
 11 C       -4.3760     3.3710    -0.6400 C.3   1 <1>  -0.0190 
 12 C        2.2850     5.1580     0.7130 C.3   1 <1>  -0.0970 
 13 C       -5.4060     4.4860    -0.4040 C.3   1 <1>   0.1400 
 14 C       -4.8760     2.2030     0.2230 C.3   1 <1>  -0.0990 
 15 N       -6.6360     3.7760     0.0040 N.am  1 <1>  -0.4770 
 16 C       -6.3440     2.4910     0.3650 C.2   1 <1>   0.5690 
 17 C       -7.8920     4.4140    -0.0450 C.ar  1 <1>   0.1170 
 18 O       -7.1130     1.6450     0.7470 O.2   1 <1>  -0.5700 
 19 C       -9.0440     3.7130    -0.3860 C.ar  1 <1>  -0.1500 
 20 C       -8.0160     5.7720     0.2360 C.ar  1 <1>  -0.1500 
 21 C      -10.2730     4.3440    -0.4530 C.ar  1 <1>  -0.1500 
 22 C       -9.2430     6.4070     0.1690 C.ar  1 <1>  -0.1500 
 23 C      -10.3820     5.6980    -0.1780 C.ar  1 <1>  -0.1430 
 24 C      -11.7320     6.3930    -0.2510 C.3   1 <1>  -0.0170 
 25 C      -12.4350     6.3420     1.1070 C.3   1 <1>  -0.2400 
 26 H        2.0090     0.6110    -0.2540 H     1 <1>   0.1500 
 27 H       -2.3280     1.8700    -0.6200 H     1 <1>   0.3700 
 28 H       -0.3590     4.8980     0.2700 H     1 <1>   0.1500 
 29 H        3.2590     2.6570     0.3450 H     1 <1>   0.1500 
 30 H       -4.4420     3.0890    -1.6760 H     1 <1>   0.0800 
 31 H        1.6260     5.9050     1.1180 H     1 <1>   0.0800 
 32 H        2.7650     5.5600    -0.1610 H     1 <1>   0.0800 
 33 H        3.0350     4.9340     1.4500 H     1 <1>   0.0800 
 34 H       -5.5710     5.0650    -1.2960 H     1 <1>   0.0800 
 35 H       -5.1000     5.1350     0.4000 H     1 <1>   0.0800 
 36 H       -4.4320     2.2150     1.2020 H     1 <1>   0.0800 
 37 H       -4.7180     1.2500    -0.2470 H     1 <1>   0.0800 
 38 H       -8.9820     2.6620    -0.6030 H     1 <1>   0.1500 
 39 H       -7.1520     6.3430     0.5180 H     1 <1>   0.1500 
 40 H      -11.1470     3.7750    -0.7160 H     1 <1>   0.1500 
 41 H       -9.3120     7.4570     0.3930 H     1 <1>   0.1500 
 42 H      -12.3460     5.9140    -0.9940 H     1 <1>   0.0800 
 43 H      -11.5970     7.4180    -0.5500 H     1 <1>   0.0800 
 44 H      -12.5880     5.3200     1.4060 H     1 <1>   0.0800 
 45 H      -13.3900     6.8330     1.0500 H     1 <1>   0.0800 
 46 H      -11.8360     6.8320     1.8540 H     1 <1>   0.0800 
@<TRIPOS>BOND
  1   1   2  1   
  2   2   3  ar  
  3   2   4  ar  
  4   3   5  1   
  5   3   6  ar  
  6   4   7  ar  
  7   4  26  1   
  8   5   8  am  
  9   5  27  1   
 10   6   9  ar  
 11   6  28  1   
 12   7   9  ar  
 13   7  29  1   
 14   8  10  2   
 15   8  11  1   
 16   9  12  1   
 17  11  13  1   
 18  11  14  1   
 19  11  30  1   
 20  12  31  1   
 21  12  32  1   
 22  12  33  1   
 23  13  15  1   
 24  13  34  1   
 25  13  35  1   
 26  14  16  1   
 27  14  36  1   
 28  14  37  1   
 29  15  16  am  
 30  15  17  1   
 31  16  18  2   
 32  17  19  ar  
 33  17  20  ar  
 34  19  21  ar  
 35  19  38  1   
 36  20  22  ar  
 37  20  39  1   
 38  21  23  ar  
 39  21  40  1   
 40  22  23  ar  
 41  22  41  1   
 42  23  24  1   
 43  24  25  1   
 44  24  42  1   
 45  24  43  1   
 46  25  44  1   
 47  25  45  1   
 48  25  46  1   
@<TRIPOS>SUBSTRUCTURE
  1 ****  11 GROUP 4 **** **** 0

# MOE 2024.06 (io_trps.svl 2023.06)
