@<TRIPOS>MOLECULE
NONAME
38 38 1 0 0 
SMALL
USER_CHARGES


@<TRIPOS>ATOM
  1 O       -1.9660     0.6910     0.3880 O.3   1 <1>  -0.3620 
  2 C       -1.0430     1.6620     0.1450 C.ar  1 <1>   0.0830 
  3 C       -1.6700    -0.3970     1.2420 C.3   1 <1>   0.0400 
  4 C       -1.3360     2.5930    -0.8480 C.ar  1 <1>  -0.1440 
  5 C        0.1540     1.7630     0.8490 C.ar  1 <1>  -0.1500 
  6 C       -0.4370     3.6110    -1.1300 C.ar  1 <1>  -0.1500 
  7 C       -2.6360     2.4910    -1.6180 C.3   1 <1>   0.4870 
  8 C        1.0440     2.7820     0.5620 C.ar  1 <1>  -0.1500 
  9 C        0.7490     3.7050    -0.4250 C.ar  1 <1>  -0.1500 
 10 N       -3.7590     2.6630    -0.6670 N.4   1 <1>  -0.9590 
 11 C       -5.0320     2.1540    -1.2170 C.3   1 <1>   0.4810 
 12 C       -3.8670     4.0430    -0.1330 C.3   1 <1>   0.3430 
 13 C       -6.0080     1.9760    -0.0680 C.2   1 <1>  -0.2760 
 14 C       -3.5670     4.0180     1.3590 C.3   1 <1>  -0.2400 
 15 C       -7.0730     2.7640     0.1150 C.2   1 <1>  -0.3000 
 16 C       -5.6950     0.8080     0.8620 C.3   1 <1>  -0.1020 
 17 H       -1.5220    -0.0310     2.2430 H     1 <1>   0.0800 
 18 H       -0.7850    -0.8950     0.8830 H     1 <1>   0.0800 
 19 H       -2.5010    -1.0790     1.2230 H     1 <1>   0.0800 
 20 H        0.4150     1.0650     1.6220 H     1 <1>   0.1500 
 21 H       -0.6420     4.3380    -1.8970 H     1 <1>   0.1500 
 22 H       -2.6850     1.5150    -2.0740 H     1 <1>   0.0800 
 23 H       -2.6760     3.2390    -2.3920 H     1 <1>   0.0800 
 24 H        1.9700     2.8580     1.1080 H     1 <1>   0.1500 
 25 H        1.4490     4.4950    -0.6440 H     1 <1>   0.1500 
 26 H       -3.5090     2.0510     0.1240 H     1 <1>   0.4500 
 27 H       -4.8810     1.2050    -1.7070 H     1 <1>   0.0800 
 28 H       -5.4300     2.8530    -1.9340 H     1 <1>   0.0800 
 29 H       -4.8630     4.4280    -0.2910 H     1 <1>   0.0800 
 30 H       -3.1660     4.6940    -0.6310 H     1 <1>   0.0800 
 31 H       -4.2760     3.4030     1.8820 H     1 <1>   0.0800 
 32 H       -3.6420     5.0170     1.7510 H     1 <1>   0.0800 
 33 H       -2.5690     3.6650     1.5460 H     1 <1>   0.0800 
 34 H       -7.3460     3.5920    -0.5170 H     1 <1>   0.1500 
 35 H       -7.7790     2.6450     0.9220 H     1 <1>   0.1500 
 36 H       -4.7480     0.9420     1.3530 H     1 <1>   0.0800 
 37 H       -5.6730    -0.1150     0.3100 H     1 <1>   0.0800 
 38 H       -6.4520     0.7200     1.6230 H     1 <1>   0.0800 
@<TRIPOS>BOND
  1   1   2  1   
  2   1   3  1   
  3   2   4  ar  
  4   2   5  ar  
  5   3  17  1   
  6   3  18  1   
  7   3  19  1   
  8   4   6  ar  
  9   4   7  1   
 10   5   8  ar  
 11   5  20  1   
 12   6   9  ar  
 13   6  21  1   
 14   7  10  1   
 15   7  22  1   
 16   7  23  1   
 17   8   9  ar  
 18   8  24  1   
 19   9  25  1   
 20  10  11  1   
 21  10  12  1   
 22  10  26  1   
 23  11  13  1   
 24  11  27  1   
 25  11  28  1   
 26  12  14  1   
 27  12  29  1   
 28  12  30  1   
 29  13  15  2   
 30  13  16  1   
 31  14  31  1   
 32  14  32  1   
 33  14  33  1   
 34  15  34  1   
 35  15  35  1   
 36  16  36  1   
 37  16  37  1   
 38  16  38  1   
@<TRIPOS>SUBSTRUCTURE
  1 ****  10 GROUP 4 **** **** 0

# MOE 2024.06 (io_trps.svl 2023.06)
