@<TRIPOS>MOLECULE
NONAME
24 25 1 0 0 
SMALL
USER_CHARGES


@<TRIPOS>ATOM
  1 F       -0.3650    -0.3980    -1.6970 F     1 <1>  -0.3400 
  2 C       -1.4150    -0.8470    -1.0090 C.3   1 <1>   1.0200 
  3 F       -1.0760    -2.0820    -0.6280 F     1 <1>  -0.3400 
  4 F       -2.3880    -1.0250    -1.8980 F     1 <1>  -0.3400 
  5 C       -1.7980     0.0780     0.2290 C.3   1 <1>   0.5600 
  6 O       -2.9240    -0.4280     0.9340 O.3   1 <1>  -0.3630 
  7 O       -0.8140     0.0740     1.2210 O.3   1 <1>  -0.6800 
  8 C       -2.0430     1.5440    -0.1130 C.3   1 <1>  -0.0990 
  9 C       -4.1800    -0.1440     0.4930 C.ar  1 <1>   0.0830 
 10 C       -3.3160     1.6760    -0.9080 C.2   1 <1>   0.3030 
 11 C       -4.4200     0.8950    -0.4330 C.ar  1 <1>   0.0860 
 12 C       -5.2010    -0.9210     1.0040 C.ar  1 <1>  -0.1500 
 13 N       -3.1850     2.4980    -1.9120 N.2   1 <1>  -0.8000 
 14 C       -5.7640     1.0850    -0.7940 C.ar  1 <1>  -0.1500 
 15 C       -6.5120    -0.7020     0.6170 C.ar  1 <1>  -0.1500 
 16 O       -4.1560     2.6070    -2.6370 O.3   1 <1>  -0.6500 
 17 C       -6.7870     0.3080    -0.2870 C.ar  1 <1>  -0.1500 
 18 H       -1.2030     0.4870     2.0120 H     1 <1>   0.4000 
 19 H       -2.1420     2.1370     0.7750 H     1 <1>   0.0800 
 20 H       -1.2160     1.9240    -0.6850 H     1 <1>   0.0800 
 21 H       -4.9720    -1.7020     1.7060 H     1 <1>   0.1500 
 22 H       -6.0030     1.8700    -1.4890 H     1 <1>   0.1500 
 23 H       -7.3070    -1.3090     1.0120 H     1 <1>   0.1500 
 24 H       -7.7990     0.4940    -0.6010 H     1 <1>   0.1500 
@<TRIPOS>BOND
  1   1   2  1   
  2   2   3  1   
  3   2   4  1   
  4   2   5  1   
  5   5   6  1   
  6   5   7  1   
  7   5   8  1   
  8   6   9  1   
  9   7  18  1   
 10   8  10  1   
 11   8  19  1   
 12   8  20  1   
 13   9  11  ar  
 14   9  12  ar  
 15  10  11  1   
 16  10  13  2   
 17  11  14  ar  
 18  12  15  ar  
 19  12  21  1   
 20  13  16  1   
 21  14  17  ar  
 22  14  22  1   
 23  15  17  ar  
 24  15  23  1   
 25  17  24  1   
@<TRIPOS>SUBSTRUCTURE
  1 ****  11 GROUP 4 **** **** 0

# MOE 2024.06 (io_trps.svl 2023.06)
