@<TRIPOS>MOLECULE
NONAME
41 43 1 0 0 
SMALL
USER_CHARGES


@<TRIPOS>ATOM
  1 F       -0.5150     0.0720     1.5730 F     1 <1>  -0.3400 
  2 C       -1.6480    -0.2990     0.9760 C.3   1 <1>   1.0200 
  3 F       -2.6230     0.1200     1.7770 F     1 <1>  -0.3400 
  4 F       -1.7440     0.4520    -0.1200 F     1 <1>  -0.3400 
  5 C       -1.7090    -1.8430     0.6670 C.3   1 <1>   0.6610 
  6 N       -1.6820    -2.7420     1.8410 N.am  1 <1>  -0.7300 
  7 N       -2.8460    -2.3100    -0.1960 N.am  1 <1>  -0.7300 
  8 C       -0.3650    -2.2090     0.0300 C.2   1 <1>   0.5690 
  9 C       -0.5720    -3.4950     1.8310 C.2   1 <1>   0.6900 
 10 C       -4.1470    -2.4390     0.1860 C.2   1 <1>   0.5440 
 11 O        0.0190    -1.7810    -1.0340 O.2   1 <1>  -0.5700 
 12 N        0.2580    -3.1500     0.8030 N.am  1 <1>  -0.4200 
 13 O       -0.3700    -4.3920     2.6150 O.2   1 <1>  -0.5700 
 14 O       -4.4030    -2.3410     1.3670 O.2   1 <1>  -0.5700 
 15 C       -5.1900    -2.7050    -0.7910 C.ar  1 <1>   0.0860 
 16 C        1.5610    -3.8180     0.5630 C.3   1 <1>   0.2200 
 17 C       -6.3370    -3.4140    -0.4320 C.ar  1 <1>  -0.1500 
 18 C       -5.0940    -2.2710    -2.1160 C.ar  1 <1>  -0.1500 
 19 C        2.7000    -2.8090     0.3570 C.3   1 <1>  -0.1600 
 20 C        1.5200    -4.6950    -0.6960 C.3   1 <1>  -0.1600 
 21 C       -7.3350    -3.6900    -1.3490 C.ar  1 <1>  -0.1500 
 22 C       -6.0880    -2.5460    -3.0380 C.ar  1 <1>  -0.1500 
 23 C        3.1450    -2.9580    -1.0980 C.3   1 <1>  -0.1600 
 24 C        2.8170    -4.4040    -1.4510 C.3   1 <1>  -0.1600 
 25 C       -7.2100    -3.2580    -2.6570 C.ar  1 <1>  -0.1500 
 26 H       -2.5800    -3.0460     2.2310 H     1 <1>   0.3700 
 27 H       -2.6020    -2.3890    -1.1860 H     1 <1>   0.3700 
 28 H        1.8050    -4.4340     1.4130 H     1 <1>   0.0800 
 29 H       -6.4450    -3.7510     0.5850 H     1 <1>   0.1500 
 30 H       -4.2390    -1.7040    -2.4360 H     1 <1>   0.1500 
 31 H        3.5200    -3.0850     0.9960 H     1 <1>   0.0800 
 32 H        2.4150    -1.7960     0.5830 H     1 <1>   0.0800 
 33 H        0.6880    -4.4280    -1.3230 H     1 <1>   0.0800 
 34 H        1.4480    -5.7380    -0.4420 H     1 <1>   0.0800 
 35 H       -8.2090    -4.2410    -1.0450 H     1 <1>   0.1500 
 36 H       -5.9940    -2.2030    -4.0550 H     1 <1>   0.1500 
 37 H        4.1900    -2.7350    -1.2290 H     1 <1>   0.0800 
 38 H        2.5650    -2.2980    -1.7220 H     1 <1>   0.0800 
 39 H        2.7090    -4.5450    -2.5130 H     1 <1>   0.0800 
 40 H        3.6000    -5.0480    -1.0870 H     1 <1>   0.0800 
 41 H       -7.9860    -3.4720    -3.3730 H     1 <1>   0.1500 
@<TRIPOS>BOND
  1   1   2  1   
  2   2   3  1   
  3   2   4  1   
  4   2   5  1   
  5   5   6  1   
  6   5   7  1   
  7   5   8  1   
  8   6   9  am  
  9   6  26  1   
 10   7  10  am  
 11   7  27  1   
 12   8  11  2   
 13   8  12  am  
 14   9  12  am  
 15   9  13  2   
 16  10  14  2   
 17  10  15  1   
 18  12  16  1   
 19  15  17  ar  
 20  15  18  ar  
 21  16  19  1   
 22  16  20  1   
 23  16  28  1   
 24  17  21  ar  
 25  17  29  1   
 26  18  22  ar  
 27  18  30  1   
 28  19  23  1   
 29  19  31  1   
 30  19  32  1   
 31  20  24  1   
 32  20  33  1   
 33  20  34  1   
 34  21  25  ar  
 35  21  35  1   
 36  22  25  ar  
 37  22  36  1   
 38  23  24  1   
 39  23  37  1   
 40  23  38  1   
 41  24  39  1   
 42  24  40  1   
 43  25  41  1   
@<TRIPOS>SUBSTRUCTURE
  1 ****   7 GROUP 4 **** **** 0

# MOE 2024.06 (io_trps.svl 2023.06)
