@<TRIPOS>MOLECULE
NONAME
37 36 1 0 0 
SMALL
USER_CHARGES


@<TRIPOS>ATOM
  1 O        2.8790    -0.3390    -1.0200 O.2   1 <1>  -0.5700 
  2 C        1.8580    -0.8590    -0.6330 C.2   1 <1>   0.5690 
  3 N        1.5430    -0.8510     0.6950 N.am  1 <1>  -0.7300 
  4 C        0.9360    -1.5410    -1.6370 C.3   1 <1>   0.2340 
  5 C        2.1790    -0.0470     1.7820 C.3   1 <1>   0.1400 
  6 N        0.4250    -2.7960    -1.1000 N.2   1 <1>  -0.1710 
  7 C        3.5510    -0.6050     2.2150 C.3   1 <1>   0.3430 
  8 O       -0.7100    -2.8290    -0.8190 O.2   1 <1>  -0.1620 
  9 N        4.5610    -0.4560     1.1310 N.4   1 <1>  -0.9060 
 10 C        5.6870    -1.4080     1.2120 C.3   1 <1>   0.3430 
 11 C        6.5790    -1.2120    -0.0110 C.3   1 <1>  -0.1600 
 12 C        7.7590    -2.1970     0.0120 C.3   1 <1>  -0.1600 
 13 C        8.6250    -2.1360    -1.2590 C.3   1 <1>  -0.0800 
 14 C        9.6840    -3.2440    -1.2130 C.3   1 <1>  -0.2400 
 15 C        9.3190    -0.7780    -1.4280 C.3   1 <1>  -0.2400 
 16 H        0.6820    -1.3500     0.9640 H     1 <1>   0.3700 
 17 H        1.4740    -1.7450    -2.5440 H     1 <1>   0.0800 
 18 H        0.1180    -0.8810    -1.8650 H     1 <1>   0.0800 
 19 H        1.5210    -0.0500     2.6350 H     1 <1>   0.0800 
 20 H        2.2860     0.9750     1.4590 H     1 <1>   0.0800 
 21 H        3.4300    -1.6460     2.4660 H     1 <1>   0.0800 
 22 H        3.8900    -0.0860     3.0970 H     1 <1>   0.0800 
 23 H        4.9090     0.5070     1.0790 H     1 <1>   0.4500 
 24 H        4.0650    -0.5940     0.2270 H     1 <1>   0.4500 
 25 H        5.3150    -2.4200     1.2260 H     1 <1>   0.0800 
 26 H        6.2580    -1.2370     2.1110 H     1 <1>   0.0800 
 27 H        6.9540    -0.2040    -0.0170 H     1 <1>   0.0800 
 28 H        6.0040    -1.3770    -0.9070 H     1 <1>   0.0800 
 29 H        7.3740    -3.1990     0.1090 H     1 <1>   0.0800 
 30 H        8.3790    -2.0030     0.8720 H     1 <1>   0.0800 
 31 H        8.0000    -2.3120    -2.1200 H     1 <1>   0.0800 
 32 H       10.3420    -3.1080    -0.3720 H     1 <1>   0.0800 
 33 H       10.2750    -3.2330    -2.1120 H     1 <1>   0.0800 
 34 H        9.2180    -4.2100    -1.1330 H     1 <1>   0.0800 
 35 H        9.9060    -0.5390    -0.5590 H     1 <1>   0.0800 
 36 H        8.6030     0.0060    -1.5930 H     1 <1>   0.0800 
 37 H        9.9740    -0.8020    -2.2820 H     1 <1>   0.0800 
@<TRIPOS>BOND
  1   1   2  2   
  2   2   3  am  
  3   2   4  1   
  4   3   5  1   
  5   3  16  1   
  6   4   6  1   
  7   4  17  1   
  8   4  18  1   
  9   5   7  1   
 10   5  19  1   
 11   5  20  1   
 12   6   8  2   
 13   7   9  1   
 14   7  21  1   
 15   7  22  1   
 16   9  10  1   
 17   9  23  1   
 18   9  24  1   
 19  10  11  1   
 20  10  25  1   
 21  10  26  1   
 22  11  12  1   
 23  11  27  1   
 24  11  28  1   
 25  12  13  1   
 26  12  29  1   
 27  12  30  1   
 28  13  14  1   
 29  13  15  1   
 30  13  31  1   
 31  14  32  1   
 32  14  33  1   
 33  14  34  1   
 34  15  35  1   
 35  15  36  1   
 36  15  37  1   
@<TRIPOS>SUBSTRUCTURE
  1 ****   9 GROUP 4 **** **** 0

# MOE 2024.06 (io_trps.svl 2023.06)
