@<TRIPOS>MOLECULE
NONAME
25 25 1 0 0 
SMALL
USER_CHARGES


@<TRIPOS>ATOM
  1 O       -1.9430    -1.2980     0.4410 O.3   1 <1>  -0.6800 
  2 C       -3.1070    -0.7840    -0.1160 C.3   1 <1>   0.2000 
  3 C       -3.1810     0.7220     0.2020 C.3   1 <1>   0.4230 
  4 C       -4.3310    -1.5110     0.4420 C.3   1 <1>  -0.1600 
  5 N       -1.9210     1.3770    -0.2230 N.4   1 <1>  -0.9060 
  6 C       -4.4160     1.3450    -0.4550 C.3   1 <1>  -0.1600 
  7 C       -5.6120    -0.8990    -0.1540 C.3   1 <1>  -0.1600 
  8 C       -1.6700     2.6980     0.4180 C.3   1 <1>   0.2630 
  9 C       -5.6840     0.6270     0.0420 C.3   1 <1>  -0.1600 
 10 H       -1.9420    -2.2780     0.3880 H     1 <1>   0.4000 
 11 H       -3.0590    -0.9360    -1.1810 H     1 <1>   0.0800 
 12 H       -3.2830     0.8170     1.2710 H     1 <1>   0.0800 
 13 H       -4.2900    -2.5570     0.1880 H     1 <1>   0.0800 
 14 H       -4.3580    -1.4180     1.5150 H     1 <1>   0.0800 
 15 H       -1.1900     0.6950     0.0530 H     1 <1>   0.4500 
 16 H       -1.8870     1.4370    -1.2460 H     1 <1>   0.4500 
 17 H       -4.4900     2.3880    -0.2030 H     1 <1>   0.0800 
 18 H       -4.3540     1.2500    -1.5250 H     1 <1>   0.0800 
 19 H       -5.6550    -1.1210    -1.2080 H     1 <1>   0.0800 
 20 H       -6.4740    -1.3590     0.3020 H     1 <1>   0.0800 
 21 H       -1.6730     2.5990     1.4920 H     1 <1>   0.0800 
 22 H       -2.4330     3.4050     0.1340 H     1 <1>   0.0800 
 23 H       -0.7120     3.0860     0.1130 H     1 <1>   0.0800 
 24 H       -5.8270     0.8360     1.0900 H     1 <1>   0.0800 
 25 H       -6.5450     1.0120    -0.4800 H     1 <1>   0.0800 
@<TRIPOS>BOND
  1   1   2  1   
  2   1  10  1   
  3   2   3  1   
  4   2   4  1   
  5   2  11  1   
  6   3   5  1   
  7   3   6  1   
  8   3  12  1   
  9   4   7  1   
 10   4  13  1   
 11   4  14  1   
 12   5   8  1   
 13   5  15  1   
 14   5  16  1   
 15   6   9  1   
 16   6  17  1   
 17   6  18  1   
 18   7   9  1   
 19   7  19  1   
 20   7  20  1   
 21   8  21  1   
 22   8  22  1   
 23   8  23  1   
 24   9  24  1   
 25   9  25  1   
@<TRIPOS>SUBSTRUCTURE
  1 ****   3 GROUP 4 **** **** 0

# MOE 2024.06 (io_trps.svl 2023.06)
