@<TRIPOS>MOLECULE
NONAME
53 56 1 0 0 
SMALL
USER_CHARGES


@<TRIPOS>ATOM
  1 O       -2.3310     2.6120    -2.2990 O.2   1 <1>  -0.5700 
  2 C       -1.6060     2.5320    -1.3240 C.2   1 <1>   0.5440 
  3 N       -1.8750     1.5540    -0.3850 N.am  1 <1>  -0.6600 
  4 C       -0.4990     3.4560    -1.1850 C.ar  1 <1>   0.0860 
  5 C       -2.7200     0.3680    -0.7010 C.3   1 <1>   0.1400 
  6 C       -1.3560     1.5320     1.0180 C.3   1 <1>   0.1400 
  7 C        0.7640     3.0170    -0.7930 C.ar  1 <1>  -0.1500 
  8 C       -0.6460     4.8190    -1.4410 C.ar  1 <1>  -0.1500 
  9 C       -1.9900    -0.9260    -0.3000 C.3   1 <1>   0.1200 
 10 C       -0.6870     0.1790     1.3170 C.3   1 <1>   0.1200 
 11 C        1.8170     3.8890    -0.5900 C.ar  1 <1>   0.1170 
 12 C        0.4080     5.6990    -1.2860 C.ar  1 <1>  -0.1500 
 13 O       -1.5720    -0.8740     1.0370 O.3   1 <1>  -0.5600 
 14 N        3.0680     3.4690    -0.1170 N.am  1 <1>  -0.5470 
 15 C        1.6550     5.2540    -0.8600 C.ar  1 <1>   0.1000 
 16 C        3.4360     2.4130     0.6780 C.2   1 <1>   0.5440 
 17 N        2.7300     6.1380    -0.6930 N.pl3 1 <1>  -0.8380 
 18 O        2.5870     1.6500     1.1030 O.2   1 <1>  -0.5700 
 19 C        4.8340     2.2360     1.0350 C.ar  1 <1>   0.0860 
 20 C        2.6770     7.0050     0.5130 C.3   1 <1>   0.2090 
 21 C        3.1360     6.9500    -1.8710 C.3   1 <1>   0.2090 
 22 C        5.8710     2.7240     0.2340 C.ar  1 <1>  -0.1500 
 23 C        5.1950     1.5640     2.2040 C.ar  1 <1>  -0.1500 
 24 C        3.2870     8.3350     0.0890 C.3   1 <1>  -0.1600 
 25 C        3.0480     8.4000    -1.4140 C.3   1 <1>  -0.1600 
 26 C        7.1970     2.5620     0.5910 C.ar  1 <1>  -0.1500 
 27 C        6.5200     1.3970     2.5660 C.ar  1 <1>  -0.1500 
 28 C        7.5240     1.8980     1.7590 C.ar  1 <1>  -0.1500 
 29 H       -2.9470     0.3350    -1.7520 H     1 <1>   0.0800 
 30 H       -3.6480     0.4390    -0.1610 H     1 <1>   0.0800 
 31 H       -2.1790     1.6670     1.6970 H     1 <1>   0.0800 
 32 H       -0.6580     2.3290     1.1970 H     1 <1>   0.0800 
 33 H        0.9150     1.9650    -0.6400 H     1 <1>   0.1500 
 34 H       -1.6060     5.1800    -1.7690 H     1 <1>   0.1500 
 35 H       -1.1260    -1.0780    -0.9240 H     1 <1>   0.0800 
 36 H       -2.6460    -1.7700    -0.4060 H     1 <1>   0.0800 
 37 H       -0.4190     0.1190     2.3560 H     1 <1>   0.0800 
 38 H        0.2040     0.0540     0.7260 H     1 <1>   0.0800 
 39 H        0.2670     6.7440    -1.4910 H     1 <1>   0.1500 
 40 H        3.7370     4.2390    -0.1970 H     1 <1>   0.3700 
 41 H        3.2320     6.5600     1.3220 H     1 <1>   0.0800 
 42 H        1.6530     7.1430     0.8180 H     1 <1>   0.0800 
 43 H        2.5030     6.7640    -2.7220 H     1 <1>   0.0800 
 44 H        4.1520     6.7030    -2.1260 H     1 <1>   0.0800 
 45 H        5.6410     3.2330    -0.6850 H     1 <1>   0.1500 
 46 H        4.4200     1.1680     2.8370 H     1 <1>   0.1500 
 47 H        4.3430     8.3150     0.2920 H     1 <1>   0.0800 
 48 H        2.8430     9.1620     0.6130 H     1 <1>   0.0800 
 49 H        2.0580     8.7700    -1.6130 H     1 <1>   0.0800 
 50 H        3.7660     9.0220    -1.9180 H     1 <1>   0.0800 
 51 H        7.9780     2.9480    -0.0420 H     1 <1>   0.1500 
 52 H        6.7690     0.8760     3.4750 H     1 <1>   0.1500 
 53 H        8.5560     1.7700     2.0390 H     1 <1>   0.1500 
@<TRIPOS>BOND
  1   1   2  2   
  2   2   3  am  
  3   2   4  1   
  4   3   5  1   
  5   3   6  1   
  6   4   7  ar  
  7   4   8  ar  
  8   5   9  1   
  9   5  29  1   
 10   5  30  1   
 11   6  10  1   
 12   6  31  1   
 13   6  32  1   
 14   7  11  ar  
 15   7  33  1   
 16   8  12  ar  
 17   8  34  1   
 18   9  13  1   
 19   9  35  1   
 20   9  36  1   
 21  10  13  1   
 22  10  37  1   
 23  10  38  1   
 24  11  14  1   
 25  11  15  ar  
 26  12  15  ar  
 27  12  39  1   
 28  14  16  am  
 29  14  40  1   
 30  15  17  1   
 31  16  18  2   
 32  16  19  1   
 33  17  20  1   
 34  17  21  1   
 35  19  22  ar  
 36  19  23  ar  
 37  20  24  1   
 38  20  41  1   
 39  20  42  1   
 40  21  25  1   
 41  21  43  1   
 42  21  44  1   
 43  22  26  ar  
 44  22  45  1   
 45  23  27  ar  
 46  23  46  1   
 47  24  25  1   
 48  24  47  1   
 49  24  48  1   
 50  25  49  1   
 51  25  50  1   
 52  26  28  ar  
 53  26  51  1   
 54  27  28  ar  
 55  27  52  1   
 56  28  53  1   
@<TRIPOS>SUBSTRUCTURE
  1 ****  11 GROUP 4 **** **** 0

# MOE 2024.06 (io_trps.svl 2023.06)
