@<TRIPOS>MOLECULE
NONAME
44 47 1 0 0 
SMALL
USER_CHARGES


@<TRIPOS>ATOM
  1 O        0.6310    -0.4890    -0.8580 O.3   1 <1>  -0.6800 
  2 C        1.6190     0.4270    -0.5660 C.3   1 <1>   0.2000 
  3 C        2.9500    -0.3360    -0.4250 C.3   1 <1>   0.3430 
  4 C        1.2360     1.1680     0.7250 C.3   1 <1>  -0.1600 
  5 N        4.1010     0.5440     0.0010 N.4   1 <1>  -0.9590 
  6 C        2.4680     1.6340     1.5280 C.3   1 <1>  -0.1600 
  7 C        3.7000     1.8410     0.6420 C.3   1 <1>   0.3430 
  8 C        5.0770     0.7580    -1.1060 C.3   1 <1>   0.4860 
  9 C        6.3250     1.3910    -0.5210 C.ar  1 <1>  -0.1440 
 10 C        7.2110     0.5720     0.1920 C.ar  1 <1>   0.0000 
 11 C        6.5370     2.7690    -0.6730 C.ar  1 <1>   0.0000 
 12 C        8.3200     1.1790     0.8400 C.ar  1 <1>   0.0000 
 13 C        7.0810    -0.8430     0.3240 C.ar  1 <1>  -0.1500 
 14 C        7.6550     3.3540    -0.0190 C.ar  1 <1>   0.0000 
 15 C        5.7050     3.6460    -1.4320 C.ar  1 <1>  -0.1500 
 16 C        8.5090     2.5460     0.7150 C.ar  1 <1>  -0.1500 
 17 C        9.2030     0.3750     1.6050 C.ar  1 <1>  -0.1500 
 18 C        7.9500    -1.5860     1.0640 C.ar  1 <1>  -0.1500 
 19 C        7.8710     4.7510    -0.1230 C.ar  1 <1>  -0.1500 
 20 C        5.9420     4.9840    -1.5120 C.ar  1 <1>  -0.1500 
 21 C        9.0260    -0.9680     1.7210 C.ar  1 <1>  -0.1500 
 22 C        7.0390     5.5490    -0.8440 C.ar  1 <1>  -0.1500 
 23 H       -0.2450    -0.0560    -0.9380 H     1 <1>   0.4000 
 24 H        1.6840     1.1130    -1.3940 H     1 <1>   0.0800 
 25 H        3.1760    -0.8240    -1.3580 H     1 <1>   0.0800 
 26 H        2.8010    -1.0970     0.3230 H     1 <1>   0.0800 
 27 H        0.6400     0.5330     1.3610 H     1 <1>   0.0800 
 28 H        0.6390     2.0250     0.4620 H     1 <1>   0.0800 
 29 H        4.6270     0.0320     0.7240 H     1 <1>   0.4500 
 30 H        2.7060     0.9090     2.2880 H     1 <1>   0.0800 
 31 H        2.2350     2.5550     2.0330 H     1 <1>   0.0800 
 32 H        3.4650     2.5690    -0.1170 H     1 <1>   0.0800 
 33 H        4.5170     2.2280     1.2320 H     1 <1>   0.0800 
 34 H        4.6450     1.3750    -1.8720 H     1 <1>   0.0800 
 35 H        5.3380    -0.1840    -1.5580 H     1 <1>   0.0800 
 36 H        6.2880    -1.3620    -0.1780 H     1 <1>   0.1500 
 37 H        4.8650     3.2610    -1.9750 H     1 <1>   0.1500 
 38 H        9.3520     2.9970     1.2070 H     1 <1>   0.1500 
 39 H       10.0290     0.8580     2.0980 H     1 <1>   0.1500 
 40 H        7.8430    -2.6540     1.1580 H     1 <1>   0.1500 
 41 H        8.7190     5.1730     0.3870 H     1 <1>   0.1500 
 42 H        5.3070     5.6360    -2.0890 H     1 <1>   0.1500 
 43 H        9.7000    -1.5740     2.3030 H     1 <1>   0.1500 
 44 H        7.2070     6.6110    -0.9210 H     1 <1>   0.1500 
@<TRIPOS>BOND
  1   1   2  1   
  2   1  23  1   
  3   2   3  1   
  4   2   4  1   
  5   2  24  1   
  6   3   5  1   
  7   3  25  1   
  8   3  26  1   
  9   4   6  1   
 10   4  27  1   
 11   4  28  1   
 12   5   7  1   
 13   5   8  1   
 14   5  29  1   
 15   6   7  1   
 16   6  30  1   
 17   6  31  1   
 18   7  32  1   
 19   7  33  1   
 20   8   9  1   
 21   8  34  1   
 22   8  35  1   
 23   9  10  ar  
 24   9  11  ar  
 25  10  12  ar  
 26  10  13  ar  
 27  11  14  ar  
 28  11  15  ar  
 29  12  16  ar  
 30  12  17  ar  
 31  13  18  ar  
 32  13  36  1   
 33  14  16  ar  
 34  14  19  ar  
 35  15  20  ar  
 36  15  37  1   
 37  16  38  1   
 38  17  21  ar  
 39  17  39  1   
 40  18  21  ar  
 41  18  40  1   
 42  19  22  ar  
 43  19  41  1   
 44  20  22  ar  
 45  20  42  1   
 46  21  43  1   
 47  22  44  1   
@<TRIPOS>SUBSTRUCTURE
  1 ****   9 GROUP 4 **** **** 0

# MOE 2024.06 (io_trps.svl 2023.06)
