@<TRIPOS>MOLECULE
NONAME
42 43 1 0 0 
SMALL
USER_CHARGES


@<TRIPOS>ATOM
  1 CL       0.7300     1.3660    -2.0120 Cl    1 <1>  -0.1770 
  2 C        2.3050     1.5510    -1.2720 C.ar  1 <1>   0.1770 
  3 C        2.4570     2.3340    -0.1350 C.ar  1 <1>  -0.1440 
  4 C        3.3790     0.9000    -1.8490 C.ar  1 <1>  -0.1500 
  5 C        3.7210     2.4560     0.4240 C.ar  1 <1>  -0.1500 
  6 C        1.2670     3.0470     0.4900 C.3   1 <1>  -0.0960 
  7 C        4.6340     1.0290    -1.2830 C.ar  1 <1>  -0.1500 
  8 C        4.8140     1.8030    -0.1460 C.ar  1 <1>   0.0830 
  9 O        6.0810     1.8670     0.3350 O.3   1 <1>  -0.3630 
 10 C        6.4410     2.5540     1.5290 C.3   1 <1>   0.2610 
 11 C        7.9340     2.9420     1.5270 C.2   1 <1>   0.5690 
 12 C        6.0520     1.7000     2.7480 C.3   1 <1>  -0.2400 
 13 O        8.1780     4.0810     1.8610 O.2   1 <1>  -0.5700 
 14 N        8.9550     2.0730     1.1920 N.am  1 <1>  -0.6600 
 15 C        8.7960     0.6440     0.8010 C.3   1 <1>   0.1400 
 16 C       10.3610     2.5510     1.0730 C.3   1 <1>   0.1400 
 17 C        9.2240     0.4700    -0.6590 C.3   1 <1>  -0.1600 
 18 C       10.8270     2.3980    -0.3790 C.3   1 <1>  -0.1600 
 19 C       10.6670     0.9530    -0.8810 C.3   1 <1>  -0.0800 
 20 C       11.0500     0.8490    -2.3610 C.3   1 <1>  -0.2400 
 21 H        3.2300     0.3020    -2.7300 H     1 <1>   0.1500 
 22 H        3.8370     3.0630     1.3010 H     1 <1>   0.1500 
 23 H        0.5220     2.3300     0.7830 H     1 <1>   0.0800 
 24 H        0.8320     3.7260    -0.2220 H     1 <1>   0.0800 
 25 H        1.5610     3.6080     1.3590 H     1 <1>   0.0800 
 26 H        5.4810     0.5320    -1.7190 H     1 <1>   0.1500 
 27 H        5.8950     3.4790     1.5450 H     1 <1>   0.0800 
 28 H        6.6040     0.7800     2.7620 H     1 <1>   0.0800 
 29 H        5.0000     1.4830     2.7450 H     1 <1>   0.0800 
 30 H        6.2830     2.2430     3.6470 H     1 <1>   0.0800 
 31 H        7.7850     0.3060     0.9220 H     1 <1>   0.0800 
 32 H        9.4190     0.0390     1.4350 H     1 <1>   0.0800 
 33 H       10.9870     1.9670     1.7250 H     1 <1>   0.0800 
 34 H       10.4450     3.5820     1.3690 H     1 <1>   0.0800 
 35 H        8.5470     1.0270    -1.2840 H     1 <1>   0.0800 
 36 H        9.1430    -0.5680    -0.9280 H     1 <1>   0.0800 
 37 H       11.8570     2.6960    -0.4500 H     1 <1>   0.0800 
 38 H       10.2490     3.0670    -0.9930 H     1 <1>   0.0800 
 39 H       11.3300     0.3200    -0.3130 H     1 <1>   0.0800 
 40 H       10.4080     1.4680    -2.9620 H     1 <1>   0.0800 
 41 H       10.9610    -0.1680    -2.6990 H     1 <1>   0.0800 
 42 H       12.0680     1.1660    -2.5060 H     1 <1>   0.0800 
@<TRIPOS>BOND
  1   1   2  1   
  2   2   3  ar  
  3   2   4  ar  
  4   3   5  ar  
  5   3   6  1   
  6   4   7  ar  
  7   4  21  1   
  8   5   8  ar  
  9   5  22  1   
 10   6  23  1   
 11   6  24  1   
 12   6  25  1   
 13   7   8  ar  
 14   7  26  1   
 15   8   9  1   
 16   9  10  1   
 17  10  11  1   
 18  10  12  1   
 19  10  27  1   
 20  11  13  2   
 21  11  14  am  
 22  12  28  1   
 23  12  29  1   
 24  12  30  1   
 25  14  15  1   
 26  14  16  1   
 27  15  17  1   
 28  15  31  1   
 29  15  32  1   
 30  16  18  1   
 31  16  33  1   
 32  16  34  1   
 33  17  19  1   
 34  17  35  1   
 35  17  36  1   
 36  18  19  1   
 37  18  37  1   
 38  18  38  1   
 39  19  20  1   
 40  19  39  1   
 41  20  40  1   
 42  20  41  1   
 43  20  42  1   
@<TRIPOS>SUBSTRUCTURE
  1 ****   9 GROUP 4 **** **** 0

# MOE 2024.06 (io_trps.svl 2023.06)
