@<TRIPOS>MOLECULE
NONAME
40 41 1 0 0 
SMALL
USER_CHARGES


@<TRIPOS>ATOM
  1 S       -0.2970     0.2530    -0.6120 S.o2  1 <1>   1.4470 
  2 O        1.0400     0.1110    -1.1320 O.2   1 <1>  -0.6500 
  3 O       -1.1900     1.2540    -1.1380 O.2   1 <1>  -0.6500 
  4 N       -0.0280     0.7630     0.9380 N.am  1 <1>  -0.9780 
  5 C       -1.1310    -1.3470    -0.4270 C.ar  1 <1>  -0.0090 
  6 C       -2.4540    -1.4170    -0.0170 C.ar  1 <1>  -0.1500 
  7 C       -0.4680    -2.5410    -0.6740 C.ar  1 <1>  -0.1500 
  8 C       -3.1350    -2.6230     0.1430 C.ar  1 <1>   0.0860 
  9 C       -1.1110    -3.7550    -0.5220 C.ar  1 <1>  -0.1500 
 10 C       -2.4340    -3.8060    -0.1190 C.ar  1 <1>  -0.1430 
 11 C       -4.5250    -2.6010     0.5610 C.2   1 <1>   0.5440 
 12 C       -3.1060    -5.1660     0.0320 C.3   1 <1>  -0.0960 
 13 O       -4.9000    -3.2140     1.5400 O.2   1 <1>  -0.5700 
 14 N       -5.4310    -1.8730    -0.1570 N.am  1 <1>  -0.7300 
 15 C       -6.8660    -1.7500     0.1450 C.3   1 <1>   0.2200 
 16 C       -7.6660    -2.4580    -0.9530 C.3   1 <1>  -0.1600 
 17 C       -7.2280    -0.2630     0.2270 C.3   1 <1>  -0.1600 
 18 C       -9.1760    -2.2700    -0.7480 C.3   1 <1>  -0.1600 
 19 C       -8.7370    -0.0710     0.4350 C.3   1 <1>  -0.1600 
 20 C       -9.5440    -0.7820    -0.6610 C.3   1 <1>  -0.1600 
 21 H       -0.2500     1.7550     0.9010 H     1 <1>   0.4200 
 22 H        0.9830     0.7040     1.0340 H     1 <1>   0.4200 
 23 H       -2.9790    -0.4990     0.1920 H     1 <1>   0.1500 
 24 H        0.5630    -2.5230    -0.9890 H     1 <1>   0.1500 
 25 H       -0.5680    -4.6640    -0.7200 H     1 <1>   0.1500 
 26 H       -4.0410    -5.1810    -0.4990 H     1 <1>   0.0800 
 27 H       -3.3000    -5.3630     1.0720 H     1 <1>   0.0800 
 28 H       -2.4860    -5.9540    -0.3540 H     1 <1>   0.0800 
 29 H       -5.1310    -1.4120    -1.0150 H     1 <1>   0.3700 
 30 H       -7.0820    -2.2160     1.0940 H     1 <1>   0.0800 
 31 H       -7.4330    -3.5080    -0.9370 H     1 <1>   0.0800 
 32 H       -7.3900    -2.0600    -1.9130 H     1 <1>   0.0800 
 33 H       -6.9350     0.2310    -0.6820 H     1 <1>   0.0800 
 34 H       -6.6970     0.1850     1.0490 H     1 <1>   0.0800 
 35 H       -9.4750    -2.7640     0.1620 H     1 <1>   0.0800 
 36 H       -9.7110    -2.7280    -1.5620 H     1 <1>   0.0800 
 37 H       -8.9720     0.9790     0.4320 H     1 <1>   0.0800 
 38 H       -9.0170    -0.4680     1.3960 H     1 <1>   0.0800 
 39 H      -10.5960    -0.6830    -0.4560 H     1 <1>   0.0800 
 40 H       -9.3480    -0.3110    -1.6090 H     1 <1>   0.0800 
@<TRIPOS>BOND
  1   1   2  2   
  2   1   3  2   
  3   1   4  am  
  4   1   5  1   
  5   4  21  1   
  6   4  22  1   
  7   5   6  ar  
  8   5   7  ar  
  9   6   8  ar  
 10   6  23  1   
 11   7   9  ar  
 12   7  24  1   
 13   8  10  ar  
 14   8  11  1   
 15   9  10  ar  
 16   9  25  1   
 17  10  12  1   
 18  11  13  2   
 19  11  14  am  
 20  12  26  1   
 21  12  27  1   
 22  12  28  1   
 23  14  15  1   
 24  14  29  1   
 25  15  16  1   
 26  15  17  1   
 27  15  30  1   
 28  16  18  1   
 29  16  31  1   
 30  16  32  1   
 31  17  19  1   
 32  17  33  1   
 33  17  34  1   
 34  18  20  1   
 35  18  35  1   
 36  18  36  1   
 37  19  20  1   
 38  19  37  1   
 39  19  38  1   
 40  20  39  1   
 41  20  40  1   
@<TRIPOS>SUBSTRUCTURE
  1 ****   8 GROUP 4 **** **** 0

# MOE 2024.06 (io_trps.svl 2023.06)
