@<TRIPOS>MOLECULE
NONAME
33 34 1 0 0 
SMALL
USER_CHARGES


@<TRIPOS>ATOM
  1 S       -0.0300     0.2710     0.3970 S.3   1 <1>  -0.2860 
  2 C       -1.5280    -0.6960     0.5940 C.2   1 <1>   0.2420 
  3 C        1.1900    -0.6560     1.4410 C.3   1 <1>   0.1310 
  4 N       -1.5770    -1.7660     1.3040 N.2   1 <1>  -0.3380 
  5 N       -2.6850    -0.3770     0.0230 N.pl3 1 <1>   0.0480 
  6 C        2.5520     0.0010     1.3650 C.2   1 <1>   0.6590 
  7 N       -2.8300    -2.1980     1.2150 N.2   1 <1>  -0.3380 
  8 C       -3.5030    -1.3690     0.4510 C.2   1 <1>   0.1330 
  9 C       -2.9610     0.7750    -0.8680 C.3   1 <1>   0.0160 
 10 O        3.0220     0.5940     2.3030 O.2   1 <1>  -0.5700 
 11 O        3.2030    -0.1290     0.2150 O.3   1 <1>  -0.4300 
 12 C       -4.9120    -1.5170     0.1290 C.ar  1 <1>   0.3630 
 13 C        4.4750     0.4440     0.0210 C.3   1 <1>   0.1200 
 14 N       -5.5740    -0.4880    -0.4220 N.ar  1 <1>  -0.6200 
 15 C       -5.5580    -2.7260     0.4010 C.ar  1 <1>  -0.1500 
 16 C        4.9290     0.1170    -1.3970 C.3   1 <1>  -0.2400 
 17 C       -6.8560    -0.6690    -0.6910 C.ar  1 <1>   0.1600 
 18 C       -6.8930    -2.9040     0.1160 C.ar  1 <1>  -0.1500 
 19 C       -7.5540    -1.8360    -0.4470 C.ar  1 <1>  -0.1500 
 20 H        1.2330    -1.6630     1.0710 H     1 <1>   0.0800 
 21 H        0.8190    -0.6470     2.4490 H     1 <1>   0.0800 
 22 H       -2.0510     1.2890    -1.1160 H     1 <1>   0.0800 
 23 H       -3.6290     1.4540    -0.3710 H     1 <1>   0.0800 
 24 H       -3.4210     0.4220    -1.7730 H     1 <1>   0.0800 
 25 H        5.1500     0.0290     0.7510 H     1 <1>   0.0800 
 26 H        4.3950     1.5080     0.1670 H     1 <1>   0.0800 
 27 H       -5.0020    -3.5330     0.8440 H     1 <1>   0.1500 
 28 H        4.9940    -0.9480    -1.5300 H     1 <1>   0.0800 
 29 H        5.9000     0.5440    -1.5750 H     1 <1>   0.0800 
 30 H        4.2380     0.5280    -2.1110 H     1 <1>   0.0800 
 31 H       -7.3830     0.1610    -1.1300 H     1 <1>   0.1500 
 32 H       -7.3950    -3.8330     0.3240 H     1 <1>   0.1500 
 33 H       -8.5980    -1.9060    -0.6940 H     1 <1>   0.1500 
@<TRIPOS>BOND
  1   1   2  1   
  2   1   3  1   
  3   2   4  2   
  4   2   5  1   
  5   3   6  1   
  6   3  20  1   
  7   3  21  1   
  8   4   7  1   
  9   5   8  1   
 10   5   9  1   
 11   6  10  2   
 12   6  11  1   
 13   7   8  2   
 14   8  12  1   
 15   9  22  1   
 16   9  23  1   
 17   9  24  1   
 18  11  13  1   
 19  12  14  ar  
 20  12  15  ar  
 21  13  16  1   
 22  13  25  1   
 23  13  26  1   
 24  14  17  ar  
 25  15  18  ar  
 26  15  27  1   
 27  16  28  1   
 28  16  29  1   
 29  16  30  1   
 30  17  19  ar  
 31  17  31  1   
 32  18  19  ar  
 33  18  32  1   
 34  19  33  1   
@<TRIPOS>SUBSTRUCTURE
  1 ****   2 GROUP 4 **** **** 0

# MOE 2024.06 (io_trps.svl 2023.06)
