@<TRIPOS>MOLECULE
NONAME
51 53 1 0 0 
SMALL
USER_CHARGES


@<TRIPOS>ATOM
  1 O        0.5850    -0.0320     0.7390 O.3   1 <1>  -0.6800 
  2 C        0.3400    -1.3930     0.6550 C.3   1 <1>   0.1200 
  3 C        1.6740    -2.1270     0.8320 C.3   1 <1>  -0.0800 
  4 C        2.7520    -1.4850    -0.0490 C.3   1 <1>   0.3430 
  5 C        1.5330    -3.6230     0.5150 C.3   1 <1>  -0.1600 
  6 N        4.0800    -2.1680     0.1380 N.4   1 <1>  -0.9590 
  7 C        2.9010    -4.3130     0.5890 C.3   1 <1>  -0.1600 
  8 C        5.2060    -1.4410    -0.5410 C.3   1 <1>   0.4230 
  9 C        3.9500    -3.6070    -0.2740 C.3   1 <1>   0.3430 
 10 C        6.5430    -2.1500    -0.2670 C.3   1 <1>  -0.1600 
 11 C        5.2840     0.0160    -0.0500 C.3   1 <1>  -0.1600 
 12 C        7.7340    -1.3760    -0.8330 C.3   1 <1>   0.3430 
 13 C        6.4940     0.7590    -0.6160 C.3   1 <1>   0.3430 
 14 N        7.7370     0.0130    -0.2960 N.4   1 <1>  -0.9590 
 15 C        8.9460     0.7630    -0.7550 C.3   1 <1>   0.4860 
 16 C       10.1680     0.0760    -0.1820 C.ar  1 <1>  -0.1440 
 17 C       10.4700     0.1940     1.1680 C.ar  1 <1>  -0.1500 
 18 C       10.9890    -0.6880    -1.0010 C.ar  1 <1>  -0.1500 
 19 C       11.5690    -0.4590     1.6950 C.ar  1 <1>  -0.1500 
 20 C       12.0880    -1.3400    -0.4710 C.ar  1 <1>  -0.1500 
 21 C       12.3770    -1.2280     0.8770 C.ar  1 <1>  -0.1500 
 22 H       -0.2590     0.4710     0.7680 H     1 <1>   0.4000 
 23 H       -0.1000    -1.5940    -0.3090 H     1 <1>   0.0800 
 24 H       -0.3560    -1.6670     1.4310 H     1 <1>   0.0800 
 25 H        1.9610    -2.0160     1.8640 H     1 <1>   0.0800 
 26 H        2.8210    -0.4470     0.2270 H     1 <1>   0.0800 
 27 H        2.4480    -1.5380    -1.0810 H     1 <1>   0.0800 
 28 H        1.1220    -3.7500    -0.4730 H     1 <1>   0.0800 
 29 H        0.8550    -4.0850     1.2140 H     1 <1>   0.0800 
 30 H        4.2530    -2.1700     1.1510 H     1 <1>   0.4500 
 31 H        2.7990    -5.3310     0.2530 H     1 <1>   0.0800 
 32 H        3.2400    -4.3490     1.6100 H     1 <1>   0.0800 
 33 H        5.0280    -1.4370    -1.6060 H     1 <1>   0.0800 
 34 H        4.8880    -4.1230    -0.1540 H     1 <1>   0.0800 
 35 H        3.6600    -3.6670    -1.3110 H     1 <1>   0.0800 
 36 H        6.5550    -3.1180    -0.7340 H     1 <1>   0.0800 
 37 H        6.6890    -2.2840     0.7900 H     1 <1>   0.0800 
 38 H        5.3280     0.0490     1.0250 H     1 <1>   0.0800 
 39 H        4.4170     0.5660    -0.3670 H     1 <1>   0.0800 
 40 H        7.6800    -1.3530    -1.9100 H     1 <1>   0.0800 
 41 H        8.6480    -1.8810    -0.5560 H     1 <1>   0.0800 
 42 H        6.5380     1.7500    -0.1910 H     1 <1>   0.0800 
 43 H        6.3930     0.8580    -1.6860 H     1 <1>   0.0800 
 44 H        7.8530    -0.0490     0.7260 H     1 <1>   0.4500 
 45 H        8.9150     1.7810    -0.4000 H     1 <1>   0.0800 
 46 H        9.0000     0.7770    -1.8320 H     1 <1>   0.0800 
 47 H        9.8680     0.7960     1.8270 H     1 <1>   0.1500 
 48 H       10.7930    -0.7840    -2.0560 H     1 <1>   0.1500 
 49 H       11.8060    -0.3690     2.7420 H     1 <1>   0.1500 
 50 H       12.7270    -1.9320    -1.1050 H     1 <1>   0.1500 
 51 H       13.2340    -1.7350     1.2880 H     1 <1>   0.1500 
@<TRIPOS>BOND
  1   1   2  1   
  2   1  22  1   
  3   2   3  1   
  4   2  23  1   
  5   2  24  1   
  6   3   4  1   
  7   3   5  1   
  8   3  25  1   
  9   4   6  1   
 10   4  26  1   
 11   4  27  1   
 12   5   7  1   
 13   5  28  1   
 14   5  29  1   
 15   6   8  1   
 16   6   9  1   
 17   6  30  1   
 18   7   9  1   
 19   7  31  1   
 20   7  32  1   
 21   8  10  1   
 22   8  11  1   
 23   8  33  1   
 24   9  34  1   
 25   9  35  1   
 26  10  12  1   
 27  10  36  1   
 28  10  37  1   
 29  11  13  1   
 30  11  38  1   
 31  11  39  1   
 32  12  14  1   
 33  12  40  1   
 34  12  41  1   
 35  13  14  1   
 36  13  42  1   
 37  13  43  1   
 38  14  15  1   
 39  14  44  1   
 40  15  16  1   
 41  15  45  1   
 42  15  46  1   
 43  16  17  ar  
 44  16  18  ar  
 45  17  19  ar  
 46  17  47  1   
 47  18  20  ar  
 48  18  48  1   
 49  19  21  ar  
 50  19  49  1   
 51  20  21  ar  
 52  20  50  1   
 53  21  51  1   
@<TRIPOS>SUBSTRUCTURE
  1 ****  10 GROUP 4 **** **** 0

# MOE 2024.06 (io_trps.svl 2023.06)
