@<TRIPOS>MOLECULE
NONAME
32 33 1 0 0 
SMALL
USER_CHARGES


@<TRIPOS>ATOM
  1 S        0.0010     0.4240    -0.4210 S.3   1 <1>  -0.2860 
  2 C       -1.4370    -0.6500    -0.3480 C.2   1 <1>   0.2420 
  3 C        1.4080    -0.7730    -0.4270 C.3   1 <1>   0.0700 
  4 N       -1.3590    -1.9330    -0.3120 N.2   1 <1>  -0.3380 
  5 N       -2.6840    -0.1910    -0.3190 N.pl3 1 <1>   0.0480 
  6 C        2.7100     0.0220    -0.4900 C.3   1 <1>   0.0400 
  7 N       -2.6160    -2.3690    -0.2500 N.2   1 <1>  -0.3380 
  8 C       -3.4040    -1.3290    -0.2580 C.2   1 <1>   0.1330 
  9 C       -3.1570     1.2120    -0.2970 C.3   1 <1>   0.0960 
 10 C        3.8810    -0.8940    -0.4990 C.1   1 <1>   0.3570 
 11 C       -4.8430    -1.3720    -0.1900 C.ar  1 <1>   0.0530 
 12 C       -3.4170     1.6710     1.1410 C.3   1 <1>  -0.2400 
 13 N        4.7750    -1.5960    -0.5060 N.1   1 <1>  -0.5570 
 14 C       -5.6360    -0.9430    -1.2520 C.ar  1 <1>  -0.1500 
 15 C       -5.4840    -1.8430     0.9530 C.ar  1 <1>  -0.1500 
 16 C       -7.0160    -0.9610    -1.1680 C.ar  1 <1>  -0.1500 
 17 C       -6.8630    -1.8650     1.0430 C.ar  1 <1>  -0.1500 
 18 C       -7.6330    -1.4210    -0.0170 C.ar  1 <1>  -0.1500 
 19 H        1.2830    -1.4090    -1.2870 H     1 <1>   0.0800 
 20 H        1.3360    -1.3570     0.4740 H     1 <1>   0.0800 
 21 H        2.7840     0.6690     0.3640 H     1 <1>   0.0800 
 22 H        2.7320     0.6180    -1.3830 H     1 <1>   0.0800 
 23 H       -4.0600     1.2880    -0.8740 H     1 <1>   0.0800 
 24 H       -2.4140     1.8410    -0.7540 H     1 <1>   0.0800 
 25 H       -4.1820     1.0660     1.5970 H     1 <1>   0.0800 
 26 H       -3.7500     2.6930     1.1420 H     1 <1>   0.0800 
 27 H       -2.5150     1.6060     1.7250 H     1 <1>   0.0800 
 28 H       -5.1640    -0.5980    -2.1550 H     1 <1>   0.1500 
 29 H       -4.8860    -2.1970     1.7750 H     1 <1>   0.1500 
 30 H       -7.6130    -0.6250    -1.9980 H     1 <1>   0.1500 
 31 H       -7.3390    -2.2310     1.9370 H     1 <1>   0.1500 
 32 H       -8.7070    -1.4370     0.0510 H     1 <1>   0.1500 
@<TRIPOS>BOND
  1   1   2  1   
  2   1   3  1   
  3   2   4  2   
  4   2   5  1   
  5   3   6  1   
  6   3  19  1   
  7   3  20  1   
  8   4   7  1   
  9   5   8  1   
 10   5   9  1   
 11   6  10  1   
 12   6  21  1   
 13   6  22  1   
 14   7   8  2   
 15   8  11  1   
 16   9  12  1   
 17   9  23  1   
 18   9  24  1   
 19  10  13  3   
 20  11  14  ar  
 21  11  15  ar  
 22  12  25  1   
 23  12  26  1   
 24  12  27  1   
 25  14  16  ar  
 26  14  28  1   
 27  15  17  ar  
 28  15  29  1   
 29  16  18  ar  
 30  16  30  1   
 31  17  18  ar  
 32  17  31  1   
 33  18  32  1   
@<TRIPOS>SUBSTRUCTURE
  1 ****   5 GROUP 4 **** **** 0

# MOE 2024.06 (io_trps.svl 2023.06)
