@<TRIPOS>MOLECULE
NONAME
36 38 1 0 0 
SMALL
USER_CHARGES


@<TRIPOS>ATOM
  1 O        0.1490    -1.3610    -0.7800 O.co2 1 <1>  -0.9000 
  2 C       -0.8040    -2.1400    -0.9400 C.2   1 <1>   0.9060 
  3 O       -0.6510    -3.1930    -1.5770 O.co2 1 <1>  -0.9000 
  4 C       -2.2070    -1.7790    -0.3830 C.3   1 <1>  -0.1060 
  5 C       -2.6030    -2.7110     0.7970 C.3   1 <1>  -0.1600 
  6 C       -2.2610    -0.3160     0.1300 C.3   1 <1>  -0.1600 
  7 C       -3.2750    -1.9310    -1.4950 C.3   1 <1>  -0.1600 
  8 C       -4.0150    -2.3810     1.3550 C.3   1 <1>  -0.1060 
  9 C       -3.6600     0.0530     0.6590 C.3   1 <1>   0.0000 
 10 C       -4.6850    -1.5800    -0.9820 C.3   1 <1>   0.0000 
 11 C       -4.3800    -3.3080     2.5460 C.2   1 <1>   0.9060 
 12 C       -4.0180    -0.9010     1.8150 C.3   1 <1>  -0.1600 
 13 C       -5.0310    -2.5190     0.1910 C.3   1 <1>  -0.1600 
 14 C       -4.6870    -0.1260    -0.4750 C.3   1 <1>  -0.1600 
 15 C       -3.6690     1.5050     1.1550 C.3   1 <1>  -0.2400 
 16 C       -5.7120    -1.7480    -2.1090 C.3   1 <1>  -0.2400 
 17 O       -3.7980    -3.1670     3.6320 O.co2 1 <1>  -0.9000 
 18 O       -5.2750    -4.1590     2.4220 O.co2 1 <1>  -0.9000 
 19 H       -1.8760    -2.6170     1.5850 H     1 <1>   0.0800 
 20 H       -2.5790    -3.7350     0.4660 H     1 <1>   0.0800 
 21 H       -1.9810     0.3460    -0.6710 H     1 <1>   0.0800 
 22 H       -1.5320    -0.1960     0.9120 H     1 <1>   0.0800 
 23 H       -3.0110    -1.2960    -2.3220 H     1 <1>   0.0800 
 24 H       -3.2620    -2.9470    -1.8520 H     1 <1>   0.0800 
 25 H       -4.9880    -0.6600     2.2110 H     1 <1>   0.0800 
 26 H       -3.3060    -0.7850     2.6140 H     1 <1>   0.0800 
 27 H       -6.0180    -2.3030     0.5600 H     1 <1>   0.0800 
 28 H       -5.0320    -3.5400    -0.1480 H     1 <1>   0.0800 
 29 H       -4.4460     0.5380    -1.2860 H     1 <1>   0.0800 
 30 H       -5.6680     0.1280    -0.1160 H     1 <1>   0.0800 
 31 H       -2.9510     1.6280     1.9460 H     1 <1>   0.0800 
 32 H       -4.6410     1.7660     1.5300 H     1 <1>   0.0800 
 33 H       -3.4130     2.1750     0.3540 H     1 <1>   0.0800 
 34 H       -5.7090    -2.7650    -2.4610 H     1 <1>   0.0800 
 35 H       -5.4730    -1.1000    -2.9330 H     1 <1>   0.0800 
 36 H       -6.6980    -1.5120    -1.7540 H     1 <1>   0.0800 
@<TRIPOS>BOND
  1   1   2  ar  
  2   2   3  ar  
  3   2   4  1   
  4   4   5  1   
  5   4   6  1   
  6   4   7  1   
  7   5   8  1   
  8   5  19  1   
  9   5  20  1   
 10   6   9  1   
 11   6  21  1   
 12   6  22  1   
 13   7  10  1   
 14   7  23  1   
 15   7  24  1   
 16   8  11  1   
 17   8  12  1   
 18   8  13  1   
 19   9  12  1   
 20   9  14  1   
 21   9  15  1   
 22  10  13  1   
 23  10  14  1   
 24  10  16  1   
 25  11  17  ar  
 26  11  18  ar  
 27  12  25  1   
 28  12  26  1   
 29  13  27  1   
 30  13  28  1   
 31  14  29  1   
 32  14  30  1   
 33  15  31  1   
 34  15  32  1   
 35  15  33  1   
 36  16  34  1   
 37  16  35  1   
 38  16  36  1   
@<TRIPOS>SUBSTRUCTURE
  1 ****   5 GROUP 4 **** **** 0

# MOE 2024.06 (io_trps.svl 2023.06)
