@<TRIPOS>MOLECULE
NONAME
48 50 1 0 0 
SMALL
USER_CHARGES


@<TRIPOS>ATOM
  1 O        0.3100     0.2800    -0.3190 O.2   1 <1>  -0.5700 
  2 C        0.1320     1.4590    -0.5590 C.2   1 <1>   0.6900 
  3 N        1.1730     2.2480    -0.9860 N.am  1 <1>  -0.6600 
  4 N       -1.1090     2.0180    -0.4400 N.am  1 <1>  -0.5470 
  5 C        1.2120     3.7310    -0.8570 C.3   1 <1>   0.1400 
  6 C        2.4680     1.6450    -1.4060 C.3   1 <1>   0.1400 
  7 C       -2.3090     1.5250     0.0890 C.ar  1 <1>   0.1170 
  8 C        2.2940     4.1280     0.1520 C.3   1 <1>  -0.1600 
  9 C        3.5630     2.0230    -0.4060 C.3   1 <1>  -0.1600 
 10 C       -3.5050     2.1010    -0.3170 C.ar  1 <1>  -0.1500 
 11 C       -2.3580     0.4940     1.0230 C.ar  1 <1>  -0.1500 
 12 C        3.6700     3.5490    -0.2220 C.3   1 <1>  -0.0800 
 13 C       -4.7200     1.6680     0.1830 C.ar  1 <1>   0.0820 
 14 C       -3.5660     0.0500     1.5290 C.ar  1 <1>  -0.1500 
 15 C        4.7190     3.9250     0.8410 C.3   1 <1>  -0.0170 
 16 O       -5.8300     2.2990    -0.2810 O.3   1 <1>  -0.3630 
 17 C       -4.7500     0.6330     1.1130 C.ar  1 <1>  -0.1500 
 18 C        6.1190     3.4730     0.4510 C.ar  1 <1>  -0.1440 
 19 C       -7.1190     1.9120     0.1410 C.3   1 <1>   0.0400 
 20 C        6.8480     4.1900    -0.4860 C.ar  1 <1>  -0.1500 
 21 C        6.6810     2.3430     1.0270 C.ar  1 <1>  -0.1500 
 22 C        8.1210     3.7830    -0.8450 C.ar  1 <1>  -0.1500 
 23 C        7.9540     1.9340     0.6690 C.ar  1 <1>  -0.1500 
 24 C        8.6750     2.6540    -0.2680 C.ar  1 <1>  -0.1500 
 25 H       -1.1820     2.9000    -0.9320 H     1 <1>   0.3700 
 26 H        0.2660     4.1180    -0.5260 H     1 <1>   0.0800 
 27 H        1.4340     4.1590    -1.8200 H     1 <1>   0.0800 
 28 H        2.7240     2.0130    -2.3850 H     1 <1>   0.0800 
 29 H        2.3880     0.5730    -1.4680 H     1 <1>   0.0800 
 30 H        2.0000     3.7730     1.1250 H     1 <1>   0.0800 
 31 H        2.3510     5.2010     0.1970 H     1 <1>   0.0800 
 32 H        4.4990     1.6290    -0.7610 H     1 <1>   0.0800 
 33 H        3.3450     1.5500     0.5350 H     1 <1>   0.0800 
 34 H       -3.5030     2.8980    -1.0360 H     1 <1>   0.1500 
 35 H       -1.4460     0.0340     1.3590 H     1 <1>   0.1500 
 36 H        3.9740     3.9800    -1.1610 H     1 <1>   0.0800 
 37 H       -3.5810    -0.7510     2.2470 H     1 <1>   0.1500 
 38 H        4.4470     3.4890     1.7870 H     1 <1>   0.0800 
 39 H        4.7300     4.9920     0.9730 H     1 <1>   0.0800 
 40 H       -5.6750     0.2710     1.5210 H     1 <1>   0.1500 
 41 H       -7.8350     2.5360    -0.3620 H     1 <1>   0.0800 
 42 H       -7.1950     2.0520     1.2040 H     1 <1>   0.0800 
 43 H       -7.2790     0.8830    -0.1270 H     1 <1>   0.0800 
 44 H        6.4260     5.0690    -0.9390 H     1 <1>   0.1500 
 45 H        6.1290     1.7760     1.7550 H     1 <1>   0.1500 
 46 H        8.6800     4.3440    -1.5730 H     1 <1>   0.1500 
 47 H        8.3840     1.0560     1.1190 H     1 <1>   0.1500 
 48 H        9.6640     2.3360    -0.5470 H     1 <1>   0.1500 
@<TRIPOS>BOND
  1   1   2  2   
  2   2   3  am  
  3   2   4  am  
  4   3   5  1   
  5   3   6  1   
  6   4   7  1   
  7   4  25  1   
  8   5   8  1   
  9   5  26  1   
 10   5  27  1   
 11   6   9  1   
 12   6  28  1   
 13   6  29  1   
 14   7  10  ar  
 15   7  11  ar  
 16   8  12  1   
 17   8  30  1   
 18   8  31  1   
 19   9  12  1   
 20   9  32  1   
 21   9  33  1   
 22  10  13  ar  
 23  10  34  1   
 24  11  14  ar  
 25  11  35  1   
 26  12  15  1   
 27  12  36  1   
 28  13  16  1   
 29  13  17  ar  
 30  14  17  ar  
 31  14  37  1   
 32  15  18  1   
 33  15  38  1   
 34  15  39  1   
 35  16  19  1   
 36  17  40  1   
 37  18  20  ar  
 38  18  21  ar  
 39  19  41  1   
 40  19  42  1   
 41  19  43  1   
 42  20  22  ar  
 43  20  44  1   
 44  21  23  ar  
 45  21  45  1   
 46  22  24  ar  
 47  22  46  1   
 48  23  24  ar  
 49  23  47  1   
 50  24  48  1   
@<TRIPOS>SUBSTRUCTURE
  1 ****   3 GROUP 4 **** **** 0

# MOE 2024.06 (io_trps.svl 2023.06)
