@<TRIPOS>MOLECULE
NONAME
33 33 1 0 0 
SMALL
USER_CHARGES


@<TRIPOS>ATOM
  1 O        0.3900     1.0030    -0.1210 O.2   1 <1>  -0.5700 
  2 C        1.5510     1.2720     0.1180 C.2   1 <1>   0.6900 
  3 N        2.5550     0.4360    -0.3130 N.am  1 <1>  -0.4200 
  4 N        1.8630     2.4090     0.8260 N.am  1 <1>  -0.4200 
  5 C        3.8830     0.7840    -0.2520 C.2   1 <1>   0.5690 
  6 C        2.1750    -0.8690    -0.9380 C.3   1 <1>   0.0600 
  7 C        3.1590     2.7500     1.1340 C.2   1 <1>   0.5690 
  8 C        0.7450     3.2310     1.3860 C.3   1 <1>   0.0600 
  9 O        4.7280     0.0900    -0.7700 O.2   1 <1>  -0.5700 
 10 C        4.3330     2.0900     0.4050 C.3   1 <1>   0.1220 
 11 O        3.3880     3.5780     1.9860 O.2   1 <1>  -0.5700 
 12 C        4.8390     3.0120    -0.7360 C.3   1 <1>  -0.0220 
 13 C        5.4730     1.7770     1.4100 C.3   1 <1>  -0.0220 
 14 C        5.2240     4.4190    -0.3030 C.2   1 <1>  -0.2880 
 15 C        5.0220     0.8270     2.5120 C.2   1 <1>  -0.2880 
 16 C        4.6170     5.5330    -0.7220 C.2   1 <1>  -0.3000 
 17 C        5.3690    -0.4600     2.5920 C.2   1 <1>  -0.3000 
 18 H        1.9670    -0.7190    -1.9830 H     1 <1>   0.0800 
 19 H        1.2990    -1.2720    -0.4600 H     1 <1>   0.0800 
 20 H        2.9710    -1.5860    -0.8370 H     1 <1>   0.0800 
 21 H        0.3860     2.7750     2.2920 H     1 <1>   0.0800 
 22 H       -0.0630     3.2930     0.6790 H     1 <1>   0.0800 
 23 H        1.0790     4.2310     1.6040 H     1 <1>   0.0800 
 24 H        4.0690     3.0860    -1.4840 H     1 <1>   0.0800 
 25 H        5.6930     2.5580    -1.2110 H     1 <1>   0.0800 
 26 H        5.8340     2.6810     1.8670 H     1 <1>   0.0800 
 27 H        6.3020     1.3360     0.8830 H     1 <1>   0.0800 
 28 H        6.0490     4.4480     0.3900 H     1 <1>   0.1500 
 29 H        4.3840     1.3000     3.2440 H     1 <1>   0.1500 
 30 H        4.9000     6.5220    -0.4040 H     1 <1>   0.1500 
 31 H        3.7910     5.5580    -1.4110 H     1 <1>   0.1500 
 32 H        5.0490    -1.1220     3.3790 H     1 <1>   0.1500 
 33 H        6.0010    -0.9620     1.8780 H     1 <1>   0.1500 
@<TRIPOS>BOND
  1   1   2  2   
  2   2   3  am  
  3   2   4  am  
  4   3   5  am  
  5   3   6  1   
  6   4   7  am  
  7   4   8  1   
  8   5   9  2   
  9   5  10  1   
 10   6  18  1   
 11   6  19  1   
 12   6  20  1   
 13   7  10  1   
 14   7  11  2   
 15   8  21  1   
 16   8  22  1   
 17   8  23  1   
 18  10  12  1   
 19  10  13  1   
 20  12  14  1   
 21  12  24  1   
 22  12  25  1   
 23  13  15  1   
 24  13  26  1   
 25  13  27  1   
 26  14  16  2   
 27  14  28  1   
 28  15  17  2   
 29  15  29  1   
 30  16  30  1   
 31  16  31  1   
 32  17  32  1   
 33  17  33  1   
@<TRIPOS>SUBSTRUCTURE
  1 ****  10 GROUP 4 **** **** 0

# MOE 2024.06 (io_trps.svl 2023.06)
