@<TRIPOS>MOLECULE
NONAME
37 38 1 0 0 
SMALL
USER_CHARGES


@<TRIPOS>ATOM
  1 O       -1.4070    -0.5050    -0.7060 O.3   1 <1>  -0.5600 
  2 C       -1.8970    -0.9650     0.5240 C.3   1 <1>   0.1200 
  3 C       -1.1920     0.8810    -0.7570 C.3   1 <1>   0.1200 
  4 C       -3.2550    -0.3050     0.8590 C.3   1 <1>   0.3430 
  5 C       -2.4800     1.6620    -0.4010 C.3   1 <1>   0.3430 
  6 N       -3.6340     0.7300    -0.1680 N.4   1 <1>  -0.9590 
  7 C       -4.9030     1.4650     0.1400 C.3   1 <1>   0.3430 
  8 C       -6.1410     0.5650     0.0710 C.3   1 <1>   0.1200 
  9 O       -7.2470     1.3580     0.4200 O.3   1 <1>  -0.3630 
 10 C       -8.4980     0.8370     0.4990 C.ar  1 <1>   0.0820 
 11 C       -8.8230    -0.4660     0.1270 C.ar  1 <1>  -0.1500 
 12 C       -9.4850     1.6790     0.9860 C.ar  1 <1>  -0.1500 
 13 C      -10.1350    -0.9140     0.2490 C.ar  1 <1>   0.0820 
 14 C      -10.7890     1.2340     1.1080 C.ar  1 <1>  -0.1500 
 15 O      -10.5440    -2.1620    -0.0900 O.3   1 <1>  -0.3630 
 16 C      -11.1090    -0.0600     0.7410 C.ar  1 <1>  -0.1500 
 17 C       -9.6690    -3.1010    -0.6740 C.3   1 <1>   0.0400 
 18 H       -1.1680    -0.7510     1.2870 H     1 <1>   0.0800 
 19 H       -2.0080    -2.0330     0.4560 H     1 <1>   0.0800 
 20 H       -0.8740     1.1260    -1.7550 H     1 <1>   0.0800 
 21 H       -0.3930     1.1320    -0.0800 H     1 <1>   0.0800 
 22 H       -3.1910     0.1480     1.8350 H     1 <1>   0.0800 
 23 H       -4.0100    -1.0720     0.9080 H     1 <1>   0.0800 
 24 H       -2.7080     2.3450    -1.2040 H     1 <1>   0.0800 
 25 H       -2.2980     2.2520     0.4830 H     1 <1>   0.0800 
 26 H       -3.7270     0.2120    -1.0560 H     1 <1>   0.4500 
 27 H       -5.0340     2.2650    -0.5710 H     1 <1>   0.0800 
 28 H       -4.8410     1.8960     1.1260 H     1 <1>   0.0800 
 29 H       -6.0800    -0.2430     0.7770 H     1 <1>   0.0800 
 30 H       -6.2940     0.1990    -0.9290 H     1 <1>   0.0800 
 31 H       -8.0750    -1.1260    -0.2550 H     1 <1>   0.1500 
 32 H       -9.2320     2.6850     1.2690 H     1 <1>   0.1500 
 33 H      -11.5520     1.8920     1.4880 H     1 <1>   0.1500 
 34 H      -12.1200    -0.4170     0.8330 H     1 <1>   0.1500 
 35 H      -10.2310    -3.9950    -0.8790 H     1 <1>   0.0800 
 36 H       -8.8770    -3.3200     0.0190 H     1 <1>   0.0800 
 37 H       -9.2840    -2.6950    -1.5920 H     1 <1>   0.0800 
@<TRIPOS>BOND
  1   1   2  1   
  2   1   3  1   
  3   2   4  1   
  4   2  18  1   
  5   2  19  1   
  6   3   5  1   
  7   3  20  1   
  8   3  21  1   
  9   4   6  1   
 10   4  22  1   
 11   4  23  1   
 12   5   6  1   
 13   5  24  1   
 14   5  25  1   
 15   6   7  1   
 16   6  26  1   
 17   7   8  1   
 18   7  27  1   
 19   7  28  1   
 20   8   9  1   
 21   8  29  1   
 22   8  30  1   
 23   9  10  1   
 24  10  11  ar  
 25  10  12  ar  
 26  11  13  ar  
 27  11  31  1   
 28  12  14  ar  
 29  12  32  1   
 30  13  15  1   
 31  13  16  ar  
 32  14  16  ar  
 33  14  33  1   
 34  15  17  1   
 35  16  34  1   
 36  17  35  1   
 37  17  36  1   
 38  17  37  1   
@<TRIPOS>SUBSTRUCTURE
  1 ****   8 GROUP 4 **** **** 0

# MOE 2024.06 (io_trps.svl 2023.06)
