@<TRIPOS>MOLECULE
NONAME
49 51 1 0 0 
SMALL
USER_CHARGES


@<TRIPOS>ATOM
  1 CL      -0.3390     2.2450    -3.7000 Cl    1 <1>  -0.1770 
  2 C       -0.2180     3.2860    -2.3080 C.ar  1 <1>   0.1770 
  3 C       -0.4670     4.6380    -2.4450 C.ar  1 <1>  -0.1500 
  4 C        0.1240     2.7480    -1.0830 C.ar  1 <1>  -0.1500 
  5 C       -0.3670     5.4600    -1.3340 C.ar  1 <1>  -0.1500 
  6 C        0.2200     3.5800     0.0200 C.ar  1 <1>  -0.1500 
  7 C       -0.0210     4.9490    -0.0860 C.ar  1 <1>  -0.0090 
  8 S        0.1320     6.0430     1.3550 S.o2  1 <1>   1.4470 
  9 O       -0.9520     6.9980     1.3730 O.2   1 <1>  -0.6500 
 10 O        0.4590     5.2950     2.5470 O.2   1 <1>  -0.6500 
 11 N        1.5280     6.9530     1.0190 N.am  1 <1>  -0.8490 
 12 C        1.5880     8.1410     1.9030 C.3   1 <1>   0.1960 
 13 C        2.7690     6.1590     1.1490 C.3   1 <1>   0.1960 
 14 C        2.9010     8.9510     1.7580 C.3   1 <1>   0.3430 
 15 C        4.0340     6.9780     0.7820 C.3   1 <1>   0.3430 
 16 N        3.7460     8.4480     0.6160 N.4   1 <1>  -0.9590 
 17 C        4.9820     9.2420     0.3670 C.3   1 <1>   0.3430 
 18 C        4.6260    10.6460    -0.1170 C.3   1 <1>  -0.1600 
 19 C        5.8820    11.4340    -0.5110 C.3   1 <1>  -0.0170 
 20 C        5.4850    12.8300    -0.9540 C.ar  1 <1>  -0.1430 
 21 C        5.1630    13.0790    -2.2790 C.ar  1 <1>  -0.1500 
 22 C        5.4350    13.8680    -0.0350 C.ar  1 <1>  -0.1500 
 23 C        4.7910    14.3500    -2.6810 C.ar  1 <1>  -0.1500 
 24 C        5.0630    15.1390    -0.4370 C.ar  1 <1>  -0.1500 
 25 C        4.7400    15.3810    -1.7600 C.ar  1 <1>  -0.1500 
 26 H       -0.7380     5.0350    -3.4070 H     1 <1>   0.1500 
 27 H        0.3070     1.6910    -0.9980 H     1 <1>   0.1500 
 28 H       -0.5680     6.5140    -1.4360 H     1 <1>   0.1500 
 29 H        0.4790     3.1570     0.9770 H     1 <1>   0.1500 
 30 H        1.4770     7.8400     2.9330 H     1 <1>   0.0800 
 31 H        0.7610     8.7930     1.6760 H     1 <1>   0.0800 
 32 H        2.7200     5.2940     0.5100 H     1 <1>   0.0800 
 33 H        2.8720     5.8020     2.1620 H     1 <1>   0.0800 
 34 H        3.4560     8.8830     2.6790 H     1 <1>   0.0800 
 35 H        2.6480     9.9870     1.6080 H     1 <1>   0.0800 
 36 H        4.4430     6.5870    -0.1350 H     1 <1>   0.0800 
 37 H        4.7740     6.8320     1.5520 H     1 <1>   0.0800 
 38 H        3.1320     8.5080    -0.2120 H     1 <1>   0.4500 
 39 H        5.5740     8.7550    -0.3910 H     1 <1>   0.0800 
 40 H        5.5720     9.3030     1.2670 H     1 <1>   0.0800 
 41 H        4.1190    11.1930     0.6580 H     1 <1>   0.0800 
 42 H        3.9800    10.5860    -0.9760 H     1 <1>   0.0800 
 43 H        6.4000    10.9390    -1.3150 H     1 <1>   0.0800 
 44 H        6.5590    11.5050     0.3230 H     1 <1>   0.0800 
 45 H        5.2000    12.2900    -3.0090 H     1 <1>   0.1500 
 46 H        5.6860    13.6980     0.9970 H     1 <1>   0.1500 
 47 H        4.5430    14.5390    -3.7110 H     1 <1>   0.1500 
 48 H        5.0270    15.9420     0.2790 H     1 <1>   0.1500 
 49 H        4.4510    16.3690    -2.0730 H     1 <1>   0.1500 
@<TRIPOS>BOND
  1   1   2  1   
  2   2   3  ar  
  3   2   4  ar  
  4   3   5  ar  
  5   3  26  1   
  6   4   6  ar  
  7   4  27  1   
  8   5   7  ar  
  9   5  28  1   
 10   6   7  ar  
 11   6  29  1   
 12   7   8  1   
 13   8   9  2   
 14   8  10  2   
 15   8  11  am  
 16  11  12  1   
 17  11  13  1   
 18  12  14  1   
 19  12  30  1   
 20  12  31  1   
 21  13  15  1   
 22  13  32  1   
 23  13  33  1   
 24  14  16  1   
 25  14  34  1   
 26  14  35  1   
 27  15  16  1   
 28  15  36  1   
 29  15  37  1   
 30  16  17  1   
 31  16  38  1   
 32  17  18  1   
 33  17  39  1   
 34  17  40  1   
 35  18  19  1   
 36  18  41  1   
 37  18  42  1   
 38  19  20  1   
 39  19  43  1   
 40  19  44  1   
 41  20  21  ar  
 42  20  22  ar  
 43  21  23  ar  
 44  21  45  1   
 45  22  24  ar  
 46  22  46  1   
 47  23  25  ar  
 48  23  47  1   
 49  24  25  ar  
 50  24  48  1   
 51  25  49  1   
@<TRIPOS>SUBSTRUCTURE
  1 ****  16 GROUP 4 **** **** 0

# MOE 2024.06 (io_trps.svl 2023.06)
