@<TRIPOS>MOLECULE
NONAME
36 36 1 0 0 
SMALL
USER_CHARGES


@<TRIPOS>ATOM
  1 CL       0.6580     1.4650    -2.1880 Cl    1 <1>  -0.1770 
  2 C        0.4290     2.5240    -0.8110 C.ar  1 <1>   0.1770 
  3 C        1.4660     2.6770     0.1100 C.ar  1 <1>   0.1170 
  4 C       -0.7810     3.1780    -0.6790 C.ar  1 <1>  -0.1500 
  5 N        2.6710     1.9740    -0.0950 N.am  1 <1>  -0.5470 
  6 C        1.2360     3.5240     1.1920 C.ar  1 <1>  -0.1500 
  7 C       -0.9830     4.0180     0.4030 C.ar  1 <1>  -0.1500 
  8 C        3.8940     2.0410     0.5170 C.2   1 <1>   0.5690 
  9 C        0.0270     4.1870     1.3350 C.ar  1 <1>  -0.1500 
 10 O        4.1400     2.7850     1.4330 O.2   1 <1>  -0.5700 
 11 C        4.9870     1.1340    -0.0020 C.3   1 <1>  -0.0380 
 12 C        6.3000     1.8670    -0.2110 C.2   1 <1>   0.3280 
 13 N        7.3720     1.3660     0.2420 N.2   1 <1>  -0.5120 
 14 C        6.2010     3.1660    -1.0080 C.3   1 <1>  -0.1790 
 15 N        8.6130     1.9860     0.1120 N.am  1 <1>  -0.3680 
 16 C        9.8500     1.5220     0.4850 C.2   1 <1>   0.7800 
 17 O       10.0620     0.4270     0.9700 O.2   1 <1>  -0.5700 
 18 O       10.8580     2.3680     0.2730 O.3   1 <1>  -0.4300 
 19 C       12.1790     2.0110     0.6130 C.3   1 <1>   0.1200 
 20 C       13.0930     3.1770     0.2540 C.3   1 <1>  -0.2400 
 21 H       -1.5530     3.0330    -1.4130 H     1 <1>   0.1500 
 22 H        2.6090     1.3070    -0.8660 H     1 <1>   0.3700 
 23 H        1.9940     3.6750     1.9370 H     1 <1>   0.1500 
 24 H       -1.9200     4.5360     0.5200 H     1 <1>   0.1500 
 25 H       -0.1260     4.8380     2.1790 H     1 <1>   0.1500 
 26 H        5.1330     0.3430     0.7100 H     1 <1>   0.0800 
 27 H        4.6920     0.6920    -0.9340 H     1 <1>   0.0800 
 28 H        5.5240     3.0400    -1.8320 H     1 <1>   0.0800 
 29 H        7.1500     3.4650    -1.4080 H     1 <1>   0.0800 
 30 H        5.8340     3.9520    -0.3730 H     1 <1>   0.0800 
 31 H        8.6450     2.9310    -0.2690 H     1 <1>   0.3700 
 32 H       12.2140     1.8030     1.6700 H     1 <1>   0.0800 
 33 H       12.4460     1.1250     0.0620 H     1 <1>   0.0800 
 34 H       12.8080     4.0560     0.8040 H     1 <1>   0.0800 
 35 H       13.0410     3.3780    -0.8010 H     1 <1>   0.0800 
 36 H       14.1090     2.9320     0.5050 H     1 <1>   0.0800 
@<TRIPOS>BOND
  1   1   2  1   
  2   2   3  ar  
  3   2   4  ar  
  4   3   5  1   
  5   3   6  ar  
  6   4   7  ar  
  7   4  21  1   
  8   5   8  am  
  9   5  22  1   
 10   6   9  ar  
 11   6  23  1   
 12   7   9  ar  
 13   7  24  1   
 14   8  10  2   
 15   8  11  1   
 16   9  25  1   
 17  11  12  1   
 18  11  26  1   
 19  11  27  1   
 20  12  13  2   
 21  12  14  1   
 22  13  15  1   
 23  14  28  1   
 24  14  29  1   
 25  14  30  1   
 26  15  16  am  
 27  15  31  1   
 28  16  17  2   
 29  16  18  1   
 30  18  19  1   
 31  19  20  1   
 32  19  32  1   
 33  19  33  1   
 34  20  34  1   
 35  20  35  1   
 36  20  36  1   
@<TRIPOS>SUBSTRUCTURE
  1 ****  11 GROUP 4 **** **** 0

# MOE 2024.06 (io_trps.svl 2023.06)
