@<TRIPOS>MOLECULE
NONAME
40 40 1 0 0 
SMALL
USER_CHARGES


@<TRIPOS>ATOM
  1 O        0.1630    -0.0780    -1.3880 O.2   1 <1>  -0.5700 
  2 C        0.7040     0.8290    -0.8140 C.2   1 <1>   0.6590 
  3 O        0.0650     1.8160    -0.1880 O.3   1 <1>  -0.2320 
  4 C        2.2140     0.9030    -0.7570 C.3   1 <1>  -0.0990 
  5 C       -1.2710     1.9910    -0.0020 C.ar  1 <1>   0.0830 
  6 C        2.7560     0.3430     0.5680 C.3   1 <1>  -0.0990 
  7 C       -1.7130     3.2910     0.1860 C.ar  1 <1>  -0.1500 
  8 C       -2.1890     0.9470     0.0260 C.ar  1 <1>  -0.1500 
  9 C        4.2670     0.3840     0.5910 C.2   1 <1>   0.5690 
 10 C       -3.0570     3.5520     0.3890 C.ar  1 <1>  -0.1500 
 11 C       -3.5330     1.2120     0.2290 C.ar  1 <1>  -0.1500 
 12 O        4.8010     1.4220     0.8930 O.2   1 <1>  -0.5700 
 13 N        4.9400    -0.7450     0.2500 N.am  1 <1>  -0.7300 
 14 C       -3.9740     2.5130     0.4110 C.ar  1 <1>  -0.1430 
 15 C        6.3890    -0.9600     0.1750 C.3   1 <1>   0.3000 
 16 C       -5.4490     2.7960     0.6300 C.3   1 <1>  -0.0970 
 17 C        6.9960    -0.0260    -0.8720 C.3   1 <1>  -0.2400 
 18 C        7.0170    -0.7410     1.5510 C.3   1 <1>  -0.2400 
 19 C        6.5900    -2.4120    -0.2550 C.3   1 <1>  -0.2400 
 20 H        2.5220     1.9270    -0.8740 H     1 <1>   0.0800 
 21 H        2.6160     0.3390    -1.5790 H     1 <1>   0.0800 
 22 H        2.4200    -0.6680     0.7050 H     1 <1>   0.0800 
 23 H        2.3870     0.9310     1.3890 H     1 <1>   0.0800 
 24 H       -1.0050     4.1000     0.1710 H     1 <1>   0.1500 
 25 H       -1.8750    -0.0720    -0.1030 H     1 <1>   0.1500 
 26 H       -3.3870     4.5660     0.5290 H     1 <1>   0.1500 
 27 H       -4.2350     0.3970     0.2430 H     1 <1>   0.1500 
 28 H        4.4050    -1.5740     0.0020 H     1 <1>   0.3700 
 29 H       -5.5780     3.6840     1.2230 H     1 <1>   0.0800 
 30 H       -5.9170     1.9750     1.1430 H     1 <1>   0.0800 
 31 H       -5.9360     2.9370    -0.3180 H     1 <1>   0.0800 
 32 H        8.0450    -0.2310    -0.9870 H     1 <1>   0.0800 
 33 H        6.8920     1.0000    -0.5700 H     1 <1>   0.0800 
 34 H        6.5150    -0.1610    -1.8240 H     1 <1>   0.0800 
 35 H        6.9130     0.2840     1.8560 H     1 <1>   0.0800 
 36 H        8.0660    -0.9720     1.5200 H     1 <1>   0.0800 
 37 H        6.5490    -1.3720     2.2850 H     1 <1>   0.0800 
 38 H        6.1450    -2.5880    -1.2180 H     1 <1>   0.0800 
 39 H        6.1590    -3.0840     0.4650 H     1 <1>   0.0800 
 40 H        7.6400    -2.6310    -0.3290 H     1 <1>   0.0800 
@<TRIPOS>BOND
  1   1   2  2   
  2   2   3  1   
  3   2   4  1   
  4   3   5  1   
  5   4   6  1   
  6   4  20  1   
  7   4  21  1   
  8   5   7  ar  
  9   5   8  ar  
 10   6   9  1   
 11   6  22  1   
 12   6  23  1   
 13   7  10  ar  
 14   7  24  1   
 15   8  11  ar  
 16   8  25  1   
 17   9  12  2   
 18   9  13  am  
 19  10  14  ar  
 20  10  26  1   
 21  11  14  ar  
 22  11  27  1   
 23  13  15  1   
 24  13  28  1   
 25  14  16  1   
 26  15  17  1   
 27  15  18  1   
 28  15  19  1   
 29  16  29  1   
 30  16  30  1   
 31  16  31  1   
 32  17  32  1   
 33  17  33  1   
 34  17  34  1   
 35  18  35  1   
 36  18  36  1   
 37  18  37  1   
 38  19  38  1   
 39  19  39  1   
 40  19  40  1   
@<TRIPOS>SUBSTRUCTURE
  1 ****   2 GROUP 4 **** **** 0

# MOE 2024.06 (io_trps.svl 2023.06)
