@<TRIPOS>MOLECULE
NONAME
52 52 1 0 0 
SMALL
USER_CHARGES


@<TRIPOS>ATOM
  1 S       -0.0020     0.5720    -1.4400 S.o2  1 <1>   1.4470 
  2 O       -1.3640     0.1020    -1.5820 O.2   1 <1>  -0.6500 
  3 O        0.9150     0.3950    -2.5450 O.2   1 <1>  -0.6500 
  4 N        0.6340    -0.2700    -0.0970 N.am  1 <1>  -0.8490 
  5 C       -0.0480     2.3500    -1.0730 C.ar  1 <1>  -0.0090 
  6 C       -0.0640     0.1040     1.1420 C.3   1 <1>   0.1960 
  7 C        0.5350    -1.7340    -0.2650 C.3   1 <1>   0.1960 
  8 C        0.9900     3.0110    -0.4260 C.ar  1 <1>   0.0820 
  9 C       -1.1340     3.1160    -1.4790 C.ar  1 <1>  -0.1500 
 10 C        0.8610    -0.0770     2.3440 C.3   1 <1>  -0.2400 
 11 C        1.4640    -2.2810    -1.3470 C.3   1 <1>  -0.2400 
 12 O        2.0570     2.3350     0.0300 O.3   1 <1>  -0.3620 
 13 C        0.9370     4.3740    -0.1880 C.ar  1 <1>  -0.1500 
 14 C       -1.2020     4.4830    -1.2510 C.ar  1 <1>  -0.1440 
 15 C        3.1900     2.2410    -0.8210 C.3   1 <1>   0.1810 
 16 C       -0.1530     5.1200    -0.5980 C.ar  1 <1>  -0.1440 
 17 C       -2.4270     5.2520    -1.7260 C.3   1 <1>  -0.0970 
 18 C        4.1680     1.2150    -0.2670 C.2   1 <1>   0.5690 
 19 C       -0.1760     6.6170    -0.3210 C.3   1 <1>  -0.0970 
 20 O        5.3470     1.4800    -0.2710 O.2   1 <1>  -0.5700 
 21 N        3.6660     0.0430     0.2130 N.am  1 <1>  -0.7300 
 22 C        4.3700    -1.0760     0.8580 C.3   1 <1>   0.2200 
 23 C        5.0030    -0.6050     2.1630 C.3   1 <1>  -0.2400 
 24 C        5.3990    -1.6760    -0.0970 C.3   1 <1>  -0.2400 
 25 H       -0.9660    -0.4760     1.2600 H     1 <1>   0.0800 
 26 H       -0.3520     1.1400     1.1200 H     1 <1>   0.0800 
 27 H       -0.4820    -2.0170    -0.4880 H     1 <1>   0.0800 
 28 H        0.8080    -2.2180     0.6560 H     1 <1>   0.0800 
 29 H       -1.9460     2.6250    -1.9890 H     1 <1>   0.1500 
 30 H        1.1620    -1.1000     2.4710 H     1 <1>   0.0800 
 31 H        0.3480     0.2320     3.2360 H     1 <1>   0.0800 
 32 H        1.7330     0.5420     2.2330 H     1 <1>   0.0800 
 33 H        1.0630    -2.0940    -2.3260 H     1 <1>   0.0800 
 34 H        1.5540    -3.3450    -1.2360 H     1 <1>   0.0800 
 35 H        2.4420    -1.8460    -1.2760 H     1 <1>   0.0800 
 36 H        1.7570     4.8420     0.3270 H     1 <1>   0.1500 
 37 H        3.6580     3.2070    -0.8710 H     1 <1>   0.0800 
 38 H        2.8700     1.9400    -1.8010 H     1 <1>   0.0800 
 39 H       -3.1340     4.5980    -2.2040 H     1 <1>   0.0800 
 40 H       -2.1370     6.0080    -2.4330 H     1 <1>   0.0800 
 41 H       -2.9150     5.7220    -0.8910 H     1 <1>   0.0800 
 42 H        0.7180     6.9290     0.1870 H     1 <1>   0.0800 
 43 H       -1.0190     6.8640     0.2980 H     1 <1>   0.0800 
 44 H       -0.2460     7.1620    -1.2450 H     1 <1>   0.0800 
 45 H        2.6390    -0.0660     0.1740 H     1 <1>   0.3700 
 46 H        3.6390    -1.8340     1.0880 H     1 <1>   0.0800 
 47 H        5.7630     0.1320     1.9700 H     1 <1>   0.0800 
 48 H        5.4590    -1.4350     2.6700 H     1 <1>   0.0800 
 49 H        4.2550    -0.1790     2.8060 H     1 <1>   0.0800 
 50 H        6.1810    -0.9690    -0.3070 H     1 <1>   0.0800 
 51 H        4.9280    -1.9640    -1.0190 H     1 <1>   0.0800 
 52 H        5.8440    -2.5480     0.3460 H     1 <1>   0.0800 
@<TRIPOS>BOND
  1   1   2  2   
  2   1   3  2   
  3   1   4  am  
  4   1   5  1   
  5   4   6  1   
  6   4   7  1   
  7   5   8  ar  
  8   5   9  ar  
  9   6  10  1   
 10   6  25  1   
 11   6  26  1   
 12   7  11  1   
 13   7  27  1   
 14   7  28  1   
 15   8  12  1   
 16   8  13  ar  
 17   9  14  ar  
 18   9  29  1   
 19  10  30  1   
 20  10  31  1   
 21  10  32  1   
 22  11  33  1   
 23  11  34  1   
 24  11  35  1   
 25  12  15  1   
 26  13  16  ar  
 27  13  36  1   
 28  14  16  ar  
 29  14  17  1   
 30  15  18  1   
 31  15  37  1   
 32  15  38  1   
 33  16  19  1   
 34  17  39  1   
 35  17  40  1   
 36  17  41  1   
 37  18  20  2   
 38  18  21  am  
 39  19  42  1   
 40  19  43  1   
 41  19  44  1   
 42  21  22  1   
 43  21  45  1   
 44  22  23  1   
 45  22  24  1   
 46  22  46  1   
 47  23  47  1   
 48  23  48  1   
 49  23  49  1   
 50  24  50  1   
 51  24  51  1   
 52  24  52  1   
@<TRIPOS>SUBSTRUCTURE
  1 ****  12 GROUP 4 **** **** 0

# MOE 2024.06 (io_trps.svl 2023.06)
