@<TRIPOS>MOLECULE
NONAME
42 43 1 0 0 
SMALL
USER_CHARGES


@<TRIPOS>ATOM
  1 O        0.1400     1.5890     1.9310 O.2   1 <1>  -0.5700 
  2 C       -0.1310     2.1280     0.9030 C.2   1 <1>   0.4480 
  3 C        0.8330     3.0850     0.2230 C.3   1 <1>   0.0420 
  4 C       -1.4740     1.9250     0.2280 C.3   1 <1>  -0.0990 
  5 C        0.0070     4.1430    -0.5070 C.2   1 <1>   0.4480 
  6 C        1.8080     2.3040    -0.6850 C.3   1 <1>  -0.0220 
  7 C       -2.2750     3.2500     0.1510 C.3   1 <1>   0.0000 
  8 O        0.3550     4.6690    -1.5220 O.2   1 <1>  -0.5700 
  9 C       -1.3330     4.4800     0.1210 C.3   1 <1>  -0.0990 
 10 C        3.1170     3.0490    -0.9240 C.2   1 <1>  -0.0290 
 11 C       -3.2030     3.3650     1.3720 C.3   1 <1>  -0.2400 
 12 C       -3.1460     3.2320    -1.1150 C.3   1 <1>  -0.2400 
 13 N        3.1130     4.2760    -1.5440 N.am  1 <1>  -0.5390 
 14 C        4.4040     2.7170    -0.6240 C.2   1 <1>   0.1230 
 15 C        4.3820     4.7220    -1.6270 C.2   1 <1>   0.6900 
 16 N        5.1870     3.7960    -1.0760 N.am  1 <1>  -0.5390 
 17 C        4.9700     1.5490     0.0110 C.2   1 <1>   0.7060 
 18 O        4.7440     5.7810    -2.1080 O.2   1 <1>  -0.5700 
 19 O        4.3190     0.5840     0.3600 O.2   1 <1>  -0.5700 
 20 O        6.2930     1.5430     0.2150 O.3   1 <1>  -0.4300 
 21 C        6.9360     0.4490     0.8310 C.3   1 <1>   0.1200 
 22 C        8.4270     0.7620     0.9130 C.3   1 <1>  -0.2400 
 23 H        1.3980     3.5710     0.9970 H     1 <1>   0.0800 
 24 H       -2.0320     1.1710     0.7550 H     1 <1>   0.0800 
 25 H       -1.2840     1.5440    -0.7590 H     1 <1>   0.0800 
 26 H        1.3410     2.0900    -1.6310 H     1 <1>   0.0800 
 27 H        2.0280     1.3590    -0.2210 H     1 <1>   0.0800 
 28 H       -1.7870     5.2960    -0.4130 H     1 <1>   0.0800 
 29 H       -1.1390     4.8270     1.1210 H     1 <1>   0.0800 
 30 H       -2.6360     3.3280     2.2870 H     1 <1>   0.0800 
 31 H       -3.9140     2.5580     1.3880 H     1 <1>   0.0800 
 32 H       -3.7500     4.2920     1.3480 H     1 <1>   0.0800 
 33 H       -2.5340     3.2040    -2.0000 H     1 <1>   0.0800 
 34 H       -3.7630     4.1130    -1.1650 H     1 <1>   0.0800 
 35 H       -3.7910     2.3710    -1.1210 H     1 <1>   0.0800 
 36 H        2.2980     4.8060    -1.8820 H     1 <1>   0.3700 
 37 H        6.1990     3.8960    -1.0170 H     1 <1>   0.3700 
 38 H        6.7590    -0.4320     0.2360 H     1 <1>   0.0800 
 39 H        6.5150     0.3130     1.8130 H     1 <1>   0.0800 
 40 H        8.8310     0.9050    -0.0730 H     1 <1>   0.0800 
 41 H        8.9430    -0.0570     1.3790 H     1 <1>   0.0800 
 42 H        8.5880     1.6480     1.5010 H     1 <1>   0.0800 
@<TRIPOS>BOND
  1   1   2  2   
  2   2   3  1   
  3   2   4  1   
  4   3   5  1   
  5   3   6  1   
  6   3  23  1   
  7   4   7  1   
  8   4  24  1   
  9   4  25  1   
 10   5   8  2   
 11   5   9  1   
 12   6  10  1   
 13   6  26  1   
 14   6  27  1   
 15   7   9  1   
 16   7  11  1   
 17   7  12  1   
 18   9  28  1   
 19   9  29  1   
 20  10  13  1   
 21  10  14  2   
 22  11  30  1   
 23  11  31  1   
 24  11  32  1   
 25  12  33  1   
 26  12  34  1   
 27  12  35  1   
 28  13  15  am  
 29  13  36  1   
 30  14  16  1   
 31  14  17  1   
 32  15  16  am  
 33  15  18  2   
 34  16  37  1   
 35  17  19  2   
 36  17  20  1   
 37  20  21  1   
 38  21  22  1   
 39  21  38  1   
 40  21  39  1   
 41  22  40  1   
 42  22  41  1   
 43  22  42  1   
@<TRIPOS>SUBSTRUCTURE
  1 ****   6 GROUP 4 **** **** 0

# MOE 2024.06 (io_trps.svl 2023.06)
