@<TRIPOS>MOLECULE
NONAME
47 47 1 0 0 
SMALL
USER_CHARGES


@<TRIPOS>ATOM
  1 S        0.7400    -0.0370    -0.7030 S.o2  1 <1>   1.3330 
  2 O        1.9170    -0.7620    -0.2790 O.2   1 <1>  -0.6500 
  3 O       -0.4510    -0.7470    -1.0950 O.2   1 <1>  -0.6500 
  4 N        0.3110     1.0290     0.5870 N.am  1 <1>  -0.6930 
  5 C        1.2130     1.0910    -1.9940 C.3   1 <1>  -0.1350 
  6 C       -0.7890     1.8820     0.4880 C.ar  1 <1>   0.1990 
  7 C        1.0870     0.9830     1.8630 C.3   1 <1>   0.2570 
  8 C       -0.6480     3.2270     0.1270 C.ar  1 <1>   0.0830 
  9 C       -2.0600     1.3970     0.7570 C.ar  1 <1>  -0.1500 
 10 C        2.4580     1.6710     1.8210 C.2   1 <1>   0.5690 
 11 O        0.5870     3.7220    -0.1590 O.3   1 <1>  -0.3630 
 12 C       -1.7590     4.0530     0.0410 C.ar  1 <1>  -0.1500 
 13 C       -3.1720     2.2180     0.6820 C.ar  1 <1>   0.0830 
 14 O        2.6280     2.6780     2.4700 O.2   1 <1>  -0.5700 
 15 N        3.4620     1.1150     1.0920 N.am  1 <1>  -0.7300 
 16 C        1.0460     4.7670     0.6720 C.3   1 <1>   0.0400 
 17 C       -3.0200     3.5540     0.3210 C.ar  1 <1>  -0.1500 
 18 O       -4.3710     1.6470     0.9730 O.3   1 <1>  -0.3620 
 19 C        4.8580     1.6010     1.0090 C.3   1 <1>   0.1400 
 20 C       -5.5740     2.3690     0.8370 C.3   1 <1>   0.0400 
 21 C        5.1790     2.0830    -0.4150 C.3   1 <1>  -0.0800 
 22 C        6.6860     2.3320    -0.5620 C.3   1 <1>  -0.2400 
 23 C        4.4150     3.3700    -0.7610 C.3   1 <1>  -0.2400 
 24 H        1.5190     0.5470    -2.8650 H     1 <1>   0.0800 
 25 H        2.0250     1.7070    -1.6670 H     1 <1>   0.0800 
 26 H        0.3870     1.7230    -2.2540 H     1 <1>   0.0800 
 27 H        1.2300    -0.0430     2.1490 H     1 <1>   0.0800 
 28 H        0.5070     1.4530     2.6370 H     1 <1>   0.0800 
 29 H       -2.1860     0.3640     1.0220 H     1 <1>   0.1500 
 30 H       -1.6420     5.0800    -0.2500 H     1 <1>   0.1500 
 31 H        3.2520     0.2580     0.5560 H     1 <1>   0.3700 
 32 H        0.8870     4.4940     1.7010 H     1 <1>   0.0800 
 33 H        0.5140     5.6700     0.4340 H     1 <1>   0.0800 
 34 H        2.0970     4.9030     0.4950 H     1 <1>   0.0800 
 35 H       -3.8630     4.2140     0.2520 H     1 <1>   0.1500 
 36 H        5.5160     0.7930     1.2780 H     1 <1>   0.0800 
 37 H        5.0110     2.4040     1.7110 H     1 <1>   0.0800 
 38 H       -6.3870     1.7110     1.0840 H     1 <1>   0.0800 
 39 H       -5.6700     2.7000    -0.1820 H     1 <1>   0.0800 
 40 H       -5.5610     3.2030     1.5160 H     1 <1>   0.0800 
 41 H        4.9010     1.3080    -1.1090 H     1 <1>   0.0800 
 42 H        7.0120     3.0970     0.1220 H     1 <1>   0.0800 
 43 H        6.9160     2.6470    -1.5640 H     1 <1>   0.0800 
 44 H        7.2360     1.4300    -0.3580 H     1 <1>   0.0800 
 45 H        4.6920     4.1640    -0.0900 H     1 <1>   0.0800 
 46 H        3.3560     3.2140    -0.6750 H     1 <1>   0.0800 
 47 H        4.6320     3.6770    -1.7690 H     1 <1>   0.0800 
@<TRIPOS>BOND
  1   1   2  2   
  2   1   3  2   
  3   1   4  am  
  4   1   5  1   
  5   4   6  1   
  6   4   7  1   
  7   5  24  1   
  8   5  25  1   
  9   5  26  1   
 10   6   8  ar  
 11   6   9  ar  
 12   7  10  1   
 13   7  27  1   
 14   7  28  1   
 15   8  11  1   
 16   8  12  ar  
 17   9  13  ar  
 18   9  29  1   
 19  10  14  2   
 20  10  15  am  
 21  11  16  1   
 22  12  17  ar  
 23  12  30  1   
 24  13  17  ar  
 25  13  18  1   
 26  15  19  1   
 27  15  31  1   
 28  16  32  1   
 29  16  33  1   
 30  16  34  1   
 31  17  35  1   
 32  18  20  1   
 33  19  21  1   
 34  19  36  1   
 35  19  37  1   
 36  20  38  1   
 37  20  39  1   
 38  20  40  1   
 39  21  22  1   
 40  21  23  1   
 41  21  41  1   
 42  22  42  1   
 43  22  43  1   
 44  22  44  1   
 45  23  45  1   
 46  23  46  1   
 47  23  47  1   
@<TRIPOS>SUBSTRUCTURE
  1 ****   4 GROUP 4 **** **** 0

# MOE 2024.06 (io_trps.svl 2023.06)
