@<TRIPOS>MOLECULE
NONAME
46 46 1 0 0 
SMALL
USER_CHARGES


@<TRIPOS>ATOM
  1 O       -1.5270    -1.2220    -0.7680 O.3   1 <1>  -0.5600 
  2 C       -0.6100    -0.2470    -0.3270 C.3   1 <1>   0.4800 
  3 C       -2.6160    -1.6690    -0.0050 C.3   1 <1>   0.1200 
  4 C        0.5260    -0.9720     0.3310 C.1   1 <1>  -0.2000 
  5 C       -1.2100     0.8010     0.6480 C.3   1 <1>  -0.1600 
  6 C       -0.1090     0.4250    -1.6300 C.3   1 <1>  -0.1600 
  7 C       -2.1680    -2.5780     1.1410 C.3   1 <1>   0.0400 
  8 C        1.4630    -1.5420     0.7920 C.1   1 <1>  -0.2000 
  9 C       -2.0300     1.8670    -0.0930 C.3   1 <1>  -0.1600 
 10 C        0.1350     1.9380    -1.4950 C.3   1 <1>  -0.1600 
 11 C       -3.3560    -3.1220     1.8470 C.1   1 <1>   0.3570 
 12 C        2.6820    -2.2500     1.2650 C.3   1 <1>   0.5430 
 13 C       -1.1480     2.6750    -1.0640 C.3   1 <1>  -0.1600 
 14 N       -4.2690    -3.5270     2.3880 N.1   1 <1>  -0.5570 
 15 N        3.6670    -2.2310     0.1500 N.4   1 <1>  -0.9590 
 16 C        3.2190    -3.1060    -0.9710 C.3   1 <1>   0.3430 
 17 C        5.0460    -2.5580     0.6030 C.3   1 <1>   0.3430 
 18 C        3.9040    -2.6720    -2.2610 C.3   1 <1>  -0.2400 
 19 C        5.6220    -1.3850     1.3880 C.3   1 <1>  -0.2400 
 20 H       -3.2410    -2.2360    -0.6750 H     1 <1>   0.0800 
 21 H       -3.1970    -0.8320     0.3390 H     1 <1>   0.0800 
 22 H       -0.4000     1.3100     1.1410 H     1 <1>   0.0800 
 23 H       -1.7820     0.3480     1.4340 H     1 <1>   0.0800 
 24 H       -0.8530     0.2940    -2.3980 H     1 <1>   0.0800 
 25 H        0.7900    -0.0510    -1.9770 H     1 <1>   0.0800 
 26 H       -1.5790    -2.0320     1.8530 H     1 <1>   0.0800 
 27 H       -1.5950    -3.3980     0.7500 H     1 <1>   0.0800 
 28 H       -2.4950     2.5360     0.6120 H     1 <1>   0.0800 
 29 H       -2.8160     1.3820    -0.6490 H     1 <1>   0.0800 
 30 H        0.4810     2.3410    -2.4320 H     1 <1>   0.0800 
 31 H        0.9080     2.1070    -0.7650 H     1 <1>   0.0800 
 32 H        2.4440    -3.2640     1.5440 H     1 <1>   0.0800 
 33 H        3.0740    -1.7350     2.1260 H     1 <1>   0.0800 
 34 H       -0.8670     3.6070    -0.6040 H     1 <1>   0.0800 
 35 H       -1.7320     2.9140    -1.9370 H     1 <1>   0.0800 
 36 H        3.6600    -1.2670    -0.2050 H     1 <1>   0.4500 
 37 H        2.1520    -3.0170    -1.1050 H     1 <1>   0.0800 
 38 H        3.4460    -4.1390    -0.7560 H     1 <1>   0.0800 
 39 H        5.6780    -2.7400    -0.2520 H     1 <1>   0.0800 
 40 H        5.0420    -3.4500     1.2100 H     1 <1>   0.0800 
 41 H        3.6830    -1.6420    -2.4820 H     1 <1>   0.0800 
 42 H        3.5300    -3.2690    -3.0740 H     1 <1>   0.0800 
 43 H        4.9680    -2.8130    -2.2160 H     1 <1>   0.0800 
 44 H        5.6150    -0.4870     0.7950 H     1 <1>   0.0800 
 45 H        6.6460    -1.6030     1.6400 H     1 <1>   0.0800 
 46 H        5.0920    -1.2190     2.3080 H     1 <1>   0.0800 
@<TRIPOS>BOND
  1   1   2  1   
  2   1   3  1   
  3   2   4  1   
  4   2   5  1   
  5   2   6  1   
  6   3   7  1   
  7   3  20  1   
  8   3  21  1   
  9   4   8  3   
 10   5   9  1   
 11   5  22  1   
 12   5  23  1   
 13   6  10  1   
 14   6  24  1   
 15   6  25  1   
 16   7  11  1   
 17   7  26  1   
 18   7  27  1   
 19   8  12  1   
 20   9  13  1   
 21   9  28  1   
 22   9  29  1   
 23  10  13  1   
 24  10  30  1   
 25  10  31  1   
 26  11  14  3   
 27  12  15  1   
 28  12  32  1   
 29  12  33  1   
 30  13  34  1   
 31  13  35  1   
 32  15  16  1   
 33  15  17  1   
 34  15  36  1   
 35  16  18  1   
 36  16  37  1   
 37  16  38  1   
 38  17  19  1   
 39  17  39  1   
 40  17  40  1   
 41  18  41  1   
 42  18  42  1   
 43  18  43  1   
 44  19  44  1   
 45  19  45  1   
 46  19  46  1   
@<TRIPOS>SUBSTRUCTURE
  1 ****   4 GROUP 4 **** **** 0

# MOE 2024.06 (io_trps.svl 2023.06)
