@<TRIPOS>MOLECULE
NONAME
40 42 1 0 0 
SMALL
USER_CHARGES


@<TRIPOS>ATOM
  1 CL       0.0290    -0.2860     0.8710 Cl    1 <1>  -0.1770 
  2 C        1.5680    -1.0360     0.5210 C.ar  1 <1>   0.1770 
  3 C        2.2600    -1.6710     1.5350 C.ar  1 <1>  -0.1500 
  4 C        2.0710    -0.9830    -0.7660 C.ar  1 <1>  -0.1500 
  5 C        3.4780    -2.2640     1.2540 C.ar  1 <1>  -0.1500 
  6 C        3.2900    -1.5790    -1.0380 C.ar  1 <1>  -0.1500 
  7 C        4.0050    -2.2240    -0.0350 C.ar  1 <1>   0.1000 
  8 N        5.2260    -2.8140    -0.3380 N.pl3 1 <1>  -0.8380 
  9 C        5.2670    -4.3040    -0.3190 C.3   1 <1>   0.2090 
 10 C        6.4400    -2.1540     0.2240 C.3   1 <1>   0.2090 
 11 C        6.5490    -4.8220    -1.0060 C.3   1 <1>   0.3430 
 12 C        7.7160    -2.6860    -0.4640 C.3   1 <1>   0.3430 
 13 N        7.8040    -4.1970    -0.4460 N.4   1 <1>  -0.9590 
 14 C        9.0210    -4.6830    -1.1520 C.3   1 <1>   0.4860 
 15 C       10.2470    -4.1760    -0.4150 C.ar  1 <1>  -0.1430 
 16 C       10.6290    -4.7580     0.7910 C.ar  1 <1>  -0.1500 
 17 C       10.9920    -3.1270    -0.9460 C.ar  1 <1>  -0.1500 
 18 C       11.7400    -4.2870     1.4710 C.ar  1 <1>  -0.1500 
 19 C       12.1050    -2.6510    -0.2720 C.ar  1 <1>  -0.1500 
 20 C       12.4570    -3.2400     0.9260 C.ar  1 <1>   0.1900 
 21 F       13.5020    -2.7920     1.5660 F     1 <1>  -0.1900 
 22 H        1.8440    -1.6970     2.5270 H     1 <1>   0.1500 
 23 H        1.5140    -0.4830    -1.5370 H     1 <1>   0.1500 
 24 H        4.0210    -2.7590     2.0370 H     1 <1>   0.1500 
 25 H        3.6970    -1.5480    -2.0320 H     1 <1>   0.1500 
 26 H        4.4030    -4.6870    -0.8370 H     1 <1>   0.0800 
 27 H        5.2250    -4.6560     0.6970 H     1 <1>   0.0800 
 28 H        6.4930    -2.3310     1.2840 H     1 <1>   0.0800 
 29 H        6.3680    -1.0900     0.0700 H     1 <1>   0.0800 
 30 H        6.4730    -4.5950    -2.0570 H     1 <1>   0.0800 
 31 H        6.5920    -5.8940    -0.9020 H     1 <1>   0.0800 
 32 H        8.5770    -2.2610     0.0250 H     1 <1>   0.0800 
 33 H        7.7110    -2.3380    -1.4830 H     1 <1>   0.0800 
 34 H        7.8970    -4.4750     0.5380 H     1 <1>   0.4500 
 35 H        9.0290    -4.3280    -2.1700 H     1 <1>   0.0800 
 36 H        9.0370    -5.7610    -1.1660 H     1 <1>   0.0800 
 37 H       10.0770    -5.5810     1.2120 H     1 <1>   0.1500 
 38 H       10.7230    -2.6720    -1.8850 H     1 <1>   0.1500 
 39 H       12.0550    -4.7220     2.4040 H     1 <1>   0.1500 
 40 H       12.6970    -1.8420    -0.6630 H     1 <1>   0.1500 
@<TRIPOS>BOND
  1   1   2  1   
  2   2   3  ar  
  3   2   4  ar  
  4   3   5  ar  
  5   3  22  1   
  6   4   6  ar  
  7   4  23  1   
  8   5   7  ar  
  9   5  24  1   
 10   6   7  ar  
 11   6  25  1   
 12   7   8  1   
 13   8   9  1   
 14   8  10  1   
 15   9  11  1   
 16   9  26  1   
 17   9  27  1   
 18  10  12  1   
 19  10  28  1   
 20  10  29  1   
 21  11  13  1   
 22  11  30  1   
 23  11  31  1   
 24  12  13  1   
 25  12  32  1   
 26  12  33  1   
 27  13  14  1   
 28  13  34  1   
 29  14  15  1   
 30  14  35  1   
 31  14  36  1   
 32  15  16  ar  
 33  15  17  ar  
 34  16  18  ar  
 35  16  37  1   
 36  17  19  ar  
 37  17  38  1   
 38  18  20  ar  
 39  18  39  1   
 40  19  20  ar  
 41  19  40  1   
 42  20  21  1   
@<TRIPOS>SUBSTRUCTURE
  1 ****  10 GROUP 4 **** **** 0

# MOE 2024.06 (io_trps.svl 2023.06)
