@<TRIPOS>MOLECULE
NONAME
37 39 1 0 0 
SMALL
USER_CHARGES


@<TRIPOS>ATOM
  1 O       -0.4720     0.2860     0.0890 O.3   1 <1>  -0.5600 
  2 C       -1.7110    -0.3600     0.1910 C.3   1 <1>   0.1200 
  3 C       -0.4850     1.5890     0.6050 C.3   1 <1>   0.1200 
  4 C       -2.8010     0.3950    -0.5910 C.3   1 <1>   0.2090 
  5 C       -1.4910     2.4780    -0.1450 C.3   1 <1>   0.2090 
  6 N       -2.8440     1.8370    -0.1970 N.pl3 1 <1>  -0.8380 
  7 C       -4.0170     2.5600    -0.1220 C.ar  1 <1>   0.7200 
  8 N       -3.9030     3.8710     0.0470 N.ar  1 <1>  -0.6200 
  9 N       -5.1580     1.8820    -0.2300 N.ar  1 <1>  -0.6200 
 10 C       -5.0280     4.5450     0.1110 C.ar  1 <1>   0.3930 
 11 C       -6.2670     2.5740    -0.1570 C.ar  1 <1>   0.1670 
 12 O       -5.0100     5.8860     0.2890 O.3   1 <1>  -0.1650 
 13 C       -6.2540     3.9330     0.0170 C.ar  1 <1>  -0.1500 
 14 C       -7.5660     1.8050    -0.2750 C.3   1 <1>  -0.0970 
 15 C       -3.9220     6.6810     0.1160 C.ar  1 <1>   0.0820 
 16 C       -3.0680     6.5430    -0.9720 C.ar  1 <1>  -0.1500 
 17 C       -3.6890     7.6790     1.0500 C.ar  1 <1>  -0.1500 
 18 C       -1.9840     7.3920    -1.1150 C.ar  1 <1>  -0.1500 
 19 C       -2.6050     8.5280     0.9060 C.ar  1 <1>  -0.1500 
 20 C       -1.7520     8.3830    -0.1760 C.ar  1 <1>  -0.1500 
 21 H       -1.9800    -0.4280     1.2300 H     1 <1>   0.0800 
 22 H       -1.5970    -1.3540    -0.2020 H     1 <1>   0.0800 
 23 H        0.5070     1.9910     0.5070 H     1 <1>   0.0800 
 24 H       -0.7370     1.5430     1.6500 H     1 <1>   0.0800 
 25 H       -3.7450    -0.0860    -0.4080 H     1 <1>   0.0800 
 26 H       -2.5930     0.3250    -1.6440 H     1 <1>   0.0800 
 27 H       -1.1410     2.6430    -1.1490 H     1 <1>   0.0800 
 28 H       -1.5330     3.4320     0.3510 H     1 <1>   0.0800 
 29 H       -7.1550     4.5110     0.0800 H     1 <1>   0.1500 
 30 H       -7.5980     1.2970    -1.2210 H     1 <1>   0.0800 
 31 H       -8.4130     2.4620    -0.2020 H     1 <1>   0.0800 
 32 H       -7.6220     1.0750     0.5120 H     1 <1>   0.0800 
 33 H       -3.2490     5.7760    -1.7040 H     1 <1>   0.1500 
 34 H       -4.3550     7.7870     1.8860 H     1 <1>   0.1500 
 35 H       -1.3220     7.2810    -1.9560 H     1 <1>   0.1500 
 36 H       -2.4250     9.3000     1.6330 H     1 <1>   0.1500 
 37 H       -0.9090     9.0420    -0.2880 H     1 <1>   0.1500 
@<TRIPOS>BOND
  1   1   2  1   
  2   1   3  1   
  3   2   4  1   
  4   2  21  1   
  5   2  22  1   
  6   3   5  1   
  7   3  23  1   
  8   3  24  1   
  9   4   6  1   
 10   4  25  1   
 11   4  26  1   
 12   5   6  1   
 13   5  27  1   
 14   5  28  1   
 15   6   7  1   
 16   7   8  ar  
 17   7   9  ar  
 18   8  10  ar  
 19   9  11  ar  
 20  10  12  1   
 21  10  13  ar  
 22  11  13  ar  
 23  11  14  1   
 24  12  15  1   
 25  13  29  1   
 26  14  30  1   
 27  14  31  1   
 28  14  32  1   
 29  15  16  ar  
 30  15  17  ar  
 31  16  18  ar  
 32  16  33  1   
 33  17  19  ar  
 34  17  34  1   
 35  18  20  ar  
 36  18  35  1   
 37  19  20  ar  
 38  19  36  1   
 39  20  37  1   
@<TRIPOS>SUBSTRUCTURE
  1 ****   8 GROUP 4 **** **** 0

# MOE 2024.06 (io_trps.svl 2023.06)
