@<TRIPOS>MOLECULE
NONAME
40 41 1 0 0 
SMALL
USER_CHARGES


@<TRIPOS>ATOM
  1 O       -0.9710    -3.6470    -1.0390 O.2   1 <1>  -0.5700 
  2 C       -0.9770    -3.1930     0.0900 C.2   1 <1>   0.6900 
  3 N       -2.0070    -2.4050     0.5170 N.am  1 <1>  -0.6600 
  4 N       -0.0030    -3.4920     0.9820 N.am  1 <1>  -0.7300 
  5 C       -1.8890    -0.9280     0.6930 C.3   1 <1>   0.2200 
  6 C       -3.3900    -2.8610     0.2190 C.3   1 <1>   0.1400 
  7 C        1.2270    -4.2860     0.7920 C.3   1 <1>   0.2200 
  8 C       -2.3880    -0.2240    -0.5770 C.3   1 <1>  -0.1600 
  9 C       -0.4690    -0.4660     1.0380 C.3   1 <1>  -0.2400 
 10 C       -3.9280    -2.1610    -1.0350 C.3   1 <1>  -0.1600 
 11 C        2.1260    -3.6570    -0.2800 C.3   1 <1>  -0.1600 
 12 C        0.8940    -5.7470     0.4660 C.3   1 <1>  -0.1600 
 13 C       -3.8260    -0.6350    -0.9230 C.3   1 <1>  -0.1600 
 14 C        3.4080    -4.4810    -0.4730 C.3   1 <1>  -0.1600 
 15 C        2.1750    -6.5720     0.2730 C.3   1 <1>  -0.1600 
 16 C        3.0800    -5.9460    -0.7980 C.3   1 <1>  -0.1600 
 17 H       -0.1600    -3.1350     1.9200 H     1 <1>   0.3700 
 18 H       -2.5310    -0.6450     1.5110 H     1 <1>   0.0800 
 19 H       -4.0210    -2.6420     1.0620 H     1 <1>   0.0800 
 20 H       -3.3930    -3.9280     0.0640 H     1 <1>   0.0800 
 21 H        1.7680    -4.2720     1.7230 H     1 <1>   0.0800 
 22 H       -1.7350    -0.4760    -1.3960 H     1 <1>   0.0800 
 23 H       -2.3480     0.8410    -0.4390 H     1 <1>   0.0800 
 24 H        0.2160    -0.7150     0.2460 H     1 <1>   0.0800 
 25 H       -0.1430    -0.9170     1.9560 H     1 <1>   0.0800 
 26 H       -0.4560     0.6000     1.1700 H     1 <1>   0.0800 
 27 H       -4.9520    -2.4480    -1.1920 H     1 <1>   0.0800 
 28 H       -3.3610    -2.5000    -1.8850 H     1 <1>   0.0800 
 29 H        2.3830    -2.6540     0.0090 H     1 <1>   0.0800 
 30 H        1.5980    -3.6170    -1.2160 H     1 <1>   0.0800 
 31 H        0.3150    -5.7920    -0.4390 H     1 <1>   0.0800 
 32 H        0.3090    -6.1700     1.2640 H     1 <1>   0.0800 
 33 H       -4.1200    -0.1820    -1.8540 H     1 <1>   0.0800 
 34 H       -4.4940    -0.2860    -0.1540 H     1 <1>   0.0800 
 35 H        4.0010    -4.4380     0.4250 H     1 <1>   0.0800 
 36 H        3.9900    -4.0570    -1.2730 H     1 <1>   0.0800 
 37 H        1.9150    -7.5750    -0.0180 H     1 <1>   0.0800 
 38 H        2.7110    -6.6270     1.2060 H     1 <1>   0.0800 
 39 H        3.9920    -6.5110    -0.8770 H     1 <1>   0.0800 
 40 H        2.5810    -5.9910    -1.7510 H     1 <1>   0.0800 
@<TRIPOS>BOND
  1   1   2  2   
  2   2   3  am  
  3   2   4  am  
  4   3   5  1   
  5   3   6  1   
  6   4   7  1   
  7   4  17  1   
  8   5   8  1   
  9   5   9  1   
 10   5  18  1   
 11   6  10  1   
 12   6  19  1   
 13   6  20  1   
 14   7  11  1   
 15   7  12  1   
 16   7  21  1   
 17   8  13  1   
 18   8  22  1   
 19   8  23  1   
 20   9  24  1   
 21   9  25  1   
 22   9  26  1   
 23  10  13  1   
 24  10  27  1   
 25  10  28  1   
 26  11  14  1   
 27  11  29  1   
 28  11  30  1   
 29  12  15  1   
 30  12  31  1   
 31  12  32  1   
 32  13  33  1   
 33  13  34  1   
 34  14  16  1   
 35  14  35  1   
 36  14  36  1   
 37  15  16  1   
 38  15  37  1   
 39  15  38  1   
 40  16  39  1   
 41  16  40  1   
@<TRIPOS>SUBSTRUCTURE
  1 ****   2 GROUP 4 **** **** 0

# MOE 2024.06 (io_trps.svl 2023.06)
