@<TRIPOS>MOLECULE
NONAME
49 50 1 0 0 
SMALL
USER_CHARGES


@<TRIPOS>ATOM
  1 S       -0.5920    -0.3380    -0.1670 S.o2  1 <1>   1.4470 
  2 O       -0.6630     1.1030    -0.1700 O.2   1 <1>  -0.6500 
  3 O       -1.0770    -1.0870    -1.3040 O.2   1 <1>  -0.6500 
  4 N       -1.5460    -0.7570     1.1560 N.am  1 <1>  -0.9140 
  5 C        1.0640    -0.9050     0.3090 C.ar  1 <1>  -0.0090 
  6 C       -2.9940    -0.8530     1.0080 C.3   1 <1>   0.2760 
  7 C        1.4370    -2.2350     0.1300 C.ar  1 <1>  -0.1500 
  8 C        1.9830    -0.0270     0.8820 C.ar  1 <1>  -0.1500 
  9 C       -3.3910    -2.2170     0.4420 C.3   1 <1>  -0.1600 
 10 C       -3.6120     0.2790     0.1800 C.3   1 <1>  -0.1600 
 11 C        2.6970    -2.6940     0.5060 C.ar  1 <1>   0.0830 
 12 C        3.2410    -0.4580     1.2670 C.ar  1 <1>  -0.1500 
 13 C       -4.9110    -2.3870     0.3310 C.3   1 <1>   0.5030 
 14 C       -5.1370     0.1610     0.0730 C.3   1 <1>   0.5030 
 15 O        3.1020    -3.9830     0.3430 O.3   1 <1>  -0.3630 
 16 C        3.5790    -1.7820     1.0740 C.ar  1 <1>   0.1900 
 17 N       -5.5310    -1.2080    -0.2950 N.4   1 <1>  -0.9060 
 18 C       -5.5630    -2.6780     1.6860 C.3   1 <1>  -0.2400 
 19 C       -5.2270    -3.5550    -0.6030 C.3   1 <1>  -0.2400 
 20 C       -5.6390     1.0480    -1.0650 C.3   1 <1>  -0.2400 
 21 C       -5.8450     0.5970     1.3590 C.3   1 <1>  -0.2400 
 22 C        2.2980    -4.9400    -0.3100 C.3   1 <1>   0.0400 
 23 F        4.7730    -2.1700     1.4450 F     1 <1>  -0.1900 
 24 H       -1.3580     0.0030     1.8090 H     1 <1>   0.4200 
 25 H       -3.3950    -0.7920     2.0060 H     1 <1>   0.0800 
 26 H        0.7210    -2.9040    -0.3100 H     1 <1>   0.1500 
 27 H        1.7160     1.0080     1.0260 H     1 <1>   0.1500 
 28 H       -2.9900    -2.9920     1.0720 H     1 <1>   0.0800 
 29 H       -2.9660    -2.3500    -0.5330 H     1 <1>   0.0800 
 30 H       -3.2130     0.2640    -0.8180 H     1 <1>   0.0800 
 31 H       -3.3580     1.2300     0.6150 H     1 <1>   0.0800 
 32 H        3.9530     0.2180     1.7080 H     1 <1>   0.1500 
 33 H       -6.5450    -1.2880    -0.1970 H     1 <1>   0.4500 
 34 H       -5.3350    -1.2920    -1.2950 H     1 <1>   0.4500 
 35 H       -5.2600    -1.9890     2.4470 H     1 <1>   0.0800 
 36 H       -5.2620    -3.6540     2.0270 H     1 <1>   0.0800 
 37 H       -6.6350    -2.6780     1.6110 H     1 <1>   0.0800 
 38 H       -4.8180    -3.3950    -1.5850 H     1 <1>   0.0800 
 39 H       -6.2880    -3.7140    -0.6850 H     1 <1>   0.0800 
 40 H       -4.7920    -4.4610    -0.2180 H     1 <1>   0.0800 
 41 H       -5.1980     0.7690    -2.0060 H     1 <1>   0.0800 
 42 H       -5.3700     2.0740    -0.8770 H     1 <1>   0.0800 
 43 H       -6.7110     1.0040    -1.1520 H     1 <1>   0.0800 
 44 H       -5.4390     0.1330     2.2340 H     1 <1>   0.0800 
 45 H       -6.9010     0.3990     1.3080 H     1 <1>   0.0800 
 46 H       -5.7210     1.6580     1.4950 H     1 <1>   0.0800 
 47 H        2.8490    -5.8630    -0.3540 H     1 <1>   0.0800 
 48 H        2.0820    -4.5970    -1.3060 H     1 <1>   0.0800 
 49 H        1.3940    -5.0840     0.2560 H     1 <1>   0.0800 
@<TRIPOS>BOND
  1   1   2  2   
  2   1   3  2   
  3   1   4  am  
  4   1   5  1   
  5   4   6  1   
  6   4  24  1   
  7   5   7  ar  
  8   5   8  ar  
  9   6   9  1   
 10   6  10  1   
 11   6  25  1   
 12   7  11  ar  
 13   7  26  1   
 14   8  12  ar  
 15   8  27  1   
 16   9  13  1   
 17   9  28  1   
 18   9  29  1   
 19  10  14  1   
 20  10  30  1   
 21  10  31  1   
 22  11  15  1   
 23  11  16  ar  
 24  12  16  ar  
 25  12  32  1   
 26  13  17  1   
 27  13  18  1   
 28  13  19  1   
 29  14  17  1   
 30  14  20  1   
 31  14  21  1   
 32  15  22  1   
 33  16  23  1   
 34  17  33  1   
 35  17  34  1   
 36  18  35  1   
 37  18  36  1   
 38  18  37  1   
 39  19  38  1   
 40  19  39  1   
 41  19  40  1   
 42  20  41  1   
 43  20  42  1   
 44  20  43  1   
 45  21  44  1   
 46  21  45  1   
 47  21  46  1   
 48  22  47  1   
 49  22  48  1   
 50  22  49  1   
@<TRIPOS>SUBSTRUCTURE
  1 ****   4 GROUP 4 **** **** 0

# MOE 2024.06 (io_trps.svl 2023.06)
