@<TRIPOS>MOLECULE
NONAME
45 46 1 0 0 
SMALL
USER_CHARGES


@<TRIPOS>ATOM
  1 O        0.5660     0.2920    -0.0830 O.3   1 <1>  -0.3630 
  2 C       -0.6840     0.8080    -0.2670 C.ar  1 <1>   0.0830 
  3 C        1.7260     1.0570    -0.2870 C.3   1 <1>   0.1200 
  4 C       -1.7790    -0.0300    -0.0340 C.ar  1 <1>   0.0830 
  5 C       -0.8990     2.1230    -0.6740 C.ar  1 <1>  -0.1500 
  6 C        2.9220     0.1530     0.0160 C.3   1 <1>  -0.1600 
  7 O       -1.5320    -1.3120     0.3640 O.3   1 <1>  -0.3630 
  8 C       -3.0690     0.4630    -0.2110 C.ar  1 <1>  -0.1500 
  9 C       -2.1870     2.5990    -0.8470 C.ar  1 <1>  -0.1500 
 10 C        4.2590     0.8850    -0.1680 C.3   1 <1>  -0.1600 
 11 C       -2.5770    -2.2240     0.6200 C.3   1 <1>   0.0400 
 12 C       -3.2700     1.7710    -0.6160 C.ar  1 <1>  -0.1500 
 13 C        5.4250    -0.0580     0.1380 C.3   1 <1>   0.3430 
 14 N        6.7280     0.6080    -0.1370 N.4   1 <1>  -0.9590 
 15 C        7.8200    -0.4060    -0.2280 C.3   1 <1>   0.3430 
 16 C        7.0520     1.6640     0.8710 C.3   1 <1>   0.3430 
 17 C        9.1220     0.2730    -0.6580 C.3   1 <1>  -0.1600 
 18 C        8.3380     2.3880     0.4660 C.3   1 <1>  -0.1600 
 19 C        9.5090     1.4130     0.2920 C.3   1 <1>  -0.1600 
 20 H        1.6960     1.8990     0.3820 H     1 <1>   0.0800 
 21 H        1.7370     1.3860    -1.3120 H     1 <1>   0.0800 
 22 H       -0.0830     2.7930    -0.8620 H     1 <1>   0.1500 
 23 H        2.8790    -0.6980    -0.6430 H     1 <1>   0.0800 
 24 H        2.8350    -0.1970     1.0310 H     1 <1>   0.0800 
 25 H       -3.9310    -0.1530    -0.0410 H     1 <1>   0.1500 
 26 H       -2.3470     3.6160    -1.1610 H     1 <1>   0.1500 
 27 H        4.2790     1.7330     0.4930 H     1 <1>   0.0800 
 28 H        4.3300     1.2300    -1.1850 H     1 <1>   0.0800 
 29 H       -2.1370    -3.1590     0.9150 H     1 <1>   0.0800 
 30 H       -3.1510    -2.3580    -0.2800 H     1 <1>   0.0800 
 31 H       -3.1870    -1.8390     1.4170 H     1 <1>   0.0800 
 32 H       -4.2700     2.1450    -0.7510 H     1 <1>   0.1500 
 33 H        5.3300    -0.9330    -0.4850 H     1 <1>   0.0800 
 34 H        5.3810    -0.3760     1.1680 H     1 <1>   0.0800 
 35 H        6.6680     1.0670    -1.0550 H     1 <1>   0.4500 
 36 H        7.5610    -1.1680    -0.9450 H     1 <1>   0.0800 
 37 H        7.9620    -0.8770     0.7320 H     1 <1>   0.0800 
 38 H        7.1840     1.2130     1.8420 H     1 <1>   0.0800 
 39 H        6.2490     2.3790     0.9360 H     1 <1>   0.0800 
 40 H        9.0150     0.6500    -1.6610 H     1 <1>   0.0800 
 41 H        9.9120    -0.4590    -0.6740 H     1 <1>   0.0800 
 42 H        8.5870     3.1110     1.2240 H     1 <1>   0.0800 
 43 H        8.1700     2.9290    -0.4490 H     1 <1>   0.0800 
 44 H       10.3680     1.9380    -0.0950 H     1 <1>   0.0800 
 45 H        9.7820     1.0040     1.2510 H     1 <1>   0.0800 
@<TRIPOS>BOND
  1   1   2  1   
  2   1   3  1   
  3   2   4  ar  
  4   2   5  ar  
  5   3   6  1   
  6   3  20  1   
  7   3  21  1   
  8   4   7  1   
  9   4   8  ar  
 10   5   9  ar  
 11   5  22  1   
 12   6  10  1   
 13   6  23  1   
 14   6  24  1   
 15   7  11  1   
 16   8  12  ar  
 17   8  25  1   
 18   9  12  ar  
 19   9  26  1   
 20  10  13  1   
 21  10  27  1   
 22  10  28  1   
 23  11  29  1   
 24  11  30  1   
 25  11  31  1   
 26  12  32  1   
 27  13  14  1   
 28  13  33  1   
 29  13  34  1   
 30  14  15  1   
 31  14  16  1   
 32  14  35  1   
 33  15  17  1   
 34  15  36  1   
 35  15  37  1   
 36  16  18  1   
 37  16  38  1   
 38  16  39  1   
 39  17  19  1   
 40  17  40  1   
 41  17  41  1   
 42  18  19  1   
 43  18  42  1   
 44  18  43  1   
 45  19  44  1   
 46  19  45  1   
@<TRIPOS>SUBSTRUCTURE
  1 ****   6 GROUP 4 **** **** 0

# MOE 2024.06 (io_trps.svl 2023.06)
