@<TRIPOS>MOLECULE
NONAME
36 36 1 0 0 
SMALL
USER_CHARGES


@<TRIPOS>ATOM
  1 S        0.0920    -0.1090    -0.2320 S.o2  1 <1>   1.3330 
  2 O        0.9640     1.0240    -0.0630 O.2   1 <1>  -0.6500 
  3 O        0.4310    -1.4120     0.2810 O.2   1 <1>  -0.6500 
  4 N       -1.3840     0.3930     0.4790 N.am  1 <1>  -0.7570 
  5 C       -0.3440    -0.2340    -1.9540 C.3   1 <1>  -0.1350 
  6 C       -2.6350    -0.1960     0.3250 C.ar  1 <1>   0.1990 
  7 C       -3.7700     0.5990     0.1750 C.ar  1 <1>  -0.1430 
  8 C       -2.7770    -1.5770     0.3100 C.ar  1 <1>  -0.1500 
  9 C       -5.0050     0.0010    -0.0080 C.ar  1 <1>  -0.1500 
 10 C       -3.6780     2.1210     0.2040 C.3   1 <1>  -0.0970 
 11 C       -4.0070    -2.1890     0.1220 C.ar  1 <1>  -0.1430 
 12 C       -5.1360    -1.3860    -0.0410 C.ar  1 <1>   0.0830 
 13 C       -4.0890    -3.7210     0.1070 C.3   1 <1>   0.0630 
 14 O       -6.3420    -1.9970    -0.2260 O.3   1 <1>  -0.3630 
 15 C       -3.6600    -4.3030     1.4580 C.3   1 <1>  -0.2400 
 16 C       -3.2380    -4.3040    -1.0280 C.3   1 <1>  -0.2400 
 17 C       -7.5460    -1.2650    -0.2910 C.3   1 <1>   0.0400 
 18 H       -1.3470     1.3830     0.6900 H     1 <1>   0.4200 
 19 H       -0.7210     0.7040    -2.3110 H     1 <1>   0.0800 
 20 H       -1.0970    -0.9860    -2.0920 H     1 <1>   0.0800 
 21 H        0.5180    -0.5020    -2.5320 H     1 <1>   0.0800 
 22 H       -1.9070    -2.1870     0.4590 H     1 <1>   0.1500 
 23 H       -5.8660     0.6290    -0.1270 H     1 <1>   0.1500 
 24 H       -3.0220     2.4680    -0.5740 H     1 <1>   0.0800 
 25 H       -3.3010     2.4490     1.1560 H     1 <1>   0.0800 
 26 H       -4.6430     2.5710     0.0530 H     1 <1>   0.0800 
 27 H       -5.1030    -4.0340    -0.0660 H     1 <1>   0.0800 
 28 H       -2.6280    -4.0850     1.6630 H     1 <1>   0.0800 
 29 H       -3.7940    -5.3700     1.4620 H     1 <1>   0.0800 
 30 H       -4.2630    -3.8800     2.2420 H     1 <1>   0.0800 
 31 H       -2.1950    -4.0950    -0.8760 H     1 <1>   0.0800 
 32 H       -3.5430    -3.8770    -1.9660 H     1 <1>   0.0800 
 33 H       -3.3700    -5.3700    -1.0780 H     1 <1>   0.0800 
 34 H       -8.3560    -1.9640    -0.3940 H     1 <1>   0.0800 
 35 H       -7.5140    -0.6160    -1.1480 H     1 <1>   0.0800 
 36 H       -7.6620    -0.7030     0.6180 H     1 <1>   0.0800 
@<TRIPOS>BOND
  1   1   2  2   
  2   1   3  2   
  3   1   4  am  
  4   1   5  1   
  5   4   6  1   
  6   4  18  1   
  7   5  19  1   
  8   5  20  1   
  9   5  21  1   
 10   6   7  ar  
 11   6   8  ar  
 12   7   9  ar  
 13   7  10  1   
 14   8  11  ar  
 15   8  22  1   
 16   9  12  ar  
 17   9  23  1   
 18  10  24  1   
 19  10  25  1   
 20  10  26  1   
 21  11  12  ar  
 22  11  13  1   
 23  12  14  1   
 24  13  15  1   
 25  13  16  1   
 26  13  27  1   
 27  14  17  1   
 28  15  28  1   
 29  15  29  1   
 30  15  30  1   
 31  16  31  1   
 32  16  32  1   
 33  16  33  1   
 34  17  34  1   
 35  17  35  1   
 36  17  36  1   
@<TRIPOS>SUBSTRUCTURE
  1 ****   8 GROUP 4 **** **** 0

# MOE 2024.06 (io_trps.svl 2023.06)
