@<TRIPOS>MOLECULE
NONAME
51 53 1 0 0 
SMALL
USER_CHARGES


@<TRIPOS>ATOM
  1 S        0.7980    -1.9350    -0.3110 S.o2  1 <1>   1.4470 
  2 O        0.5670    -2.6570    -1.5440 O.2   1 <1>  -0.6500 
  3 O        1.3800    -2.5940     0.8370 O.2   1 <1>  -0.6500 
  4 N        1.7970    -0.6350    -0.6750 N.am  1 <1>  -0.8490 
  5 C       -0.7250    -1.0970     0.2060 C.ar  1 <1>  -0.0090 
  6 C        3.2250    -0.7790    -0.5600 C.3   1 <1>   0.6310 
  7 C        1.4880     0.2110    -1.8100 C.3   1 <1>   0.1960 
  8 C       -1.9200    -1.2780    -0.4810 C.ar  1 <1>  -0.1500 
  9 C       -0.7290    -0.2360     1.2960 C.ar  1 <1>  -0.1500 
 10 N        3.5920     0.5890    -0.8630 N.am  1 <1>  -0.8490 
 11 C        3.9310    -1.8900    -1.4270 C.3   1 <1>  -0.0800 
 12 C        2.7260     1.0910    -1.9170 C.3   1 <1>   0.1960 
 13 C       -3.0760    -0.6210    -0.0950 C.ar  1 <1>  -0.1500 
 14 C       -1.8800     0.4240     1.6870 C.ar  1 <1>  -0.1500 
 15 S        5.2100     1.0480    -0.9510 S.o2  1 <1>   1.4470 
 16 C        3.6170    -1.9490    -2.9350 C.3   1 <1>  -0.2400 
 17 C        3.8130    -3.3110    -0.8450 C.3   1 <1>  -0.2400 
 18 C       -3.0610     0.2370     0.9910 C.ar  1 <1>  -0.1440 
 19 O        5.2110     2.4870    -0.8170 O.2   1 <1>  -0.6500 
 20 O        5.7660     0.4680    -2.1540 O.2   1 <1>  -0.6500 
 21 C        5.9380     0.2990     0.5330 C.ar  1 <1>  -0.0090 
 22 C       -4.3270     0.9580     1.4170 C.3   1 <1>  -0.0970 
 23 C        5.4530     0.6130     1.7970 C.ar  1 <1>  -0.1500 
 24 C        6.9820    -0.6160     0.4440 C.ar  1 <1>  -0.1500 
 25 C        5.9810     0.0270     2.9350 C.ar  1 <1>  -0.1500 
 26 C        7.5160    -1.2060     1.5770 C.ar  1 <1>  -0.1500 
 27 C        7.0130    -0.8850     2.8240 C.ar  1 <1>  -0.1500 
 28 H        3.4620    -0.9740     0.4750 H     1 <1>   0.0800 
 29 H        0.6070     0.8000    -1.6200 H     1 <1>   0.0800 
 30 H        1.3490    -0.3660    -2.7080 H     1 <1>   0.0800 
 31 H       -1.9500    -1.9430    -1.3280 H     1 <1>   0.1500 
 32 H        0.1850    -0.0820     1.8450 H     1 <1>   0.1500 
 33 H        4.9820    -1.7000    -1.3490 H     1 <1>   0.0800 
 34 H        2.4870     2.1260    -1.7390 H     1 <1>   0.0800 
 35 H        3.1840     0.9960    -2.8860 H     1 <1>   0.0800 
 36 H       -3.9870    -0.7820    -0.6450 H     1 <1>   0.1500 
 37 H       -1.8520     1.0830     2.5380 H     1 <1>   0.1500 
 38 H        2.5870    -2.1990    -3.1100 H     1 <1>   0.0800 
 39 H        4.2210    -2.7070    -3.4030 H     1 <1>   0.0800 
 40 H        3.8480    -1.0190    -3.4170 H     1 <1>   0.0800 
 41 H        2.8590    -3.7530    -1.0600 H     1 <1>   0.0800 
 42 H        3.9590    -3.3010     0.2210 H     1 <1>   0.0800 
 43 H        4.5650    -3.9480    -1.2760 H     1 <1>   0.0800 
 44 H       -4.9540     1.1530     0.5650 H     1 <1>   0.0800 
 45 H       -4.0880     1.8960     1.8840 H     1 <1>   0.0800 
 46 H       -4.8730     0.3510     2.1170 H     1 <1>   0.0800 
 47 H        4.6490     1.3250     1.8900 H     1 <1>   0.1500 
 48 H        7.3830    -0.8720    -0.5230 H     1 <1>   0.1500 
 49 H        5.5890     0.2830     3.9050 H     1 <1>   0.1500 
 50 H        8.3230    -1.9130     1.4880 H     1 <1>   0.1500 
 51 H        7.4260    -1.3430     3.7070 H     1 <1>   0.1500 
@<TRIPOS>BOND
  1   1   2  2   
  2   1   3  2   
  3   1   4  am  
  4   1   5  1   
  5   4   6  1   
  6   4   7  1   
  7   5   8  ar  
  8   5   9  ar  
  9   6  10  1   
 10   6  11  1   
 11   6  28  1   
 12   7  12  1   
 13   7  29  1   
 14   7  30  1   
 15   8  13  ar  
 16   8  31  1   
 17   9  14  ar  
 18   9  32  1   
 19  10  12  1   
 20  10  15  am  
 21  11  16  1   
 22  11  17  1   
 23  11  33  1   
 24  12  34  1   
 25  12  35  1   
 26  13  18  ar  
 27  13  36  1   
 28  14  18  ar  
 29  14  37  1   
 30  15  19  2   
 31  15  20  2   
 32  15  21  1   
 33  16  38  1   
 34  16  39  1   
 35  16  40  1   
 36  17  41  1   
 37  17  42  1   
 38  17  43  1   
 39  18  22  1   
 40  21  23  ar  
 41  21  24  ar  
 42  22  44  1   
 43  22  45  1   
 44  22  46  1   
 45  23  25  ar  
 46  23  47  1   
 47  24  26  ar  
 48  24  48  1   
 49  25  27  ar  
 50  25  49  1   
 51  26  27  ar  
 52  26  50  1   
 53  27  51  1   
@<TRIPOS>SUBSTRUCTURE
  1 ****   4 GROUP 4 **** **** 0

# MOE 2024.06 (io_trps.svl 2023.06)
