@<TRIPOS>MOLECULE
NONAME
35 37 1 0 0 
SMALL
USER_CHARGES


@<TRIPOS>ATOM
  1 O        1.1140    -0.7820    -0.9300 O.3   1 <1>  -0.5600 
  2 C        0.7370    -0.8690     0.4170 C.3   1 <1>   0.1200 
  3 C        1.9890    -1.7960    -1.3510 C.3   1 <1>   0.1200 
  4 C        1.9670    -0.7430     1.3460 C.3   1 <1>   0.3430 
  5 C        3.2440    -1.8750    -0.4510 C.3   1 <1>   0.3430 
  6 N        3.2520    -0.7710     0.5700 N.4   1 <1>  -0.9590 
  7 C        4.4700    -0.7380     1.4270 C.3   1 <1>   0.4860 
  8 C        5.6930    -0.6420     0.5370 C.ar  1 <1>  -0.1440 
  9 C        6.4240    -1.8070     0.1840 C.ar  1 <1>   0.0000 
 10 C        6.0650     0.5910     0.0660 C.ar  1 <1>  -0.1500 
 11 C        7.5150    -1.6660    -0.7040 C.ar  1 <1>   0.0000 
 12 C        6.1310    -3.1100     0.6590 C.ar  1 <1>  -0.1500 
 13 C        7.1600     0.7230    -0.7920 C.ar  1 <1>  -0.1500 
 14 C        7.8630    -0.3840    -1.1700 C.ar  1 <1>  -0.1500 
 15 C        8.2340    -2.8100    -1.1040 C.ar  1 <1>  -0.1500 
 16 C        6.8480    -4.2020     0.2560 C.ar  1 <1>  -0.1500 
 17 C        7.9100    -4.0530    -0.6400 C.ar  1 <1>  -0.1500 
 18 H        0.2340    -1.8090     0.5730 H     1 <1>   0.0800 
 19 H        0.0370    -0.0760     0.6170 H     1 <1>   0.0800 
 20 H        2.2770    -1.5780    -2.3650 H     1 <1>   0.0800 
 21 H        1.4590    -2.7330    -1.3480 H     1 <1>   0.0800 
 22 H        1.9460    -1.5500     2.0600 H     1 <1>   0.0800 
 23 H        1.8930     0.1800     1.8970 H     1 <1>   0.0800 
 24 H        4.1220    -1.8150    -1.0740 H     1 <1>   0.0800 
 25 H        3.2640    -2.8330     0.0410 H     1 <1>   0.0800 
 26 H        3.2520     0.0870    -0.0010 H     1 <1>   0.4500 
 27 H        4.5200    -1.6130     2.0510 H     1 <1>   0.0800 
 28 H        4.4380     0.1270     2.0700 H     1 <1>   0.0800 
 29 H        5.5330     1.4880     0.3340 H     1 <1>   0.1500 
 30 H        5.3340    -3.2680     1.3590 H     1 <1>   0.1500 
 31 H        7.4380     1.7000    -1.1490 H     1 <1>   0.1500 
 32 H        8.7040    -0.2900    -1.8340 H     1 <1>   0.1500 
 33 H        9.0550    -2.6880    -1.7890 H     1 <1>   0.1500 
 34 H        6.6190    -5.1890     0.6220 H     1 <1>   0.1500 
 35 H        8.4650    -4.9220    -0.9480 H     1 <1>   0.1500 
@<TRIPOS>BOND
  1   1   2  1   
  2   1   3  1   
  3   2   4  1   
  4   2  18  1   
  5   2  19  1   
  6   3   5  1   
  7   3  20  1   
  8   3  21  1   
  9   4   6  1   
 10   4  22  1   
 11   4  23  1   
 12   5   6  1   
 13   5  24  1   
 14   5  25  1   
 15   6   7  1   
 16   6  26  1   
 17   7   8  1   
 18   7  27  1   
 19   7  28  1   
 20   8   9  ar  
 21   8  10  ar  
 22   9  11  ar  
 23   9  12  ar  
 24  10  13  ar  
 25  10  29  1   
 26  11  14  ar  
 27  11  15  ar  
 28  12  16  ar  
 29  12  30  1   
 30  13  14  ar  
 31  13  31  1   
 32  14  32  1   
 33  15  17  ar  
 34  15  33  1   
 35  16  17  ar  
 36  16  34  1   
 37  17  35  1   
@<TRIPOS>SUBSTRUCTURE
  1 ****   8 GROUP 4 **** **** 0

# MOE 2024.06 (io_trps.svl 2023.06)
