@<TRIPOS>MOLECULE
NONAME
50 52 1 0 0 
SMALL
USER_CHARGES


@<TRIPOS>ATOM
  1 S       -0.4150    -0.7220    -1.1400 S.3   1 <1>  -0.0800 
  2 C        0.9570     0.1850    -0.4880 C.2   1 <1>   0.1040 
  3 C       -1.5240     0.4710    -0.5140 C.2   1 <1>  -0.1400 
  4 N        2.2460    -0.2870    -0.6820 N.am  1 <1>  -0.4940 
  5 C        0.5390     1.3220     0.1640 C.2   1 <1>  -0.0860 
  6 C       -0.8950     1.4440     0.1200 C.2   1 <1>  -0.1810 
  7 C       -3.0140     0.5550    -0.5850 C.3   1 <1>   0.0200 
  8 C        2.7840    -1.3960    -1.2780 C.2   1 <1>   0.5690 
  9 C        1.3830     2.2870     0.8150 C.2   1 <1>   0.8060 
 10 C       -1.8860     2.4520     0.6420 C.3   1 <1>   0.0210 
 11 C       -3.2600     1.8750     0.1910 C.3   1 <1>  -0.1600 
 12 O        2.1500    -2.2780    -1.8020 O.2   1 <1>  -0.5700 
 13 C        4.3120    -1.4840    -1.2610 C.3   1 <1>   0.1710 
 14 O        0.9730     3.3210     1.3100 O.2   1 <1>  -0.5700 
 15 O        2.6980     2.0250     0.8770 O.3   1 <1>  -0.4300 
 16 N        4.9480    -0.5690    -0.2660 N.3   1 <1>  -0.9000 
 17 C        3.6420     2.9140     1.4360 C.3   1 <1>   0.1200 
 18 C        6.3930    -0.5330    -0.4050 C.3   1 <1>   0.3330 
 19 C        4.0950     3.8900     0.3520 C.3   1 <1>  -0.2400 
 20 C        6.9870    -1.8770     0.0040 C.ar  1 <1>  -0.1440 
 21 C        6.9130     0.6000     0.4690 C.3   1 <1>  -0.2400 
 22 C        7.7410    -2.6000    -0.9100 C.ar  1 <1>  -0.1500 
 23 C        6.7860    -2.4040     1.2740 C.ar  1 <1>  -0.1500 
 24 C        8.2820    -3.8260    -0.5640 C.ar  1 <1>  -0.1500 
 25 C        7.3270    -3.6300     1.6220 C.ar  1 <1>  -0.1500 
 26 C        8.0750    -4.3420     0.7020 C.ar  1 <1>  -0.1500 
 27 H        2.9920     0.3040    -0.2910 H     1 <1>   0.3700 
 28 H       -3.4670    -0.2890    -0.0960 H     1 <1>   0.0800 
 29 H       -3.3420     0.6230    -1.6070 H     1 <1>   0.0800 
 30 H       -1.7050     3.4180     0.2050 H     1 <1>   0.0800 
 31 H       -1.8230     2.5210     1.7140 H     1 <1>   0.0800 
 32 H       -3.8760     1.6830     1.0520 H     1 <1>   0.0800 
 33 H       -3.7650     2.5840    -0.4410 H     1 <1>   0.0800 
 34 H        4.6580    -1.2380    -2.2500 H     1 <1>   0.0800 
 35 H        4.5890    -2.5030    -1.0530 H     1 <1>   0.0800 
 36 H        4.7710    -0.9660     0.6650 H     1 <1>   0.3600 
 37 H        4.4750     2.3260     1.7800 H     1 <1>   0.0800 
 38 H        3.2040     3.4270     2.2760 H     1 <1>   0.0800 
 39 H        6.6470    -0.3140    -1.4300 H     1 <1>   0.0800 
 40 H        4.5140     3.3540    -0.4810 H     1 <1>   0.0800 
 41 H        4.8460     4.5470     0.7500 H     1 <1>   0.0800 
 42 H        3.2650     4.4880     0.0180 H     1 <1>   0.0800 
 43 H        6.6380     0.4530     1.4970 H     1 <1>   0.0800 
 44 H        6.5170     1.5380     0.1250 H     1 <1>   0.0800 
 45 H        7.9860     0.6390     0.4050 H     1 <1>   0.0800 
 46 H        7.9120    -2.2150    -1.9000 H     1 <1>   0.1500 
 47 H        6.2090    -1.8640     2.0030 H     1 <1>   0.1500 
 48 H        8.8650    -4.3790    -1.2800 H     1 <1>   0.1500 
 49 H        7.1670    -4.0300     2.6080 H     1 <1>   0.1500 
 50 H        8.4960    -5.2950     0.9720 H     1 <1>   0.1500 
@<TRIPOS>BOND
  1   1   2  1   
  2   1   3  1   
  3   2   4  1   
  4   2   5  2   
  5   3   6  2   
  6   3   7  1   
  7   4   8  am  
  8   4  27  1   
  9   5   6  1   
 10   5   9  1   
 11   6  10  1   
 12   7  11  1   
 13   7  28  1   
 14   7  29  1   
 15   8  12  2   
 16   8  13  1   
 17   9  14  2   
 18   9  15  1   
 19  10  11  1   
 20  10  30  1   
 21  10  31  1   
 22  11  32  1   
 23  11  33  1   
 24  13  16  1   
 25  13  34  1   
 26  13  35  1   
 27  15  17  1   
 28  16  18  1   
 29  16  36  1   
 30  17  19  1   
 31  17  37  1   
 32  17  38  1   
 33  18  20  1   
 34  18  21  1   
 35  18  39  1   
 36  19  40  1   
 37  19  41  1   
 38  19  42  1   
 39  20  22  ar  
 40  20  23  ar  
 41  21  43  1   
 42  21  44  1   
 43  21  45  1   
 44  22  24  ar  
 45  22  46  1   
 46  23  25  ar  
 47  23  47  1   
 48  24  26  ar  
 49  24  48  1   
 50  25  26  ar  
 51  25  49  1   
 52  26  50  1   
@<TRIPOS>SUBSTRUCTURE
  1 ****   4 GROUP 4 **** **** 0

# MOE 2024.06 (io_trps.svl 2023.06)
