@<TRIPOS>MOLECULE
NONAME
37 39 1 0 0 
SMALL
USER_CHARGES


@<TRIPOS>ATOM
  1 S        0.3050    -1.8900     1.6040 S.3   1 <1>  -0.0800 
  2 C       -0.9370    -1.0870     0.6230 C.2   1 <1>   0.1040 
  3 C        1.5560    -0.9540     0.8230 C.2   1 <1>  -0.1400 
  4 N       -2.2850    -1.4170     0.7920 N.am  1 <1>  -0.4940 
  5 C       -0.3640    -0.1790    -0.2210 C.2   1 <1>   0.0190 
  6 C        1.0610    -0.1270    -0.0810 C.2   1 <1>  -0.1810 
  7 C        3.0390    -0.9440     1.0120 C.3   1 <1>   0.0200 
  8 C       -2.9180    -2.4290     1.4680 C.2   1 <1>   0.5690 
  9 C       -1.0630     0.6430    -1.1580 C.1   1 <1>   0.5380 
 10 C        2.1670     0.6630    -0.7330 C.3   1 <1>   0.0210 
 11 C        3.4490     0.1330    -0.0260 C.3   1 <1>  -0.1600 
 12 O       -2.3490    -3.3050     2.0690 O.2   1 <1>  -0.5700 
 13 C       -4.4380    -2.4590     1.4380 C.3   1 <1>   0.0450 
 14 N       -1.6300     1.2920    -1.9060 N.1   1 <1>  -0.5570 
 15 C       -5.0260    -1.3140     0.6110 C.ar  1 <1>  -0.1440 
 16 C       -5.1060    -1.3700    -0.7790 C.ar  1 <1>  -0.1430 
 17 C       -5.4510    -0.1720     1.2750 C.ar  1 <1>  -0.1500 
 18 C       -5.6020    -0.2790    -1.4760 C.ar  1 <1>  -0.1500 
 19 C       -4.6610    -2.5960    -1.5680 C.3   1 <1>  -0.0970 
 20 C       -5.9470     0.9090     0.5710 C.ar  1 <1>  -0.1500 
 21 C       -6.0200     0.8560    -0.8070 C.ar  1 <1>  -0.1500 
 22 H       -2.9520    -0.8110     0.3010 H     1 <1>   0.3700 
 23 H        3.4590    -1.9070     0.7780 H     1 <1>   0.0800 
 24 H        3.2940    -0.6530     2.0150 H     1 <1>   0.0800 
 25 H        2.0340     1.7160    -0.5590 H     1 <1>   0.0800 
 26 H        2.1980     0.4680    -1.7910 H     1 <1>   0.0800 
 27 H        4.1170    -0.2950    -0.7520 H     1 <1>   0.0800 
 28 H        3.9550     0.9430     0.4690 H     1 <1>   0.0800 
 29 H       -4.7920    -2.4020     2.4510 H     1 <1>   0.0800 
 30 H       -4.7580    -3.4070     1.0480 H     1 <1>   0.0800 
 31 H       -5.3970    -0.1120     2.3490 H     1 <1>   0.1500 
 32 H       -5.6670    -0.3030    -2.5500 H     1 <1>   0.1500 
 33 H       -5.2920    -3.4340    -1.3320 H     1 <1>   0.0800 
 34 H       -3.6420    -2.8490    -1.3400 H     1 <1>   0.0800 
 35 H       -4.7270    -2.4160    -2.6260 H     1 <1>   0.0800 
 36 H       -6.2740     1.7920     1.0930 H     1 <1>   0.1500 
 37 H       -6.4010     1.6970    -1.3610 H     1 <1>   0.1500 
@<TRIPOS>BOND
  1   1   2  1   
  2   1   3  1   
  3   2   4  1   
  4   2   5  2   
  5   3   6  2   
  6   3   7  1   
  7   4   8  am  
  8   4  22  1   
  9   5   6  1   
 10   5   9  1   
 11   6  10  1   
 12   7  11  1   
 13   7  23  1   
 14   7  24  1   
 15   8  12  2   
 16   8  13  1   
 17   9  14  3   
 18  10  11  1   
 19  10  25  1   
 20  10  26  1   
 21  11  27  1   
 22  11  28  1   
 23  13  15  1   
 24  13  29  1   
 25  13  30  1   
 26  15  16  ar  
 27  15  17  ar  
 28  16  18  ar  
 29  16  19  1   
 30  17  20  ar  
 31  17  31  1   
 32  18  21  ar  
 33  18  32  1   
 34  19  33  1   
 35  19  34  1   
 36  19  35  1   
 37  20  21  ar  
 38  20  36  1   
 39  21  37  1   
@<TRIPOS>SUBSTRUCTURE
  1 ****   4 GROUP 4 **** **** 0

# MOE 2024.06 (io_trps.svl 2023.06)
