@<TRIPOS>MOLECULE
NONAME
39 40 1 0 0 
SMALL
USER_CHARGES


@<TRIPOS>ATOM
  1 O       -0.0230     0.0210    -0.5140 O.2   1 <1>  -0.5700 
  2 C       -0.0040    -1.1880    -0.3940 C.2   1 <1>   0.6900 
  3 N        1.1420    -1.8600    -0.1220 N.am  1 <1>  -0.4930 
  4 N       -1.1450    -1.9100    -0.5340 N.am  1 <1>  -0.7300 
  5 C        2.4400    -1.3900     0.0640 C.2   1 <1>   0.3520 
  6 C       -2.4820    -1.3380    -0.8040 C.3   1 <1>   0.1400 
  7 N        3.4060    -2.1960     0.3340 N.2   1 <1>  -0.4100 
  8 C        2.9020    -0.0740    -0.0020 C.2   1 <1>  -0.1500 
  9 C       -3.4900    -1.9420     0.1760 C.3   1 <1>  -0.1600 
 10 O        4.4780    -1.4530     0.4470 O.3   1 <1>  -0.0190 
 11 C        4.2120    -0.1870     0.2530 C.2   1 <1>  -0.0400 
 12 C       -4.9380    -1.4920    -0.0940 C.3   1 <1>  -0.0800 
 13 C        5.3190     0.8410     0.3400 C.3   1 <1>  -0.0600 
 14 C       -5.1220     0.0250     0.1120 C.3   1 <1>  -0.1600 
 15 C       -5.9020    -2.2730     0.8170 C.3   1 <1>  -0.1600 
 16 C       -6.5810     0.4530    -0.0960 C.3   1 <1>  -0.1600 
 17 C       -7.3600    -1.8460     0.6020 C.3   1 <1>  -0.1600 
 18 C       -7.5300    -0.3370     0.8120 C.3   1 <1>  -0.1600 
 19 H        1.0670    -2.8630    -0.0160 H     1 <1>   0.3700 
 20 H       -1.1090    -2.9250    -0.4750 H     1 <1>   0.3700 
 21 H       -2.7650    -1.5670    -1.8180 H     1 <1>   0.0800 
 22 H       -2.4480    -0.2680    -0.6940 H     1 <1>   0.0800 
 23 H        2.3120     0.7980    -0.2100 H     1 <1>   0.1500 
 24 H       -3.2120    -1.6670     1.1790 H     1 <1>   0.0800 
 25 H       -3.4450    -3.0140     0.0950 H     1 <1>   0.0800 
 26 H       -5.1850    -1.7270    -1.1170 H     1 <1>   0.0800 
 27 H        4.9270     1.8250     0.1550 H     1 <1>   0.0800 
 28 H        6.0770     0.6230    -0.3910 H     1 <1>   0.0800 
 29 H        5.7610     0.8190     1.3190 H     1 <1>   0.0800 
 30 H       -4.5070     0.5750    -0.5780 H     1 <1>   0.0800 
 31 H       -4.8160     0.2910     1.1090 H     1 <1>   0.0800 
 32 H       -5.6370    -2.1050     1.8480 H     1 <1>   0.0800 
 33 H       -5.8140    -3.3270     0.6220 H     1 <1>   0.0800 
 34 H       -6.8560     0.2920    -1.1240 H     1 <1>   0.0800 
 35 H       -6.6800     1.5050     0.1100 H     1 <1>   0.0800 
 36 H       -7.9970    -2.3790     1.2870 H     1 <1>   0.0800 
 37 H       -7.6640    -2.1040    -0.3980 H     1 <1>   0.0800 
 38 H       -8.5480    -0.0560     0.6040 H     1 <1>   0.0800 
 39 H       -7.3230    -0.0950     1.8410 H     1 <1>   0.0800 
@<TRIPOS>BOND
  1   1   2  2   
  2   2   3  am  
  3   2   4  am  
  4   3   5  1   
  5   3  19  1   
  6   4   6  1   
  7   4  20  1   
  8   5   7  2   
  9   5   8  1   
 10   6   9  1   
 11   6  21  1   
 12   6  22  1   
 13   7  10  1   
 14   8  11  2   
 15   8  23  1   
 16   9  12  1   
 17   9  24  1   
 18   9  25  1   
 19  10  11  1   
 20  11  13  1   
 21  12  14  1   
 22  12  15  1   
 23  12  26  1   
 24  13  27  1   
 25  13  28  1   
 26  13  29  1   
 27  14  16  1   
 28  14  30  1   
 29  14  31  1   
 30  15  17  1   
 31  15  32  1   
 32  15  33  1   
 33  16  18  1   
 34  16  34  1   
 35  16  35  1   
 36  17  18  1   
 37  17  36  1   
 38  17  37  1   
 39  18  38  1   
 40  18  39  1   
@<TRIPOS>SUBSTRUCTURE
  1 ****   4 GROUP 4 **** **** 0

# MOE 2024.06 (io_trps.svl 2023.06)
