@<TRIPOS>MOLECULE
NONAME
39 40 1 0 0 
SMALL
USER_CHARGES


@<TRIPOS>ATOM
  1 O       -0.5360     0.1090    -0.5600 O.2   1 <1>  -0.5700 
  2 C       -0.9050    -1.0400    -0.4850 C.2   1 <1>   0.5690 
  3 N       -2.1570    -1.3200    -0.0430 N.am  1 <1>  -0.5470 
  4 C        0.0330    -2.2010    -0.8990 C.3   1 <1>   0.3500 
  5 C       -2.6790    -2.6190     0.0500 C.ar  1 <1>   0.1170 
  6 N       -0.5220    -3.5790    -0.6280 N.pl3 1 <1>  -0.8690 
  7 C        1.3800    -2.0870    -0.1860 C.3   1 <1>  -0.0990 
  8 C       -1.8670    -3.7210    -0.2520 C.ar  1 <1>   0.1000 
  9 C       -3.9970    -2.8190     0.4260 C.ar  1 <1>  -0.1500 
 10 C        2.3480    -3.1050    -0.7290 C.2   1 <1>   0.5690 
 11 C       -2.4130    -4.9920    -0.1720 C.ar  1 <1>  -0.1500 
 12 C       -4.5340    -4.0960     0.5040 C.ar  1 <1>  -0.1440 
 13 O        2.7360    -2.9880    -1.8650 O.2   1 <1>  -0.5700 
 14 N        2.7510    -4.1230     0.0670 N.am  1 <1>  -0.7300 
 15 C       -3.7340    -5.1920     0.2010 C.ar  1 <1>  -0.1430 
 16 C       -5.9890    -4.2630     0.9210 C.3   1 <1>  -0.0970 
 17 C        3.7100    -5.1630    -0.3220 C.3   1 <1>   0.2780 
 18 C       -4.2740    -6.6130     0.2700 C.3   1 <1>  -0.0970 
 19 C        4.5290    -5.5050     0.9030 C.2   1 <1>  -0.2880 
 20 C        4.5520    -6.6930     1.5170 C.2   1 <1>  -0.3000 
 21 H       -2.7360    -0.5210     0.2070 H     1 <1>   0.3700 
 22 H        0.1970    -2.1050    -1.9580 H     1 <1>   0.0800 
 23 H       -0.1940    -4.2690    -1.3130 H     1 <1>   0.4000 
 24 H        1.2430    -2.2120     0.8710 H     1 <1>   0.0800 
 25 H        1.7960    -1.1110    -0.3580 H     1 <1>   0.0800 
 26 H       -4.6080    -1.9670     0.6580 H     1 <1>   0.1500 
 27 H       -1.7870    -5.8330    -0.4010 H     1 <1>   0.1500 
 28 H        2.3370    -4.2490     0.9920 H     1 <1>   0.3700 
 29 H       -6.4500    -3.3110     1.1090 H     1 <1>   0.0800 
 30 H       -6.0490    -4.8500     1.8190 H     1 <1>   0.0800 
 31 H       -6.5410    -4.7560     0.1410 H     1 <1>   0.0800 
 32 H        4.3480    -4.8070    -1.1130 H     1 <1>   0.0800 
 33 H        3.1740    -6.0290    -0.6720 H     1 <1>   0.0800 
 34 H       -3.5140    -7.3290     0.0130 H     1 <1>   0.0800 
 35 H       -5.0930    -6.7300    -0.4160 H     1 <1>   0.0800 
 36 H       -4.6160    -6.8290     1.2660 H     1 <1>   0.0800 
 37 H        5.1140    -4.6660     1.2420 H     1 <1>   0.1500 
 38 H        5.1480    -6.9060     2.3880 H     1 <1>   0.1500 
 39 H        3.9810    -7.5500     1.2050 H     1 <1>   0.1500 
@<TRIPOS>BOND
  1   1   2  2   
  2   2   3  am  
  3   2   4  1   
  4   3   5  1   
  5   3  21  1   
  6   4   6  1   
  7   4   7  1   
  8   4  22  1   
  9   5   8  ar  
 10   5   9  ar  
 11   6   8  1   
 12   6  23  1   
 13   7  10  1   
 14   7  24  1   
 15   7  25  1   
 16   8  11  ar  
 17   9  12  ar  
 18   9  26  1   
 19  10  13  2   
 20  10  14  am  
 21  11  15  ar  
 22  11  27  1   
 23  12  15  ar  
 24  12  16  1   
 25  14  17  1   
 26  14  28  1   
 27  15  18  1   
 28  16  29  1   
 29  16  30  1   
 30  16  31  1   
 31  17  19  1   
 32  17  32  1   
 33  17  33  1   
 34  18  34  1   
 35  18  35  1   
 36  18  36  1   
 37  19  20  2   
 38  19  37  1   
 39  20  38  1   
 40  20  39  1   
@<TRIPOS>SUBSTRUCTURE
  1 ****   6 GROUP 4 **** **** 0

# MOE 2024.06 (io_trps.svl 2023.06)
