@<TRIPOS>MOLECULE
NONAME
51 52 1 0 0 
SMALL
USER_CHARGES


@<TRIPOS>ATOM
  1 O       -2.0260     2.9630    -0.7510 O.3   1 <1>  -0.5600 
  2 C       -2.9500     3.9820    -0.5030 C.3   1 <1>   0.1200 
  3 C       -2.1990     1.8090     0.0180 C.3   1 <1>   0.1200 
  4 C       -4.3820     3.4810    -0.7760 C.3   1 <1>   0.3430 
  5 C       -3.5940     1.2060    -0.2330 C.3   1 <1>   0.3430 
  6 N       -4.6860     2.2190    -0.0080 N.4   1 <1>  -0.9590 
  7 C       -6.0140     1.6440    -0.3570 C.3   1 <1>   0.3430 
  8 C       -7.1450     2.5210     0.1860 C.3   1 <1>  -0.1600 
  9 C       -8.5060     1.8680    -0.0950 C.3   1 <1>  -0.1600 
 10 C       -9.6680     2.7070     0.4400 C.3   1 <1>   0.1200 
 11 O      -10.8570     2.0270     0.1250 O.3   1 <1>  -0.3630 
 12 C      -12.0710     2.5250     0.4720 C.ar  1 <1>   0.0820 
 13 C      -13.1780     1.7750     0.1060 C.ar  1 <1>  -0.1500 
 14 C      -12.2480     3.7210     1.1580 C.ar  1 <1>  -0.1500 
 15 C      -14.4730     2.1860     0.4080 C.ar  1 <1>  -0.1430 
 16 C      -13.5260     4.1470     1.4660 C.ar  1 <1>  -0.1500 
 17 C      -14.6220     3.3870     1.0950 C.ar  1 <1>  -0.1500 
 18 C      -15.7270     1.3740     0.0160 C.3   1 <1>   0.1430 
 19 C      -16.5070     0.9900     1.2820 C.3   1 <1>  -0.2400 
 20 C      -15.3960     0.0740    -0.7370 C.3   1 <1>  -0.2400 
 21 C      -16.6230     2.2230    -0.8990 C.3   1 <1>  -0.2400 
 22 H       -2.7140     4.8030    -1.1580 H     1 <1>   0.0800 
 23 H       -2.8380     4.3130     0.5150 H     1 <1>   0.0800 
 24 H       -2.0600     2.0580     1.0560 H     1 <1>   0.0800 
 25 H       -1.4340     1.1080    -0.2710 H     1 <1>   0.0800 
 26 H       -4.4790     3.2960    -1.8330 H     1 <1>   0.0800 
 27 H       -5.0820     4.2550    -0.5100 H     1 <1>   0.0800 
 28 H       -3.7370     0.3580     0.4170 H     1 <1>   0.0800 
 29 H       -3.6300     0.8530    -1.2510 H     1 <1>   0.0800 
 30 H       -4.6860     2.4520     0.9940 H     1 <1>   0.4500 
 31 H       -6.1050     0.6600     0.0750 H     1 <1>   0.0800 
 32 H       -6.1070     1.5470    -1.4280 H     1 <1>   0.0800 
 33 H       -7.1260     3.4890    -0.2830 H     1 <1>   0.0800 
 34 H       -7.0310     2.6430     1.2500 H     1 <1>   0.0800 
 35 H       -8.5480     0.8970     0.3700 H     1 <1>   0.0800 
 36 H       -8.6380     1.7430    -1.1570 H     1 <1>   0.0800 
 37 H       -9.6980     3.6750    -0.0320 H     1 <1>   0.0800 
 38 H       -9.6120     2.8120     1.5100 H     1 <1>   0.0800 
 39 H      -12.9850     0.8610    -0.4210 H     1 <1>   0.1500 
 40 H      -11.4180     4.3290     1.4580 H     1 <1>   0.1500 
 41 H      -13.6720     5.0710     1.9970 H     1 <1>   0.1500 
 42 H      -15.6010     3.7480     1.3510 H     1 <1>   0.1500 
 43 H      -15.8750     0.4250     1.9430 H     1 <1>   0.0800 
 44 H      -17.3650     0.3920     1.0330 H     1 <1>   0.0800 
 45 H      -16.8490     1.8620     1.8070 H     1 <1>   0.0800 
 46 H      -14.8690     0.2910    -1.6500 H     1 <1>   0.0800 
 47 H      -16.2960    -0.4570    -0.9900 H     1 <1>   0.0800 
 48 H      -14.7880    -0.5700    -0.1270 H     1 <1>   0.0800 
 49 H      -16.0730     2.5260    -1.7720 H     1 <1>   0.0800 
 50 H      -16.9670     3.1070    -0.3940 H     1 <1>   0.0800 
 51 H      -17.4850     1.6620    -1.2140 H     1 <1>   0.0800 
@<TRIPOS>BOND
  1   1   2  1   
  2   1   3  1   
  3   2   4  1   
  4   2  22  1   
  5   2  23  1   
  6   3   5  1   
  7   3  24  1   
  8   3  25  1   
  9   4   6  1   
 10   4  26  1   
 11   4  27  1   
 12   5   6  1   
 13   5  28  1   
 14   5  29  1   
 15   6   7  1   
 16   6  30  1   
 17   7   8  1   
 18   7  31  1   
 19   7  32  1   
 20   8   9  1   
 21   8  33  1   
 22   8  34  1   
 23   9  10  1   
 24   9  35  1   
 25   9  36  1   
 26  10  11  1   
 27  10  37  1   
 28  10  38  1   
 29  11  12  1   
 30  12  13  ar  
 31  12  14  ar  
 32  13  15  ar  
 33  13  39  1   
 34  14  16  ar  
 35  14  40  1   
 36  15  17  ar  
 37  15  18  1   
 38  16  17  ar  
 39  16  41  1   
 40  17  42  1   
 41  18  19  1   
 42  18  20  1   
 43  18  21  1   
 44  19  43  1   
 45  19  44  1   
 46  19  45  1   
 47  20  46  1   
 48  20  47  1   
 49  20  48  1   
 50  21  49  1   
 51  21  50  1   
 52  21  51  1   
@<TRIPOS>SUBSTRUCTURE
  1 ****  10 GROUP 4 **** **** 0

# MOE 2024.06 (io_trps.svl 2023.06)
