@<TRIPOS>MOLECULE
NONAME
50 51 1 0 0 
SMALL
USER_CHARGES


@<TRIPOS>ATOM
  1 S       -1.4410     1.2250    -0.9520 S.o2  1 <1>   1.4470 
  2 O       -2.2450     2.4220    -1.0920 O.2   1 <1>  -0.6500 
  3 O       -1.7350     0.0880    -1.7970 O.2   1 <1>  -0.6500 
  4 N       -1.5840     0.7340     0.6660 N.am  1 <1>  -0.8490 
  5 C        0.3140     1.6530    -1.1400 C.ar  1 <1>  -0.0090 
  6 C       -1.4790     1.8520     1.6040 C.3   1 <1>   0.1960 
  7 C       -2.7710    -0.0890     0.9010 C.3   1 <1>   0.1960 
  8 C        1.2960     1.0700    -0.3490 C.ar  1 <1>  -0.1500 
  9 C        0.7180     2.5700    -2.1030 C.ar  1 <1>  -0.1500 
 10 C       -0.9820     1.3450     2.9560 C.3   1 <1>  -0.2400 
 11 C       -2.3410    -1.5500     0.9630 C.3   1 <1>  -0.2400 
 12 C        2.6390     1.3970    -0.4810 C.ar  1 <1>   0.1170 
 13 C        2.0520     2.9000    -2.2700 C.ar  1 <1>  -0.1500 
 14 N        3.6370     0.8320     0.3290 N.am  1 <1>  -0.5470 
 15 C        3.0190     2.3140    -1.4640 C.ar  1 <1>   0.0820 
 16 C        3.6110     0.2270     1.5540 C.2   1 <1>   0.5690 
 17 O        4.3510     2.5900    -1.5800 O.3   1 <1>  -0.3630 
 18 O        2.6000     0.0530     2.1920 O.2   1 <1>  -0.5700 
 19 C        4.9260    -0.2390     2.1580 C.3   1 <1>   0.0440 
 20 C        4.8390     3.4830    -2.5560 C.3   1 <1>   0.0400 
 21 C        6.1410     0.1820     1.3360 C.ar  1 <1>  -0.1440 
 22 C        6.7340     1.4170     1.5490 C.ar  1 <1>  -0.1500 
 23 C        6.6450    -0.6550     0.3530 C.ar  1 <1>  -0.1500 
 24 C        7.8180     1.8120     0.7840 C.ar  1 <1>  -0.1500 
 25 C        7.7290    -0.2610    -0.4120 C.ar  1 <1>  -0.1500 
 26 C        8.3150     0.9740    -0.1970 C.ar  1 <1>  -0.1500 
 27 H       -2.4280     2.3530     1.7010 H     1 <1>   0.0800 
 28 H       -0.7630     2.5700     1.2380 H     1 <1>   0.0800 
 29 H       -3.4990     0.0540     0.1180 H     1 <1>   0.0800 
 30 H       -3.2430     0.1710     1.8340 H     1 <1>   0.0800 
 31 H        1.0010     0.3410     0.3850 H     1 <1>   0.1500 
 32 H       -0.0260     3.0320    -2.7320 H     1 <1>   0.1500 
 33 H       -1.6860     0.6700     3.4050 H     1 <1>   0.0800 
 34 H       -0.8380     2.1760     3.6220 H     1 <1>   0.0800 
 35 H       -0.0370     0.8430     2.8350 H     1 <1>   0.0800 
 36 H       -1.9090    -1.8540     0.0270 H     1 <1>   0.0800 
 37 H       -3.1940    -2.1720     1.1620 H     1 <1>   0.0800 
 38 H       -1.6210    -1.6900     1.7490 H     1 <1>   0.0800 
 39 H        2.3110     3.6110    -3.0310 H     1 <1>   0.1500 
 40 H        4.5820     1.0150    -0.0290 H     1 <1>   0.3700 
 41 H        4.8960    -1.3100     2.2450 H     1 <1>   0.0800 
 42 H        5.0030     0.1630     3.1520 H     1 <1>   0.0800 
 43 H        5.9090     3.5290    -2.4600 H     1 <1>   0.0800 
 44 H        4.4150     4.4560    -2.3830 H     1 <1>   0.0800 
 45 H        4.5750     3.1140    -3.5310 H     1 <1>   0.0800 
 46 H        6.3550     2.0810     2.3070 H     1 <1>   0.1500 
 47 H        6.1960    -1.6180     0.1730 H     1 <1>   0.1500 
 48 H        8.2740     2.7720     0.9530 H     1 <1>   0.1500 
 49 H        8.1160    -0.9140    -1.1750 H     1 <1>   0.1500 
 50 H        9.1580     1.2810    -0.7920 H     1 <1>   0.1500 
@<TRIPOS>BOND
  1   1   2  2   
  2   1   3  2   
  3   1   4  am  
  4   1   5  1   
  5   4   6  1   
  6   4   7  1   
  7   5   8  ar  
  8   5   9  ar  
  9   6  10  1   
 10   6  27  1   
 11   6  28  1   
 12   7  11  1   
 13   7  29  1   
 14   7  30  1   
 15   8  12  ar  
 16   8  31  1   
 17   9  13  ar  
 18   9  32  1   
 19  10  33  1   
 20  10  34  1   
 21  10  35  1   
 22  11  36  1   
 23  11  37  1   
 24  11  38  1   
 25  12  14  1   
 26  12  15  ar  
 27  13  15  ar  
 28  13  39  1   
 29  14  16  am  
 30  14  40  1   
 31  15  17  1   
 32  16  18  2   
 33  16  19  1   
 34  17  20  1   
 35  19  21  1   
 36  19  41  1   
 37  19  42  1   
 38  20  43  1   
 39  20  44  1   
 40  20  45  1   
 41  21  22  ar  
 42  21  23  ar  
 43  22  24  ar  
 44  22  46  1   
 45  23  25  ar  
 46  23  47  1   
 47  24  26  ar  
 48  24  48  1   
 49  25  26  ar  
 50  25  49  1   
 51  26  50  1   
@<TRIPOS>SUBSTRUCTURE
  1 ****  12 GROUP 4 **** **** 0

# MOE 2024.06 (io_trps.svl 2023.06)
