@<TRIPOS>MOLECULE
NONAME
40 41 1 0 0 
SMALL
USER_CHARGES


@<TRIPOS>ATOM
  1 S       -0.1670     0.0410    -0.7560 S.o2  1 <1>   1.3330 
  2 O        0.9370    -0.8760    -0.9210 O.2   1 <1>  -0.6500 
  3 O       -0.5110     0.9740    -1.8040 O.2   1 <1>  -0.6500 
  4 N       -1.5510    -0.8690    -0.3990 N.am  1 <1>  -0.8490 
  5 C        0.1370     0.9840     0.7260 C.3   1 <1>  -0.1350 
  6 C       -2.7620    -0.0670    -0.1810 C.3   1 <1>   0.1960 
  7 C       -1.3520    -1.9130     0.6090 C.3   1 <1>   0.1960 
  8 C       -4.0090    -0.9610    -0.1890 C.3   1 <1>  -0.0190 
  9 C       -2.5600    -2.8560     0.6310 C.3   1 <1>  -0.1600 
 10 C       -5.2520    -0.1220     0.0690 C.2   1 <1>   0.5690 
 11 C       -3.8750    -2.0940     0.8470 C.3   1 <1>  -0.1600 
 12 O       -5.2120     0.7100     0.9430 O.2   1 <1>  -0.5700 
 13 N       -6.3590    -0.3750    -0.6950 N.am  1 <1>  -0.5470 
 14 C       -7.6320     0.2170    -0.7060 C.ar  1 <1>   0.1170 
 15 C       -7.8880     1.4870    -0.1960 C.ar  1 <1>  -0.1500 
 16 C       -8.6880    -0.4910    -1.2690 C.ar  1 <1>  -0.1500 
 17 C       -9.1600     2.0350    -0.2370 C.ar  1 <1>  -0.1440 
 18 C       -9.9610     0.0490    -1.3170 C.ar  1 <1>  -0.1500 
 19 C      -10.1970     1.3110    -0.8010 C.ar  1 <1>  -0.1500 
 20 C       -9.4250     3.4190     0.3270 C.3   1 <1>  -0.0970 
 21 H        1.0100     1.5910     0.5930 H     1 <1>   0.0800 
 22 H        0.3020     0.3320     1.5600 H     1 <1>   0.0800 
 23 H       -0.6930     1.6280     0.9400 H     1 <1>   0.0800 
 24 H       -2.8590     0.6670    -0.9640 H     1 <1>   0.0800 
 25 H       -2.6920     0.4530     0.7610 H     1 <1>   0.0800 
 26 H       -1.2180    -1.4680     1.5800 H     1 <1>   0.0800 
 27 H       -0.4710    -2.4860     0.3700 H     1 <1>   0.0800 
 28 H       -4.0840    -1.3920    -1.1700 H     1 <1>   0.0800 
 29 H       -2.4290    -3.5820     1.4140 H     1 <1>   0.0800 
 30 H       -2.5950    -3.3880    -0.3040 H     1 <1>   0.0800 
 31 H       -4.7080    -2.7700     0.7650 H     1 <1>   0.0800 
 32 H       -3.8860    -1.6730     1.8380 H     1 <1>   0.0800 
 33 H       -6.2610    -1.1500    -1.3470 H     1 <1>   0.3700 
 34 H       -7.0870     2.0570     0.2340 H     1 <1>   0.1500 
 35 H       -8.5210    -1.4720    -1.6710 H     1 <1>   0.1500 
 36 H      -10.7700    -0.5110    -1.7530 H     1 <1>   0.1500 
 37 H      -11.1890     1.7270    -0.8390 H     1 <1>   0.1500 
 38 H       -8.5700     3.7800     0.8710 H     1 <1>   0.0800 
 39 H      -10.2650     3.3890     0.9970 H     1 <1>   0.0800 
 40 H       -9.6390     4.1040    -0.4730 H     1 <1>   0.0800 
@<TRIPOS>BOND
  1   1   2  2   
  2   1   3  2   
  3   1   4  am  
  4   1   5  1   
  5   4   6  1   
  6   4   7  1   
  7   5  21  1   
  8   5  22  1   
  9   5  23  1   
 10   6   8  1   
 11   6  24  1   
 12   6  25  1   
 13   7   9  1   
 14   7  26  1   
 15   7  27  1   
 16   8  10  1   
 17   8  11  1   
 18   8  28  1   
 19   9  11  1   
 20   9  29  1   
 21   9  30  1   
 22  10  12  2   
 23  10  13  am  
 24  11  31  1   
 25  11  32  1   
 26  13  14  1   
 27  13  33  1   
 28  14  15  ar  
 29  14  16  ar  
 30  15  17  ar  
 31  15  34  1   
 32  16  18  ar  
 33  16  35  1   
 34  17  19  ar  
 35  17  20  1   
 36  18  19  ar  
 37  18  36  1   
 38  19  37  1   
 39  20  38  1   
 40  20  39  1   
 41  20  40  1   
@<TRIPOS>SUBSTRUCTURE
  1 ****  10 GROUP 4 **** **** 0

# MOE 2024.06 (io_trps.svl 2023.06)
