@<TRIPOS>MOLECULE
NONAME
34 34 1 0 0 
SMALL
USER_CHARGES


@<TRIPOS>ATOM
  1 CL       0.4300     0.5400     0.5910 Cl    1 <1>  -0.1770 
  2 C       -1.1030     1.3630     0.3890 C.ar  1 <1>   0.1770 
  3 C       -1.2120     2.4280    -0.5040 C.ar  1 <1>   0.1170 
  4 C       -2.1790     0.9210     1.1320 C.ar  1 <1>  -0.1500 
  5 N       -0.1090     2.8720    -1.2510 N.am  1 <1>  -0.5470 
  6 C       -2.4600     3.0350    -0.6560 C.ar  1 <1>  -0.1430 
  7 C       -3.4090     1.5390     0.9890 C.ar  1 <1>  -0.1430 
  8 C        0.9330     3.7120    -0.9880 C.2   1 <1>   0.5690 
  9 C       -3.5390     2.5890     0.0920 C.ar  1 <1>  -0.1500 
 10 C       -2.6590     4.1840    -1.6390 C.3   1 <1>  -0.0960 
 11 C       -4.6060     1.0710     1.7960 C.3   1 <1>  -0.0960 
 12 O        1.7400     3.8540    -1.8750 O.2   1 <1>  -0.5700 
 13 C        1.1670     4.4840     0.3480 C.3   1 <1>   0.0610 
 14 C       -0.0540     4.5980     1.2860 C.3   1 <1>  -0.2400 
 15 C        2.2990     3.8000     1.1360 C.3   1 <1>  -0.2400 
 16 C        1.6140     5.9290     0.0380 C.3   1 <1>  -0.2400 
 17 H       -2.0480     0.0990     1.8120 H     1 <1>   0.1500 
 18 H       -0.0220     2.4630    -2.1810 H     1 <1>   0.3700 
 19 H       -4.5000     3.0600    -0.0230 H     1 <1>   0.1500 
 20 H       -1.9640     4.9770    -1.4330 H     1 <1>   0.0800 
 21 H       -3.6550     4.5830    -1.5730 H     1 <1>   0.0800 
 22 H       -2.4980     3.8370    -2.6440 H     1 <1>   0.0800 
 23 H       -4.2890     0.5410     2.6760 H     1 <1>   0.0800 
 24 H       -5.2150     0.4170     1.1990 H     1 <1>   0.0800 
 25 H       -5.2010     1.9130     2.1050 H     1 <1>   0.0800 
 26 H       -0.3310     3.6380     1.6790 H     1 <1>   0.0800 
 27 H       -0.8940     5.0200     0.7650 H     1 <1>   0.0800 
 28 H        0.1710     5.2320     2.1250 H     1 <1>   0.0800 
 29 H        2.5230     4.3390     2.0380 H     1 <1>   0.0800 
 30 H        2.0180     2.7960     1.3980 H     1 <1>   0.0800 
 31 H        3.1920     3.7510     0.5360 H     1 <1>   0.0800 
 32 H        2.5180     5.9290    -0.5460 H     1 <1>   0.0800 
 33 H        0.8530     6.4400    -0.5250 H     1 <1>   0.0800 
 34 H        1.8020     6.4810     0.9420 H     1 <1>   0.0800 
@<TRIPOS>BOND
  1   1   2  1   
  2   2   3  ar  
  3   2   4  ar  
  4   3   5  1   
  5   3   6  ar  
  6   4   7  ar  
  7   4  17  1   
  8   5   8  am  
  9   5  18  1   
 10   6   9  ar  
 11   6  10  1   
 12   7   9  ar  
 13   7  11  1   
 14   8  12  2   
 15   8  13  1   
 16   9  19  1   
 17  10  20  1   
 18  10  21  1   
 19  10  22  1   
 20  11  23  1   
 21  11  24  1   
 22  11  25  1   
 23  13  14  1   
 24  13  15  1   
 25  13  16  1   
 26  14  26  1   
 27  14  27  1   
 28  14  28  1   
 29  15  29  1   
 30  15  30  1   
 31  15  31  1   
 32  16  32  1   
 33  16  33  1   
 34  16  34  1   
@<TRIPOS>SUBSTRUCTURE
  1 ****   3 GROUP 4 **** **** 0

# MOE 2024.06 (io_trps.svl 2023.06)
