@<TRIPOS>MOLECULE
NONAME
26 26 1 0 0 
SMALL
USER_CHARGES


@<TRIPOS>ATOM
  1 BR      -0.1490     0.2370     0.0370 Br    1 <1>  -0.1110 
  2 C        1.7740     0.0710     0.0180 C.ar  1 <1>   0.1110 
  3 C        2.3600    -1.1840    -0.0310 C.ar  1 <1>  -0.1440 
  4 C        2.5140     1.2370     0.0550 C.ar  1 <1>  -0.1500 
  5 C        3.7450    -1.2510    -0.0430 C.ar  1 <1>  -0.1500 
  6 C        1.5220    -2.4530    -0.0710 C.3   1 <1>  -0.0960 
  7 C        3.8980     1.1610     0.0430 C.ar  1 <1>  -0.1430 
  8 C        4.5170    -0.0870    -0.0060 C.ar  1 <1>   0.0830 
  9 C        4.7200     2.4410     0.0840 C.3   1 <1>  -0.0960 
 10 O        5.8770    -0.1070    -0.0160 O.3   1 <1>  -0.3630 
 11 C        6.6030    -1.3300    -0.0650 C.3   1 <1>   0.1810 
 12 C        8.1090    -1.0890    -0.0670 C.2   1 <1>   0.5690 
 13 O        8.8560    -2.0320    -0.1060 O.2   1 <1>  -0.5700 
 14 N        8.6070     0.1640    -0.0250 N.am  1 <1>  -0.8000 
 15 H        2.0070     2.1830     0.0930 H     1 <1>   0.1500 
 16 H        4.2060    -2.2180    -0.0810 H     1 <1>   0.1500 
 17 H        0.8910    -2.4480    -0.9420 H     1 <1>   0.0800 
 18 H        0.9030    -2.5110     0.8060 H     1 <1>   0.0800 
 19 H        2.1440    -3.3280    -0.1070 H     1 <1>   0.0800 
 20 H        4.0870     3.3090     0.1190 H     1 <1>   0.0800 
 21 H        5.3390     2.5040    -0.7940 H     1 <1>   0.0800 
 22 H        5.3500     2.4410     0.9550 H     1 <1>   0.0800 
 23 H        6.3300    -1.8520    -0.9630 H     1 <1>   0.0800 
 24 H        6.3420    -1.9150     0.7970 H     1 <1>   0.0800 
 25 H        9.6150     0.3200    -0.0260 H     1 <1>   0.3700 
 26 H        7.9970     0.9820     0.0090 H     1 <1>   0.3700 
@<TRIPOS>BOND
  1   1   2  1   
  2   2   3  ar  
  3   2   4  ar  
  4   3   5  ar  
  5   3   6  1   
  6   4   7  ar  
  7   4  15  1   
  8   5   8  ar  
  9   5  16  1   
 10   6  17  1   
 11   6  18  1   
 12   6  19  1   
 13   7   8  ar  
 14   7   9  1   
 15   8  10  1   
 16   9  20  1   
 17   9  21  1   
 18   9  22  1   
 19  10  11  1   
 20  11  12  1   
 21  11  23  1   
 22  11  24  1   
 23  12  13  2   
 24  12  14  am  
 25  14  25  1   
 26  14  26  1   
@<TRIPOS>SUBSTRUCTURE
  1 ****   8 GROUP 4 **** **** 0

# MOE 2024.06 (io_trps.svl 2023.06)
