@<TRIPOS>MOLECULE
NONAME
46 47 1 0 0 
SMALL
USER_CHARGES


@<TRIPOS>ATOM
  1 O        0.5410     1.5010     2.1570 O.2   1 <1>  -0.5700 
  2 C       -0.0810     1.9520     1.2230 C.2   1 <1>   0.5690 
  3 N        0.3900     1.8760    -0.0500 N.am  1 <1>  -0.7300 
  4 C       -1.4280     2.6400     1.4920 C.3   1 <1>   0.2610 
  5 C        1.6530     1.2360    -0.4750 C.3   1 <1>   0.2200 
  6 O       -2.1460     2.7990     0.2710 O.3   1 <1>  -0.3630 
  7 C       -1.2380     4.0300     2.1190 C.3   1 <1>  -0.2400 
  8 C        2.7490     2.3010    -0.7040 C.3   1 <1>   0.2000 
  9 C        1.3480     0.4240    -1.7340 C.3   1 <1>  -0.2400 
 10 C       -3.4950     2.9420     0.2160 C.ar  1 <1>   0.0820 
 11 O        3.9310     1.7060    -1.1570 O.3   1 <1>  -0.5600 
 12 C        3.1410     3.0820     0.5460 C.3   1 <1>  -0.1600 
 13 C       -4.0460     3.1130    -1.0430 C.ar  1 <1>  -0.1500 
 14 C       -4.3340     2.9230     1.3280 C.ar  1 <1>  -0.1500 
 15 C        5.0640     2.2980    -0.5970 C.3   1 <1>   0.1200 
 16 C        4.5760     3.4630     0.2540 C.3   1 <1>  -0.1600 
 17 C       -5.4130     3.2640    -1.1990 C.ar  1 <1>  -0.1500 
 18 C       -5.7000     3.0750     1.1680 C.ar  1 <1>  -0.1500 
 19 C       -6.2480     3.2460    -0.0940 C.ar  1 <1>  -0.1430 
 20 C       -7.7500     3.4100    -0.2640 C.3   1 <1>  -0.0170 
 21 C       -8.4200     2.0460    -0.4400 C.3   1 <1>  -0.2400 
 22 H       -0.2070     2.2380    -0.7980 H     1 <1>   0.3700 
 23 H       -1.9890     1.9940     2.1400 H     1 <1>   0.0800 
 24 H        1.9850     0.5690     0.3040 H     1 <1>   0.0800 
 25 H       -0.6640     4.6550     1.4600 H     1 <1>   0.0800 
 26 H       -0.7030     3.9340     3.0470 H     1 <1>   0.0800 
 27 H       -2.1850     4.4950     2.3190 H     1 <1>   0.0800 
 28 H        2.4370     2.9830    -1.4750 H     1 <1>   0.0800 
 29 H        1.0400     1.0680    -2.5370 H     1 <1>   0.0800 
 30 H        0.5780    -0.2990    -1.5320 H     1 <1>   0.0800 
 31 H        2.2310    -0.1050    -2.0450 H     1 <1>   0.0800 
 32 H        3.0930     2.4380     1.4080 H     1 <1>   0.0800 
 33 H        2.5040     3.9330     0.7050 H     1 <1>   0.0800 
 34 H       -3.4010     3.1260    -1.9020 H     1 <1>   0.1500 
 35 H       -3.9520     2.7940     2.3210 H     1 <1>   0.1500 
 36 H        5.7210     2.6170    -1.3880 H     1 <1>   0.0800 
 37 H        5.5510     1.5550     0.0100 H     1 <1>   0.0800 
 38 H        5.1640     3.5850     1.1460 H     1 <1>   0.0800 
 39 H        4.6150     4.3680    -0.3260 H     1 <1>   0.0800 
 40 H       -5.8240     3.3930    -2.1850 H     1 <1>   0.1500 
 41 H       -6.3410     3.0570     2.0320 H     1 <1>   0.1500 
 42 H       -7.9540     4.0260    -1.1220 H     1 <1>   0.0800 
 43 H       -8.1610     3.9060     0.5980 H     1 <1>   0.0800 
 44 H       -8.0280     1.5500    -1.3100 H     1 <1>   0.0800 
 45 H       -9.4820     2.1670    -0.5590 H     1 <1>   0.0800 
 46 H       -8.2350     1.4280     0.4200 H     1 <1>   0.0800 
@<TRIPOS>BOND
  1   1   2  2   
  2   2   3  am  
  3   2   4  1   
  4   3   5  1   
  5   3  22  1   
  6   4   6  1   
  7   4   7  1   
  8   4  23  1   
  9   5   8  1   
 10   5   9  1   
 11   5  24  1   
 12   6  10  1   
 13   7  25  1   
 14   7  26  1   
 15   7  27  1   
 16   8  11  1   
 17   8  12  1   
 18   8  28  1   
 19   9  29  1   
 20   9  30  1   
 21   9  31  1   
 22  10  13  ar  
 23  10  14  ar  
 24  11  15  1   
 25  12  16  1   
 26  12  32  1   
 27  12  33  1   
 28  13  17  ar  
 29  13  34  1   
 30  14  18  ar  
 31  14  35  1   
 32  15  16  1   
 33  15  36  1   
 34  15  37  1   
 35  16  38  1   
 36  16  39  1   
 37  17  19  ar  
 38  17  40  1   
 39  18  19  ar  
 40  18  41  1   
 41  19  20  1   
 42  20  21  1   
 43  20  42  1   
 44  20  43  1   
 45  21  44  1   
 46  21  45  1   
 47  21  46  1   
@<TRIPOS>SUBSTRUCTURE
  1 ****   6 GROUP 4 **** **** 0

# MOE 2024.06 (io_trps.svl 2023.06)
