@<TRIPOS>MOLECULE
NONAME
47 49 1 0 0 
SMALL
USER_CHARGES


@<TRIPOS>ATOM
  1 S       -0.9870     0.9330    -3.0190 S.3   1 <1>  -0.2860 
  2 C       -1.9830     0.7360    -1.5450 C.2   1 <1>   0.2420 
  3 C        0.2330     2.2220    -2.5190 C.3   1 <1>   0.0700 
  4 N       -2.5500     1.7330    -0.9620 N.2   1 <1>  -0.5650 
  5 N       -2.1650    -0.4830    -0.9730 N.pl3 1 <1>   0.0480 
  6 C        1.2940     1.5200    -1.6770 C.3   1 <1>   0.1200 
  7 C       -3.1830     1.1440     0.0900 C.ar  1 <1>   0.2270 
  8 C       -2.9570    -0.2240     0.1050 C.ar  1 <1>  -0.1520 
  9 C       -1.3710    -1.7110    -1.2040 C.3   1 <1>   0.0960 
 10 O        2.3120     2.4410    -1.3470 O.3   1 <1>  -0.3620 
 11 C       -3.9680     1.7280     1.0820 C.ar  1 <1>  -0.1500 
 12 C       -3.4960    -1.0330     1.1080 C.ar  1 <1>  -0.1500 
 13 C       -0.2620    -1.8280    -0.1570 C.3   1 <1>  -0.2660 
 14 C        3.3750     2.0350    -0.6070 C.ar  1 <1>   0.0830 
 15 C       -4.5070     0.9340     2.0720 C.ar  1 <1>  -0.1500 
 16 C       -4.2690    -0.4460     2.0840 C.ar  1 <1>  -0.1500 
 17 C        0.7400    -2.8370    -0.6240 C.2   1 <1>   0.9060 
 18 C        3.6090     0.7100    -0.2460 C.ar  1 <1>  -0.1500 
 19 C        4.2660     3.0110    -0.1970 C.ar  1 <1>  -0.1500 
 20 O        1.8730    -2.4440    -0.9060 O.co2 1 <1>  -0.9000 
 21 O        0.3720    -4.0060    -0.7410 O.co2 1 <1>  -0.9000 
 22 C        4.7150     0.3670     0.5150 C.ar  1 <1>  -0.1430 
 23 C        5.3720     2.6750     0.5630 C.ar  1 <1>  -0.1500 
 24 C        5.6050     1.3560     0.9240 C.ar  1 <1>  -0.1430 
 25 C        4.9150    -1.1000     0.8730 C.3   1 <1>  -0.0970 
 26 C        6.8290     1.0190     1.7610 C.3   1 <1>  -0.0970 
 27 H       -0.2950     2.9710    -1.9570 H     1 <1>   0.0800 
 28 H        0.6510     2.6300    -3.4200 H     1 <1>   0.0800 
 29 H        1.7330     0.7100    -2.2340 H     1 <1>   0.0800 
 30 H        0.8650     1.1530    -0.7620 H     1 <1>   0.0800 
 31 H       -0.9380    -1.6740    -2.1880 H     1 <1>   0.0800 
 32 H       -2.0140    -2.5710    -1.1560 H     1 <1>   0.0800 
 33 H       -4.1310     2.7880     1.0490 H     1 <1>   0.1500 
 34 H       -3.3020    -2.0920     1.1070 H     1 <1>   0.1500 
 35 H       -0.6580    -2.1560     0.7830 H     1 <1>   0.0800 
 36 H        0.2440    -0.8930    -0.0250 H     1 <1>   0.0800 
 37 H       -5.1150     1.3700     2.8450 H     1 <1>   0.1500 
 38 H       -4.6970    -1.0460     2.8680 H     1 <1>   0.1500 
 39 H        2.9410    -0.0770    -0.5520 H     1 <1>   0.1500 
 40 H        4.0860     4.0320    -0.4770 H     1 <1>   0.1500 
 41 H        6.0510     3.4500     0.8710 H     1 <1>   0.1500 
 42 H        4.1420    -1.7120     0.4420 H     1 <1>   0.0800 
 43 H        4.8850    -1.2270     1.9400 H     1 <1>   0.0800 
 44 H        5.8600    -1.4470     0.4990 H     1 <1>   0.0800 
 45 H        6.5270     0.5520     2.6810 H     1 <1>   0.0800 
 46 H        7.3910     1.9040     1.9980 H     1 <1>   0.0800 
 47 H        7.4680     0.3460     1.2190 H     1 <1>   0.0800 
@<TRIPOS>BOND
  1   1   2  1   
  2   1   3  1   
  3   2   4  2   
  4   2   5  1   
  5   3   6  1   
  6   3  27  1   
  7   3  28  1   
  8   4   7  1   
  9   5   8  1   
 10   5   9  1   
 11   6  10  1   
 12   6  29  1   
 13   6  30  1   
 14   7   8  ar  
 15   7  11  ar  
 16   8  12  ar  
 17   9  13  1   
 18   9  31  1   
 19   9  32  1   
 20  10  14  1   
 21  11  15  ar  
 22  11  33  1   
 23  12  16  ar  
 24  12  34  1   
 25  13  17  1   
 26  13  35  1   
 27  13  36  1   
 28  14  18  ar  
 29  14  19  ar  
 30  15  16  ar  
 31  15  37  1   
 32  16  38  1   
 33  17  20  ar  
 34  17  21  ar  
 35  18  22  ar  
 36  18  39  1   
 37  19  23  ar  
 38  19  40  1   
 39  22  24  ar  
 40  22  25  1   
 41  23  24  ar  
 42  23  41  1   
 43  24  26  1   
 44  25  42  1   
 45  25  43  1   
 46  25  44  1   
 47  26  45  1   
 48  26  46  1   
 49  26  47  1   
@<TRIPOS>SUBSTRUCTURE
  1 ****   6 GROUP 4 **** **** 0

# MOE 2024.06 (io_trps.svl 2023.06)
