@<TRIPOS>MOLECULE
NONAME
40 41 1 0 0 
SMALL
USER_CHARGES


@<TRIPOS>ATOM
  1 O       -0.3240     0.3710    -0.7380 O.3   1 <1>  -0.3630 
  2 C        0.9250     0.7490    -0.3440 C.ar  1 <1>   0.0830 
  3 C       -1.4510     1.1490    -0.3920 C.3   1 <1>   0.1200 
  4 C        1.3890     2.0730    -0.2740 C.ar  1 <1>   0.0830 
  5 C        1.7730    -0.2910    -0.0010 C.ar  1 <1>  -0.1500 
  6 C       -2.6800     0.2480    -0.4330 C.3   1 <1>   0.1200 
  7 O        0.5710     3.0970    -0.6570 O.3   1 <1>  -0.3630 
  8 C        2.6900     2.3070     0.1700 C.ar  1 <1>  -0.1500 
  9 C        3.0630    -0.0420     0.4310 C.ar  1 <1>  -0.1500 
 10 O       -3.8130     1.0120    -0.0780 O.3   1 <1>  -0.3630 
 11 C        1.0340     4.4250    -0.7660 C.3   1 <1>   0.0400 
 12 C        3.5250     1.2590     0.5240 C.ar  1 <1>  -0.1430 
 13 C       -5.0480     0.4530    -0.0250 C.ar  1 <1>   0.0830 
 14 C        4.9400     1.5370     1.0010 C.3   1 <1>  -0.0970 
 15 C       -6.0940     1.2840     0.3470 C.ar  1 <1>  -0.1500 
 16 C       -5.3070    -0.8830    -0.3190 C.ar  1 <1>  -0.1500 
 17 C       -7.3890     0.8000     0.4300 C.ar  1 <1>  -0.1430 
 18 C       -6.6010    -1.3690    -0.2380 C.ar  1 <1>  -0.1500 
 19 C       -7.6380    -0.5300     0.1340 C.ar  1 <1>  -0.1500 
 20 C       -8.5310     1.7140     0.8360 C.3   1 <1>  -0.0970 
 21 H       -1.5470     1.9430    -1.1100 H     1 <1>   0.0800 
 22 H       -1.3050     1.5440     0.5980 H     1 <1>   0.0800 
 23 H        1.4150    -1.3010    -0.0710 H     1 <1>   0.1500 
 24 H       -2.5770    -0.5520     0.2780 H     1 <1>   0.0800 
 25 H       -2.8280    -0.1340    -1.4270 H     1 <1>   0.0800 
 26 H        3.0750     3.3040     0.2460 H     1 <1>   0.1500 
 27 H        3.7030    -0.8660     0.6940 H     1 <1>   0.1500 
 28 H        0.2300     5.0270    -1.1480 H     1 <1>   0.0800 
 29 H        1.8650     4.4500    -1.4480 H     1 <1>   0.0800 
 30 H        1.3200     4.7760     0.2090 H     1 <1>   0.0800 
 31 H        4.9690     2.4420     1.5810 H     1 <1>   0.0800 
 32 H        5.5950     1.6440     0.1550 H     1 <1>   0.0800 
 33 H        5.2970     0.7300     1.6160 H     1 <1>   0.0800 
 34 H       -5.8780     2.3120     0.5690 H     1 <1>   0.1500 
 35 H       -4.5230    -1.5550    -0.6110 H     1 <1>   0.1500 
 36 H       -6.8030    -2.4010    -0.4660 H     1 <1>   0.1500 
 37 H       -8.6400    -0.9180     0.1930 H     1 <1>   0.1500 
 38 H       -8.1570     2.6150     1.2880 H     1 <1>   0.0800 
 39 H       -9.1680     1.2170     1.5470 H     1 <1>   0.0800 
 40 H       -9.1130     1.9770    -0.0290 H     1 <1>   0.0800 
@<TRIPOS>BOND
  1   1   2  1   
  2   1   3  1   
  3   2   4  ar  
  4   2   5  ar  
  5   3   6  1   
  6   3  21  1   
  7   3  22  1   
  8   4   7  1   
  9   4   8  ar  
 10   5   9  ar  
 11   5  23  1   
 12   6  10  1   
 13   6  24  1   
 14   6  25  1   
 15   7  11  1   
 16   8  12  ar  
 17   8  26  1   
 18   9  12  ar  
 19   9  27  1   
 20  10  13  1   
 21  11  28  1   
 22  11  29  1   
 23  11  30  1   
 24  12  14  1   
 25  13  15  ar  
 26  13  16  ar  
 27  14  31  1   
 28  14  32  1   
 29  14  33  1   
 30  15  17  ar  
 31  15  34  1   
 32  16  18  ar  
 33  16  35  1   
 34  17  19  ar  
 35  17  20  1   
 36  18  19  ar  
 37  18  36  1   
 38  19  37  1   
 39  20  38  1   
 40  20  39  1   
 41  20  40  1   
@<TRIPOS>SUBSTRUCTURE
  1 ****   3 GROUP 4 **** **** 0

# MOE 2024.06 (io_trps.svl 2023.06)
