@<TRIPOS>MOLECULE
NONAME
40 42 1 0 0 
SMALL
USER_CHARGES


@<TRIPOS>ATOM
  1 CL      -1.0660    -0.3580     1.7480 Cl    1 <1>  -0.1770 
  2 C       -2.5370     0.3630     1.1420 C.ar  1 <1>   0.1770 
  3 C       -3.7030     0.2450     1.8740 C.ar  1 <1>  -0.1500 
  4 C       -2.5160     1.0420    -0.0610 C.ar  1 <1>  -0.1500 
  5 C       -4.8660     0.8180     1.3890 C.ar  1 <1>  -0.1500 
  6 C       -3.6840     1.6120    -0.5380 C.ar  1 <1>  -0.1500 
  7 C       -4.8750     1.5070     0.1790 C.ar  1 <1>   0.1170 
  8 N       -6.0850     2.0660    -0.2570 N.am  1 <1>  -0.5470 
  9 C       -6.4780     2.6790    -1.4130 C.2   1 <1>   0.5690 
 10 O       -5.7670     2.8590    -2.3720 O.2   1 <1>  -0.5700 
 11 C       -7.9320     3.1550    -1.4590 C.3   1 <1>   0.1710 
 12 N       -8.8210     2.4530    -0.4830 N.3   1 <1>  -0.8100 
 13 C       -9.1470     1.0970    -0.9640 C.3   1 <1>   0.1100 
 14 C      -10.0500     3.2320    -0.2570 C.3   1 <1>   0.1100 
 15 C       -9.9400     0.3470     0.1060 C.3   1 <1>  -0.1600 
 16 C      -10.8840     2.5710     0.8410 C.3   1 <1>  -0.1600 
 17 C      -11.2010     1.1280     0.4730 C.3   1 <1>   0.5600 
 18 O      -12.1040     1.1150    -0.5870 O.3   1 <1>  -0.5600 
 19 O      -11.8630     0.5220     1.5290 O.3   1 <1>  -0.5600 
 20 C      -13.0070     0.0840    -0.4050 C.3   1 <1>   0.1200 
 21 C      -12.7910    -0.3690     1.0260 C.3   1 <1>   0.1200 
 22 H       -3.6960    -0.2880     2.8070 H     1 <1>   0.1500 
 23 H       -1.5980     1.1230    -0.6150 H     1 <1>   0.1500 
 24 H       -5.7760     0.7280     1.9550 H     1 <1>   0.1500 
 25 H       -3.6600     2.1420    -1.4720 H     1 <1>   0.1500 
 26 H       -6.8840     1.9720     0.3790 H     1 <1>   0.3700 
 27 H       -8.3100     3.0340    -2.4590 H     1 <1>   0.0800 
 28 H       -7.9190     4.2070    -1.2380 H     1 <1>   0.0800 
 29 H       -8.2440     0.5510    -1.1790 H     1 <1>   0.0800 
 30 H       -9.7280     1.1570    -1.8710 H     1 <1>   0.0800 
 31 H      -10.6250     3.2900    -1.1680 H     1 <1>   0.0800 
 32 H       -9.7970     4.2320     0.0520 H     1 <1>   0.0800 
 33 H       -9.3240     0.2420     0.9800 H     1 <1>   0.0800 
 34 H      -10.1970    -0.6320    -0.2510 H     1 <1>   0.0800 
 35 H      -11.7990     3.1120     0.9860 H     1 <1>   0.0800 
 36 H      -10.3250     2.5890     1.7580 H     1 <1>   0.0800 
 37 H      -12.7940    -0.7010    -1.1090 H     1 <1>   0.0800 
 38 H      -14.0020     0.4640    -0.5590 H     1 <1>   0.0800 
 39 H      -13.6900    -0.3110     1.6120 H     1 <1>   0.0800 
 40 H      -12.3800    -1.3620     1.0680 H     1 <1>   0.0800 
@<TRIPOS>BOND
  1   1   2  1   
  2   2   3  ar  
  3   2   4  ar  
  4   3   5  ar  
  5   3  22  1   
  6   4   6  ar  
  7   4  23  1   
  8   5   7  ar  
  9   5  24  1   
 10   6   7  ar  
 11   6  25  1   
 12   7   8  1   
 13   8   9  am  
 14   8  26  1   
 15   9  10  2   
 16   9  11  1   
 17  11  12  1   
 18  11  27  1   
 19  11  28  1   
 20  12  13  1   
 21  12  14  1   
 22  13  15  1   
 23  13  29  1   
 24  13  30  1   
 25  14  16  1   
 26  14  31  1   
 27  14  32  1   
 28  15  17  1   
 29  15  33  1   
 30  15  34  1   
 31  16  17  1   
 32  16  35  1   
 33  16  36  1   
 34  17  18  1   
 35  17  19  1   
 36  18  20  1   
 37  19  21  1   
 38  20  21  1   
 39  20  37  1   
 40  20  38  1   
 41  21  39  1   
 42  21  40  1   
@<TRIPOS>SUBSTRUCTURE
  1 ****   8 GROUP 4 **** **** 0

# MOE 2024.06 (io_trps.svl 2023.06)
