@<TRIPOS>MOLECULE
NONAME
38 39 1 0 0 
SMALL
USER_CHARGES


@<TRIPOS>ATOM
  1 S        0.0010     0.1700     0.5900 S.o2  1 <1>   1.4470 
  2 O       -0.3400     0.1550     1.9960 O.2   1 <1>  -0.6500 
  3 O        0.2640    -1.0800    -0.0890 O.2   1 <1>  -0.6500 
  4 N       -1.2970     0.9070    -0.2160 N.am  1 <1>  -0.8490 
  5 C        1.3750     1.3160     0.2860 C.ar  1 <1>  -0.0090 
  6 C       -1.7040     2.1660     0.4290 C.3   1 <1>   0.1960 
  7 C       -2.4370    -0.0090    -0.3200 C.3   1 <1>   0.1960 
  8 C        1.8580     1.5210    -1.0010 C.ar  1 <1>  -0.1500 
  9 C        1.9650     2.0320     1.3230 C.ar  1 <1>  -0.1500 
 10 C       -2.7580     2.8860    -0.4230 C.3   1 <1>  -0.0190 
 11 C       -3.5450     0.6150    -1.1770 C.3   1 <1>  -0.1600 
 12 C        2.8900     2.4090    -1.2470 C.ar  1 <1>  -0.1500 
 13 C        2.9980     2.9230     1.0880 C.ar  1 <1>  -0.1500 
 14 C       -3.1420     4.2090     0.2200 C.2   1 <1>   0.5690 
 15 C       -3.9850     1.9810    -0.6310 C.3   1 <1>  -0.1600 
 16 C        3.4670     3.1180    -0.2070 C.ar  1 <1>   0.0820 
 17 O       -3.2440     4.3000     1.4150 O.2   1 <1>  -0.5700 
 18 N       -3.3720     5.2850    -0.5550 N.am  1 <1>  -0.8000 
 19 O        4.4690     3.9700    -0.5280 O.3   1 <1>  -0.3620 
 20 C        5.1390     4.7240     0.4580 C.3   1 <1>   0.0400 
 21 H       -0.8510     2.8140     0.5410 H     1 <1>   0.0800 
 22 H       -2.1010     1.9660     1.4120 H     1 <1>   0.0800 
 23 H       -2.8130    -0.2380     0.6650 H     1 <1>   0.0800 
 24 H       -2.1230    -0.9320    -0.7810 H     1 <1>   0.0800 
 25 H        1.4170     0.9760    -1.8200 H     1 <1>   0.1500 
 26 H        1.6090     1.8890     2.3300 H     1 <1>   0.1500 
 27 H       -2.3120     3.0970    -1.3780 H     1 <1>   0.0800 
 28 H       -4.3890    -0.0520    -1.2050 H     1 <1>   0.0800 
 29 H       -3.1800     0.7240    -2.1830 H     1 <1>   0.0800 
 30 H        3.2550     2.5590    -2.2470 H     1 <1>   0.1500 
 31 H        3.4220     3.4530     1.9200 H     1 <1>   0.1500 
 32 H       -4.6770     2.4450    -1.3120 H     1 <1>   0.0800 
 33 H       -4.4870     1.8430     0.3120 H     1 <1>   0.0800 
 34 H       -3.6320     6.1680    -0.1120 H     1 <1>   0.3700 
 35 H       -3.3150     5.2850    -1.5730 H     1 <1>   0.3700 
 36 H        5.8930     5.3150    -0.0290 H     1 <1>   0.0800 
 37 H        5.5990     4.0510     1.1590 H     1 <1>   0.0800 
 38 H        4.4300     5.3680     0.9480 H     1 <1>   0.0800 
@<TRIPOS>BOND
  1   1   2  2   
  2   1   3  2   
  3   1   4  am  
  4   1   5  1   
  5   4   6  1   
  6   4   7  1   
  7   5   8  ar  
  8   5   9  ar  
  9   6  10  1   
 10   6  21  1   
 11   6  22  1   
 12   7  11  1   
 13   7  23  1   
 14   7  24  1   
 15   8  12  ar  
 16   8  25  1   
 17   9  13  ar  
 18   9  26  1   
 19  10  14  1   
 20  10  15  1   
 21  10  27  1   
 22  11  15  1   
 23  11  28  1   
 24  11  29  1   
 25  12  16  ar  
 26  12  30  1   
 27  13  16  ar  
 28  13  31  1   
 29  14  17  2   
 30  14  18  am  
 31  15  32  1   
 32  15  33  1   
 33  16  19  1   
 34  18  34  1   
 35  18  35  1   
 36  19  20  1   
 37  20  36  1   
 38  20  37  1   
 39  20  38  1   
@<TRIPOS>SUBSTRUCTURE
  1 ****   6 GROUP 4 **** **** 0

# MOE 2024.06 (io_trps.svl 2023.06)
