@<TRIPOS>MOLECULE
NONAME
35 36 1 0 0 
SMALL
USER_CHARGES


@<TRIPOS>ATOM
  1 S       -0.0380     0.3810     0.4210 S.3   1 <1>  -0.2020 
  2 C       -1.6250    -0.3770     0.2370 C.ar  1 <1>   0.1020 
  3 C        0.8330    -1.1120     0.0020 C.2   1 <1>   0.2010 
  4 C       -1.4620    -1.6970    -0.1340 C.ar  1 <1>   0.1000 
  5 C       -2.8520     0.2220     0.4330 C.ar  1 <1>  -0.1500 
  6 N       -0.1130    -2.0910    -0.2820 N.pl3 1 <1>  -0.5690 
  7 C        2.1920    -1.1960    -0.0060 C.2   1 <1>  -0.1360 
  8 C       -2.6100    -2.4620    -0.3100 C.ar  1 <1>  -0.1500 
  9 C       -3.9860    -0.5530     0.2470 C.ar  1 <1>  -0.1500 
 10 C        0.2390    -3.4490    -0.7620 C.3   1 <1>   0.2090 
 11 C        3.1890    -0.2250     0.2760 C.2   1 <1>   0.4950 
 12 C       -3.8630    -1.8960    -0.1230 C.ar  1 <1>   0.0830 
 13 C        0.3810    -4.3880     0.4340 C.3   1 <1>  -0.2400 
 14 O        2.9830     0.9230     0.5940 O.2   1 <1>  -0.5700 
 15 C        4.6490    -0.6440     0.1770 C.3   1 <1>  -0.0990 
 16 O       -4.9280    -2.7170    -0.3190 O.3   1 <1>  -0.3630 
 17 C        5.1390    -1.3510     1.4500 C.3   1 <1>  -0.2400 
 18 C       -6.2500    -2.2550    -0.1520 C.3   1 <1>   0.0400 
 19 H       -2.9100     1.2560     0.7200 H     1 <1>   0.1500 
 20 H        2.6070    -2.1480    -0.2560 H     1 <1>   0.1500 
 21 H       -2.5470    -3.4950    -0.5870 H     1 <1>   0.1500 
 22 H       -4.9470    -0.0980     0.3950 H     1 <1>   0.1500 
 23 H       -0.5260    -3.8070    -1.4290 H     1 <1>   0.0800 
 24 H        1.1570    -3.4130    -1.3190 H     1 <1>   0.0800 
 25 H       -0.5470    -4.4380     0.9760 H     1 <1>   0.0800 
 26 H        1.1550    -4.0390     1.0920 H     1 <1>   0.0800 
 27 H        0.6340    -5.3750     0.0940 H     1 <1>   0.0800 
 28 H        4.7810    -1.2890    -0.6720 H     1 <1>   0.0800 
 29 H        5.2460     0.2360     0.0100 H     1 <1>   0.0800 
 30 H        4.5750    -2.2490     1.6290 H     1 <1>   0.0800 
 31 H        5.0260    -0.6980     2.2990 H     1 <1>   0.0800 
 32 H        6.1790    -1.6090     1.3530 H     1 <1>   0.0800 
 33 H       -6.9170    -3.0730    -0.3570 H     1 <1>   0.0800 
 34 H       -6.4300    -1.4550    -0.8470 H     1 <1>   0.0800 
 35 H       -6.3790    -1.9240     0.8630 H     1 <1>   0.0800 
@<TRIPOS>BOND
  1   1   2  1   
  2   1   3  1   
  3   2   4  ar  
  4   2   5  ar  
  5   3   6  1   
  6   3   7  2   
  7   4   6  1   
  8   4   8  ar  
  9   5   9  ar  
 10   5  19  1   
 11   6  10  1   
 12   7  11  1   
 13   7  20  1   
 14   8  12  ar  
 15   8  21  1   
 16   9  12  ar  
 17   9  22  1   
 18  10  13  1   
 19  10  23  1   
 20  10  24  1   
 21  11  14  2   
 22  11  15  1   
 23  12  16  1   
 24  13  25  1   
 25  13  26  1   
 26  13  27  1   
 27  15  17  1   
 28  15  28  1   
 29  15  29  1   
 30  16  18  1   
 31  17  30  1   
 32  17  31  1   
 33  17  32  1   
 34  18  33  1   
 35  18  34  1   
 36  18  35  1   
@<TRIPOS>SUBSTRUCTURE
  1 ****   6 GROUP 4 **** **** 0

# MOE 2024.06 (io_trps.svl 2023.06)
