@<TRIPOS>MOLECULE
NONAME
44 45 1 0 0 
SMALL
USER_CHARGES


@<TRIPOS>ATOM
  1 S        0.2370    -0.2900     0.0010 S.3   1 <1>  -0.0800 
  2 C        0.8440     1.3240    -0.2990 C.2   1 <1>   0.1040 
  3 C       -1.4420     0.2470     0.0840 C.2   1 <1>  -0.0450 
  4 N        2.2010     1.5440    -0.4850 N.am  1 <1>  -0.4940 
  5 C       -0.1900     2.2250    -0.3240 C.2   1 <1>  -0.0860 
  6 C       -2.5530    -0.6360     0.3470 C.2   1 <1>   0.4740 
  7 C       -1.4700     1.5880    -0.1260 C.2   1 <1>  -0.1810 
  8 C        3.3560     0.8240    -0.3670 C.2   1 <1>   0.5690 
  9 C        0.0320     3.6360    -0.5200 C.2   1 <1>   0.8060 
 10 N       -2.6210    -1.9100     0.3880 N.2   1 <1>  -0.5130 
 11 C       -3.8500     0.1190     0.6160 C.3   1 <1>  -0.0990 
 12 C       -2.8100     2.3240    -0.1430 C.3   1 <1>   0.0210 
 13 O        4.3880     1.3400    -0.7090 O.2   1 <1>  -0.5700 
 14 C        3.3800    -0.5950     0.1970 C.3   1 <1>  -0.0990 
 15 O        1.0700     4.0850    -0.9720 O.2   1 <1>  -0.5700 
 16 O       -0.9270     4.5010    -0.1720 O.3   1 <1>  -0.4300 
 17 O       -1.5260    -2.6130     0.1370 O.3   1 <1>  -0.0870 
 18 C       -3.9950     1.3540    -0.2920 C.3   1 <1>  -0.1600 
 19 C        4.7860    -1.1520     0.4810 C.3   1 <1>  -0.2400 
 20 C       -0.7610     5.8940    -0.3180 C.3   1 <1>   0.1200 
 21 C       -1.4640    -3.9500     0.1630 C.2   1 <1>   0.6590 
 22 C       -2.0430     6.5730     0.1550 C.3   1 <1>  -0.2400 
 23 O       -2.3970    -4.6670     0.4200 O.2   1 <1>  -0.5700 
 24 C       -0.1080    -4.5310    -0.1560 C.3   1 <1>  -0.1790 
 25 H        2.4220     2.4960    -0.8030 H     1 <1>   0.3700 
 26 H       -4.6880    -0.5380     0.4610 H     1 <1>   0.0800 
 27 H       -3.8560     0.4230     1.6470 H     1 <1>   0.0800 
 28 H       -2.9130     2.8810     0.7720 H     1 <1>   0.0800 
 29 H       -2.8410     3.0190    -0.9650 H     1 <1>   0.0800 
 30 H        2.8250    -0.6030     1.1160 H     1 <1>   0.0800 
 31 H        2.8910    -1.2440    -0.5060 H     1 <1>   0.0800 
 32 H       -4.0460     1.0230    -1.3150 H     1 <1>   0.0800 
 33 H       -4.9140     1.8690    -0.0680 H     1 <1>   0.0800 
 34 H        5.2990    -0.5220     1.1870 H     1 <1>   0.0800 
 35 H        5.3630    -1.1860    -0.4270 H     1 <1>   0.0800 
 36 H        4.7200    -2.1460     0.8860 H     1 <1>   0.0800 
 37 H       -0.5700     6.1110    -1.3550 H     1 <1>   0.0800 
 38 H        0.0820     6.2020     0.2780 H     1 <1>   0.0800 
 39 H       -1.9440     7.6390     0.0580 H     1 <1>   0.0800 
 40 H       -2.2270     6.3390     1.1890 H     1 <1>   0.0800 
 41 H       -2.8770     6.2510    -0.4430 H     1 <1>   0.0800 
 42 H        0.6120    -4.1750     0.5560 H     1 <1>   0.0800 
 43 H        0.1860    -4.2320    -1.1440 H     1 <1>   0.0800 
 44 H       -0.1530    -5.6040    -0.1090 H     1 <1>   0.0800 
@<TRIPOS>BOND
  1   1   2  1   
  2   1   3  1   
  3   2   4  1   
  4   2   5  2   
  5   3   6  1   
  6   3   7  2   
  7   4   8  am  
  8   4  25  1   
  9   5   7  1   
 10   5   9  1   
 11   6  10  2   
 12   6  11  1   
 13   7  12  1   
 14   8  13  2   
 15   8  14  1   
 16   9  15  2   
 17   9  16  1   
 18  10  17  1   
 19  11  18  1   
 20  11  26  1   
 21  11  27  1   
 22  12  18  1   
 23  12  28  1   
 24  12  29  1   
 25  14  19  1   
 26  14  30  1   
 27  14  31  1   
 28  16  20  1   
 29  17  21  1   
 30  18  32  1   
 31  18  33  1   
 32  19  34  1   
 33  19  35  1   
 34  19  36  1   
 35  20  22  1   
 36  20  37  1   
 37  20  38  1   
 38  21  23  2   
 39  21  24  1   
 40  22  39  1   
 41  22  40  1   
 42  22  41  1   
 43  24  42  1   
 44  24  43  1   
 45  24  44  1   
@<TRIPOS>SUBSTRUCTURE
  1 ****   1 GROUP 4 **** **** 0

# MOE 2024.06 (io_trps.svl 2023.06)
