@<TRIPOS>MOLECULE
NONAME
54 57 1 0 0 
SMALL
USER_CHARGES


@<TRIPOS>ATOM
  1 O       -0.7860     0.8220    -1.5800 O.2   1 <1>  -0.5700 
  2 C       -1.0060     1.3770    -0.5220 C.2   1 <1>   0.5440 
  3 N       -1.9800     0.8830     0.2980 N.am  1 <1>  -0.7300 
  4 C       -0.2530     2.5500    -0.1250 C.ar  1 <1>   0.0860 
  5 C       -2.9250    -0.2040    -0.0310 C.3   1 <1>   0.2200 
  6 C       -0.8650     3.6120     0.5410 C.ar  1 <1>  -0.1500 
  7 C        1.1090     2.6550    -0.3970 C.ar  1 <1>  -0.1500 
  8 C       -4.3880     0.3370    -0.0940 C.3   1 <1>   0.0000 
  9 C       -2.6720    -1.3190     0.9890 C.3   1 <1>  -0.2400 
 10 C       -0.1390     4.7300     0.9360 C.ar  1 <1>   0.0830 
 11 C        1.8450     3.7600    -0.0090 C.ar  1 <1>   0.0830 
 12 C       -5.3800    -0.8020    -0.4500 C.3   1 <1>  -0.1600 
 13 C       -4.4930     1.4120    -1.2090 C.3   1 <1>  -0.1600 
 14 C       -4.8550     0.9780     1.2400 C.3   1 <1>  -0.1600 
 15 O       -0.6840     5.7890     1.5860 O.3   1 <1>  -0.3630 
 16 C        1.2150     4.8000     0.6640 C.ar  1 <1>  -0.1500 
 17 O        3.1660     3.7540    -0.3170 O.3   1 <1>  -0.3630 
 18 C       -6.8210    -0.2730    -0.5750 C.3   1 <1>  -0.0800 
 19 C       -5.9280     1.9550    -1.3360 C.3   1 <1>  -0.0800 
 20 C       -6.2940     1.5180     1.1210 C.3   1 <1>  -0.0800 
 21 C       -2.0720     5.8760     1.8220 C.3   1 <1>   0.0400 
 22 C        3.9980     4.8470     0.0050 C.3   1 <1>   0.0400 
 23 C       -6.8770     0.7950    -1.6810 C.3   1 <1>  -0.1600 
 24 C       -7.2430     0.3600     0.7640 C.3   1 <1>  -0.1600 
 25 C       -6.3490     2.5790     0.0060 C.3   1 <1>  -0.1600 
 26 H       -2.0970     1.2790     1.2280 H     1 <1>   0.3700 
 27 H       -2.6770    -0.5930    -1.0050 H     1 <1>   0.0800 
 28 H       -1.9180     3.5470     0.7350 H     1 <1>   0.1500 
 29 H        1.6030     1.8560    -0.9220 H     1 <1>   0.1500 
 30 H       -2.9100    -1.0010     1.9870 H     1 <1>   0.0800 
 31 H       -1.6370    -1.6070     0.9520 H     1 <1>   0.0800 
 32 H       -3.2550    -2.1880     0.7520 H     1 <1>   0.0800 
 33 H       -5.3670    -1.5620     0.3100 H     1 <1>   0.0800 
 34 H       -5.0880    -1.2630    -1.3780 H     1 <1>   0.0800 
 35 H       -4.1850     0.9900    -2.1500 H     1 <1>   0.0800 
 36 H       -3.8330     2.2340    -1.0000 H     1 <1>   0.0800 
 37 H       -4.8250     0.2520     2.0320 H     1 <1>   0.0800 
 38 H       -4.2030     1.7880     1.5120 H     1 <1>   0.0800 
 39 H        1.7490     5.6740     0.9830 H     1 <1>   0.1500 
 40 H       -7.4860    -1.0830    -0.8190 H     1 <1>   0.0800 
 41 H       -5.9670     2.6990    -2.1130 H     1 <1>   0.0800 
 42 H       -6.5960     1.9580     2.0560 H     1 <1>   0.0800 
 43 H       -2.2690     6.8150     2.3070 H     1 <1>   0.0800 
 44 H       -2.3700     5.0660     2.4620 H     1 <1>   0.0800 
 45 H       -2.5900     5.8380     0.8800 H     1 <1>   0.0800 
 46 H        4.9900     4.6260    -0.3450 H     1 <1>   0.0800 
 47 H        4.0070     4.9760     1.0730 H     1 <1>   0.0800 
 48 H        3.6240     5.7270    -0.4870 H     1 <1>   0.0800 
 49 H       -6.5920     0.3590    -2.6230 H     1 <1>   0.0800 
 50 H       -7.8830     1.1640    -1.7820 H     1 <1>   0.0800 
 51 H       -7.2210    -0.3840     1.5420 H     1 <1>   0.0800 
 52 H       -8.2530     0.7250     0.6910 H     1 <1>   0.0800 
 53 H       -7.3490     2.9710    -0.0740 H     1 <1>   0.0800 
 54 H       -5.6960     3.3990     0.2480 H     1 <1>   0.0800 
@<TRIPOS>BOND
  1   1   2  2   
  2   2   3  am  
  3   2   4  1   
  4   3   5  1   
  5   3  26  1   
  6   4   6  ar  
  7   4   7  ar  
  8   5   8  1   
  9   5   9  1   
 10   5  27  1   
 11   6  10  ar  
 12   6  28  1   
 13   7  11  ar  
 14   7  29  1   
 15   8  12  1   
 16   8  13  1   
 17   8  14  1   
 18   9  30  1   
 19   9  31  1   
 20   9  32  1   
 21  10  15  1   
 22  10  16  ar  
 23  11  16  ar  
 24  11  17  1   
 25  12  18  1   
 26  12  33  1   
 27  12  34  1   
 28  13  19  1   
 29  13  35  1   
 30  13  36  1   
 31  14  20  1   
 32  14  37  1   
 33  14  38  1   
 34  15  21  1   
 35  16  39  1   
 36  17  22  1   
 37  18  23  1   
 38  18  24  1   
 39  18  40  1   
 40  19  23  1   
 41  19  25  1   
 42  19  41  1   
 43  20  24  1   
 44  20  25  1   
 45  20  42  1   
 46  21  43  1   
 47  21  44  1   
 48  21  45  1   
 49  22  46  1   
 50  22  47  1   
 51  22  48  1   
 52  23  49  1   
 53  23  50  1   
 54  24  51  1   
 55  24  52  1   
 56  25  53  1   
 57  25  54  1   
@<TRIPOS>SUBSTRUCTURE
  1 ****   3 GROUP 4 **** **** 0

# MOE 2024.06 (io_trps.svl 2023.06)
