@<TRIPOS>MOLECULE
NONAME
43 45 1 0 0 
SMALL
USER_CHARGES


@<TRIPOS>ATOM
  1 O       -0.1860     3.2710     2.2480 O.2   1 <1>  -0.5700 
  2 C       -0.2490     2.6550     1.2050 C.2   1 <1>   0.5690 
  3 N        0.7450     1.7340     0.9190 N.am  1 <1>  -0.6600 
  4 C       -1.4540     2.9610     0.2530 C.3   1 <1>   0.2040 
  5 C        0.8310     0.8360    -0.2740 C.3   1 <1>   0.1400 
  6 C        1.8240     1.4400     1.9160 C.3   1 <1>   0.1400 
  7 C       -2.1520     1.6240    -0.1250 C.ar  1 <1>  -0.1440 
  8 C       -2.5070     3.8510     0.9850 C.3   1 <1>  -0.1600 
  9 C       -0.9200     3.8020    -0.9480 C.3   1 <1>  -0.1600 
 10 C        2.2640     0.7780    -0.8280 C.3   1 <1>   0.1200 
 11 C        3.2000     1.3640     1.2360 C.3   1 <1>   0.1200 
 12 C       -2.5980     0.8020     0.9050 C.ar  1 <1>  -0.1500 
 13 C       -2.3420     1.1770    -1.4310 C.ar  1 <1>  -0.1500 
 14 C       -3.6190     4.3770     0.0700 C.3   1 <1>  -0.1600 
 15 C       -1.9840     4.4880    -1.8370 C.3   1 <1>  -0.1600 
 16 O        3.1780     0.4500     0.1780 O.3   1 <1>  -0.5600 
 17 C       -3.2240    -0.4050     0.6480 C.ar  1 <1>  -0.1500 
 18 C       -2.9690    -0.0280    -1.6940 C.ar  1 <1>  -0.1500 
 19 C       -3.0130     5.2670    -1.0170 C.3   1 <1>  -0.1600 
 20 C       -3.4140    -0.8220    -0.6550 C.ar  1 <1>  -0.1500 
 21 H        0.1890     1.1700    -1.0610 H     1 <1>   0.0800 
 22 H        0.5180    -0.1550     0.0080 H     1 <1>   0.0800 
 23 H        1.6140     0.4990     2.3930 H     1 <1>   0.0800 
 24 H        1.8600     2.1950     2.6810 H     1 <1>   0.0800 
 25 H       -2.0120     4.7060     1.4130 H     1 <1>   0.0800 
 26 H       -2.9480     3.3120     1.8040 H     1 <1>   0.0800 
 27 H       -0.2760     3.2090    -1.5670 H     1 <1>   0.0800 
 28 H       -0.3050     4.5850    -0.5370 H     1 <1>   0.0800 
 29 H        2.5450     1.7280    -1.2500 H     1 <1>   0.0800 
 30 H        2.3360     0.0260    -1.5930 H     1 <1>   0.0800 
 31 H        3.9430     1.0330     1.9400 H     1 <1>   0.0800 
 32 H        3.4880     2.3290     0.8570 H     1 <1>   0.0800 
 33 H       -2.4570     1.0940     1.9320 H     1 <1>   0.1500 
 34 H       -1.9980     1.7420    -2.2730 H     1 <1>   0.1500 
 35 H       -4.3210     4.9500     0.6510 H     1 <1>   0.0800 
 36 H       -4.1520     3.5540    -0.3770 H     1 <1>   0.0800 
 37 H       -2.5120     3.7690    -2.4330 H     1 <1>   0.0800 
 38 H       -1.4940     5.1620    -2.5180 H     1 <1>   0.0800 
 39 H       -3.5620    -1.0190     1.4650 H     1 <1>   0.1500 
 40 H       -3.1110    -0.3500    -2.7110 H     1 <1>   0.1500 
 41 H       -2.5400     6.1190    -0.5600 H     1 <1>   0.0800 
 42 H       -3.7930     5.6300    -1.6650 H     1 <1>   0.0800 
 43 H       -3.9030    -1.7580    -0.8580 H     1 <1>   0.1500 
@<TRIPOS>BOND
  1   1   2  2   
  2   2   3  am  
  3   2   4  1   
  4   3   5  1   
  5   3   6  1   
  6   4   7  1   
  7   4   8  1   
  8   4   9  1   
  9   5  10  1   
 10   5  21  1   
 11   5  22  1   
 12   6  11  1   
 13   6  23  1   
 14   6  24  1   
 15   7  12  ar  
 16   7  13  ar  
 17   8  14  1   
 18   8  25  1   
 19   8  26  1   
 20   9  15  1   
 21   9  27  1   
 22   9  28  1   
 23  10  16  1   
 24  10  29  1   
 25  10  30  1   
 26  11  16  1   
 27  11  31  1   
 28  11  32  1   
 29  12  17  ar  
 30  12  33  1   
 31  13  18  ar  
 32  13  34  1   
 33  14  19  1   
 34  14  35  1   
 35  14  36  1   
 36  15  19  1   
 37  15  37  1   
 38  15  38  1   
 39  17  20  ar  
 40  17  39  1   
 41  18  20  ar  
 42  18  40  1   
 43  19  41  1   
 44  19  42  1   
 45  20  43  1   
@<TRIPOS>SUBSTRUCTURE
  1 ****   4 GROUP 4 **** **** 0

# MOE 2024.06 (io_trps.svl 2023.06)
