@<TRIPOS>MOLECULE
NONAME
30 30 1 0 0 
SMALL
USER_CHARGES


@<TRIPOS>ATOM
  1 O       -0.4010    -0.1620     0.5670 O.3   1 <1>  -0.3630 
  2 C       -1.5300    -0.8320     0.1920 C.ar  1 <1>   0.0830 
  3 C        0.7860    -0.8350     0.9190 C.3   1 <1>   0.0400 
  4 C       -2.6720    -0.0810    -0.1010 C.ar  1 <1>   0.0830 
  5 C       -1.5770    -2.2210     0.0950 C.ar  1 <1>  -0.1500 
  6 O       -2.5930     1.2770     0.0040 O.3   1 <1>  -0.3630 
  7 C       -3.8390    -0.7340    -0.4850 C.ar  1 <1>  -0.1500 
  8 C       -2.7420    -2.8690    -0.2890 C.ar  1 <1>  -0.1430 
  9 C       -3.7030     2.1080    -0.2500 C.3   1 <1>   0.0400 
 10 C       -3.8700    -2.1140    -0.5770 C.ar  1 <1>  -0.1500 
 11 C       -2.7700    -4.3900    -0.3900 C.3   1 <1>   0.3430 
 12 O       -3.2550    -4.7210    -1.6380 O.3   1 <1>  -0.6800 
 13 C       -3.6560    -5.0310     0.6860 C.3   1 <1>  -0.1600 
 14 C       -3.6490    -6.5680     0.6460 C.3   1 <1>  -0.2400 
 15 H        1.5180    -0.0960     1.1890 H     1 <1>   0.0800 
 16 H        1.1320    -1.3990     0.0710 H     1 <1>   0.0800 
 17 H        0.5870    -1.4760     1.7590 H     1 <1>   0.0800 
 18 H       -0.7100    -2.8120     0.3160 H     1 <1>   0.1500 
 19 H       -4.7340    -0.1900    -0.7160 H     1 <1>   0.1500 
 20 H       -3.3970     3.1270    -0.0940 H     1 <1>   0.0800 
 21 H       -4.4920     1.8540     0.4340 H     1 <1>   0.0800 
 22 H       -4.0130     1.9720    -1.2710 H     1 <1>   0.0800 
 23 H       -4.7810    -2.6050    -0.8760 H     1 <1>   0.1500 
 24 H       -1.7700    -4.7830    -0.3200 H     1 <1>   0.0800 
 25 H       -2.8970    -4.0840    -2.2840 H     1 <1>   0.4000 
 26 H       -4.6640    -4.6720     0.5770 H     1 <1>   0.0800 
 27 H       -3.3030    -4.7090     1.6490 H     1 <1>   0.0800 
 28 H       -4.0380    -6.9190    -0.2940 H     1 <1>   0.0800 
 29 H       -4.2640    -6.9600     1.4370 H     1 <1>   0.0800 
 30 H       -2.6490    -6.9440     0.7680 H     1 <1>   0.0800 
@<TRIPOS>BOND
  1   1   2  1   
  2   1   3  1   
  3   2   4  ar  
  4   2   5  ar  
  5   3  15  1   
  6   3  16  1   
  7   3  17  1   
  8   4   6  1   
  9   4   7  ar  
 10   5   8  ar  
 11   5  18  1   
 12   6   9  1   
 13   7  10  ar  
 14   7  19  1   
 15   8  10  ar  
 16   8  11  1   
 17   9  20  1   
 18   9  21  1   
 19   9  22  1   
 20  10  23  1   
 21  11  12  1   
 22  11  13  1   
 23  11  24  1   
 24  12  25  1   
 25  13  14  1   
 26  13  26  1   
 27  13  27  1   
 28  14  28  1   
 29  14  29  1   
 30  14  30  1   
@<TRIPOS>SUBSTRUCTURE
  1 ****   8 GROUP 4 **** **** 0

# MOE 2024.06 (io_trps.svl 2023.06)
