@<TRIPOS>MOLECULE
NONAME
42 44 1 0 0 
SMALL
USER_CHARGES


@<TRIPOS>ATOM
  1 O       -5.1600     2.3640     2.0150 O.3   1 <1>  -0.6800 
  2 C       -5.8090     1.2620     1.5160 C.3   1 <1>   0.2000 
  3 C       -5.1300     0.8790     0.1960 C.3   1 <1>  -0.1600 
  4 C       -7.2650     1.6670     1.3040 C.3   1 <1>  -0.1600 
  5 C       -5.9370    -0.1710    -0.5910 C.3   1 <1>   0.6460 
  6 C       -7.9910     0.5950     0.4990 C.3   1 <1>   0.5660 
  7 N       -7.2840     0.3720    -0.7680 N.4   1 <1>  -0.9060 
  8 C       -6.0580    -1.5550     0.0820 C.ar  1 <1>  -0.1440 
  9 C       -5.3360    -0.3430    -1.9830 C.3   1 <1>  -0.2400 
 10 C       -9.4230     0.9510     0.1450 C.ar  1 <1>  -0.1440 
 11 C       -5.2260    -1.9570     1.1260 C.ar  1 <1>  -0.1500 
 12 C       -7.0200    -2.4640    -0.3640 C.ar  1 <1>  -0.1500 
 13 C       -9.7590     2.1460    -0.4820 C.ar  1 <1>  -0.1500 
 14 C      -10.4260     0.0390     0.4430 C.ar  1 <1>  -0.1500 
 15 C       -5.3730    -3.1970     1.7220 C.ar  1 <1>  -0.1500 
 16 C       -7.1670    -3.7030     0.2320 C.ar  1 <1>  -0.1500 
 17 C      -11.0760     2.4180    -0.8060 C.ar  1 <1>  -0.1500 
 18 C      -11.7420     0.3130     0.1170 C.ar  1 <1>  -0.1500 
 19 C       -6.3460    -4.0700     1.2800 C.ar  1 <1>  -0.1500 
 20 C      -12.0670     1.5020    -0.5090 C.ar  1 <1>  -0.1500 
 21 H       -4.2780     2.1400     2.3750 H     1 <1>   0.4000 
 22 H       -5.7420     0.4720     2.2470 H     1 <1>   0.0800 
 23 H       -4.1360     0.5170     0.3800 H     1 <1>   0.0800 
 24 H       -5.0330     1.7640    -0.4100 H     1 <1>   0.0800 
 25 H       -7.3110     2.6120     0.7950 H     1 <1>   0.0800 
 26 H       -7.7490     1.7770     2.2580 H     1 <1>   0.0800 
 27 H       -7.9990    -0.3200     1.0720 H     1 <1>   0.0800 
 28 H       -7.8430    -0.2760    -1.3220 H     1 <1>   0.4500 
 29 H       -7.2420     1.2560    -1.2750 H     1 <1>   0.4500 
 30 H       -5.2670     0.5970    -2.5020 H     1 <1>   0.0800 
 31 H       -5.9130    -1.0310    -2.5750 H     1 <1>   0.0800 
 32 H       -4.3430    -0.7460    -1.8950 H     1 <1>   0.0800 
 33 H       -4.4380    -1.3330     1.5080 H     1 <1>   0.1500 
 34 H       -7.6730    -2.2410    -1.1880 H     1 <1>   0.1500 
 35 H       -9.0170     2.8870    -0.7250 H     1 <1>   0.1500 
 36 H      -10.2030    -0.8950     0.9330 H     1 <1>   0.1500 
 37 H       -4.7250    -3.4900     2.5310 H     1 <1>   0.1500 
 38 H       -7.9160    -4.3920    -0.1210 H     1 <1>   0.1500 
 39 H      -11.3360     3.3460    -1.2890 H     1 <1>   0.1500 
 40 H      -12.5190    -0.3960     0.3510 H     1 <1>   0.1500 
 41 H       -6.4590    -5.0360     1.7450 H     1 <1>   0.1500 
 42 H      -13.0930     1.7160    -0.7610 H     1 <1>   0.1500 
@<TRIPOS>BOND
  1   1   2  1   
  2   1  21  1   
  3   2   3  1   
  4   2   4  1   
  5   2  22  1   
  6   3   5  1   
  7   3  23  1   
  8   3  24  1   
  9   4   6  1   
 10   4  25  1   
 11   4  26  1   
 12   5   7  1   
 13   5   8  1   
 14   5   9  1   
 15   6   7  1   
 16   6  10  1   
 17   6  27  1   
 18   7  28  1   
 19   7  29  1   
 20   8  11  ar  
 21   8  12  ar  
 22   9  30  1   
 23   9  31  1   
 24   9  32  1   
 25  10  13  ar  
 26  10  14  ar  
 27  11  15  ar  
 28  11  33  1   
 29  12  16  ar  
 30  12  34  1   
 31  13  17  ar  
 32  13  35  1   
 33  14  18  ar  
 34  14  36  1   
 35  15  19  ar  
 36  15  37  1   
 37  16  19  ar  
 38  16  38  1   
 39  17  20  ar  
 40  17  39  1   
 41  18  20  ar  
 42  18  40  1   
 43  19  41  1   
 44  20  42  1   
@<TRIPOS>SUBSTRUCTURE
  1 ****   6 GROUP 4 **** **** 0

# MOE 2024.06 (io_trps.svl 2023.06)
