@<TRIPOS>MOLECULE
NONAME
40 41 1 0 0 
SMALL
USER_CHARGES


@<TRIPOS>ATOM
  1 N        0.2770     0.1450     0.5410 N.4   1 <1>  -0.9590 
  2 C        0.1070     1.6240     0.4670 C.3   1 <1>   0.3430 
  3 C       -0.9360    -0.5570     1.0370 C.3   1 <1>   0.3430 
  4 C        1.4840    -0.2170     1.3410 C.3   1 <1>   0.4860 
  5 C       -1.0690     1.9600    -0.4560 C.3   1 <1>  -0.1600 
  6 C       -2.1330    -0.2440     0.1250 C.3   1 <1>  -0.1600 
  7 C        2.7060     0.2760     0.5900 C.ar  1 <1>  -0.1430 
  8 C       -2.3820     1.2740    -0.0260 C.3   1 <1>  -0.0800 
  9 C        3.1930    -0.3870    -0.5350 C.ar  1 <1>  -0.1430 
 10 C        3.3400     1.4260     1.0410 C.ar  1 <1>  -0.1500 
 11 C       -3.5000     1.6150    -1.0370 C.3   1 <1>   0.3430 
 12 C        4.2910     0.1350    -1.2020 C.ar  1 <1>  -0.1500 
 13 C        2.5810    -1.6770    -1.0680 C.3   1 <1>  -0.0970 
 14 C        4.4360     1.9330     0.3690 C.ar  1 <1>  -0.1500 
 15 N       -4.8280     1.1100    -0.5960 N.4   1 <1>  -0.8530 
 16 C        4.9090     1.2880    -0.7570 C.ar  1 <1>  -0.1500 
 17 H        0.5020    -0.1750    -0.4100 H     1 <1>   0.4500 
 18 H        1.0050     2.0820     0.0810 H     1 <1>   0.0800 
 19 H       -0.0760     2.0220     1.4530 H     1 <1>   0.0800 
 20 H       -1.1540    -0.2360     2.0430 H     1 <1>   0.0800 
 21 H       -0.7640    -1.6220     1.0540 H     1 <1>   0.0800 
 22 H        1.5490    -1.2860     1.4610 H     1 <1>   0.0800 
 23 H        1.4410     0.2350     2.3180 H     1 <1>   0.0800 
 24 H       -0.8050     1.6760    -1.4610 H     1 <1>   0.0800 
 25 H       -1.2000     3.0300    -0.4530 H     1 <1>   0.0800 
 26 H       -2.9990    -0.7230     0.5460 H     1 <1>   0.0800 
 27 H       -1.9530    -0.6910    -0.8390 H     1 <1>   0.0800 
 28 H       -2.6580     1.6800     0.9340 H     1 <1>   0.0800 
 29 H        2.9960     1.9440     1.9210 H     1 <1>   0.1500 
 30 H       -3.2520     1.1930    -2.0000 H     1 <1>   0.0800 
 31 H       -3.5500     2.6870    -1.1540 H     1 <1>   0.0800 
 32 H        4.6840    -0.3560    -2.0770 H     1 <1>   0.1500 
 33 H        1.6880    -1.4710    -1.6270 H     1 <1>   0.0800 
 34 H        2.3590    -2.3590    -0.2670 H     1 <1>   0.0800 
 35 H        3.2730    -2.1750    -1.7250 H     1 <1>   0.0800 
 36 H        4.9270     2.8250     0.7200 H     1 <1>   0.1500 
 37 H       -4.8520     0.0870    -0.5280 H     1 <1>   0.4500 
 38 H       -5.5570     1.3810    -1.2710 H     1 <1>   0.4500 
 39 H       -5.1050     1.5040     0.3110 H     1 <1>   0.4500 
 40 H        5.7620     1.6800    -1.2840 H     1 <1>   0.1500 
@<TRIPOS>BOND
  1   1   2  1   
  2   1   3  1   
  3   1   4  1   
  4   1  17  1   
  5   2   5  1   
  6   2  18  1   
  7   2  19  1   
  8   3   6  1   
  9   3  20  1   
 10   3  21  1   
 11   4   7  1   
 12   4  22  1   
 13   4  23  1   
 14   5   8  1   
 15   5  24  1   
 16   5  25  1   
 17   6   8  1   
 18   6  26  1   
 19   6  27  1   
 20   7   9  ar  
 21   7  10  ar  
 22   8  11  1   
 23   8  28  1   
 24   9  12  ar  
 25   9  13  1   
 26  10  14  ar  
 27  10  29  1   
 28  11  15  1   
 29  11  30  1   
 30  11  31  1   
 31  12  16  ar  
 32  12  32  1   
 33  13  33  1   
 34  13  34  1   
 35  13  35  1   
 36  14  16  ar  
 37  14  36  1   
 38  15  37  1   
 39  15  38  1   
 40  15  39  1   
 41  16  40  1   
@<TRIPOS>SUBSTRUCTURE
  1 ****   1 GROUP 4 **** **** 0

# MOE 2024.06 (io_trps.svl 2023.06)
