@<TRIPOS>MOLECULE
NONAME
37 38 1 0 0 
SMALL
USER_CHARGES


@<TRIPOS>ATOM
  1 O        0.4330     0.6490     1.1540 O.2   1 <1>  -0.5700 
  2 C        0.5560     1.5440     0.3380 C.2   1 <1>   0.6900 
  3 N       -0.4110     2.5090     0.1960 N.am  1 <1>  -0.6600 
  4 N        1.6520     1.5880    -0.4580 N.am  1 <1>  -0.7300 
  5 C       -1.7290     2.3760     0.8750 C.3   1 <1>   0.0600 
  6 C       -0.2060     3.7940    -0.5250 C.3   1 <1>   0.0600 
  7 C        2.7620     0.6040    -0.4520 C.3   1 <1>   0.1400 
  8 C        4.0800     1.3010    -0.1150 C.3   1 <1>   0.0210 
  9 C        5.2710     0.3600    -0.2050 C.2   1 <1>  -0.1810 
 10 C        6.6090     0.7950    -0.0660 C.ar  1 <1>   0.0000 
 11 C        5.2980    -0.9790    -0.4190 C.2   1 <1>  -0.3020 
 12 C        7.4080    -0.3340    -0.2100 C.ar  1 <1>  -0.1520 
 13 C        7.2090     2.0370     0.1680 C.ar  1 <1>  -0.1500 
 14 N        6.5930    -1.4140    -0.4240 N.pl3 1 <1>   0.0330 
 15 C        8.7990    -0.2430    -0.1270 C.ar  1 <1>  -0.1500 
 16 C        8.5800     2.1330     0.2510 C.ar  1 <1>  -0.1440 
 17 C        9.3720     0.9870     0.1010 C.ar  1 <1>  -0.1500 
 18 C        9.2580     3.4670     0.5040 C.3   1 <1>  -0.0970 
 19 H        1.6330     2.2510    -1.2260 H     1 <1>   0.3700 
 20 H       -1.8860     1.3640     1.2060 H     1 <1>   0.0800 
 21 H       -2.5200     2.6380     0.1940 H     1 <1>   0.0800 
 22 H       -1.7620     3.0280     1.7300 H     1 <1>   0.0800 
 23 H        0.8400     4.0360    -0.5820 H     1 <1>   0.0800 
 24 H       -0.7060     4.5900    -0.0020 H     1 <1>   0.0800 
 25 H       -0.6110     3.7180    -1.5190 H     1 <1>   0.0800 
 26 H        2.8290     0.1450    -1.4230 H     1 <1>   0.0800 
 27 H        2.5700    -0.1680     0.2750 H     1 <1>   0.0800 
 28 H        4.0240     1.6950     0.8840 H     1 <1>   0.0800 
 29 H        4.2360     2.1130    -0.8000 H     1 <1>   0.0800 
 30 H        4.4780    -1.6590    -0.5660 H     1 <1>   0.1500 
 31 H        6.5800     2.9000     0.2810 H     1 <1>   0.1500 
 32 H        6.9130    -2.3770    -0.5570 H     1 <1>   0.2700 
 33 H        9.4050    -1.1230    -0.2420 H     1 <1>   0.1500 
 34 H       10.4420     1.0760     0.1680 H     1 <1>   0.1500 
 35 H        8.5320     4.2540     0.6020 H     1 <1>   0.0800 
 36 H        9.9140     3.7050    -0.3140 H     1 <1>   0.0800 
 37 H        9.8340     3.4180     1.4100 H     1 <1>   0.0800 
@<TRIPOS>BOND
  1   1   2  2   
  2   2   3  am  
  3   2   4  am  
  4   3   5  1   
  5   3   6  1   
  6   4   7  1   
  7   4  19  1   
  8   5  20  1   
  9   5  21  1   
 10   5  22  1   
 11   6  23  1   
 12   6  24  1   
 13   6  25  1   
 14   7   8  1   
 15   7  26  1   
 16   7  27  1   
 17   8   9  1   
 18   8  28  1   
 19   8  29  1   
 20   9  10  1   
 21   9  11  2   
 22  10  12  ar  
 23  10  13  ar  
 24  11  14  1   
 25  11  30  1   
 26  12  14  1   
 27  12  15  ar  
 28  13  16  ar  
 29  13  31  1   
 30  14  32  1   
 31  15  17  ar  
 32  15  33  1   
 33  16  17  ar  
 34  16  18  1   
 35  17  34  1   
 36  18  35  1   
 37  18  36  1   
 38  18  37  1   
@<TRIPOS>SUBSTRUCTURE
  1 ****   8 GROUP 4 **** **** 0

# MOE 2024.06 (io_trps.svl 2023.06)
