@<TRIPOS>MOLECULE
NONAME
38 39 1 0 0 
SMALL
USER_CHARGES


@<TRIPOS>ATOM
  1 S       -0.4230    -2.7310    -1.0200 S.3   1 <1>  -0.2860 
  2 C       -1.6800    -1.5590    -0.5240 C.2   1 <1>   0.2420 
  3 C        0.8010    -2.7320     0.3820 C.3   1 <1>   0.1310 
  4 N       -2.7450    -1.3420    -1.3240 N.pl3 1 <1>   0.0330 
  5 N       -1.6460    -0.8780     0.5660 N.2   1 <1>  -0.5650 
  6 C        2.1990    -2.4050    -0.1250 C.2   1 <1>   0.5690 
  7 C       -3.4830    -0.4070    -0.6740 C.ar  1 <1>  -0.1520 
  8 C       -2.7880    -0.1340     0.4940 C.ar  1 <1>   0.2270 
  9 O        2.9310    -3.3440    -0.3420 O.2   1 <1>  -0.5700 
 10 N        2.6230    -1.1050    -0.2980 N.am  1 <1>  -0.6600 
 11 C       -4.6850     0.2380    -0.9710 C.ar  1 <1>  -0.1500 
 12 C       -3.2920     0.8000     1.3950 C.ar  1 <1>  -0.1500 
 13 C        1.7320     0.0810    -0.1680 C.3   1 <1>   0.1400 
 14 C        3.9980    -0.8320    -0.8020 C.3   1 <1>   0.1400 
 15 C       -5.1790     1.1620    -0.0740 C.ar  1 <1>  -0.1430 
 16 C       -4.4790     1.4400     1.1080 C.ar  1 <1>  -0.1500 
 17 C        1.7850     0.6360     1.2530 C.3   1 <1>  -0.2400 
 18 C        4.9890    -0.8170     0.3600 C.3   1 <1>  -0.2400 
 19 C       -6.4820     1.8930    -0.3440 C.3   1 <1>  -0.0970 
 20 H        0.7850    -3.7190     0.8010 H     1 <1>   0.0800 
 21 H        0.4840    -2.0280     1.1250 H     1 <1>   0.0800 
 22 H       -2.9340    -1.7930    -2.2210 H     1 <1>   0.2700 
 23 H       -5.2060     0.0090    -1.8830 H     1 <1>   0.1500 
 24 H       -2.7430     0.9990     2.2950 H     1 <1>   0.1500 
 25 H        0.7210    -0.1890    -0.4110 H     1 <1>   0.0800 
 26 H        2.0290     0.8430    -0.8670 H     1 <1>   0.0800 
 27 H        4.0250     0.1100    -1.3230 H     1 <1>   0.0800 
 28 H        4.2810    -1.6010    -1.5010 H     1 <1>   0.0800 
 29 H       -4.8760     2.1630     1.7980 H     1 <1>   0.1500 
 30 H        1.5380    -0.1260     1.9680 H     1 <1>   0.0800 
 31 H        1.0700     1.4330     1.3500 H     1 <1>   0.0800 
 32 H        2.7600     1.0300     1.4700 H     1 <1>   0.0800 
 33 H        4.7580    -0.0290     1.0500 H     1 <1>   0.0800 
 34 H        5.9830    -0.6590    -0.0180 H     1 <1>   0.0800 
 35 H        4.9680    -1.7620     0.8730 H     1 <1>   0.0800 
 36 H       -6.9090     1.5850    -1.2810 H     1 <1>   0.0800 
 37 H       -6.3050     2.9530    -0.3810 H     1 <1>   0.0800 
 38 H       -7.1870     1.6840     0.4400 H     1 <1>   0.0800 
@<TRIPOS>BOND
  1   1   2  1   
  2   1   3  1   
  3   2   4  1   
  4   2   5  2   
  5   3   6  1   
  6   3  20  1   
  7   3  21  1   
  8   4   7  1   
  9   4  22  1   
 10   5   8  1   
 11   6   9  2   
 12   6  10  am  
 13   7   8  ar  
 14   7  11  ar  
 15   8  12  ar  
 16  10  13  1   
 17  10  14  1   
 18  11  15  ar  
 19  11  23  1   
 20  12  16  ar  
 21  12  24  1   
 22  13  17  1   
 23  13  25  1   
 24  13  26  1   
 25  14  18  1   
 26  14  27  1   
 27  14  28  1   
 28  15  16  ar  
 29  15  19  1   
 30  16  29  1   
 31  17  30  1   
 32  17  31  1   
 33  17  32  1   
 34  18  33  1   
 35  18  34  1   
 36  18  35  1   
 37  19  36  1   
 38  19  37  1   
 39  19  38  1   
@<TRIPOS>SUBSTRUCTURE
  1 ****   5 GROUP 4 **** **** 0

# MOE 2024.06 (io_trps.svl 2023.06)
