@<TRIPOS>MOLECULE
NONAME
41 42 1 0 0 
SMALL
USER_CHARGES


@<TRIPOS>ATOM
  1 CL      -0.6140     0.1060     2.5110 Cl    1 <1>  -0.1770 
  2 C        0.0990    -1.3070     1.7790 C.ar  1 <1>   0.1770 
  3 C       -0.6970    -2.4070     1.5230 C.ar  1 <1>  -0.1500 
  4 C        1.4450    -1.3050     1.4680 C.ar  1 <1>  -0.1500 
  5 C       -0.1360    -3.5350     0.9390 C.ar  1 <1>  -0.1440 
  6 C        2.0090    -2.4270     0.8850 C.ar  1 <1>  -0.1500 
  7 C        1.2200    -3.5460     0.6160 C.ar  1 <1>   0.0830 
  8 C       -0.9960    -4.7500     0.6630 C.3   1 <1>   0.4870 
  9 O        1.7110    -4.6720     0.0330 O.3   1 <1>  -0.3630 
 10 N       -0.9720    -4.9820    -0.7940 N.4   1 <1>  -0.9060 
 11 C        3.1010    -4.8700    -0.1210 C.3   1 <1>   0.1200 
 12 C       -1.6950    -6.2010    -1.2180 C.3   1 <1>   0.4860 
 13 C        3.3190    -6.2690    -0.6900 C.3   1 <1>  -0.2400 
 14 C       -3.1360    -6.0770    -0.7690 C.ar  1 <1>  -0.1430 
 15 C       -4.0050    -5.2160    -1.4250 C.ar  1 <1>  -0.1500 
 16 C       -3.5960    -6.8140     0.3120 C.ar  1 <1>  -0.1500 
 17 C       -5.3120    -5.0840    -0.9920 C.ar  1 <1>  -0.1500 
 18 C       -4.9040    -6.6800     0.7410 C.ar  1 <1>  -0.1500 
 19 C       -5.7680    -5.8140     0.0920 C.ar  1 <1>  -0.1430 
 20 C       -7.2040    -5.6680     0.5640 C.3   1 <1>  -0.0970 
 21 H       -1.7390    -2.3620     1.7880 H     1 <1>   0.1500 
 22 H        2.0400    -0.4340     1.6820 H     1 <1>   0.1500 
 23 H        3.0570    -2.4030     0.6480 H     1 <1>   0.1500 
 24 H       -2.0060    -4.5810     1.0030 H     1 <1>   0.0800 
 25 H       -0.5890    -5.6010     1.1840 H     1 <1>   0.0800 
 26 H        0.0260    -5.0200    -1.0510 H     1 <1>   0.4500 
 27 H       -1.3760    -4.1590    -1.2480 H     1 <1>   0.4500 
 28 H        3.5710    -4.7760     0.8440 H     1 <1>   0.0800 
 29 H        3.4860    -4.1230    -0.7950 H     1 <1>   0.0800 
 30 H       -1.2460    -7.0750    -0.7740 H     1 <1>   0.0800 
 31 H       -1.6570    -6.3040    -2.2910 H     1 <1>   0.0800 
 32 H        2.9240    -7.0110    -0.0200 H     1 <1>   0.0800 
 33 H        4.3730    -6.4480    -0.8070 H     1 <1>   0.0800 
 34 H        2.8530    -6.3610    -1.6550 H     1 <1>   0.0800 
 35 H       -3.6860    -4.6400    -2.2770 H     1 <1>   0.1500 
 36 H       -2.9520    -7.5030     0.8330 H     1 <1>   0.1500 
 37 H       -5.9800    -4.4130    -1.5050 H     1 <1>   0.1500 
 38 H       -5.2530    -7.2550     1.5820 H     1 <1>   0.1500 
 39 H       -7.2750    -4.8690     1.2800 H     1 <1>   0.0800 
 40 H       -7.5460    -6.5780     1.0240 H     1 <1>   0.0800 
 41 H       -7.8520    -5.4480    -0.2660 H     1 <1>   0.0800 
@<TRIPOS>BOND
  1   1   2  1   
  2   2   3  ar  
  3   2   4  ar  
  4   3   5  ar  
  5   3  21  1   
  6   4   6  ar  
  7   4  22  1   
  8   5   7  ar  
  9   5   8  1   
 10   6   7  ar  
 11   6  23  1   
 12   7   9  1   
 13   8  10  1   
 14   8  24  1   
 15   8  25  1   
 16   9  11  1   
 17  10  12  1   
 18  10  26  1   
 19  10  27  1   
 20  11  13  1   
 21  11  28  1   
 22  11  29  1   
 23  12  14  1   
 24  12  30  1   
 25  12  31  1   
 26  13  32  1   
 27  13  33  1   
 28  13  34  1   
 29  14  15  ar  
 30  14  16  ar  
 31  15  17  ar  
 32  15  35  1   
 33  16  18  ar  
 34  16  36  1   
 35  17  19  ar  
 36  17  37  1   
 37  18  19  ar  
 38  18  38  1   
 39  19  20  1   
 40  20  39  1   
 41  20  40  1   
 42  20  41  1   
@<TRIPOS>SUBSTRUCTURE
  1 ****   8 GROUP 4 **** **** 0

# MOE 2024.06 (io_trps.svl 2023.06)
