@<TRIPOS>MOLECULE
NONAME
37 37 1 0 0 
SMALL
USER_CHARGES


@<TRIPOS>ATOM
  1 O        0.1430     0.9210     1.4770 O.2   1 <1>  -0.5700 
  2 C        0.2120     1.7440     0.5950 C.2   1 <1>   0.5690 
  3 N        1.3380     1.9640    -0.1520 N.am  1 <1>  -0.5470 
  4 C       -1.0150     2.6090     0.2910 C.3   1 <1>  -0.0190 
  5 C        2.6040     1.3540    -0.1420 C.ar  1 <1>   0.1170 
  6 C       -1.2920     3.5360     1.4990 C.3   1 <1>  -0.1600 
  7 C       -2.2210     1.7170    -0.0930 C.3   1 <1>  -0.1600 
  8 C        3.7040     2.0460    -0.6550 C.ar  1 <1>  -0.1430 
  9 C        2.7960     0.0640     0.3460 C.ar  1 <1>  -0.1500 
 10 C       -2.4120     4.5610     1.2840 C.3   1 <1>  -0.2400 
 11 C       -3.1160     2.3210    -1.1870 C.3   1 <1>  -0.2400 
 12 C        4.9520     1.4440    -0.6670 C.ar  1 <1>  -0.1500 
 13 C        3.5670     3.4620    -1.2020 C.3   1 <1>  -0.0970 
 14 C        4.0440    -0.5330     0.3370 C.ar  1 <1>  -0.1430 
 15 C        5.1240     0.1630    -0.1740 C.ar  1 <1>  -0.1500 
 16 C        4.2280    -1.9390     0.8790 C.3   1 <1>  -0.0970 
 17 H        1.2710     2.7380    -0.8050 H     1 <1>   0.3700 
 18 H       -0.7730     3.2280    -0.5540 H     1 <1>   0.0800 
 19 H       -0.3860     4.0710     1.7290 H     1 <1>   0.0800 
 20 H       -1.5280     2.9330     2.3610 H     1 <1>   0.0800 
 21 H       -2.8050     1.4950     0.7840 H     1 <1>   0.0800 
 22 H       -1.8540     0.7750    -0.4660 H     1 <1>   0.0800 
 23 H        1.9580    -0.4840     0.7340 H     1 <1>   0.1500 
 24 H       -2.2500     5.1200     0.3800 H     1 <1>   0.0800 
 25 H       -2.4360     5.2490     2.1110 H     1 <1>   0.0800 
 26 H       -3.3680     4.0720     1.2350 H     1 <1>   0.0800 
 27 H       -3.5440     3.2560    -0.8790 H     1 <1>   0.0800 
 28 H       -3.9200     1.6430    -1.4110 H     1 <1>   0.0800 
 29 H       -2.5500     2.4810    -2.0880 H     1 <1>   0.0800 
 30 H        5.8060     1.9680    -1.0590 H     1 <1>   0.1500 
 31 H        3.1380     4.1060    -0.4560 H     1 <1>   0.0800 
 32 H        2.9420     3.4610    -2.0770 H     1 <1>   0.0800 
 33 H        4.5270     3.8620    -1.4750 H     1 <1>   0.0800 
 34 H        6.1000    -0.2880    -0.1900 H     1 <1>   0.1500 
 35 H        3.4320    -2.1900     1.5570 H     1 <1>   0.0800 
 36 H        5.1610    -2.0150     1.4080 H     1 <1>   0.0800 
 37 H        4.2280    -2.6440     0.0670 H     1 <1>   0.0800 
@<TRIPOS>BOND
  1   1   2  2   
  2   2   3  am  
  3   2   4  1   
  4   3   5  1   
  5   3  17  1   
  6   4   6  1   
  7   4   7  1   
  8   4  18  1   
  9   5   8  ar  
 10   5   9  ar  
 11   6  10  1   
 12   6  19  1   
 13   6  20  1   
 14   7  11  1   
 15   7  21  1   
 16   7  22  1   
 17   8  12  ar  
 18   8  13  1   
 19   9  14  ar  
 20   9  23  1   
 21  10  24  1   
 22  10  25  1   
 23  10  26  1   
 24  11  27  1   
 25  11  28  1   
 26  11  29  1   
 27  12  15  ar  
 28  12  30  1   
 29  13  31  1   
 30  13  32  1   
 31  13  33  1   
 32  14  15  ar  
 33  14  16  1   
 34  15  34  1   
 35  16  35  1   
 36  16  36  1   
 37  16  37  1   
@<TRIPOS>SUBSTRUCTURE
  1 ****   3 GROUP 4 **** **** 0

# MOE 2024.06 (io_trps.svl 2023.06)
