@<TRIPOS>MOLECULE
NONAME
42 44 1 0 0 
SMALL
USER_CHARGES


@<TRIPOS>ATOM
  1 O       -0.6110    -0.0870    -0.2280 O.2   1 <1>  -0.5700 
  2 C       -1.0260    -1.1460    -0.6230 C.2   1 <1>   0.5950 
  3 C       -0.3010    -2.3860    -0.5250 C.2   1 <1>  -0.0860 
  4 C       -2.3910    -1.1470    -1.2750 C.3   1 <1>  -0.1790 
  5 C       -0.8000    -3.5970     0.0270 C.2   1 <1>  -0.0860 
  6 C        0.9670    -2.6650    -0.9700 C.2   1 <1>  -0.3320 
  7 C        0.1760    -4.5400    -0.1760 C.2   1 <1>  -0.3320 
  8 C       -2.0640    -3.7540     0.6990 C.2   1 <1>   0.5950 
  9 N        1.2570    -3.9750    -0.7730 N.pl3 1 <1>   0.0480 
 10 C        1.9480    -1.6880    -1.6080 C.3   1 <1>  -0.0600 
 11 C        0.1160    -6.0110     0.2170 C.3   1 <1>  -0.0600 
 12 O       -2.8530    -4.6300     0.4500 O.2   1 <1>  -0.5700 
 13 C       -2.4370    -2.7870     1.8020 C.3   1 <1>  -0.1790 
 14 C        2.5240    -4.6600    -1.1480 C.3   1 <1>   0.2390 
 15 C        3.6850    -4.2610    -0.2420 C.ar  1 <1>  -0.1430 
 16 C        4.9330    -4.0070    -0.8050 C.ar  1 <1>  -0.1500 
 17 C        3.5130    -4.1510     1.1400 C.ar  1 <1>  -0.1500 
 18 C        5.9690    -3.6490     0.0340 C.ar  1 <1>   0.0820 
 19 C        4.5680    -3.7900     1.9680 C.ar  1 <1>  -0.1500 
 20 O        7.2340    -3.3620    -0.2900 O.3   1 <1>  -0.3630 
 21 C        5.7930    -3.5440     1.3820 C.ar  1 <1>   0.0820 
 22 C        7.9050    -3.0490     0.9300 C.3   1 <1>   0.4000 
 23 O        6.9390    -3.1850     1.9700 O.3   1 <1>  -0.3630 
 24 H       -2.6360    -2.1230    -1.6520 H     1 <1>   0.0800 
 25 H       -2.3890    -0.4520    -2.0930 H     1 <1>   0.0800 
 26 H       -3.1330    -0.8400    -0.5630 H     1 <1>   0.0800 
 27 H        1.5180    -0.7060    -1.6860 H     1 <1>   0.0800 
 28 H        2.2180    -2.0180    -2.5940 H     1 <1>   0.0800 
 29 H        2.8360    -1.6130    -1.0060 H     1 <1>   0.0800 
 30 H       -0.7980    -6.2350     0.7370 H     1 <1>   0.0800 
 31 H        0.9370    -6.2610     0.8650 H     1 <1>   0.0800 
 32 H        0.1580    -6.6300    -0.6610 H     1 <1>   0.0800 
 33 H       -1.6170    -2.1330     2.0310 H     1 <1>   0.0800 
 34 H       -2.6920    -3.3440     2.6840 H     1 <1>   0.0800 
 35 H       -3.2890    -2.2060     1.5030 H     1 <1>   0.0800 
 36 H        2.7490    -4.4060    -2.1670 H     1 <1>   0.0800 
 37 H        2.3850    -5.7220    -1.0980 H     1 <1>   0.0800 
 38 H        5.1100    -4.0800    -1.8620 H     1 <1>   0.1500 
 39 H        2.5490    -4.3400     1.5820 H     1 <1>   0.1500 
 40 H        4.4470    -3.6990     3.0320 H     1 <1>   0.1500 
 41 H        8.2580    -2.0340     0.8970 H     1 <1>   0.0800 
 42 H        8.7080    -3.7460     1.0890 H     1 <1>   0.0800 
@<TRIPOS>BOND
  1   1   2  2   
  2   2   3  1   
  3   2   4  1   
  4   3   5  1   
  5   3   6  2   
  6   4  24  1   
  7   4  25  1   
  8   4  26  1   
  9   5   7  2   
 10   5   8  1   
 11   6   9  1   
 12   6  10  1   
 13   7   9  1   
 14   7  11  1   
 15   8  12  2   
 16   8  13  1   
 17   9  14  1   
 18  10  27  1   
 19  10  28  1   
 20  10  29  1   
 21  11  30  1   
 22  11  31  1   
 23  11  32  1   
 24  13  33  1   
 25  13  34  1   
 26  13  35  1   
 27  14  15  1   
 28  14  36  1   
 29  14  37  1   
 30  15  16  ar  
 31  15  17  ar  
 32  16  18  ar  
 33  16  38  1   
 34  17  19  ar  
 35  17  39  1   
 36  18  20  1   
 37  18  21  ar  
 38  19  21  ar  
 39  19  40  1   
 40  20  22  1   
 41  21  23  1   
 42  22  23  1   
 43  22  41  1   
 44  22  42  1   
@<TRIPOS>SUBSTRUCTURE
  1 ****   9 GROUP 4 **** **** 0

# MOE 2024.06 (io_trps.svl 2023.06)
