@<TRIPOS>MOLECULE
NONAME
49 52 1 0 0 
SMALL
USER_CHARGES


@<TRIPOS>ATOM
  1 S       -0.1420    -0.3590    -0.6030 S.o2  1 <1>   1.3330 
  2 O        1.2440    -0.7320    -0.7690 O.2   1 <1>  -0.6500 
  3 O       -1.0150    -1.0310     0.3300 O.2   1 <1>  -0.6500 
  4 N       -0.2640     1.3630    -0.4580 N.am  1 <1>  -0.6930 
  5 C       -0.8740    -0.5640    -2.2110 C.3   1 <1>  -0.1350 
  6 C       -1.4990     1.9630    -0.2560 C.ar  1 <1>   0.1990 
  7 C        0.9420     2.0930     0.0950 C.3   1 <1>   0.0900 
  8 C       -2.0630     2.7490    -1.2480 C.ar  1 <1>  -0.1500 
  9 C       -2.2010     1.7960     0.9270 C.ar  1 <1>  -0.1500 
 10 C        1.0000     2.3290     1.6090 C.2   1 <1>   0.9060 
 11 C       -3.3010     3.3380    -1.0680 C.ar  1 <1>  -0.1500 
 12 C       -3.4390     2.3840     1.1090 C.ar  1 <1>  -0.1500 
 13 O        0.7960     1.3970     2.3980 O.co2 1 <1>  -0.9000 
 14 O        1.2880     3.4650     2.0070 O.co2 1 <1>  -0.9000 
 15 C       -4.0190     3.1670     0.1130 C.ar  1 <1>  -0.1440 
 16 C       -5.3980     3.8470     0.2740 C.3   1 <1>   0.1430 
 17 C       -5.2450     5.3820     0.1500 C.3   1 <1>  -0.1600 
 18 C       -6.3620     3.3520    -0.8310 C.3   1 <1>  -0.1600 
 19 C       -6.0650     3.5530     1.6430 C.3   1 <1>  -0.1600 
 20 C       -6.6100     6.0880     0.2550 C.3   1 <1>  -0.0800 
 21 C       -7.7320     4.0510    -0.7290 C.3   1 <1>  -0.0800 
 22 C       -7.4350     4.2470     1.7650 C.3   1 <1>  -0.0800 
 23 C       -7.5340     5.5720    -0.8650 C.3   1 <1>  -0.1600 
 24 C       -7.2430     5.7680     1.6210 C.3   1 <1>  -0.1600 
 25 C       -8.3580     3.7420     0.6420 C.3   1 <1>  -0.1600 
 26 H       -0.8580    -1.5980    -2.4900 H     1 <1>   0.0800 
 27 H       -0.3270     0.0020    -2.9380 H     1 <1>   0.0800 
 28 H       -1.8910    -0.2240    -2.1960 H     1 <1>   0.0800 
 29 H        0.9880     3.0600    -0.3670 H     1 <1>   0.0800 
 30 H        1.8380     1.5680    -0.1730 H     1 <1>   0.0800 
 31 H       -1.5180     2.8980    -2.1610 H     1 <1>   0.1500 
 32 H       -1.7580     1.2010     1.7100 H     1 <1>   0.1500 
 33 H       -3.7000     3.9390    -1.8640 H     1 <1>   0.1500 
 34 H       -3.9220     2.2120     2.0520 H     1 <1>   0.1500 
 35 H       -4.7950     5.6370    -0.7920 H     1 <1>   0.0800 
 36 H       -4.5890     5.7370     0.9250 H     1 <1>   0.0800 
 37 H       -5.9470     3.5460    -1.8030 H     1 <1>   0.0800 
 38 H       -6.4880     2.2870    -0.7420 H     1 <1>   0.0800 
 39 H       -5.4280     3.8990     2.4370 H     1 <1>   0.0800 
 40 H       -6.1990     2.4930     1.7600 H     1 <1>   0.0800 
 41 H       -6.4770     7.1520     0.1570 H     1 <1>   0.0800 
 42 H       -8.3790     3.6960    -1.5120 H     1 <1>   0.0800 
 43 H       -7.8710     4.0250     2.7230 H     1 <1>   0.0800 
 44 H       -7.1050     5.8000    -1.8250 H     1 <1>   0.0800 
 45 H       -8.4870     6.0690    -0.8070 H     1 <1>   0.0800 
 46 H       -8.1920     6.2660     1.7100 H     1 <1>   0.0800 
 47 H       -6.6070     6.1310     2.4100 H     1 <1>   0.0800 
 48 H       -8.5080     2.6810     0.7430 H     1 <1>   0.0800 
 49 H       -9.3210     4.2170     0.7190 H     1 <1>   0.0800 
@<TRIPOS>BOND
  1   1   2  2   
  2   1   3  2   
  3   1   4  am  
  4   1   5  1   
  5   4   6  1   
  6   4   7  1   
  7   5  26  1   
  8   5  27  1   
  9   5  28  1   
 10   6   8  ar  
 11   6   9  ar  
 12   7  10  1   
 13   7  29  1   
 14   7  30  1   
 15   8  11  ar  
 16   8  31  1   
 17   9  12  ar  
 18   9  32  1   
 19  10  13  ar  
 20  10  14  ar  
 21  11  15  ar  
 22  11  33  1   
 23  12  15  ar  
 24  12  34  1   
 25  15  16  1   
 26  16  17  1   
 27  16  18  1   
 28  16  19  1   
 29  17  20  1   
 30  17  35  1   
 31  17  36  1   
 32  18  21  1   
 33  18  37  1   
 34  18  38  1   
 35  19  22  1   
 36  19  39  1   
 37  19  40  1   
 38  20  23  1   
 39  20  24  1   
 40  20  41  1   
 41  21  23  1   
 42  21  25  1   
 43  21  42  1   
 44  22  24  1   
 45  22  25  1   
 46  22  43  1   
 47  23  44  1   
 48  23  45  1   
 49  24  46  1   
 50  24  47  1   
 51  25  48  1   
 52  25  49  1   
@<TRIPOS>SUBSTRUCTURE
  1 ****  15 GROUP 4 **** **** 0

# MOE 2024.06 (io_trps.svl 2023.06)
