@<TRIPOS>MOLECULE
NONAME
47 49 1 0 0 
SMALL
USER_CHARGES


@<TRIPOS>ATOM
  1 O        0.4240     0.1980    -0.9570 O.2   1 <1>  -0.5700 
  2 C        1.6310     0.1280    -1.1580 C.2   1 <1>   0.6900 
  3 N        2.4970    -0.7640    -0.6380 N.am  1 <1>  -0.4200 
  4 N        2.3400     0.9430    -1.9530 N.am  1 <1>  -0.3680 
  5 C        3.7430    -0.4240    -1.1760 C.2   1 <1>   0.4240 
  6 C        2.0830    -1.8310     0.3070 C.3   1 <1>   0.2200 
  7 N        3.6630     0.5970    -1.9630 N.2   1 <1>  -0.5120 
  8 C        4.9710    -1.1230    -0.8880 C.ar  1 <1>   0.0860 
  9 C        2.8550    -1.7650     1.6330 C.3   1 <1>  -0.1600 
 10 C        2.1880    -3.2220    -0.3350 C.3   1 <1>  -0.1600 
 11 C        5.8290    -0.6800     0.1140 C.ar  1 <1>  -0.1500 
 12 C        5.3420    -2.2560    -1.6060 C.ar  1 <1>  -0.1500 
 13 C        2.3600    -2.8470     2.6030 C.3   1 <1>  -0.1600 
 14 C        1.7000    -4.3080     0.6350 C.3   1 <1>  -0.1600 
 15 C        7.0020    -1.3470     0.4230 C.ar  1 <1>   0.0830 
 16 C        6.5050    -2.9420    -1.3150 C.ar  1 <1>   0.0830 
 17 C        2.4570    -4.2420     1.9690 C.3   1 <1>  -0.1600 
 18 O        7.7280    -0.8120     1.4430 O.3   1 <1>  -0.3630 
 19 C        7.3650    -2.4840    -0.3120 C.ar  1 <1>   0.0830 
 20 O        6.7650    -4.0520    -2.0510 O.3   1 <1>  -0.3630 
 21 C        8.3910    -1.6560     2.3600 C.3   1 <1>   0.0400 
 22 O        8.5430    -3.1210    -0.0810 O.3   1 <1>  -0.3630 
 23 C        6.7640    -5.2840    -1.3630 C.3   1 <1>   0.0400 
 24 C        9.5630    -2.8560    -1.0170 C.3   1 <1>   0.0400 
 25 H        1.9240     1.7170    -2.4740 H     1 <1>   0.3700 
 26 H        1.0430    -1.6700     0.5420 H     1 <1>   0.0800 
 27 H        2.7230    -0.7960     2.0800 H     1 <1>   0.0800 
 28 H        3.9020    -1.9280     1.4640 H     1 <1>   0.0800 
 29 H        3.2070    -3.4340    -0.5930 H     1 <1>   0.0800 
 30 H        1.5920    -3.2500    -1.2310 H     1 <1>   0.0800 
 31 H        5.5740     0.2050     0.6700 H     1 <1>   0.1500 
 32 H        4.7110    -2.6080    -2.4020 H     1 <1>   0.1500 
 33 H        1.3360    -2.6470     2.8720 H     1 <1>   0.0800 
 34 H        2.9480    -2.8200     3.5050 H     1 <1>   0.0800 
 35 H        1.8380    -5.2780     0.1890 H     1 <1>   0.0800 
 36 H        0.6460    -4.1770     0.8160 H     1 <1>   0.0800 
 37 H        2.0540    -4.9750     2.6480 H     1 <1>   0.0800 
 38 H        3.4930    -4.4860     1.8030 H     1 <1>   0.0800 
 39 H        8.5500    -1.1040     3.2680 H     1 <1>   0.0800 
 40 H        9.3380    -1.9480     1.9440 H     1 <1>   0.0800 
 41 H        7.7790    -2.5190     2.5540 H     1 <1>   0.0800 
 42 H        6.8310    -6.0730    -2.0900 H     1 <1>   0.0800 
 43 H        5.8480    -5.3730    -0.8060 H     1 <1>   0.0800 
 44 H        7.6100    -5.3260    -0.7020 H     1 <1>   0.0800 
 45 H       10.4480    -3.3850    -0.7120 H     1 <1>   0.0800 
 46 H        9.7530    -1.7970    -1.0330 H     1 <1>   0.0800 
 47 H        9.2480    -3.1950    -1.9880 H     1 <1>   0.0800 
@<TRIPOS>BOND
  1   1   2  2   
  2   2   3  am  
  3   2   4  am  
  4   3   5  1   
  5   3   6  1   
  6   4   7  1   
  7   4  25  1   
  8   5   7  2   
  9   5   8  1   
 10   6   9  1   
 11   6  10  1   
 12   6  26  1   
 13   8  11  ar  
 14   8  12  ar  
 15   9  13  1   
 16   9  27  1   
 17   9  28  1   
 18  10  14  1   
 19  10  29  1   
 20  10  30  1   
 21  11  15  ar  
 22  11  31  1   
 23  12  16  ar  
 24  12  32  1   
 25  13  17  1   
 26  13  33  1   
 27  13  34  1   
 28  14  17  1   
 29  14  35  1   
 30  14  36  1   
 31  15  18  1   
 32  15  19  ar  
 33  16  19  ar  
 34  16  20  1   
 35  17  37  1   
 36  17  38  1   
 37  18  21  1   
 38  19  22  1   
 39  20  23  1   
 40  21  39  1   
 41  21  40  1   
 42  21  41  1   
 43  22  24  1   
 44  23  42  1   
 45  23  43  1   
 46  23  44  1   
 47  24  45  1   
 48  24  46  1   
 49  24  47  1   
@<TRIPOS>SUBSTRUCTURE
  1 ****   8 GROUP 4 **** **** 0

# MOE 2024.06 (io_trps.svl 2023.06)
