@<TRIPOS>MOLECULE
NONAME
45 47 1 0 0 
SMALL
USER_CHARGES


@<TRIPOS>ATOM
  1 F        1.7690    -0.9570     2.0200 F     1 <1>  -0.3400 
  2 C        1.8830    -1.2050     0.7220 C.3   1 <1>   1.1640 
  3 F        1.2680    -0.2090     0.0950 F     1 <1>  -0.3400 
  4 F        3.1740    -1.0770     0.4340 F     1 <1>  -0.3400 
  5 C        1.3130    -2.5810     0.3420 C.ar  1 <1>  -0.1440 
  6 C       -0.0630    -2.7890     0.3640 C.ar  1 <1>  -0.1500 
  7 C        2.1370    -3.6430    -0.0210 C.ar  1 <1>  -0.1500 
  8 C       -0.6130    -4.0180     0.0300 C.ar  1 <1>   0.1170 
  9 C        1.5970    -4.8720    -0.3560 C.ar  1 <1>  -0.1500 
 10 N       -1.9890    -4.2840     0.0340 N.am  1 <1>  -0.5470 
 11 C        0.2250    -5.0790    -0.3380 C.ar  1 <1>   0.1000 
 12 C       -3.1100    -3.5780     0.3590 C.2   1 <1>   0.5690 
 13 N       -0.3290    -6.3270    -0.6770 N.pl3 1 <1>  -0.8380 
 14 O       -3.0930    -2.4330     0.7440 O.2   1 <1>  -0.5700 
 15 C       -4.4600    -4.2730     0.2330 C.3   1 <1>   0.1810 
 16 C       -0.1180    -7.4240     0.3020 C.3   1 <1>   0.2090 
 17 C       -0.0630    -6.8280    -2.0510 C.3   1 <1>   0.2090 
 18 O       -4.3100    -5.6280    -0.1730 O.3   1 <1>  -0.3630 
 19 C        0.0520    -8.6880    -0.5310 C.3   1 <1>  -0.1600 
 20 C        0.5870    -8.1930    -1.8670 C.3   1 <1>  -0.1600 
 21 C       -5.3820    -6.4360    -0.3520 C.ar  1 <1>   0.0830 
 22 C       -6.7000    -6.0330    -0.1470 C.ar  1 <1>  -0.1500 
 23 C       -5.1210    -7.7340    -0.7630 C.ar  1 <1>  -0.1500 
 24 C       -7.7360    -6.9280    -0.3550 C.ar  1 <1>  -0.1500 
 25 C       -6.1580    -8.6260    -0.9700 C.ar  1 <1>  -0.1500 
 26 C       -7.4660    -8.2230    -0.7650 C.ar  1 <1>  -0.1500 
 27 H       -0.7150    -1.9820     0.6440 H     1 <1>   0.1500 
 28 H        3.2080    -3.5240    -0.0460 H     1 <1>   0.1500 
 29 H        2.2440    -5.6830    -0.6340 H     1 <1>   0.1500 
 30 H       -2.1560    -5.2520    -0.2690 H     1 <1>   0.3700 
 31 H       -5.0530    -3.7620    -0.5030 H     1 <1>   0.0800 
 32 H       -4.9560    -4.2560     1.1850 H     1 <1>   0.0800 
 33 H       -0.9620    -7.5030     0.9650 H     1 <1>   0.0800 
 34 H        0.7710    -7.2330     0.8800 H     1 <1>   0.0800 
 35 H        0.5730    -6.1560    -2.6040 H     1 <1>   0.0800 
 36 H       -1.0020    -6.9290    -2.5670 H     1 <1>   0.0800 
 37 H       -0.9130    -9.1450    -0.6680 H     1 <1>   0.0800 
 38 H        0.7110    -9.3930    -0.0570 H     1 <1>   0.0800 
 39 H        1.6540    -8.0670    -1.8130 H     1 <1>   0.0800 
 40 H        0.3510    -8.8590    -2.6780 H     1 <1>   0.0800 
 41 H       -6.9400    -5.0370     0.1710 H     1 <1>   0.1500 
 42 H       -4.1020    -8.0390    -0.9200 H     1 <1>   0.1500 
 43 H       -8.7540    -6.6180    -0.1970 H     1 <1>   0.1500 
 44 H       -5.9480    -9.6320    -1.2890 H     1 <1>   0.1500 
 45 H       -8.2740    -8.9160    -0.9260 H     1 <1>   0.1500 
@<TRIPOS>BOND
  1   1   2  1   
  2   2   3  1   
  3   2   4  1   
  4   2   5  1   
  5   5   6  ar  
  6   5   7  ar  
  7   6   8  ar  
  8   6  27  1   
  9   7   9  ar  
 10   7  28  1   
 11   8  10  1   
 12   8  11  ar  
 13   9  11  ar  
 14   9  29  1   
 15  10  12  am  
 16  10  30  1   
 17  11  13  1   
 18  12  14  2   
 19  12  15  1   
 20  13  16  1   
 21  13  17  1   
 22  15  18  1   
 23  15  31  1   
 24  15  32  1   
 25  16  19  1   
 26  16  33  1   
 27  16  34  1   
 28  17  20  1   
 29  17  35  1   
 30  17  36  1   
 31  18  21  1   
 32  19  20  1   
 33  19  37  1   
 34  19  38  1   
 35  20  39  1   
 36  20  40  1   
 37  21  22  ar  
 38  21  23  ar  
 39  22  24  ar  
 40  22  41  1   
 41  23  25  ar  
 42  23  42  1   
 43  24  26  ar  
 44  24  43  1   
 45  25  26  ar  
 46  25  44  1   
 47  26  45  1   
@<TRIPOS>SUBSTRUCTURE
  1 ****  10 GROUP 4 **** **** 0

# MOE 2024.06 (io_trps.svl 2023.06)
