@<TRIPOS>MOLECULE
NONAME
36 37 1 0 0 
SMALL
USER_CHARGES


@<TRIPOS>ATOM
  1 O        0.1670     0.4260     0.5500 O.2   1 <1>  -0.5700 
  2 C       -0.1920     1.5390     0.2510 C.2   1 <1>   0.5690 
  3 N        0.6640     2.5620    -0.1240 N.am  1 <1>  -0.2860 
  4 C       -1.6730     1.8340     0.2780 C.3   1 <1>  -0.0990 
  5 C        2.0550     2.2990    -0.1400 C.ar  1 <1>   0.1170 
  6 C        0.1710     3.8560    -0.3810 C.2   1 <1>  -0.0290 
  7 C       -1.9370     3.2550     0.7820 C.3   1 <1>  -0.0220 
  8 C        2.8810     2.8240     0.8470 C.ar  1 <1>  -0.1500 
  9 C        2.6210     1.5220    -1.1430 C.ar  1 <1>  -0.1500 
 10 C       -1.0560     4.2800     0.0500 C.2   1 <1>  -0.1240 
 11 C        1.1180     4.7490    -1.1910 C.3   1 <1>  -0.1020 
 12 C        4.2450     2.5900     0.8310 C.ar  1 <1>  -0.1500 
 13 C        3.9840     1.2850    -1.1650 C.ar  1 <1>  -0.1500 
 14 C       -1.5900     5.6160    -0.0630 C.2   1 <1>   0.4950 
 15 C        4.8050     1.8160    -0.1830 C.ar  1 <1>   0.0830 
 16 O       -0.9030     6.6050    -0.1290 O.2   1 <1>  -0.5700 
 17 C       -3.0840     5.8790    -0.0820 C.3   1 <1>  -0.1790 
 18 O        6.1310     1.5380    -0.2790 O.3   1 <1>  -0.3630 
 19 C        7.0380     1.9770     0.7070 C.3   1 <1>   0.0400 
 20 H       -2.1690     1.1200     0.9100 H     1 <1>   0.0800 
 21 H       -2.0530     1.7230    -0.7210 H     1 <1>   0.0800 
 22 H       -1.7130     3.3060     1.8340 H     1 <1>   0.0800 
 23 H       -2.9870     3.4430     0.6630 H     1 <1>   0.0800 
 24 H        2.4470     3.4200     1.6300 H     1 <1>   0.1500 
 25 H        1.9890     1.1010    -1.9030 H     1 <1>   0.1500 
 26 H        1.6180     4.1810    -1.9540 H     1 <1>   0.0800 
 27 H        1.8560     5.1870    -0.5440 H     1 <1>   0.0800 
 28 H        0.5960     5.5390    -1.6970 H     1 <1>   0.0800 
 29 H        4.8500     3.0130     1.6090 H     1 <1>   0.1500 
 30 H        4.4190     0.6840    -1.9420 H     1 <1>   0.1500 
 31 H       -3.4850     5.7950     0.9110 H     1 <1>   0.0800 
 32 H       -3.5780     5.1890    -0.7400 H     1 <1>   0.0800 
 33 H       -3.2720     6.8760    -0.4400 H     1 <1>   0.0800 
 34 H        8.0180     1.6250     0.4400 H     1 <1>   0.0800 
 35 H        6.7480     1.5650     1.6570 H     1 <1>   0.0800 
 36 H        7.0320     3.0520     0.7330 H     1 <1>   0.0800 
@<TRIPOS>BOND
  1   1   2  2   
  2   2   3  am  
  3   2   4  1   
  4   3   5  1   
  5   3   6  1   
  6   4   7  1   
  7   4  20  1   
  8   4  21  1   
  9   5   8  ar  
 10   5   9  ar  
 11   6  10  2   
 12   6  11  1   
 13   7  10  1   
 14   7  22  1   
 15   7  23  1   
 16   8  12  ar  
 17   8  24  1   
 18   9  13  ar  
 19   9  25  1   
 20  10  14  1   
 21  11  26  1   
 22  11  27  1   
 23  11  28  1   
 24  12  15  ar  
 25  12  29  1   
 26  13  15  ar  
 27  13  30  1   
 28  14  16  2   
 29  14  17  1   
 30  15  18  1   
 31  17  31  1   
 32  17  32  1   
 33  17  33  1   
 34  18  19  1   
 35  19  34  1   
 36  19  35  1   
 37  19  36  1   
@<TRIPOS>SUBSTRUCTURE
  1 ****   3 GROUP 4 **** **** 0

# MOE 2024.06 (io_trps.svl 2023.06)
