@<TRIPOS>MOLECULE
NONAME
53 55 1 0 0 
SMALL
USER_CHARGES


@<TRIPOS>ATOM
  1 O        0.1450    -0.6030     1.4930 O.2   1 <1>  -0.5700 
  2 C       -0.2740    -1.5570     0.8820 C.2   1 <1>   0.4950 
  3 C        0.5770    -2.4870     0.1990 C.2   1 <1>   0.0290 
  4 C       -1.7840    -1.7060     0.8750 C.3   1 <1>  -0.0990 
  5 C       -0.0330    -3.5780    -0.5120 C.2   1 <1>   0.4950 
  6 C        1.9430    -2.3100     0.2460 C.2   1 <1>  -0.0500 
  7 C       -2.2090    -3.1620     0.6880 C.3   1 <1>   0.0640 
  8 O        0.5850    -4.4290    -1.1110 O.2   1 <1>  -0.5700 
  9 C       -1.5420    -3.7330    -0.5630 C.3   1 <1>  -0.0990 
 10 N        2.8800    -3.1000    -0.3520 N.pl3 1 <1>  -0.6000 
 11 C       -3.7280    -3.2950     0.6190 C.ar  1 <1>  -0.1430 
 12 C        4.2790    -3.0000    -0.3640 C.ar  1 <1>   0.1000 
 13 C       -4.4630    -2.6720    -0.3820 C.ar  1 <1>  -0.1500 
 14 C       -4.3980    -4.0490     1.5730 C.ar  1 <1>  -0.1500 
 15 C        4.9580    -1.8780     0.0990 C.ar  1 <1>  -0.1500 
 16 C        5.0200    -4.0640    -0.8630 C.ar  1 <1>  -0.1500 
 17 C       -5.8420    -2.7940    -0.4340 C.ar  1 <1>   0.0830 
 18 C       -5.7750    -4.1900     1.5200 C.ar  1 <1>  -0.1500 
 19 C        6.3410    -1.8200     0.0720 C.ar  1 <1>  -0.1430 
 20 C        6.4030    -4.0190    -0.9000 C.ar  1 <1>  -0.1430 
 21 O       -6.4860    -2.1230    -1.4200 O.3   1 <1>  -0.3630 
 22 C       -6.5030    -3.5830     0.5130 C.ar  1 <1>   0.0830 
 23 C        7.0580    -2.8930    -0.4290 C.ar  1 <1>  -0.1500 
 24 C        7.0730    -0.5920     0.5810 C.3   1 <1>  -0.0970 
 25 C        7.2030    -5.1870    -1.4460 C.3   1 <1>  -0.0970 
 26 C       -7.3750    -1.1050    -1.0130 C.3   1 <1>   0.0400 
 27 O       -7.8420    -3.7930     0.4960 O.3   1 <1>  -0.3630 
 28 C       -8.3450    -4.5320    -0.5960 C.3   1 <1>   0.0400 
 29 H       -2.1790    -1.0890     0.0890 H     1 <1>   0.0800 
 30 H       -2.1790    -1.3410     1.8070 H     1 <1>   0.0800 
 31 H        2.3270    -1.4750     0.8080 H     1 <1>   0.1500 
 32 H       -1.8530    -3.7220     1.5370 H     1 <1>   0.0800 
 33 H       -1.7880    -4.7770    -0.6450 H     1 <1>   0.0800 
 34 H       -1.9040    -3.2420    -1.4470 H     1 <1>   0.0800 
 35 H        2.5070    -3.9120    -0.8730 H     1 <1>   0.4000 
 36 H       -3.9850    -2.0770    -1.1370 H     1 <1>   0.1500 
 37 H       -3.8580    -4.5370     2.3660 H     1 <1>   0.1500 
 38 H        4.4040    -1.0420     0.4790 H     1 <1>   0.1500 
 39 H        4.5030    -4.9340    -1.2230 H     1 <1>   0.1500 
 40 H       -6.2910    -4.7790     2.2570 H     1 <1>   0.1500 
 41 H        8.1330    -2.8520    -0.4540 H     1 <1>   0.1500 
 42 H        6.4290     0.0080     1.1980 H     1 <1>   0.0800 
 43 H        7.4070     0.0020    -0.2510 H     1 <1>   0.0800 
 44 H        7.9260    -0.8850     1.1650 H     1 <1>   0.0800 
 45 H        6.5670    -5.8730    -1.9750 H     1 <1>   0.0800 
 46 H        7.6800    -5.7100    -0.6370 H     1 <1>   0.0800 
 47 H        7.9580    -4.8310    -2.1240 H     1 <1>   0.0800 
 48 H       -7.7030    -0.5750    -1.8890 H     1 <1>   0.0800 
 49 H       -6.8560    -0.4360    -0.3490 H     1 <1>   0.0800 
 50 H       -8.2190    -1.5450    -0.5150 H     1 <1>   0.0800 
 51 H       -9.3930    -4.7010    -0.4340 H     1 <1>   0.0800 
 52 H       -7.8220    -5.4710    -0.6490 H     1 <1>   0.0800 
 53 H       -8.2000    -3.9730    -1.5030 H     1 <1>   0.0800 
@<TRIPOS>BOND
  1   1   2  2   
  2   2   3  1   
  3   2   4  1   
  4   3   5  1   
  5   3   6  2   
  6   4   7  1   
  7   4  29  1   
  8   4  30  1   
  9   5   8  2   
 10   5   9  1   
 11   6  10  1   
 12   6  31  1   
 13   7   9  1   
 14   7  11  1   
 15   7  32  1   
 16   9  33  1   
 17   9  34  1   
 18  10  12  1   
 19  10  35  1   
 20  11  13  ar  
 21  11  14  ar  
 22  12  15  ar  
 23  12  16  ar  
 24  13  17  ar  
 25  13  36  1   
 26  14  18  ar  
 27  14  37  1   
 28  15  19  ar  
 29  15  38  1   
 30  16  20  ar  
 31  16  39  1   
 32  17  21  1   
 33  17  22  ar  
 34  18  22  ar  
 35  18  40  1   
 36  19  23  ar  
 37  19  24  1   
 38  20  23  ar  
 39  20  25  1   
 40  21  26  1   
 41  22  27  1   
 42  23  41  1   
 43  24  42  1   
 44  24  43  1   
 45  24  44  1   
 46  25  45  1   
 47  25  46  1   
 48  25  47  1   
 49  26  48  1   
 50  26  49  1   
 51  26  50  1   
 52  27  28  1   
 53  28  51  1   
 54  28  52  1   
 55  28  53  1   
@<TRIPOS>SUBSTRUCTURE
  1 ****   5 GROUP 4 **** **** 0

# MOE 2024.06 (io_trps.svl 2023.06)
