@<TRIPOS>MOLECULE
NONAME
42 46 1 0 0 
SMALL
USER_CHARGES


@<TRIPOS>ATOM
  1 S        0.1210    -0.3020     0.6710 S.3   1 <1>  -0.2860 
  2 C       -1.3800    -1.2970     0.6210 C.2   1 <1>   0.2420 
  3 C        1.4630    -1.5500     0.8970 C.3   1 <1>  -0.0100 
  4 N       -1.3730    -2.5800     0.7110 N.2   1 <1>  -0.3380 
  5 N       -2.6080    -0.7700     0.4730 N.pl3 1 <1>   0.2940 
  6 N       -2.6530    -2.9680     0.6210 N.2   1 <1>  -0.3380 
  7 C       -3.1980     0.4940     0.3610 C.2   1 <1>   0.5650 
  8 C       -3.3530    -1.8890     0.4800 C.2   1 <1>   0.2700 
  9 O       -2.5210     1.4790     0.6050 O.2   1 <1>  -0.5700 
 10 C       -4.5990     0.5510     0.0400 C.2   1 <1>  -0.1240 
 11 N       -4.7250    -1.8000     0.3420 N.pl3 1 <1>  -0.5840 
 12 C       -5.3610    -0.5910     0.1330 C.2   1 <1>   0.0720 
 13 C       -5.2990     1.8810    -0.3520 C.3   1 <1>   0.1380 
 14 C       -6.8050    -0.5900     0.0470 C.ar  1 <1>   0.0280 
 15 C       -6.5870     1.5800    -1.1690 C.3   1 <1>  -0.0160 
 16 C       -4.4910     2.8960    -1.1940 C.3   1 <1>  -0.1600 
 17 C       -5.6420     2.6930     0.9040 C.3   1 <1>  -0.1600 
 18 C       -7.4440     0.4820    -0.5670 C.ar  1 <1>  -0.1430 
 19 C       -7.6050    -1.6010     0.5860 C.ar  1 <1>  -0.1500 
 20 C       -5.1230     4.2640    -0.9150 C.3   1 <1>  -0.1600 
 21 C       -5.8000     4.1510     0.4550 C.3   1 <1>  -0.1600 
 22 C       -8.8240     0.5410    -0.6500 C.ar  1 <1>  -0.1500 
 23 C       -8.9840    -1.5470     0.5030 C.ar  1 <1>  -0.1500 
 24 C       -9.5970    -0.4740    -0.1160 C.ar  1 <1>  -0.1500 
 25 H        2.3990    -1.0230     0.9380 H     1 <1>   0.0800 
 26 H        1.4330    -2.2220     0.0580 H     1 <1>   0.0800 
 27 H        1.2730    -2.0750     1.8150 H     1 <1>   0.0800 
 28 H       -5.2490    -2.6810     0.3310 H     1 <1>   0.4000 
 29 H       -6.3070     1.2510    -2.1540 H     1 <1>   0.0800 
 30 H       -7.1790     2.4690    -1.2860 H     1 <1>   0.0800 
 31 H       -4.4930     2.6640    -2.2440 H     1 <1>   0.0800 
 32 H       -3.4690     2.9670    -0.8860 H     1 <1>   0.0800 
 33 H       -4.8180     2.6390     1.5960 H     1 <1>   0.0800 
 34 H       -6.5240     2.3260     1.3980 H     1 <1>   0.0800 
 35 H       -7.1550    -2.4360     1.0900 H     1 <1>   0.1500 
 36 H       -5.8580     4.4920    -1.6670 H     1 <1>   0.0800 
 37 H       -4.3760     5.0400    -0.9200 H     1 <1>   0.0800 
 38 H       -5.3410     4.8140     1.1690 H     1 <1>   0.0800 
 39 H       -6.8430     4.4040     0.3710 H     1 <1>   0.0800 
 40 H       -9.3080     1.3730    -1.1320 H     1 <1>   0.1500 
 41 H       -9.5830    -2.3360     0.9240 H     1 <1>   0.1500 
 42 H      -10.6700    -0.4280    -0.1820 H     1 <1>   0.1500 
@<TRIPOS>BOND
  1   1   2  1   
  2   1   3  1   
  3   2   4  2   
  4   2   5  1   
  5   3  25  1   
  6   3  26  1   
  7   3  27  1   
  8   4   6  1   
  9   5   7  1   
 10   5   8  1   
 11   6   8  2   
 12   7   9  2   
 13   7  10  1   
 14   8  11  1   
 15  10  12  2   
 16  10  13  1   
 17  11  12  1   
 18  11  28  1   
 19  12  14  1   
 20  13  15  1   
 21  13  16  1   
 22  13  17  1   
 23  14  18  ar  
 24  14  19  ar  
 25  15  18  1   
 26  15  29  1   
 27  15  30  1   
 28  16  20  1   
 29  16  31  1   
 30  16  32  1   
 31  17  21  1   
 32  17  33  1   
 33  17  34  1   
 34  18  22  ar  
 35  19  23  ar  
 36  19  35  1   
 37  20  21  1   
 38  20  36  1   
 39  20  37  1   
 40  21  38  1   
 41  21  39  1   
 42  22  24  ar  
 43  22  40  1   
 44  23  24  ar  
 45  23  41  1   
 46  24  42  1   
@<TRIPOS>SUBSTRUCTURE
  1 ****  10 GROUP 4 **** **** 0

# MOE 2024.06 (io_trps.svl 2023.06)
