@<TRIPOS>MOLECULE
NONAME
41 43 1 0 0 
SMALL
USER_CHARGES


@<TRIPOS>ATOM
  1 O        0.9660     0.0600    -0.5530 O.2   1 <1>  -0.5700 
  2 C        1.9260     0.7510    -0.2770 C.2   1 <1>   0.6900 
  3 N        1.7910     2.0540     0.1770 N.am  1 <1>  -0.4200 
  4 N        3.1720     0.2100    -0.4270 N.am  1 <1>  -0.4940 
  5 C        2.9160     2.8340     0.4530 C.2   1 <1>   0.7160 
  6 C        0.4320     2.6470     0.3430 C.3   1 <1>   0.0600 
  7 C        4.3140     0.9490    -0.1400 C.2   1 <1>  -0.0880 
  8 O        2.7550     3.9910     0.8170 O.2   1 <1>  -0.5700 
  9 C        4.2200     2.2370     0.2880 C.2   1 <1>   0.1410 
 10 N        5.6140     0.6280    -0.2120 N.pl3 1 <1>   0.0480 
 11 N        5.4710     2.7370     0.4800 N.2   1 <1>  -0.5650 
 12 C        6.2830     1.7620     0.1800 C.2   1 <1>   0.1330 
 13 C        6.1860    -0.6290    -0.7470 C.3   1 <1>   0.0960 
 14 C        7.7210     1.8640     0.2270 C.ar  1 <1>   0.0530 
 15 C        6.0320    -1.7750     0.2630 C.3   1 <1>  -0.1600 
 16 C        8.4970     1.0090     1.0090 C.ar  1 <1>  -0.1500 
 17 C        8.3820     2.8350    -0.5210 C.ar  1 <1>  -0.1500 
 18 C        6.6450    -3.0720    -0.2760 C.3   1 <1>  -0.2400 
 19 C        9.8760     1.1030     1.0180 C.ar  1 <1>  -0.1500 
 20 C        9.7610     2.9380    -0.5170 C.ar  1 <1>  -0.1500 
 21 C       10.5210     2.0620     0.2540 C.ar  1 <1>   0.0820 
 22 O       11.8740     2.0860     0.3140 O.3   1 <1>  -0.3620 
 23 C       12.6230     3.0510    -0.3890 C.3   1 <1>   0.0400 
 24 H        3.1920    -0.7550    -0.7570 H     1 <1>   0.3700 
 25 H       -0.3190     1.8790     0.4030 H     1 <1>   0.0800 
 26 H        0.2160     3.2870    -0.4940 H     1 <1>   0.0800 
 27 H        0.3940     3.2300     1.2470 H     1 <1>   0.0800 
 28 H        7.2250    -0.4760    -0.9780 H     1 <1>   0.0800 
 29 H        5.6750    -0.8740    -1.6610 H     1 <1>   0.0800 
 30 H        4.9890    -1.9400     0.4720 H     1 <1>   0.0800 
 31 H        6.5220    -1.5140     1.1850 H     1 <1>   0.0800 
 32 H        8.0130     0.2720     1.6220 H     1 <1>   0.1500 
 33 H        7.7940     3.5180    -1.1100 H     1 <1>   0.1500 
 34 H        6.1590    -3.3710    -1.1880 H     1 <1>   0.0800 
 35 H        6.5270    -3.8610     0.4460 H     1 <1>   0.0800 
 36 H        7.6960    -2.9420    -0.4680 H     1 <1>   0.0800 
 37 H       10.4660     0.4380     1.6220 H     1 <1>   0.1500 
 38 H       10.2240     3.7010    -1.1120 H     1 <1>   0.1500 
 39 H       13.6640     2.8840    -0.1790 H     1 <1>   0.0800 
 40 H       12.3350     4.0310    -0.0510 H     1 <1>   0.0800 
 41 H       12.4390     2.9360    -1.4430 H     1 <1>   0.0800 
@<TRIPOS>BOND
  1   1   2  2   
  2   2   3  am  
  3   2   4  am  
  4   3   5  am  
  5   3   6  1   
  6   4   7  1   
  7   4  24  1   
  8   5   8  2   
  9   5   9  1   
 10   6  25  1   
 11   6  26  1   
 12   6  27  1   
 13   7   9  2   
 14   7  10  1   
 15   9  11  1   
 16  10  12  1   
 17  10  13  1   
 18  11  12  2   
 19  12  14  1   
 20  13  15  1   
 21  13  28  1   
 22  13  29  1   
 23  14  16  ar  
 24  14  17  ar  
 25  15  18  1   
 26  15  30  1   
 27  15  31  1   
 28  16  19  ar  
 29  16  32  1   
 30  17  20  ar  
 31  17  33  1   
 32  18  34  1   
 33  18  35  1   
 34  18  36  1   
 35  19  21  ar  
 36  19  37  1   
 37  20  21  ar  
 38  20  38  1   
 39  21  22  1   
 40  22  23  1   
 41  23  39  1   
 42  23  40  1   
 43  23  41  1   
@<TRIPOS>SUBSTRUCTURE
  1 ****  12 GROUP 4 **** **** 0

# MOE 2024.06 (io_trps.svl 2023.06)
