@<TRIPOS>MOLECULE
NONAME
40 42 1 0 0 
SMALL
USER_CHARGES


@<TRIPOS>ATOM
  1 S       -0.2380     0.3620     1.1680 S.3   1 <1>  -0.0800 
  2 C        0.4590     1.7950     0.4600 C.2   1 <1>   0.1660 
  3 C       -1.8520     1.0090     0.9440 C.2   1 <1>  -0.1100 
  4 N        1.8000     1.9510     0.3120 N.2   1 <1>  -0.5760 
  5 C       -0.4860     2.6870     0.0910 C.2   1 <1>  -0.0860 
  6 C       -1.8330     2.2360     0.3700 C.2   1 <1>  -0.0540 
  7 C        2.1760     3.0470    -0.2350 C.2   1 <1>   0.5390 
  8 C        0.0150     3.8840    -0.5080 C.2   1 <1>   0.8060 
  9 C       -3.0230     2.9990     0.0650 C.ar  1 <1>   0.0540 
 10 O        1.3340     3.9960    -0.6440 O.3   1 <1>  -0.3000 
 11 C        3.6500     3.3980    -0.4820 C.3   1 <1>  -0.0190 
 12 O       -0.6580     4.8180    -0.8960 O.2   1 <1>  -0.5700 
 13 C       -3.2020     4.2930     0.5410 C.ar  1 <1>  -0.1500 
 14 C       -4.0370     2.4480    -0.7120 C.ar  1 <1>  -0.1500 
 15 C        4.5970     2.1890    -0.3680 C.3   1 <1>  -0.2400 
 16 C        4.1200     4.5070     0.4740 C.3   1 <1>  -0.2400 
 17 C       -4.3330     5.0320     0.2340 C.ar  1 <1>   0.0830 
 18 C       -5.1850     3.1630    -1.0010 C.ar  1 <1>  -0.1500 
 19 O       -4.3880     6.3110     0.6810 O.3   1 <1>  -0.3630 
 20 C       -5.3580     4.4540    -0.5300 C.ar  1 <1>   0.0830 
 21 C       -3.4840     7.2080     0.0740 C.3   1 <1>   0.0400 
 22 O       -6.5370     5.0450    -0.8720 O.3   1 <1>  -0.3630 
 23 C       -7.0820     6.1020    -0.1140 C.3   1 <1>   0.0400 
 24 H       -2.6760     0.4000     1.2710 H     1 <1>   0.1500 
 25 H        3.7230     3.7700    -1.4890 H     1 <1>   0.0800 
 26 H       -2.4410     4.7350     1.1550 H     1 <1>   0.1500 
 27 H       -3.9240     1.4500    -1.0950 H     1 <1>   0.1500 
 28 H        4.5820     1.7890     0.6310 H     1 <1>   0.0800 
 29 H        5.6050     2.4750    -0.6090 H     1 <1>   0.0800 
 30 H        4.2920     1.4130    -1.0480 H     1 <1>   0.0800 
 31 H        4.0530     4.1750     1.4950 H     1 <1>   0.0800 
 32 H        3.5110     5.3870     0.3590 H     1 <1>   0.0800 
 33 H        5.1410     4.7750     0.2660 H     1 <1>   0.0800 
 34 H       -5.9620     2.7210    -1.5990 H     1 <1>   0.1500 
 35 H       -2.4760     6.9120     0.3060 H     1 <1>   0.0800 
 36 H       -3.6750     8.1930     0.4590 H     1 <1>   0.0800 
 37 H       -3.6400     7.1890    -0.9900 H     1 <1>   0.0800 
 38 H       -8.1160     6.2120    -0.3870 H     1 <1>   0.0800 
 39 H       -6.5470     7.0050    -0.3430 H     1 <1>   0.0800 
 40 H       -7.0000     5.8630     0.9320 H     1 <1>   0.0800 
@<TRIPOS>BOND
  1   1   2  1   
  2   1   3  1   
  3   2   4  1   
  4   2   5  2   
  5   3   6  2   
  6   3  24  1   
  7   4   7  2   
  8   5   6  1   
  9   5   8  1   
 10   6   9  1   
 11   7  10  1   
 12   7  11  1   
 13   8  10  1   
 14   8  12  2   
 15   9  13  ar  
 16   9  14  ar  
 17  11  15  1   
 18  11  16  1   
 19  11  25  1   
 20  13  17  ar  
 21  13  26  1   
 22  14  18  ar  
 23  14  27  1   
 24  15  28  1   
 25  15  29  1   
 26  15  30  1   
 27  16  31  1   
 28  16  32  1   
 29  16  33  1   
 30  17  19  1   
 31  17  20  ar  
 32  18  20  ar  
 33  18  34  1   
 34  19  21  1   
 35  20  22  1   
 36  21  35  1   
 37  21  36  1   
 38  21  37  1   
 39  22  23  1   
 40  23  38  1   
 41  23  39  1   
 42  23  40  1   
@<TRIPOS>SUBSTRUCTURE
  1 ****   5 GROUP 4 **** **** 0

# MOE 2024.06 (io_trps.svl 2023.06)
