@<TRIPOS>MOLECULE
NONAME
38 39 1 0 0 
SMALL
USER_CHARGES


@<TRIPOS>ATOM
  1 O        0.2640     0.0550     0.1440 O.2   1 <1>  -0.5700 
  2 C        0.5440    -1.1180     0.0090 C.2   1 <1>   0.7800 
  3 O        1.8180    -1.4980    -0.0680 O.3   1 <1>  -0.4300 
  4 N       -0.3590    -2.1330    -0.0700 N.am  1 <1>  -0.5470 
  5 C        2.8680    -0.5530     0.0020 C.3   1 <1>   0.0400 
  6 C       -1.7570    -2.1690    -0.0390 C.ar  1 <1>   0.1170 
  7 C       -2.3880    -3.4060    -0.0050 C.ar  1 <1>  -0.1500 
  8 C       -2.5630    -1.0340    -0.0460 C.ar  1 <1>  -0.1500 
  9 C       -3.7660    -3.5050     0.0250 C.ar  1 <1>  -0.1500 
 10 C       -3.9410    -1.1360    -0.0160 C.ar  1 <1>  -0.1500 
 11 C       -4.5860    -2.3750     0.0250 C.ar  1 <1>   0.0860 
 12 C       -6.0330    -2.5040     0.0620 C.2   1 <1>   0.5440 
 13 O       -6.5730    -3.5540    -0.2320 O.2   1 <1>  -0.5700 
 14 N       -6.8280    -1.4570     0.4330 N.am  1 <1>  -0.7300 
 15 C       -8.3100    -1.4400     0.4410 C.3   1 <1>   0.1400 
 16 C       -8.8250    -0.1160    -0.1410 C.3   1 <1>   0.2000 
 17 O       -8.2040     0.9660     0.4830 O.3   1 <1>  -0.5600 
 18 C      -10.3120     0.1240     0.0720 C.3   1 <1>  -0.1600 
 19 C       -8.9990     2.1080     0.3970 C.3   1 <1>   0.1200 
 20 C      -10.4070     1.6390     0.0340 C.3   1 <1>  -0.1600 
 21 H        0.1050    -3.0320    -0.1560 H     1 <1>   0.3700 
 22 H        3.8040    -1.0750    -0.0810 H     1 <1>   0.0800 
 23 H        2.8120    -0.0400     0.9470 H     1 <1>   0.0800 
 24 H        2.7620     0.1480    -0.8080 H     1 <1>   0.0800 
 25 H       -1.7990    -4.3050    -0.0020 H     1 <1>   0.1500 
 26 H       -2.1190    -0.0560    -0.0800 H     1 <1>   0.1500 
 27 H       -4.2280    -4.4780     0.0500 H     1 <1>   0.1500 
 28 H       -4.5240    -0.2330    -0.0320 H     1 <1>   0.1500 
 29 H       -6.4230    -0.5550     0.6980 H     1 <1>   0.3700 
 30 H       -8.6540    -1.5490     1.4540 H     1 <1>   0.0800 
 31 H       -8.6940    -2.2640    -0.1360 H     1 <1>   0.0800 
 32 H       -8.5900    -0.0620    -1.1910 H     1 <1>   0.0800 
 33 H      -10.6070    -0.2400     1.0410 H     1 <1>   0.0800 
 34 H      -10.9100    -0.3500    -0.6860 H     1 <1>   0.0800 
 35 H       -8.5890     2.7520    -0.3620 H     1 <1>   0.0800 
 36 H       -8.9760     2.6030     1.3520 H     1 <1>   0.0800 
 37 H      -11.1400     2.0170     0.7250 H     1 <1>   0.0800 
 38 H      -10.6510     1.9800    -0.9570 H     1 <1>   0.0800 
@<TRIPOS>BOND
  1   1   2  2   
  2   2   3  1   
  3   2   4  am  
  4   3   5  1   
  5   4   6  1   
  6   4  21  1   
  7   5  22  1   
  8   5  23  1   
  9   5  24  1   
 10   6   7  ar  
 11   6   8  ar  
 12   7   9  ar  
 13   7  25  1   
 14   8  10  ar  
 15   8  26  1   
 16   9  11  ar  
 17   9  27  1   
 18  10  11  ar  
 19  10  28  1   
 20  11  12  1   
 21  12  13  2   
 22  12  14  am  
 23  14  15  1   
 24  14  29  1   
 25  15  16  1   
 26  15  30  1   
 27  15  31  1   
 28  16  17  1   
 29  16  18  1   
 30  16  32  1   
 31  17  19  1   
 32  18  20  1   
 33  18  33  1   
 34  18  34  1   
 35  19  20  1   
 36  19  35  1   
 37  19  36  1   
 38  20  37  1   
 39  20  38  1   
@<TRIPOS>SUBSTRUCTURE
  1 ****  10 GROUP 4 **** **** 0

# MOE 2024.06 (io_trps.svl 2023.06)
