@<TRIPOS>MOLECULE
NONAME
42 42 1 0 0 
SMALL
USER_CHARGES


@<TRIPOS>ATOM
  1 N       -0.5520    -0.4340     0.5220 N.2   1 <1>  -0.7070 
  2 N       -1.5160    -0.8260    -0.3310 N.pl3 1 <1>   0.3140 
  3 C       -0.8250     0.8020     0.7910 C.2   1 <1>   0.1080 
  4 C       -2.3840     0.1810    -0.5870 C.2   1 <1>  -0.3320 
  5 C       -1.5410    -2.2010    -0.8700 C.3   1 <1>   0.0960 
  6 C       -1.9620     1.2460     0.1270 C.2   1 <1>  -0.1500 
  7 C        0.0220     1.6320     1.7260 C.3   1 <1>  -0.0590 
  8 C       -3.5900     0.0880    -1.5060 C.3   1 <1>  -0.0600 
  9 C       -2.3950    -3.1200     0.0150 C.3   1 <1>  -0.1600 
 10 C       -2.4380    -4.5480    -0.5450 C.3   1 <1>  -0.1600 
 11 C       -3.2900    -5.4610     0.3450 C.3   1 <1>  -0.1600 
 12 C       -3.3350    -6.8900    -0.2110 C.3   1 <1>  -0.1600 
 13 C       -4.1880    -7.8020     0.6790 C.3   1 <1>  -0.1600 
 14 C       -4.2350    -9.2310     0.1250 C.3   1 <1>  -0.1600 
 15 C       -5.0860   -10.1420     1.0160 C.3   1 <1>  -0.1600 
 16 C       -5.1330   -11.5680     0.4610 C.3   1 <1>  -0.2400 
 17 H       -0.5300    -2.5610    -0.9060 H     1 <1>   0.0800 
 18 H       -1.9300    -2.1710    -1.8700 H     1 <1>   0.0800 
 19 H       -2.3880     2.2300     0.1880 H     1 <1>   0.1500 
 20 H        0.0360     1.1710     2.6960 H     1 <1>   0.0800 
 21 H       -0.3750     2.6260     1.8110 H     1 <1>   0.0800 
 22 H        1.0260     1.6820     1.3470 H     1 <1>   0.0800 
 23 H       -4.2660    -0.6740    -1.1590 H     1 <1>   0.0800 
 24 H       -3.2780    -0.1470    -2.5080 H     1 <1>   0.0800 
 25 H       -4.1140     1.0270    -1.5230 H     1 <1>   0.0800 
 26 H       -3.3950    -2.7290     0.0770 H     1 <1>   0.0800 
 27 H       -1.9730    -3.1350     1.0060 H     1 <1>   0.0800 
 28 H       -1.4360    -4.9410    -0.6010 H     1 <1>   0.0800 
 29 H       -2.8500    -4.5330    -1.5390 H     1 <1>   0.0800 
 30 H       -4.2910    -5.0700     0.4060 H     1 <1>   0.0800 
 31 H       -2.8770    -5.4790     1.3390 H     1 <1>   0.0800 
 32 H       -2.3350    -7.2830    -0.2700 H     1 <1>   0.0800 
 33 H       -3.7490    -6.8750    -1.2060 H     1 <1>   0.0800 
 34 H       -5.1890    -7.4090     0.7400 H     1 <1>   0.0800 
 35 H       -3.7740    -7.8180     1.6740 H     1 <1>   0.0800 
 36 H       -3.2340    -9.6250     0.0650 H     1 <1>   0.0800 
 37 H       -4.6480    -9.2160    -0.8690 H     1 <1>   0.0800 
 38 H       -6.0890    -9.7530     1.0770 H     1 <1>   0.0800 
 39 H       -4.6750   -10.1620     2.0110 H     1 <1>   0.0800 
 40 H       -5.5610   -11.5740    -0.5260 H     1 <1>   0.0800 
 41 H       -5.7340   -12.1920     1.0990 H     1 <1>   0.0800 
 42 H       -4.1420   -11.9850     0.4120 H     1 <1>   0.0800 
@<TRIPOS>BOND
  1   1   2  1   
  2   1   3  2   
  3   2   4  1   
  4   2   5  1   
  5   3   6  1   
  6   3   7  1   
  7   4   6  2   
  8   4   8  1   
  9   5   9  1   
 10   5  17  1   
 11   5  18  1   
 12   6  19  1   
 13   7  20  1   
 14   7  21  1   
 15   7  22  1   
 16   8  23  1   
 17   8  24  1   
 18   8  25  1   
 19   9  10  1   
 20   9  26  1   
 21   9  27  1   
 22  10  11  1   
 23  10  28  1   
 24  10  29  1   
 25  11  12  1   
 26  11  30  1   
 27  11  31  1   
 28  12  13  1   
 29  12  32  1   
 30  12  33  1   
 31  13  14  1   
 32  13  34  1   
 33  13  35  1   
 34  14  15  1   
 35  14  36  1   
 36  14  37  1   
 37  15  16  1   
 38  15  38  1   
 39  15  39  1   
 40  16  40  1   
 41  16  41  1   
 42  16  42  1   
@<TRIPOS>SUBSTRUCTURE
  1 ****   9 GROUP 4 **** **** 0

# MOE 2024.06 (io_trps.svl 2023.06)
