@<TRIPOS>MOLECULE
NONAME
57 59 1 0 0 
SMALL
USER_CHARGES


@<TRIPOS>ATOM
  1 S        0.7340     0.1470     0.6010 S.o2  1 <1>   1.4470 
  2 O        0.8570     0.6090     1.9660 O.2   1 <1>  -0.6500 
  3 O        1.8340    -0.5300    -0.0440 O.2   1 <1>  -0.6500 
  4 N        0.3540     1.5440    -0.3550 N.am  1 <1>  -0.6930 
  5 C       -0.7660    -0.8520     0.3930 C.ar  1 <1>  -0.0090 
  6 C       -0.8320     2.2490    -0.1690 C.ar  1 <1>   0.1990 
  7 C        1.2470     1.8740    -1.5160 C.3   1 <1>   0.2570 
  8 C       -1.8740    -0.6620     1.2100 C.ar  1 <1>  -0.1500 
  9 C       -0.8600    -1.8070    -0.6120 C.ar  1 <1>  -0.1500 
 10 C       -1.7620     2.3470    -1.1980 C.ar  1 <1>  -0.1500 
 11 C       -1.1200     2.8600     1.0470 C.ar  1 <1>  -0.1500 
 12 C        2.7550     1.9910    -1.2290 C.2   1 <1>   0.5690 
 13 C       -3.0330    -1.3970     1.0320 C.ar  1 <1>  -0.1500 
 14 C       -2.0160    -2.5470    -0.7960 C.ar  1 <1>  -0.1500 
 15 C       -2.9460     3.0360    -1.0160 C.ar  1 <1>  -0.1500 
 16 C       -2.3050     3.5500     1.2350 C.ar  1 <1>  -0.1500 
 17 O        3.4910     1.5140    -2.0640 O.2   1 <1>  -0.5700 
 18 N        3.2590     2.6180    -0.1110 N.am  1 <1>  -0.6600 
 19 C       -3.1100    -2.3450     0.0270 C.ar  1 <1>  -0.1440 
 20 C       -3.2280     3.6400     0.1980 C.ar  1 <1>   0.0830 
 21 C        2.4730     3.4800     0.8160 C.3   1 <1>   0.1400 
 22 C        4.6640     2.3750     0.3230 C.3   1 <1>   0.1400 
 23 C       -4.3830    -3.1490    -0.1680 C.3   1 <1>  -0.0970 
 24 O       -4.4160     4.2930     0.2920 O.3   1 <1>  -0.3620 
 25 C        3.1950     4.8130     1.0450 C.3   1 <1>  -0.1600 
 26 C        5.3930     3.7060     0.5290 C.3   1 <1>  -0.1600 
 27 C       -4.8140     4.9020     1.4980 C.3   1 <1>   0.1200 
 28 C        4.6410     4.6090     1.5140 C.3   1 <1>  -0.1600 
 29 C       -6.1910     5.5200     1.2820 C.3   1 <1>  -0.2400 
 30 H        0.9330     2.8060    -1.9480 H     1 <1>   0.0800 
 31 H        1.1190     1.1120    -2.2630 H     1 <1>   0.0800 
 32 H       -1.8320     0.0730     1.9950 H     1 <1>   0.1500 
 33 H       -0.0180    -1.9760    -1.2620 H     1 <1>   0.1500 
 34 H       -1.5640     1.8730    -2.1420 H     1 <1>   0.1500 
 35 H       -0.4120     2.7950     1.8530 H     1 <1>   0.1500 
 36 H       -3.8760    -1.2250     1.6790 H     1 <1>   0.1500 
 37 H       -2.0580    -3.2800    -1.5830 H     1 <1>   0.1500 
 38 H       -3.6650     3.1070    -1.8130 H     1 <1>   0.1500 
 39 H       -2.4880     4.0060     2.1900 H     1 <1>   0.1500 
 40 H        2.3460     2.9620     1.7520 H     1 <1>   0.0800 
 41 H        1.5030     3.6920     0.4090 H     1 <1>   0.0800 
 42 H        5.1920     1.7840    -0.4060 H     1 <1>   0.0800 
 43 H        4.6480     1.8200     1.2460 H     1 <1>   0.0800 
 44 H       -4.8260    -3.3830     0.7840 H     1 <1>   0.0800 
 45 H       -4.1760    -4.0700    -0.6810 H     1 <1>   0.0800 
 46 H       -5.0880    -2.5790    -0.7480 H     1 <1>   0.0800 
 47 H        2.6550     5.3860     1.7770 H     1 <1>   0.0800 
 48 H        3.1900     5.3700     0.1240 H     1 <1>   0.0800 
 49 H        5.4880     4.1980    -0.4230 H     1 <1>   0.0800 
 50 H        6.3840     3.5120     0.8980 H     1 <1>   0.0800 
 51 H       -4.0930     5.6610     1.7520 H     1 <1>   0.0800 
 52 H       -4.8520     4.1480     2.2660 H     1 <1>   0.0800 
 53 H        4.6400     4.1520     2.4890 H     1 <1>   0.0800 
 54 H        5.1380     5.5600     1.5890 H     1 <1>   0.0800 
 55 H       -6.1460     6.2600     0.5030 H     1 <1>   0.0800 
 56 H       -6.5240     5.9950     2.1870 H     1 <1>   0.0800 
 57 H       -6.9000     4.7580     1.0120 H     1 <1>   0.0800 
@<TRIPOS>BOND
  1   1   2  2   
  2   1   3  2   
  3   1   4  am  
  4   1   5  1   
  5   4   6  1   
  6   4   7  1   
  7   5   8  ar  
  8   5   9  ar  
  9   6  10  ar  
 10   6  11  ar  
 11   7  12  1   
 12   7  30  1   
 13   7  31  1   
 14   8  13  ar  
 15   8  32  1   
 16   9  14  ar  
 17   9  33  1   
 18  10  15  ar  
 19  10  34  1   
 20  11  16  ar  
 21  11  35  1   
 22  12  17  2   
 23  12  18  am  
 24  13  19  ar  
 25  13  36  1   
 26  14  19  ar  
 27  14  37  1   
 28  15  20  ar  
 29  15  38  1   
 30  16  20  ar  
 31  16  39  1   
 32  18  21  1   
 33  18  22  1   
 34  19  23  1   
 35  20  24  1   
 36  21  25  1   
 37  21  40  1   
 38  21  41  1   
 39  22  26  1   
 40  22  42  1   
 41  22  43  1   
 42  23  44  1   
 43  23  45  1   
 44  23  46  1   
 45  24  27  1   
 46  25  28  1   
 47  25  47  1   
 48  25  48  1   
 49  26  28  1   
 50  26  49  1   
 51  26  50  1   
 52  27  29  1   
 53  27  51  1   
 54  27  52  1   
 55  28  53  1   
 56  28  54  1   
 57  29  55  1   
 58  29  56  1   
 59  29  57  1   
@<TRIPOS>SUBSTRUCTURE
  1 ****   4 GROUP 4 **** **** 0

# MOE 2024.06 (io_trps.svl 2023.06)
