@<TRIPOS>MOLECULE
NONAME
47 49 1 0 0 
SMALL
USER_CHARGES


@<TRIPOS>ATOM
  1 S       -0.1200    -0.5170    -1.1360 S.o2  1 <1>   1.4470 
  2 O        0.4350    -1.3950    -2.1430 O.2   1 <1>  -0.6500 
  3 O       -0.1360     0.9090    -1.3750 O.2   1 <1>  -0.6500 
  4 N        0.7760    -0.7690     0.2800 N.am  1 <1>  -0.8490 
  5 C       -1.7890    -1.0670    -0.6910 C.ar  1 <1>  -0.0090 
  6 C        2.0630    -0.0590     0.2370 C.3   1 <1>   0.1960 
  7 C        1.0150    -2.1950     0.5610 C.3   1 <1>   0.1960 
  8 C       -2.3410    -0.7860     0.5480 C.ar  1 <1>  -0.1500 
  9 C       -2.5720    -1.7780    -1.5920 C.ar  1 <1>  -0.1500 
 10 C        2.8750    -0.2980     1.5240 C.3   1 <1>   0.1200 
 11 C        1.8430    -2.3720     1.8470 C.3   1 <1>   0.1200 
 12 C       -3.6240    -1.1880     0.9280 C.ar  1 <1>   0.0860 
 13 C       -3.8410    -2.1940    -1.2520 C.ar  1 <1>  -0.1500 
 14 O        3.0490    -1.6680     1.7530 O.3   1 <1>  -0.5600 
 15 C       -4.3920    -1.9190    -0.0040 C.ar  1 <1>   0.1000 
 16 C       -4.1010    -0.8240     2.2480 C.2   1 <1>   0.5440 
 17 N       -5.6710    -2.4080     0.2710 N.pl3 1 <1>  -0.8380 
 18 O       -3.3420    -0.6580     3.1810 O.2   1 <1>  -0.5700 
 19 N       -5.4120    -0.6410     2.5110 N.am  1 <1>  -0.8000 
 20 C       -5.8190    -3.5850     1.1730 C.3   1 <1>   0.2090 
 21 C       -6.8300    -2.1010    -0.6190 C.3   1 <1>   0.2090 
 22 C       -6.2360    -4.8180     0.3690 C.3   1 <1>  -0.1600 
 23 C       -7.2840    -3.3510    -1.3840 C.3   1 <1>  -0.1600 
 24 C       -7.5020    -4.5530    -0.4560 C.3   1 <1>  -0.1600 
 25 H        1.8890     0.9980     0.1290 H     1 <1>   0.0800 
 26 H        2.6390    -0.3900    -0.6120 H     1 <1>   0.0800 
 27 H        1.5460    -2.6550    -0.2570 H     1 <1>   0.0800 
 28 H        0.0740    -2.7050     0.6780 H     1 <1>   0.0800 
 29 H       -1.7530    -0.2250     1.2560 H     1 <1>   0.1500 
 30 H       -2.1760    -2.0090    -2.5680 H     1 <1>   0.1500 
 31 H        2.3700     0.1320     2.3710 H     1 <1>   0.0800 
 32 H        3.8500     0.1480     1.4370 H     1 <1>   0.0800 
 33 H        2.0800    -3.4100     1.9990 H     1 <1>   0.0800 
 34 H        1.2960    -2.0110     2.7010 H     1 <1>   0.0800 
 35 H       -4.4170    -2.7530    -1.9640 H     1 <1>   0.1500 
 36 H       -5.7230    -0.4710     3.4660 H     1 <1>   0.3700 
 37 H       -6.0870    -1.0090     1.8320 H     1 <1>   0.3700 
 38 H       -6.5650    -3.3660     1.9180 H     1 <1>   0.0800 
 39 H       -4.8870    -3.7780     1.6780 H     1 <1>   0.0800 
 40 H       -6.5600    -1.3240    -1.3140 H     1 <1>   0.0800 
 41 H       -7.6420    -1.7380    -0.0130 H     1 <1>   0.0800 
 42 H       -6.4100    -5.6370     1.0440 H     1 <1>   0.0800 
 43 H       -5.4270    -5.0950    -0.2830 H     1 <1>   0.0800 
 44 H       -6.5440    -3.5990    -2.1220 H     1 <1>   0.0800 
 45 H       -8.1980    -3.1290    -1.9060 H     1 <1>   0.0800 
 46 H       -8.3280    -4.3530     0.2050 H     1 <1>   0.0800 
 47 H       -7.7450    -5.4240    -1.0400 H     1 <1>   0.0800 
@<TRIPOS>BOND
  1   1   2  2   
  2   1   3  2   
  3   1   4  am  
  4   1   5  1   
  5   4   6  1   
  6   4   7  1   
  7   5   8  ar  
  8   5   9  ar  
  9   6  10  1   
 10   6  25  1   
 11   6  26  1   
 12   7  11  1   
 13   7  27  1   
 14   7  28  1   
 15   8  12  ar  
 16   8  29  1   
 17   9  13  ar  
 18   9  30  1   
 19  10  14  1   
 20  10  31  1   
 21  10  32  1   
 22  11  14  1   
 23  11  33  1   
 24  11  34  1   
 25  12  15  ar  
 26  12  16  1   
 27  13  15  ar  
 28  13  35  1   
 29  15  17  1   
 30  16  18  2   
 31  16  19  am  
 32  17  20  1   
 33  17  21  1   
 34  19  36  1   
 35  19  37  1   
 36  20  22  1   
 37  20  38  1   
 38  20  39  1   
 39  21  23  1   
 40  21  40  1   
 41  21  41  1   
 42  22  24  1   
 43  22  42  1   
 44  22  43  1   
 45  23  24  1   
 46  23  44  1   
 47  23  45  1   
 48  24  46  1   
 49  24  47  1   
@<TRIPOS>SUBSTRUCTURE
  1 ****   8 GROUP 4 **** **** 0

# MOE 2024.06 (io_trps.svl 2023.06)
