@<TRIPOS>MOLECULE
NONAME
47 49 1 0 0 
SMALL
USER_CHARGES


@<TRIPOS>ATOM
  1 O        1.5410     0.8800     2.2250 O.2   1 <1>  -0.5700 
  2 C        1.1060     1.9570     1.9020 C.2   1 <1>   0.5690 
  3 N        1.4370     2.5460     0.7080 N.am  1 <1>  -0.6600 
  4 C        0.1780     2.6470     2.8740 C.3   1 <1>  -0.1790 
  5 C        1.0250     3.9170     0.2740 C.3   1 <1>   0.1400 
  6 C        2.2910     1.8330    -0.2870 C.3   1 <1>   0.1400 
  7 C        2.2400     4.8080    -0.0940 C.3   1 <1>   0.1440 
  8 C        3.5180     2.6810    -0.6770 C.3   1 <1>   0.0000 
  9 C        1.7630     6.2120    -0.5620 C.ar  1 <1>  -0.1440 
 10 C        3.0020     4.0410    -1.2180 C.3   1 <1>   0.2000 
 11 C        3.1170     4.9520     1.1880 C.3   1 <1>   0.1400 
 12 C        4.4240     2.8770     0.5740 C.3   1 <1>   0.1400 
 13 C        4.2930     1.9040    -1.7660 C.3   1 <1>  -0.2400 
 14 C        0.4220     6.5340    -0.7820 C.ar  1 <1>  -0.1500 
 15 C        2.7010     7.2200    -0.7720 C.ar  1 <1>  -0.1500 
 16 O        4.0840     4.7610    -1.7190 O.3   1 <1>  -0.6800 
 17 N        4.4610     4.2960     1.0680 N.am  1 <1>  -0.6600 
 18 C        0.0440     7.8040    -1.1830 C.ar  1 <1>  -0.1500 
 19 C        2.3280     8.4900    -1.1730 C.ar  1 <1>  -0.1500 
 20 C        5.6520     4.9060     1.3680 C.2   1 <1>   0.5690 
 21 C        0.9950     8.7860    -1.3770 C.ar  1 <1>  -0.1500 
 22 O        6.7130     4.3980     1.1050 O.2   1 <1>  -0.5700 
 23 C        5.6840     6.2630     2.0320 C.3   1 <1>  -0.1790 
 24 H       -0.7540     2.8760     2.3930 H     1 <1>   0.0800 
 25 H        0.6330     3.5460     3.2430 H     1 <1>   0.0800 
 26 H       -0.0200     1.9960     3.7070 H     1 <1>   0.0800 
 27 H        0.4520     4.4030     1.0420 H     1 <1>   0.0800 
 28 H        0.3910     3.8040    -0.5890 H     1 <1>   0.0800 
 29 H        1.6970     1.6270    -1.1610 H     1 <1>   0.0800 
 30 H        2.6190     0.8860     0.1070 H     1 <1>   0.0800 
 31 H        2.3370     3.8790    -2.0490 H     1 <1>   0.0800 
 32 H        2.6160     4.5140     2.0330 H     1 <1>   0.0800 
 33 H        3.2320     5.9920     1.4230 H     1 <1>   0.0800 
 34 H        5.4250     2.5550     0.3380 H     1 <1>   0.0800 
 35 H        4.0860     2.2470     1.3790 H     1 <1>   0.0800 
 36 H        3.6890     1.7830    -2.6480 H     1 <1>   0.0800 
 37 H        4.5780     0.9300    -1.4080 H     1 <1>   0.0800 
 38 H        5.1900     2.4310    -2.0460 H     1 <1>   0.0800 
 39 H       -0.3700     5.8220    -0.6550 H     1 <1>   0.1500 
 40 H        3.7490     7.0250    -0.6330 H     1 <1>   0.1500 
 41 H        4.7770     4.7800    -1.0230 H     1 <1>   0.4000 
 42 H       -0.9950     8.0300    -1.3460 H     1 <1>   0.1500 
 43 H        3.0770     9.2470    -1.3290 H     1 <1>   0.1500 
 44 H        0.7010     9.7730    -1.6900 H     1 <1>   0.1500 
 45 H        5.0670     6.2580     2.9100 H     1 <1>   0.0800 
 46 H        5.3430     7.0150     1.3460 H     1 <1>   0.0800 
 47 H        6.6920     6.4970     2.3240 H     1 <1>   0.0800 
@<TRIPOS>BOND
  1   1   2  2   
  2   2   3  am  
  3   2   4  1   
  4   3   5  1   
  5   3   6  1   
  6   4  24  1   
  7   4  25  1   
  8   4  26  1   
  9   5   7  1   
 10   5  27  1   
 11   5  28  1   
 12   6   8  1   
 13   6  29  1   
 14   6  30  1   
 15   7   9  1   
 16   7  10  1   
 17   7  11  1   
 18   8  10  1   
 19   8  12  1   
 20   8  13  1   
 21   9  14  ar  
 22   9  15  ar  
 23  10  16  1   
 24  10  31  1   
 25  11  17  1   
 26  11  32  1   
 27  11  33  1   
 28  12  17  1   
 29  12  34  1   
 30  12  35  1   
 31  13  36  1   
 32  13  37  1   
 33  13  38  1   
 34  14  18  ar  
 35  14  39  1   
 36  15  19  ar  
 37  15  40  1   
 38  16  41  1   
 39  17  20  am  
 40  18  21  ar  
 41  18  42  1   
 42  19  21  ar  
 43  19  43  1   
 44  20  22  2   
 45  20  23  1   
 46  21  44  1   
 47  23  45  1   
 48  23  46  1   
 49  23  47  1   
@<TRIPOS>SUBSTRUCTURE
  1 ****   7 GROUP 4 **** **** 0

# MOE 2024.06 (io_trps.svl 2023.06)
