@<TRIPOS>MOLECULE
NONAME
41 43 1 0 0 
SMALL
USER_CHARGES


@<TRIPOS>ATOM
  1 O       -1.7440    -0.4830    -2.5250 O.2   1 <1>  -0.5700 
  2 C       -1.1710    -0.9770    -1.5830 C.2   1 <1>   0.5690 
  3 N       -1.5480    -0.7350    -0.3060 N.am  1 <1>  -0.7300 
  4 C        0.0180    -1.9150    -1.8210 C.3   1 <1>   0.1710 
  5 C       -2.6990     0.0800     0.1240 C.3   1 <1>   0.3200 
  6 N        0.9170    -2.0820    -0.6390 N.3   1 <1>  -0.8100 
  7 C       -3.3850    -0.5600     1.3190 C.2   1 <1>  -0.0400 
  8 C        1.8000    -3.2570    -0.8130 C.3   1 <1>   0.1100 
  9 C        1.7570    -0.8750    -0.4380 C.3   1 <1>   0.1100 
 10 O       -4.3360     0.1200     1.9310 O.3   1 <1>  -0.2800 
 11 C       -3.2070    -1.7590     1.9200 C.2   1 <1>  -0.1500 
 12 C        2.7340    -3.4730     0.3930 C.3   1 <1>   0.2090 
 13 C        2.6910    -1.0040     0.7800 C.3   1 <1>   0.2090 
 14 C       -4.7830    -0.6210     2.9260 C.2   1 <1>  -0.0100 
 15 C       -4.1250    -1.7980     2.9760 C.2   1 <1>  -0.1500 
 16 N        3.5290    -2.2420     0.6950 N.pl3 1 <1>  -0.8380 
 17 C        4.8440    -2.2850     1.1150 C.ar  1 <1>   0.7200 
 18 N        5.4590    -3.4670     1.0750 N.ar  1 <1>  -0.6200 
 19 N        5.3890    -1.1400     1.5300 N.ar  1 <1>  -0.6200 
 20 C        6.7060    -3.4920     1.4770 C.ar  1 <1>   0.1600 
 21 C        6.6360    -1.1950     1.9270 C.ar  1 <1>   0.1600 
 22 C        7.3530    -2.3660     1.9200 C.ar  1 <1>  -0.1500 
 23 H       -0.9780    -1.1620     0.4300 H     1 <1>   0.3700 
 24 H        0.5800    -1.5540    -2.6630 H     1 <1>   0.0800 
 25 H       -0.3940    -2.8720    -2.0870 H     1 <1>   0.0800 
 26 H       -3.4030     0.1820    -0.6840 H     1 <1>   0.0800 
 27 H       -2.3510     1.0610     0.3980 H     1 <1>   0.0800 
 28 H        2.4040    -3.1340    -1.6960 H     1 <1>   0.0800 
 29 H        1.1980    -4.1390    -0.9400 H     1 <1>   0.0800 
 30 H        1.1290    -0.0130    -0.2960 H     1 <1>   0.0800 
 31 H        2.3630    -0.7010    -1.3120 H     1 <1>   0.0800 
 32 H       -2.5180    -2.5460     1.6660 H     1 <1>   0.1500 
 33 H        3.3770    -4.3070     0.1750 H     1 <1>   0.0800 
 34 H        2.1440    -3.7290     1.2550 H     1 <1>   0.0800 
 35 H        2.1000    -1.0430     1.6780 H     1 <1>   0.0800 
 36 H        3.3060    -0.1230     0.8260 H     1 <1>   0.0800 
 37 H       -5.5710    -0.2330     3.5480 H     1 <1>   0.1500 
 38 H       -4.2540    -2.6140     3.6640 H     1 <1>   0.1500 
 39 H        7.2240    -4.4360     1.4530 H     1 <1>   0.1500 
 40 H        7.0980    -0.2840     2.2650 H     1 <1>   0.1500 
 41 H        8.3740    -2.3990     2.2480 H     1 <1>   0.1500 
@<TRIPOS>BOND
  1   1   2  2   
  2   2   3  am  
  3   2   4  1   
  4   3   5  1   
  5   3  23  1   
  6   4   6  1   
  7   4  24  1   
  8   4  25  1   
  9   5   7  1   
 10   5  26  1   
 11   5  27  1   
 12   6   8  1   
 13   6   9  1   
 14   7  10  1   
 15   7  11  2   
 16   8  12  1   
 17   8  28  1   
 18   8  29  1   
 19   9  13  1   
 20   9  30  1   
 21   9  31  1   
 22  10  14  1   
 23  11  15  1   
 24  11  32  1   
 25  12  16  1   
 26  12  33  1   
 27  12  34  1   
 28  13  16  1   
 29  13  35  1   
 30  13  36  1   
 31  14  15  2   
 32  14  37  1   
 33  15  38  1   
 34  16  17  1   
 35  17  18  ar  
 36  17  19  ar  
 37  18  20  ar  
 38  19  21  ar  
 39  20  22  ar  
 40  20  39  1   
 41  21  22  ar  
 42  21  40  1   
 43  22  41  1   
@<TRIPOS>SUBSTRUCTURE
  1 ****   6 GROUP 4 **** **** 0

# MOE 2024.06 (io_trps.svl 2023.06)
