@<TRIPOS>MOLECULE
NONAME
49 51 1 0 0 
SMALL
USER_CHARGES


@<TRIPOS>ATOM
  1 O       -0.8480    -0.3060     2.0830 O.2   1 <1>  -0.5700 
  2 C       -1.0500    -1.3530     1.5200 C.2   1 <1>   0.5690 
  3 N       -0.1220    -2.1530     0.9510 N.am  1 <1>  -0.6600 
  4 C       -2.4270    -1.9320     1.3670 C.3   1 <1>  -0.0990 
  5 C        1.3250    -1.8210     0.8690 C.3   1 <1>   0.2200 
  6 C       -0.7280    -3.3570     0.3460 C.3   1 <1>   0.1400 
  7 C       -2.1500    -3.3840     0.9300 C.3   1 <1>  -0.0190 
  8 C        1.7930    -1.7280    -0.5810 C.3   1 <1>  -0.1600 
  9 C        2.1840    -2.9280     1.4790 C.3   1 <1>  -0.1600 
 10 C       -3.1830    -3.9740    -0.0200 C.2   1 <1>   0.5690 
 11 C        2.2730    -3.1270    -0.9760 C.3   1 <1>  -0.1600 
 12 C        2.6250    -3.8470     0.3300 C.3   1 <1>  -0.1600 
 13 O       -2.8060    -4.6730    -0.9280 O.2   1 <1>  -0.5700 
 14 N       -4.5010    -3.6900     0.2150 N.am  1 <1>  -0.5470 
 15 C       -5.6590    -4.0620    -0.4880 C.ar  1 <1>   0.1170 
 16 C       -6.7600    -3.1980    -0.5640 C.ar  1 <1>  -0.1440 
 17 C       -5.7390    -5.3130    -1.0920 C.ar  1 <1>  -0.1500 
 18 C       -7.9050    -3.6240    -1.2260 C.ar  1 <1>  -0.1500 
 19 C       -6.7470    -1.7910     0.0550 C.3   1 <1>   0.0630 
 20 C       -6.8810    -5.7180    -1.7550 C.ar  1 <1>  -0.1500 
 21 C       -7.9700    -4.8710    -1.8190 C.ar  1 <1>  -0.1500 
 22 C       -7.7300    -1.7090     1.2260 C.3   1 <1>  -0.2400 
 23 C       -7.0590    -0.7150    -0.9920 C.3   1 <1>  -0.2400 
 24 H       -2.9370    -1.3760     0.6020 H     1 <1>   0.0800 
 25 H       -2.9650    -1.8810     2.2950 H     1 <1>   0.0800 
 26 H        1.4990    -0.8880     1.3800 H     1 <1>   0.0800 
 27 H       -0.1870    -4.2480     0.6070 H     1 <1>   0.0800 
 28 H       -0.7480    -3.2410    -0.7250 H     1 <1>   0.0800 
 29 H       -2.1200    -4.0070     1.8060 H     1 <1>   0.0800 
 30 H        2.6330    -1.0560    -0.6180 H     1 <1>   0.0800 
 31 H        1.0250    -1.3500    -1.2330 H     1 <1>   0.0800 
 32 H        1.6650    -3.4590     2.2570 H     1 <1>   0.0800 
 33 H        3.0610    -2.4730     1.9060 H     1 <1>   0.0800 
 34 H        3.1210    -3.0730    -1.6380 H     1 <1>   0.0800 
 35 H        1.4820    -3.6560    -1.4790 H     1 <1>   0.0800 
 36 H        2.1100    -4.7910     0.3820 H     1 <1>   0.0800 
 37 H        3.6840    -4.0320     0.3890 H     1 <1>   0.0800 
 38 H       -4.6820    -3.0630     0.9940 H     1 <1>   0.3700 
 39 H       -4.9020    -5.9850    -1.0430 H     1 <1>   0.1500 
 40 H       -8.7660    -2.9840    -1.2900 H     1 <1>   0.1500 
 41 H       -5.7710    -1.5590     0.4380 H     1 <1>   0.0800 
 42 H       -6.9210    -6.6890    -2.2170 H     1 <1>   0.1500 
 43 H       -8.8640    -5.1810    -2.3310 H     1 <1>   0.1500 
 44 H       -8.7400    -1.8640     0.8890 H     1 <1>   0.0800 
 45 H       -7.6720    -0.7440     1.6970 H     1 <1>   0.0800 
 46 H       -7.4960    -2.4620     1.9570 H     1 <1>   0.0800 
 47 H       -8.0660    -0.8040    -1.3580 H     1 <1>   0.0800 
 48 H       -6.3830    -0.8090    -1.8240 H     1 <1>   0.0800 
 49 H       -6.9400     0.2650    -0.5650 H     1 <1>   0.0800 
@<TRIPOS>BOND
  1   1   2  2   
  2   2   3  am  
  3   2   4  1   
  4   3   5  1   
  5   3   6  1   
  6   4   7  1   
  7   4  24  1   
  8   4  25  1   
  9   5   8  1   
 10   5   9  1   
 11   5  26  1   
 12   6   7  1   
 13   6  27  1   
 14   6  28  1   
 15   7  10  1   
 16   7  29  1   
 17   8  11  1   
 18   8  30  1   
 19   8  31  1   
 20   9  12  1   
 21   9  32  1   
 22   9  33  1   
 23  10  13  2   
 24  10  14  am  
 25  11  12  1   
 26  11  34  1   
 27  11  35  1   
 28  12  36  1   
 29  12  37  1   
 30  14  15  1   
 31  14  38  1   
 32  15  16  ar  
 33  15  17  ar  
 34  16  18  ar  
 35  16  19  1   
 36  17  20  ar  
 37  17  39  1   
 38  18  21  ar  
 39  18  40  1   
 40  19  22  1   
 41  19  23  1   
 42  19  41  1   
 43  20  21  ar  
 44  20  42  1   
 45  21  43  1   
 46  22  44  1   
 47  22  45  1   
 48  22  46  1   
 49  23  47  1   
 50  23  48  1   
 51  23  49  1   
@<TRIPOS>SUBSTRUCTURE
  1 ****  10 GROUP 4 **** **** 0

# MOE 2024.06 (io_trps.svl 2023.06)
