@<TRIPOS>MOLECULE
NONAME
38 38 1 0 0 
SMALL
USER_CHARGES


@<TRIPOS>ATOM
  1 S       -0.3580    -1.1410    -2.2050 S.2   1 <1>  -0.6770 
  2 P       -0.1370    -1.7220    -0.3720 P.3   1 <1>   0.9530 
  3 N        1.3360    -1.1640     0.2970 N.pl3 1 <1>  -0.7760 
  4 C        0.0280    -3.5210    -0.2500 C.3   1 <1>   0.0000 
  5 C       -1.4030    -1.1250     0.7560 C.3   1 <1>  -0.0800 
  6 C        1.9810     0.0710     0.2950 C.ar  1 <1>   0.1000 
  7 C        1.3810    -4.0030    -0.8250 C.3   1 <1>  -0.2400 
  8 C       -1.0410    -4.2890    -1.0620 C.3   1 <1>  -0.2400 
  9 C       -0.0370    -4.0510     1.1980 C.3   1 <1>  -0.2400 
 10 C       -2.8370    -1.6010     0.4490 C.3   1 <1>  -0.2400 
 11 C       -1.4650     0.4120     0.8620 C.3   1 <1>  -0.2400 
 12 C        3.0890     0.2360     1.1180 C.ar  1 <1>  -0.1500 
 13 C        1.5770     1.1500    -0.4920 C.ar  1 <1>  -0.1500 
 14 C        3.7460     1.4490     1.1370 C.ar  1 <1>   0.1900 
 15 C        2.2490     2.3620    -0.4610 C.ar  1 <1>  -0.1500 
 16 F        4.7840     1.5890     1.9180 F     1 <1>  -0.1900 
 17 C        3.3490     2.5220     0.3630 C.ar  1 <1>  -0.1500 
 18 H        1.9130    -1.9220     0.6530 H     1 <1>   0.4000 
 19 H       -1.1740    -1.4690     1.7480 H     1 <1>   0.0800 
 20 H        1.4960    -3.6600    -1.8400 H     1 <1>   0.0800 
 21 H        1.4450    -5.0770    -0.8280 H     1 <1>   0.0800 
 22 H        2.2110    -3.6310    -0.2530 H     1 <1>   0.0800 
 23 H       -2.0330    -4.0860    -0.7130 H     1 <1>   0.0800 
 24 H       -0.8870    -5.3520    -1.0010 H     1 <1>   0.0800 
 25 H       -0.9950    -4.0080    -2.1010 H     1 <1>   0.0800 
 26 H        0.1390    -5.1130     1.2270 H     1 <1>   0.0800 
 27 H       -1.0050    -3.8700     1.6300 H     1 <1>   0.0800 
 28 H        0.7030    -3.5730     1.8150 H     1 <1>   0.0800 
 29 H       -3.0940    -1.3840    -0.5740 H     1 <1>   0.0800 
 30 H       -3.5500    -1.1110     1.0880 H     1 <1>   0.0800 
 31 H       -2.9370    -2.6550     0.6200 H     1 <1>   0.0800 
 32 H       -1.6620     0.8480    -0.1030 H     1 <1>   0.0800 
 33 H       -0.5340     0.8010     1.2320 H     1 <1>   0.0800 
 34 H       -2.2370     0.7230     1.5440 H     1 <1>   0.0800 
 35 H        3.4370    -0.5650     1.7410 H     1 <1>   0.1500 
 36 H        0.7310     1.0530    -1.1450 H     1 <1>   0.1500 
 37 H        1.9140     3.1760    -1.0810 H     1 <1>   0.1500 
 38 H        3.8880     3.4510     0.4060 H     1 <1>   0.1500 
@<TRIPOS>BOND
  1   1   2  2   
  2   2   3  1   
  3   2   4  1   
  4   2   5  1   
  5   3   6  1   
  6   3  18  1   
  7   4   7  1   
  8   4   8  1   
  9   4   9  1   
 10   5  10  1   
 11   5  11  1   
 12   5  19  1   
 13   6  12  ar  
 14   6  13  ar  
 15   7  20  1   
 16   7  21  1   
 17   7  22  1   
 18   8  23  1   
 19   8  24  1   
 20   8  25  1   
 21   9  26  1   
 22   9  27  1   
 23   9  28  1   
 24  10  29  1   
 25  10  30  1   
 26  10  31  1   
 27  11  32  1   
 28  11  33  1   
 29  11  34  1   
 30  12  14  ar  
 31  12  35  1   
 32  13  15  ar  
 33  13  36  1   
 34  14  16  1   
 35  14  17  ar  
 36  15  17  ar  
 37  15  37  1   
 38  17  38  1   
@<TRIPOS>SUBSTRUCTURE
  1 ****   3 GROUP 4 **** **** 0

# MOE 2024.06 (io_trps.svl 2023.06)
