@<TRIPOS>MOLECULE
NONAME
33 35 1 0 0 
SMALL
USER_CHARGES


@<TRIPOS>ATOM
  1 BR       0.2780     0.1490    -1.1680 Br    1 <1>  -0.1110 
  2 C        1.2880    -1.3510    -0.5000 C.ar  1 <1>   0.1110 
  3 C        0.7260    -2.6080    -0.5520 C.ar  1 <1>  -0.1500 
  4 C        2.5460    -1.1220     0.0160 C.ar  1 <1>  -0.1500 
  5 C        1.4220    -3.7260    -0.0700 C.ar  1 <1>   0.0000 
  6 C        3.2600    -2.2100     0.4730 C.ar  1 <1>  -0.1500 
  7 C        0.7850    -5.0420    -0.0420 C.ar  1 <1>   0.3100 
  8 C        2.7250    -3.4940     0.4100 C.ar  1 <1>   0.1000 
  9 N       -0.5570    -5.0140    -0.0520 N.ar  1 <1>  -0.3100 
 10 C        1.4230    -6.3040     0.0020 C.ar  1 <1>   0.3920 
 11 N        3.5260    -4.5430     0.7950 N.pl3 1 <1>  -0.8690 
 12 N       -1.2180    -6.1350    -0.0250 N.ar  1 <1>  -0.3100 
 13 O        2.7470    -6.5310     0.0160 O.3   1 <1>  -0.3630 
 14 N        0.7570    -7.4430     0.0230 N.ar  1 <1>  -0.6200 
 15 C        3.7050    -5.5610    -0.2240 C.3   1 <1>   0.5690 
 16 C       -0.5370    -7.2770     0.0130 C.ar  1 <1>   0.7220 
 17 C        5.0780    -6.1910    -0.0750 C.3   1 <1>  -0.2400 
 18 S       -1.5040    -8.7810     0.0460 S.3   1 <1>  -0.3310 
 19 C       -3.2620    -8.2150     0.0410 C.3   1 <1>   0.0700 
 20 C       -4.1520    -9.4550     0.0710 C.3   1 <1>  -0.2400 
 21 H       -0.2640    -2.7030    -0.9620 H     1 <1>   0.1500 
 22 H        2.9480    -0.1250     0.0540 H     1 <1>   0.1500 
 23 H        4.2460    -2.0640     0.8750 H     1 <1>   0.1500 
 24 H        4.4240    -4.2910     1.2120 H     1 <1>   0.4000 
 25 H        3.5580    -5.1650    -1.2170 H     1 <1>   0.0800 
 26 H        5.1930    -6.6020     0.9120 H     1 <1>   0.0800 
 27 H        5.8410    -5.4560    -0.2520 H     1 <1>   0.0800 
 28 H        5.1910    -6.9760    -0.7990 H     1 <1>   0.0800 
 29 H       -3.4140    -7.6370    -0.8550 H     1 <1>   0.0800 
 30 H       -3.4070    -7.5990     0.9110 H     1 <1>   0.0800 
 31 H       -3.9640   -10.0680    -0.7920 H     1 <1>   0.0800 
 32 H       -5.1870    -9.1630     0.0690 H     1 <1>   0.0800 
 33 H       -3.9570   -10.0300     0.9590 H     1 <1>   0.0800 
@<TRIPOS>BOND
  1   1   2  1   
  2   2   3  ar  
  3   2   4  ar  
  4   3   5  ar  
  5   3  21  1   
  6   4   6  ar  
  7   4  22  1   
  8   5   7  1   
  9   5   8  ar  
 10   6   8  ar  
 11   6  23  1   
 12   7   9  ar  
 13   7  10  ar  
 14   8  11  1   
 15   9  12  ar  
 16  10  13  1   
 17  10  14  ar  
 18  11  15  1   
 19  11  24  1   
 20  12  16  ar  
 21  13  15  1   
 22  14  16  ar  
 23  15  17  1   
 24  15  25  1   
 25  16  18  1   
 26  17  26  1   
 27  17  27  1   
 28  17  28  1   
 29  18  19  1   
 30  19  20  1   
 31  19  29  1   
 32  19  30  1   
 33  20  31  1   
 34  20  32  1   
 35  20  33  1   
@<TRIPOS>SUBSTRUCTURE
  1 ****   7 GROUP 4 **** **** 0

# MOE 2024.06 (io_trps.svl 2023.06)
