@<TRIPOS>MOLECULE
NONAME
49 51 1 0 0 
SMALL
USER_CHARGES


@<TRIPOS>ATOM
  1 O       -2.0500    -2.9320    -0.2260 O.3   1 <1>  -0.3630 
  2 C       -3.4020    -2.9280    -0.0840 C.ar  1 <1>   0.0830 
  3 C       -1.1980    -3.3620     0.8130 C.3   1 <1>   0.1200 
  4 C       -4.1620    -2.4680    -1.1560 C.ar  1 <1>  -0.1440 
  5 C       -4.0430    -3.3610     1.0750 C.ar  1 <1>  -0.1500 
  6 C        0.2510    -3.2480     0.3230 C.3   1 <1>   0.2000 
  7 C       -5.5440    -2.4470    -1.0570 C.ar  1 <1>  -0.1500 
  8 C       -3.4950    -1.9870    -2.4370 C.3   1 <1>  -0.0960 
  9 C       -5.4230    -3.3340     1.1600 C.ar  1 <1>  -0.1500 
 10 O        0.3620    -3.8880    -0.9120 O.3   1 <1>  -0.6800 
 11 C        1.2630    -3.8760     1.3050 C.3   1 <1>   0.3430 
 12 C       -6.1800    -2.8760     0.0960 C.ar  1 <1>  -0.1440 
 13 N        2.5170    -4.2600     0.5880 N.4   1 <1>  -0.9590 
 14 C       -7.6950    -2.8470     0.1870 C.3   1 <1>  -0.0970 
 15 C        3.2490    -5.3820     1.2350 C.3   1 <1>   0.4860 
 16 C        3.4230    -3.1130     0.2980 C.3   1 <1>   0.3430 
 17 C        4.4880    -5.7540     0.4340 C.ar  1 <1>  -0.1430 
 18 C        4.4430    -3.5180    -0.7680 C.3   1 <1>  -0.0170 
 19 C        5.0560    -4.8830    -0.4910 C.ar  1 <1>  -0.1430 
 20 C        5.0690    -6.9960     0.6480 C.ar  1 <1>  -0.1500 
 21 C        6.1920    -5.2630    -1.1870 C.ar  1 <1>  -0.1500 
 22 C        6.2030    -7.3690    -0.0500 C.ar  1 <1>  -0.1500 
 23 C        6.7660    -6.5020    -0.9670 C.ar  1 <1>  -0.1500 
 24 H       -1.4420    -4.3830     1.0500 H     1 <1>   0.0800 
 25 H       -1.3640    -2.7330     1.6700 H     1 <1>   0.0800 
 26 H       -3.4960    -3.7230     1.9230 H     1 <1>   0.1500 
 27 H        0.4860    -2.2080     0.1750 H     1 <1>   0.0800 
 28 H       -6.1350    -2.0940    -1.8830 H     1 <1>   0.1500 
 29 H       -2.8170    -1.1830    -2.2170 H     1 <1>   0.0800 
 30 H       -4.2240    -1.6330    -3.1440 H     1 <1>   0.0800 
 31 H       -2.9470    -2.7950    -2.8880 H     1 <1>   0.0800 
 32 H       -5.9070    -3.6720     2.0590 H     1 <1>   0.1500 
 33 H       -0.4470    -3.6800    -1.4390 H     1 <1>   0.4000 
 34 H        0.8110    -4.7600     1.7240 H     1 <1>   0.0800 
 35 H        1.4740    -3.1960     2.1140 H     1 <1>   0.0800 
 36 H        2.1830    -4.6040    -0.3330 H     1 <1>   0.4500 
 37 H       -8.1010    -3.7500    -0.2310 H     1 <1>   0.0800 
 38 H       -8.0870    -2.0060    -0.3550 H     1 <1>   0.0800 
 39 H       -8.0110    -2.7670     1.2120 H     1 <1>   0.0800 
 40 H        2.6060    -6.2440     1.3070 H     1 <1>   0.0800 
 41 H        3.5510    -5.0980     2.2290 H     1 <1>   0.0800 
 42 H        3.9420    -2.8240     1.1980 H     1 <1>   0.0800 
 43 H        2.8570    -2.2690    -0.0600 H     1 <1>   0.0800 
 44 H        5.2180    -2.7730    -0.8100 H     1 <1>   0.0800 
 45 H        3.9600    -3.5400    -1.7290 H     1 <1>   0.0800 
 46 H        4.6510    -7.6890     1.3580 H     1 <1>   0.1500 
 47 H        6.6400    -4.6000    -1.9080 H     1 <1>   0.1500 
 48 H        6.6510    -8.3340     0.1180 H     1 <1>   0.1500 
 49 H        7.6490    -6.7920    -1.5110 H     1 <1>   0.1500 
@<TRIPOS>BOND
  1   1   2  1   
  2   1   3  1   
  3   2   4  ar  
  4   2   5  ar  
  5   3   6  1   
  6   3  24  1   
  7   3  25  1   
  8   4   7  ar  
  9   4   8  1   
 10   5   9  ar  
 11   5  26  1   
 12   6  10  1   
 13   6  11  1   
 14   6  27  1   
 15   7  12  ar  
 16   7  28  1   
 17   8  29  1   
 18   8  30  1   
 19   8  31  1   
 20   9  12  ar  
 21   9  32  1   
 22  10  33  1   
 23  11  13  1   
 24  11  34  1   
 25  11  35  1   
 26  12  14  1   
 27  13  15  1   
 28  13  16  1   
 29  13  36  1   
 30  14  37  1   
 31  14  38  1   
 32  14  39  1   
 33  15  17  1   
 34  15  40  1   
 35  15  41  1   
 36  16  18  1   
 37  16  42  1   
 38  16  43  1   
 39  17  19  ar  
 40  17  20  ar  
 41  18  19  1   
 42  18  44  1   
 43  18  45  1   
 44  19  21  ar  
 45  20  22  ar  
 46  20  46  1   
 47  21  23  ar  
 48  21  47  1   
 49  22  23  ar  
 50  22  48  1   
 51  23  49  1   
@<TRIPOS>SUBSTRUCTURE
  1 ****   6 GROUP 4 **** **** 0

# MOE 2024.06 (io_trps.svl 2023.06)
