@<TRIPOS>MOLECULE
NONAME
54 58 1 0 0 
SMALL
USER_CHARGES


@<TRIPOS>ATOM
  1 S       -0.3110    -1.0200    -1.0980 S.3   1 <1>  -0.0800 
  2 C        1.1620    -1.3850    -0.2660 C.2   1 <1>   0.4420 
  3 C       -1.1640    -1.6980     0.2540 C.2   1 <1>   0.1980 
  4 N        0.9530    -1.9190     0.8810 N.2   1 <1>  -0.3380 
  5 N        2.3390    -1.0600    -0.8980 N.am  1 <1>  -0.4940 
  6 N       -0.3710    -2.0980     1.1680 N.2   1 <1>  -0.3380 
  7 C       -2.6970    -1.7480     0.2090 C.3   1 <1>   0.1800 
  8 C        3.6080    -1.4580    -0.6190 C.2   1 <1>   0.6900 
  9 C       -3.2560    -2.3820     1.5070 C.3   1 <1>  -0.1600 
 10 C       -3.1760    -2.6030    -0.9880 C.3   1 <1>  -0.1600 
 11 C       -3.2890    -0.3250     0.0740 C.3   1 <1>  -0.1600 
 12 O        4.5120    -0.7120    -0.9160 O.2   1 <1>  -0.5700 
 13 N        3.9140    -2.6630    -0.0690 N.am  1 <1>  -0.5470 
 14 C       -4.7940    -2.4440     1.4750 C.3   1 <1>  -0.0800 
 15 C       -4.7140    -2.6630    -1.0370 C.3   1 <1>  -0.0800 
 16 C       -4.8290    -0.3760     0.0300 C.3   1 <1>  -0.0800 
 17 C        3.1950    -3.8630    -0.1000 C.ar  1 <1>   0.1170 
 18 C       -5.2380    -3.2910     0.2680 C.3   1 <1>  -0.1600 
 19 C       -5.3520    -1.0170     1.3290 C.3   1 <1>  -0.1600 
 20 C       -5.2720    -1.2330    -1.1710 C.3   1 <1>  -0.1600 
 21 C        2.5750    -4.3010    -1.2650 C.ar  1 <1>  -0.1500 
 22 C        3.0910    -4.6380     1.0470 C.ar  1 <1>  -0.1500 
 23 C        1.8560    -5.4830    -1.2760 C.ar  1 <1>  -0.1500 
 24 C        2.3720    -5.8210     1.0410 C.ar  1 <1>  -0.1500 
 25 C        1.7450    -6.2480    -0.1270 C.ar  1 <1>   0.0830 
 26 O        1.0100    -7.3870    -0.2200 O.3   1 <1>  -0.3630 
 27 C        0.6770    -8.1230     0.9330 C.3   1 <1>   0.1200 
 28 C       -0.2430    -9.2650     0.5140 C.3   1 <1>  -0.2400 
 29 H        2.3070    -0.2940    -1.5610 H     1 <1>   0.3700 
 30 H       -2.9370    -1.8060     2.3580 H     1 <1>   0.0800 
 31 H       -2.8590    -3.3760     1.6250 H     1 <1>   0.0800 
 32 H       -2.7760    -3.5990    -0.9020 H     1 <1>   0.0800 
 33 H       -2.8130    -2.1870    -1.9110 H     1 <1>   0.0800 
 34 H       -2.9290     0.1430    -0.8240 H     1 <1>   0.0800 
 35 H       -2.9710     0.2780     0.9070 H     1 <1>   0.0800 
 36 H        4.8760    -2.7140     0.2600 H     1 <1>   0.3700 
 37 H       -5.1600    -2.8880     2.3850 H     1 <1>   0.0800 
 38 H       -5.0300    -3.2580    -1.8780 H     1 <1>   0.0800 
 39 H       -5.2240     0.6200    -0.0680 H     1 <1>   0.0800 
 40 H       -6.3120    -3.3480     0.2390 H     1 <1>   0.0800 
 41 H       -4.8610    -4.2940     0.3680 H     1 <1>   0.0800 
 42 H       -5.0570    -0.4210     2.1750 H     1 <1>   0.0800 
 43 H       -6.4280    -1.0470     1.3120 H     1 <1>   0.0800 
 44 H       -6.3470    -1.2660    -1.2160 H     1 <1>   0.0800 
 45 H       -4.9230    -0.7890    -2.0870 H     1 <1>   0.0800 
 46 H        2.6540    -3.7180    -2.1630 H     1 <1>   0.1500 
 47 H        3.5640    -4.3040     1.9520 H     1 <1>   0.1500 
 48 H        1.3740    -5.8200    -2.1750 H     1 <1>   0.1500 
 49 H        2.3100    -6.3890     1.9490 H     1 <1>   0.1500 
 50 H        0.1770    -7.4660     1.6240 H     1 <1>   0.0800 
 51 H        1.5840    -8.5050     1.3680 H     1 <1>   0.0800 
 52 H       -1.1390    -8.8720     0.0670 H     1 <1>   0.0800 
 53 H       -0.5160    -9.8480     1.3750 H     1 <1>   0.0800 
 54 H        0.2590    -9.9040    -0.1900 H     1 <1>   0.0800 
@<TRIPOS>BOND
  1   1   2  1   
  2   1   3  1   
  3   2   4  2   
  4   2   5  1   
  5   3   6  2   
  6   3   7  1   
  7   4   6  1   
  8   5   8  am  
  9   5  29  1   
 10   7   9  1   
 11   7  10  1   
 12   7  11  1   
 13   8  12  2   
 14   8  13  am  
 15   9  14  1   
 16   9  30  1   
 17   9  31  1   
 18  10  15  1   
 19  10  32  1   
 20  10  33  1   
 21  11  16  1   
 22  11  34  1   
 23  11  35  1   
 24  13  17  1   
 25  13  36  1   
 26  14  18  1   
 27  14  19  1   
 28  14  37  1   
 29  15  18  1   
 30  15  20  1   
 31  15  38  1   
 32  16  19  1   
 33  16  20  1   
 34  16  39  1   
 35  17  21  ar  
 36  17  22  ar  
 37  18  40  1   
 38  18  41  1   
 39  19  42  1   
 40  19  43  1   
 41  20  44  1   
 42  20  45  1   
 43  21  23  ar  
 44  21  46  1   
 45  22  24  ar  
 46  22  47  1   
 47  23  25  ar  
 48  23  48  1   
 49  24  25  ar  
 50  24  49  1   
 51  25  26  1   
 52  26  27  1   
 53  27  28  1   
 54  27  50  1   
 55  27  51  1   
 56  28  52  1   
 57  28  53  1   
 58  28  54  1   
@<TRIPOS>SUBSTRUCTURE
  1 ****   6 GROUP 4 **** **** 0

# MOE 2024.06 (io_trps.svl 2023.06)
