@<TRIPOS>MOLECULE
NONAME
32 33 1 0 0 
SMALL
USER_CHARGES


@<TRIPOS>ATOM
  1 O       -1.6840     4.7630    -0.0420 O.3   1 <1>  -0.3630 
  2 C       -0.5000     5.3380     0.2870 C.ar  1 <1>   0.0830 
  3 C       -2.9020     5.4410     0.1590 C.3   1 <1>   0.1200 
  4 C        0.6430     4.5890     0.0520 C.ar  1 <1>  -0.1500 
  5 C       -0.3820     6.6120     0.8350 C.ar  1 <1>  -0.1500 
  6 C       -4.0320     4.5260    -0.3010 C.3   1 <1>   0.0960 
  7 C        1.8970     5.0910     0.3560 C.ar  1 <1>  -0.1440 
  8 C        0.8700     7.1190     1.1390 C.ar  1 <1>  -0.1500 
  9 N       -5.3270     5.1950    -0.0860 N.pl3 1 <1>   0.0480 
 10 C        2.0040     6.3620     0.9000 C.ar  1 <1>  -0.1500 
 11 C        3.1430     4.2600     0.0940 C.3   1 <1>  -0.0160 
 12 C       -6.1280     5.1180     1.0010 C.2   1 <1>   0.0360 
 13 C       -5.9590     6.0420    -0.9170 C.2   1 <1>  -0.3020 
 14 C        3.6850     4.5340    -1.3110 C.3   1 <1>  -0.2400 
 15 N       -7.1960     5.8420     0.9180 N.2   1 <1>  -0.5650 
 16 C       -7.0940     6.4240    -0.2910 C.2   1 <1>   0.0770 
 17 H       -2.8860     6.3470    -0.4230 H     1 <1>   0.0800 
 18 H       -2.9960     5.6630     1.2080 H     1 <1>   0.0800 
 19 H        0.5390     3.6080    -0.3740 H     1 <1>   0.1500 
 20 H       -1.2420     7.2230     1.0310 H     1 <1>   0.1500 
 21 H       -4.0160     3.6100     0.2610 H     1 <1>   0.0800 
 22 H       -3.9260     4.3060    -1.3480 H     1 <1>   0.0800 
 23 H        0.9640     8.1040     1.5610 H     1 <1>   0.1500 
 24 H        2.9720     6.7660     1.1380 H     1 <1>   0.1500 
 25 H        2.9080     3.2150     0.1920 H     1 <1>   0.0800 
 26 H        3.8960     4.4950     0.8250 H     1 <1>   0.0800 
 27 H       -5.8810     4.5070     1.8510 H     1 <1>   0.1500 
 28 H       -5.5830     6.3220    -1.8840 H     1 <1>   0.1500 
 29 H        2.9430     4.2860    -2.0490 H     1 <1>   0.0800 
 30 H        4.5650     3.9430    -1.4910 H     1 <1>   0.0800 
 31 H        3.9380     5.5750    -1.4140 H     1 <1>   0.0800 
 32 H       -7.8540     7.0970    -0.6510 H     1 <1>   0.1500 
@<TRIPOS>BOND
  1   1   2  1   
  2   1   3  1   
  3   2   4  ar  
  4   2   5  ar  
  5   3   6  1   
  6   3  17  1   
  7   3  18  1   
  8   4   7  ar  
  9   4  19  1   
 10   5   8  ar  
 11   5  20  1   
 12   6   9  1   
 13   6  21  1   
 14   6  22  1   
 15   7  10  ar  
 16   7  11  1   
 17   8  10  ar  
 18   8  23  1   
 19   9  12  1   
 20   9  13  1   
 21  10  24  1   
 22  11  14  1   
 23  11  25  1   
 24  11  26  1   
 25  12  15  2   
 26  12  27  1   
 27  13  16  2   
 28  13  28  1   
 29  14  29  1   
 30  14  30  1   
 31  14  31  1   
 32  15  16  1   
 33  16  32  1   
@<TRIPOS>SUBSTRUCTURE
  1 ****   1 GROUP 4 **** **** 0

# MOE 2024.06 (io_trps.svl 2023.06)
