@<TRIPOS>MOLECULE
NONAME
44 47 1 0 0 
SMALL
USER_CHARGES


@<TRIPOS>ATOM
  1 S       -0.0940    -1.1590    -0.4110 S.3   1 <1>  -0.0800 
  2 C       -1.4370    -0.0720    -0.0270 C.ar  1 <1>   0.2970 
  3 C        1.0910     0.1400    -0.1680 C.ar  1 <1>   0.0400 
  4 N       -2.6890    -0.4900    -0.0400 N.ar  1 <1>  -0.5670 
  5 C       -0.9630     1.1990     0.2640 C.ar  1 <1>   0.0000 
  6 C        2.4660     0.0910    -0.2870 C.ar  1 <1>   0.4100 
  7 C        0.4710     1.3080     0.1810 C.ar  1 <1>   0.2560 
  8 C       -3.5620     0.4550     0.2710 C.ar  1 <1>   0.1660 
  9 C       -1.9040     2.1630     0.5830 C.ar  1 <1>  -0.1500 
 10 N        3.1730     1.1810    -0.0630 N.ar  1 <1>  -0.6200 
 11 N        3.1270    -1.0640    -0.6290 N.pl3 1 <1>  -0.8690 
 12 N        1.1820     2.4090     0.4070 N.ar  1 <1>  -0.5660 
 13 C       -3.2300     1.7750     0.5840 C.ar  1 <1>  -0.1430 
 14 C       -5.0170     0.0340     0.2910 C.3   1 <1>  -0.0170 
 15 C        2.4890     2.2700     0.2700 C.ar  1 <1>   0.4770 
 16 C        4.5650    -1.1200    -1.0030 C.3   1 <1>   0.2090 
 17 C       -4.3110     2.7980     0.9090 C.3   1 <1>   0.2630 
 18 C       -5.9750     1.2320     0.1950 C.3   1 <1>   0.2800 
 19 C        3.3270     3.5010     0.5220 C.3   1 <1>  -0.0960 
 20 C        5.4340    -1.2270     0.2550 C.3   1 <1>   0.1200 
 21 O       -5.5640     2.2050     1.1040 O.3   1 <1>  -0.5600 
 22 C       -7.3830     0.8270     0.6350 C.3   1 <1>  -0.2400 
 23 C       -6.0410     1.8260    -1.2220 C.3   1 <1>  -0.2400 
 24 O        6.7490    -1.5170    -0.0980 O.3   1 <1>  -0.6800 
 25 H       -1.5930     3.1670     0.8170 H     1 <1>   0.1500 
 26 H        2.5570    -1.8670    -0.9100 H     1 <1>   0.4000 
 27 H       -5.1940    -0.4990     1.2070 H     1 <1>   0.0800 
 28 H       -5.2080    -0.6440    -0.5200 H     1 <1>   0.0800 
 29 H        4.8330    -0.2310    -1.5480 H     1 <1>   0.0800 
 30 H        4.7260    -1.9770    -1.6330 H     1 <1>   0.0800 
 31 H       -4.3970     3.5180     0.1160 H     1 <1>   0.0800 
 32 H       -4.0630     3.3190     1.8170 H     1 <1>   0.0800 
 33 H        4.0240     3.3020     1.3140 H     1 <1>   0.0800 
 34 H        2.7070     4.3330     0.8010 H     1 <1>   0.0800 
 35 H        3.8700     3.7510    -0.3700 H     1 <1>   0.0800 
 36 H        5.0780    -2.0090     0.9020 H     1 <1>   0.0800 
 37 H        5.4300    -0.2900     0.7840 H     1 <1>   0.0800 
 38 H       -7.3680     0.4610     1.6460 H     1 <1>   0.0800 
 39 H       -7.7670     0.0530    -0.0030 H     1 <1>   0.0800 
 40 H       -8.0450     1.6730     0.5820 H     1 <1>   0.0800 
 41 H       -5.0620     2.0430    -1.6070 H     1 <1>   0.0800 
 42 H       -6.6330     2.7240    -1.2200 H     1 <1>   0.0800 
 43 H       -6.5010     1.1220    -1.8910 H     1 <1>   0.0800 
 44 H        6.8330    -2.4400    -0.4060 H     1 <1>   0.4000 
@<TRIPOS>BOND
  1   1   2  1   
  2   1   3  1   
  3   2   4  ar  
  4   2   5  ar  
  5   3   6  ar  
  6   3   7  ar  
  7   4   8  ar  
  8   5   7  1   
  9   5   9  ar  
 10   6  10  ar  
 11   6  11  1   
 12   7  12  ar  
 13   8  13  ar  
 14   8  14  1   
 15   9  13  ar  
 16   9  25  1   
 17  10  15  ar  
 18  11  16  1   
 19  11  26  1   
 20  12  15  ar  
 21  13  17  1   
 22  14  18  1   
 23  14  27  1   
 24  14  28  1   
 25  15  19  1   
 26  16  20  1   
 27  16  29  1   
 28  16  30  1   
 29  17  21  1   
 30  17  31  1   
 31  17  32  1   
 32  18  21  1   
 33  18  22  1   
 34  18  23  1   
 35  19  33  1   
 36  19  34  1   
 37  19  35  1   
 38  20  24  1   
 39  20  36  1   
 40  20  37  1   
 41  22  38  1   
 42  22  39  1   
 43  22  40  1   
 44  23  41  1   
 45  23  42  1   
 46  23  43  1   
 47  24  44  1   
@<TRIPOS>SUBSTRUCTURE
  1 ****   5 GROUP 4 **** **** 0

# MOE 2024.06 (io_trps.svl 2023.06)
