@<TRIPOS>MOLECULE
NONAME
42 43 1 0 0 
SMALL
USER_CHARGES


@<TRIPOS>ATOM
  1 O        0.1230     0.5000    -2.7040 O.2   1 <1>  -0.5700 
  2 C       -0.2460     1.4190    -2.0080 C.2   1 <1>   0.5690 
  3 N        0.6300     2.1080    -1.2040 N.am  1 <1>  -0.6600 
  4 C       -1.7260     1.7790    -2.0670 C.3   1 <1>   0.0440 
  5 C        0.2070     3.2520    -0.3360 C.3   1 <1>   0.1400 
  6 C        2.0520     1.6620    -1.0800 C.3   1 <1>   0.1400 
  7 C       -2.4550     1.5110    -0.7480 C.ar  1 <1>  -0.1440 
  8 C        1.4050     4.1220     0.0710 C.3   1 <1>  -0.0800 
  9 C        2.5450     1.8340     0.3650 C.3   1 <1>  -0.0800 
 10 C       -3.1040     2.5190    -0.0350 C.ar  1 <1>   0.0820 
 11 C       -2.4620     0.2150    -0.2550 C.ar  1 <1>  -0.1500 
 12 C        2.4760     3.3060     0.8230 C.3   1 <1>  -0.1600 
 13 C        0.9520     5.3240     0.9100 C.3   1 <1>  -0.2400 
 14 C        3.9630     1.2760     0.5390 C.3   1 <1>  -0.2400 
 15 O       -3.0750     3.7810    -0.5400 O.3   1 <1>  -0.3630 
 16 C       -3.7470     2.2080     1.1620 C.ar  1 <1>  -0.1500 
 17 C       -3.1020    -0.0860     0.9330 C.ar  1 <1>  -0.1500 
 18 C       -3.7390     4.8530     0.0930 C.3   1 <1>   0.0400 
 19 C       -3.7450     0.9110     1.6420 C.ar  1 <1>  -0.1500 
 20 H       -2.1890     1.1830    -2.8320 H     1 <1>   0.0800 
 21 H       -1.8160     2.8010    -2.3800 H     1 <1>   0.0800 
 22 H       -0.2720     2.8610     0.5460 H     1 <1>   0.0800 
 23 H       -0.5010     3.8640    -0.8650 H     1 <1>   0.0800 
 24 H        2.6620     2.2420    -1.7500 H     1 <1>   0.0800 
 25 H        2.1360     0.6260    -1.3620 H     1 <1>   0.0800 
 26 H        1.8420     4.5030    -0.8370 H     1 <1>   0.0800 
 27 H        1.8860     1.2530     0.9900 H     1 <1>   0.0800 
 28 H       -1.9620    -0.5700    -0.7990 H     1 <1>   0.1500 
 29 H        2.2750     3.3150     1.8800 H     1 <1>   0.0800 
 30 H        3.4270     3.7880     0.6730 H     1 <1>   0.0800 
 31 H        0.4790     4.9960     1.8190 H     1 <1>   0.0800 
 32 H        0.2510     5.9220     0.3550 H     1 <1>   0.0800 
 33 H        1.7970     5.9410     1.1630 H     1 <1>   0.0800 
 34 H        4.6580     1.8030    -0.0920 H     1 <1>   0.0800 
 35 H        3.9860     0.2330     0.2780 H     1 <1>   0.0800 
 36 H        4.2800     1.3770     1.5620 H     1 <1>   0.0800 
 37 H       -4.2550     2.9590     1.7350 H     1 <1>   0.1500 
 38 H       -3.0980    -1.0970     1.3040 H     1 <1>   0.1500 
 39 H       -3.5880     5.7360    -0.5000 H     1 <1>   0.0800 
 40 H       -3.3180     4.9940     1.0730 H     1 <1>   0.0800 
 41 H       -4.7890     4.6270     0.1520 H     1 <1>   0.0800 
 42 H       -4.2440     0.6760     2.5660 H     1 <1>   0.1500 
@<TRIPOS>BOND
  1   1   2  2   
  2   2   3  am  
  3   2   4  1   
  4   3   5  1   
  5   3   6  1   
  6   4   7  1   
  7   4  20  1   
  8   4  21  1   
  9   5   8  1   
 10   5  22  1   
 11   5  23  1   
 12   6   9  1   
 13   6  24  1   
 14   6  25  1   
 15   7  10  ar  
 16   7  11  ar  
 17   8  12  1   
 18   8  13  1   
 19   8  26  1   
 20   9  12  1   
 21   9  14  1   
 22   9  27  1   
 23  10  15  1   
 24  10  16  ar  
 25  11  17  ar  
 26  11  28  1   
 27  12  29  1   
 28  12  30  1   
 29  13  31  1   
 30  13  32  1   
 31  13  33  1   
 32  14  34  1   
 33  14  35  1   
 34  14  36  1   
 35  15  18  1   
 36  16  19  ar  
 37  16  37  1   
 38  17  19  ar  
 39  17  38  1   
 40  18  39  1   
 41  18  40  1   
 42  18  41  1   
 43  19  42  1   
@<TRIPOS>SUBSTRUCTURE
  1 ****   5 GROUP 4 **** **** 0

# MOE 2024.06 (io_trps.svl 2023.06)
