@<TRIPOS>MOLECULE
NONAME
34 35 1 0 0 
SMALL
USER_CHARGES


@<TRIPOS>ATOM
  1 O        0.5420     1.6860     2.8450 O.2   1 <1>  -0.5700 
  2 C        0.1490     2.2140     1.8300 C.2   1 <1>   0.5690 
  3 N        0.9750     2.3750     0.7470 N.am  1 <1>  -0.6600 
  4 C       -1.2850     2.7410     1.8150 C.3   1 <1>   0.1810 
  5 C        0.5960     2.9610    -0.5570 C.3   1 <1>   0.1400 
  6 C        2.3640     1.8730     0.7240 C.3   1 <1>   0.1400 
  7 O       -2.0390     2.2000     0.7380 O.3   1 <1>  -0.3620 
  8 C        1.9060     3.0580    -1.3300 C.3   1 <1>  -0.1600 
  9 C        2.7850     1.9580    -0.7390 C.3   1 <1>  -0.1600 
 10 C       -3.3170     2.5990     0.5120 C.ar  1 <1>   0.0820 
 11 C       -3.9450     2.0670    -0.6030 C.ar  1 <1>  -0.1500 
 12 C       -4.0070     3.4950     1.3240 C.ar  1 <1>  -0.1500 
 13 C       -5.2460     2.4210    -0.9170 C.ar  1 <1>  -0.1500 
 14 C       -5.3080     3.8490     1.0090 C.ar  1 <1>  -0.1500 
 15 C       -5.9350     3.3200    -0.1080 C.ar  1 <1>   0.0820 
 16 O       -7.2110     3.7250    -0.3400 O.3   1 <1>  -0.3630 
 17 C       -7.9420     3.2330    -1.4410 C.3   1 <1>   0.0400 
 18 H       -1.2650     3.8090     1.7140 H     1 <1>   0.0800 
 19 H       -1.7720     2.4680     2.7330 H     1 <1>   0.0800 
 20 H        0.1360     3.9260    -0.4340 H     1 <1>   0.0800 
 21 H       -0.0840     2.2930    -1.0580 H     1 <1>   0.0800 
 22 H        2.4140     0.8630     1.0980 H     1 <1>   0.0800 
 23 H        2.9770     2.5130     1.3350 H     1 <1>   0.0800 
 24 H        2.3520     4.0200    -1.1450 H     1 <1>   0.0800 
 25 H        1.7560     2.9390    -2.3890 H     1 <1>   0.0800 
 26 H        2.5670     1.0190    -1.2170 H     1 <1>   0.0800 
 27 H        3.8340     2.1680    -0.8410 H     1 <1>   0.0800 
 28 H       -3.4080     1.3720    -1.2230 H     1 <1>   0.1500 
 29 H       -3.5590     3.9240     2.1990 H     1 <1>   0.1500 
 30 H       -5.7010     1.9900    -1.7880 H     1 <1>   0.1500 
 31 H       -5.8490     4.5410     1.6290 H     1 <1>   0.1500 
 32 H       -8.9180     3.6840    -1.4210 H     1 <1>   0.0800 
 33 H       -8.0320     2.1650    -1.3530 H     1 <1>   0.0800 
 34 H       -7.4330     3.5050    -2.3480 H     1 <1>   0.0800 
@<TRIPOS>BOND
  1   1   2  2   
  2   2   3  am  
  3   2   4  1   
  4   3   5  1   
  5   3   6  1   
  6   4   7  1   
  7   4  18  1   
  8   4  19  1   
  9   5   8  1   
 10   5  20  1   
 11   5  21  1   
 12   6   9  1   
 13   6  22  1   
 14   6  23  1   
 15   7  10  1   
 16   8   9  1   
 17   8  24  1   
 18   8  25  1   
 19   9  26  1   
 20   9  27  1   
 21  10  11  ar  
 22  10  12  ar  
 23  11  13  ar  
 24  11  28  1   
 25  12  14  ar  
 26  12  29  1   
 27  13  15  ar  
 28  13  30  1   
 29  14  15  ar  
 30  14  31  1   
 31  15  16  1   
 32  16  17  1   
 33  17  32  1   
 34  17  33  1   
 35  17  34  1   
@<TRIPOS>SUBSTRUCTURE
  1 ****   7 GROUP 4 **** **** 0

# MOE 2024.06 (io_trps.svl 2023.06)
