@<TRIPOS>MOLECULE
NONAME
41 42 1 0 0 
SMALL
USER_CHARGES


@<TRIPOS>ATOM
  1 S       -0.4950    -0.6400    -0.0020 S.3   1 <1>  -0.2860 
  2 C        1.2190    -0.9480    -0.4400 C.2   1 <1>   0.2420 
  3 C       -1.4160    -1.3340    -1.4640 C.3   1 <1>   0.1310 
  4 N        1.5790    -1.4850    -1.5510 N.2   1 <1>  -0.3380 
  5 N        2.2400    -0.6360     0.3590 N.pl3 1 <1>   0.0480 
  6 C       -2.9110    -1.0740    -1.3590 C.2   1 <1>   0.5690 
  7 N        2.9140    -1.5420    -1.5090 N.2   1 <1>  -0.3380 
  8 C        3.2860    -1.0380    -0.3790 C.2   1 <1>   0.0060 
  9 C        2.2100    -0.0170     1.7020 C.3   1 <1>   0.0960 
 10 O       -3.6520    -1.8040    -1.9700 O.2   1 <1>  -0.5700 
 11 N       -3.3400    -0.0280    -0.5850 N.am  1 <1>  -0.5470 
 12 C        4.7360    -0.9190     0.0520 C.3   1 <1>  -0.0600 
 13 C        2.2310     1.5100     1.5940 C.3   1 <1>  -0.2400 
 14 C       -4.6200     0.4820    -0.3190 C.ar  1 <1>   0.1170 
 15 C       -5.7350     0.1990    -1.1020 C.ar  1 <1>  -0.1500 
 16 C       -4.7830     1.3250     0.7730 C.ar  1 <1>  -0.1500 
 17 C       -6.9720     0.7390    -0.7990 C.ar  1 <1>  -0.1500 
 18 C       -6.0190     1.8680     1.0780 C.ar  1 <1>  -0.1500 
 19 C       -7.1230     1.5780     0.2930 C.ar  1 <1>  -0.1430 
 20 C       -8.4830     2.1710     0.6260 C.3   1 <1>  -0.0170 
 21 C       -9.2500     1.2500     1.5770 C.3   1 <1>  -0.2400 
 22 H       -1.2180    -2.3890    -1.4920 H     1 <1>   0.0800 
 23 H       -1.0180    -0.8670    -2.3450 H     1 <1>   0.0800 
 24 H        3.0610    -0.3600     2.2630 H     1 <1>   0.0800 
 25 H        1.3200    -0.3390     2.2140 H     1 <1>   0.0800 
 26 H       -2.5900     0.4270    -0.0660 H     1 <1>   0.3700 
 27 H        4.9820     0.1090     0.2470 H     1 <1>   0.0800 
 28 H        5.3780    -1.2820    -0.7310 H     1 <1>   0.0800 
 29 H        4.9090    -1.5040     0.9360 H     1 <1>   0.0800 
 30 H        3.1230     1.8420     1.0920 H     1 <1>   0.0800 
 31 H        2.2130     1.9450     2.5780 H     1 <1>   0.0800 
 32 H        1.3690     1.8600     1.0530 H     1 <1>   0.0800 
 33 H       -5.6450    -0.4450    -1.9570 H     1 <1>   0.1500 
 34 H       -3.9400     1.5600     1.3950 H     1 <1>   0.1500 
 35 H       -7.8180     0.5000    -1.4180 H     1 <1>   0.1500 
 36 H       -6.1210     2.5150     1.9310 H     1 <1>   0.1500 
 37 H       -9.0490     2.3090    -0.2790 H     1 <1>   0.0800 
 38 H       -8.3560     3.1370     1.0820 H     1 <1>   0.0800 
 39 H       -9.3960     0.2860     1.1230 H     1 <1>   0.0800 
 40 H      -10.2110     1.6730     1.8080 H     1 <1>   0.0800 
 41 H       -8.6990     1.1190     2.4910 H     1 <1>   0.0800 
@<TRIPOS>BOND
  1   1   2  1   
  2   1   3  1   
  3   2   4  2   
  4   2   5  1   
  5   3   6  1   
  6   3  22  1   
  7   3  23  1   
  8   4   7  1   
  9   5   8  1   
 10   5   9  1   
 11   6  10  2   
 12   6  11  am  
 13   7   8  2   
 14   8  12  1   
 15   9  13  1   
 16   9  24  1   
 17   9  25  1   
 18  11  14  1   
 19  11  26  1   
 20  12  27  1   
 21  12  28  1   
 22  12  29  1   
 23  13  30  1   
 24  13  31  1   
 25  13  32  1   
 26  14  15  ar  
 27  14  16  ar  
 28  15  17  ar  
 29  15  33  1   
 30  16  18  ar  
 31  16  34  1   
 32  17  19  ar  
 33  17  35  1   
 34  18  19  ar  
 35  18  36  1   
 36  19  20  1   
 37  20  21  1   
 38  20  37  1   
 39  20  38  1   
 40  21  39  1   
 41  21  40  1   
 42  21  41  1   
@<TRIPOS>SUBSTRUCTURE
  1 ****  11 GROUP 4 **** **** 0

# MOE 2024.06 (io_trps.svl 2023.06)
