@<TRIPOS>MOLECULE
NONAME
42 45 1 0 0 
SMALL
USER_CHARGES


@<TRIPOS>ATOM
  1 S       -0.0410    -0.2660    -0.3340 S.3   1 <1>  -0.0800 
  2 C        1.5070     0.5560    -0.1930 C.ar  1 <1>   0.2970 
  3 C       -0.9420     1.2730    -0.4400 C.2   1 <1>  -0.0450 
  4 N        2.6400    -0.1080    -0.0520 N.ar  1 <1>  -0.5670 
  5 C        1.3220     1.9290    -0.2470 C.ar  1 <1>   0.0000 
  6 C       -0.0580     2.3150    -0.4180 C.2   1 <1>   0.0830 
  7 C       -2.3650     1.2240    -0.4940 C.2   1 <1>   0.7150 
  8 C        3.7040     0.6620     0.0530 C.ar  1 <1>   0.1670 
  9 C        2.4620     2.7120    -0.1320 C.ar  1 <1>  -0.1500 
 10 N       -0.4100     3.6480    -0.5660 N.pl3 1 <1>  -0.8830 
 11 O       -2.9650     0.2160    -0.8220 O.2   1 <1>  -0.5700 
 12 N       -3.0600     2.3520    -0.1340 N.am  1 <1>  -0.4940 
 13 C        3.6730     2.0600     0.0210 C.ar  1 <1>  -0.1430 
 14 C        5.0120    -0.0950     0.1950 C.3   1 <1>  -0.0170 
 15 C       -4.4280     2.6320    -0.1860 C.2   1 <1>   0.2040 
 16 C        4.9430     2.8780     0.1640 C.3   1 <1>   0.4860 
 17 C        6.1840     0.8090     0.5680 C.3   1 <1>   0.3430 
 18 O       -5.2880     1.8530    -0.7990 O.3   1 <1>  -0.0190 
 19 C       -5.1160     3.6740     0.3160 C.2   1 <1>  -0.1500 
 20 N        6.1340     2.0720    -0.2260 N.4   1 <1>  -0.9590 
 21 N       -6.5080     2.3250    -0.7310 N.2   1 <1>  -0.4100 
 22 C       -6.4290     3.4190    -0.0630 C.2   1 <1>   0.1080 
 23 C        7.3960     2.8600    -0.0820 C.3   1 <1>   0.2630 
 24 C       -7.6160     4.2990     0.2600 C.3   1 <1>  -0.0590 
 25 H        2.3840     3.7840    -0.1590 H     1 <1>   0.1500 
 26 H        0.3350     4.3520    -0.5710 H     1 <1>   0.4000 
 27 H       -1.1260     3.8800    -1.2680 H     1 <1>   0.4000 
 28 H       -2.4570     3.0750     0.2590 H     1 <1>   0.3700 
 29 H        5.2240    -0.5940    -0.7340 H     1 <1>   0.0800 
 30 H        4.9040    -0.8550     0.9480 H     1 <1>   0.0800 
 31 H        5.0390     3.2000     1.1880 H     1 <1>   0.0800 
 32 H        4.8740     3.7540    -0.4600 H     1 <1>   0.0800 
 33 H        7.1080     0.2840     0.3840 H     1 <1>   0.0800 
 34 H        6.1320     1.0420     1.6200 H     1 <1>   0.0800 
 35 H       -4.7660     4.5170     0.8790 H     1 <1>   0.1500 
 36 H        6.0110     1.8150    -1.2180 H     1 <1>   0.4500 
 37 H        7.5470     3.1460     0.9470 H     1 <1>   0.0800 
 38 H        7.3540     3.7530    -0.6850 H     1 <1>   0.0800 
 39 H        8.2420     2.2730    -0.4020 H     1 <1>   0.0800 
 40 H       -7.4000     5.3190     0.0020 H     1 <1>   0.0800 
 41 H       -7.8410     4.2360     1.3080 H     1 <1>   0.0800 
 42 H       -8.4760     3.9740    -0.2990 H     1 <1>   0.0800 
@<TRIPOS>BOND
  1   1   2  1   
  2   1   3  1   
  3   2   4  ar  
  4   2   5  ar  
  5   3   6  2   
  6   3   7  1   
  7   4   8  ar  
  8   5   6  1   
  9   5   9  ar  
 10   6  10  1   
 11   7  11  2   
 12   7  12  am  
 13   8  13  ar  
 14   8  14  1   
 15   9  13  ar  
 16   9  25  1   
 17  10  26  1   
 18  10  27  1   
 19  12  15  1   
 20  12  28  1   
 21  13  16  1   
 22  14  17  1   
 23  14  29  1   
 24  14  30  1   
 25  15  18  1   
 26  15  19  2   
 27  16  20  1   
 28  16  31  1   
 29  16  32  1   
 30  17  20  1   
 31  17  33  1   
 32  17  34  1   
 33  18  21  1   
 34  19  22  1   
 35  19  35  1   
 36  20  23  1   
 37  20  36  1   
 38  21  22  2   
 39  22  24  1   
 40  23  37  1   
 41  23  38  1   
 42  23  39  1   
 43  24  40  1   
 44  24  41  1   
 45  24  42  1   
@<TRIPOS>SUBSTRUCTURE
  1 ****   6 GROUP 4 **** **** 0

# MOE 2024.06 (io_trps.svl 2023.06)
