@<TRIPOS>MOLECULE
NONAME
44 47 1 0 0 
SMALL
USER_CHARGES


@<TRIPOS>ATOM
  1 S       -0.3260     0.4490     0.6720 S.3   1 <1>  -0.0800 
  2 C        0.3260     2.0310     0.2150 C.2   1 <1>   0.4420 
  3 C        1.2740    -0.2440     0.5540 C.ar  1 <1>   0.0400 
  4 N        1.5900     2.0220    -0.0020 N.2   1 <1>  -0.5650 
  5 N       -0.5800     3.0960     0.1300 N.am  1 <1>  -0.0620 
  6 C        2.1430     0.7640     0.1840 C.ar  1 <1>   0.2270 
  7 C        1.6660    -1.5500     0.7760 C.ar  1 <1>  -0.1500 
  8 N       -1.9320     2.9400    -0.0770 N.2   1 <1>  -0.5120 
  9 C       -0.2850     4.4330     0.1880 C.2   1 <1>   0.6160 
 10 C        3.4850     0.4450     0.0290 C.ar  1 <1>  -0.1500 
 11 C        3.0080    -1.8510     0.6170 C.ar  1 <1>  -0.1500 
 12 C       -2.4410     4.1240    -0.1780 C.2   1 <1>   0.3750 
 13 O        0.8290     4.8890     0.4690 O.2   1 <1>  -0.5700 
 14 C       -1.4650     5.1670    -0.0730 C.2   1 <1>   0.0290 
 15 C        3.9120    -0.8570     0.2450 C.ar  1 <1>  -0.1500 
 16 C       -3.9650     4.3240    -0.3550 C.3   1 <1>   1.0810 
 17 C       -1.5010     6.5620    -0.1710 C.2   1 <1>  -0.0380 
 18 F       -4.2960     4.6740    -1.5930 F     1 <1>  -0.3400 
 19 F       -4.4630     5.2560     0.4490 F     1 <1>  -0.3400 
 20 F       -4.6720     3.2280    -0.0960 F     1 <1>  -0.3400 
 21 N       -0.4190     7.3000     0.1310 N.pl3 1 <1>  -0.5110 
 22 C       -2.7260     7.3590    -0.6170 C.3   1 <1>  -0.1020 
 23 N       -0.3140     8.7390     0.1260 N.3   1 <1>  -0.5290 
 24 C        0.0260     9.1910     1.5050 C.3   1 <1>   0.1100 
 25 C        0.7840     9.1250    -0.8070 C.3   1 <1>   0.1100 
 26 C        0.3560    10.6930     1.5220 C.3   1 <1>   0.1200 
 27 C        1.0870    10.6290    -0.7020 C.3   1 <1>   0.1200 
 28 O        1.3850    10.9800     0.6190 O.3   1 <1>  -0.5600 
 29 H        0.9490    -2.3000     1.0630 H     1 <1>   0.1500 
 30 H        4.1740     1.2180    -0.2560 H     1 <1>   0.1500 
 31 H        3.3580    -2.8560     0.7800 H     1 <1>   0.1500 
 32 H        4.9530    -1.1040     0.1250 H     1 <1>   0.1500 
 33 H        0.4520     6.7980     0.4110 H     1 <1>   0.4000 
 34 H       -3.3270     7.6200     0.2350 H     1 <1>   0.0800 
 35 H       -3.3140     6.8310    -1.3350 H     1 <1>   0.0800 
 36 H       -2.4360     8.2720    -1.1050 H     1 <1>   0.0800 
 37 H        0.8710     8.6380     1.8780 H     1 <1>   0.0800 
 38 H       -0.8130     9.0020     2.1500 H     1 <1>   0.0800 
 39 H        0.4850     8.8900    -1.8120 H     1 <1>   0.0800 
 40 H        1.6750     8.5670    -0.5800 H     1 <1>   0.0800 
 41 H        0.6860    10.9910     2.5010 H     1 <1>   0.0800 
 42 H       -0.5100    11.2720     1.2550 H     1 <1>   0.0800 
 43 H        0.2410    11.2080    -1.0310 H     1 <1>   0.0800 
 44 H        1.9380    10.8800    -1.3090 H     1 <1>   0.0800 
@<TRIPOS>BOND
  1   1   2  1   
  2   1   3  1   
  3   2   4  2   
  4   2   5  1   
  5   3   6  ar  
  6   3   7  ar  
  7   4   6  1   
  8   5   8  1   
  9   5   9  am  
 10   6  10  ar  
 11   7  11  ar  
 12   7  29  1   
 13   8  12  2   
 14   9  13  2   
 15   9  14  1   
 16  10  15  ar  
 17  10  30  1   
 18  11  15  ar  
 19  11  31  1   
 20  12  14  1   
 21  12  16  1   
 22  14  17  2   
 23  15  32  1   
 24  16  18  1   
 25  16  19  1   
 26  16  20  1   
 27  17  21  1   
 28  17  22  1   
 29  21  23  1   
 30  21  33  1   
 31  22  34  1   
 32  22  35  1   
 33  22  36  1   
 34  23  24  1   
 35  23  25  1   
 36  24  26  1   
 37  24  37  1   
 38  24  38  1   
 39  25  27  1   
 40  25  39  1   
 41  25  40  1   
 42  26  28  1   
 43  26  41  1   
 44  26  42  1   
 45  27  28  1   
 46  27  43  1   
 47  27  44  1   
@<TRIPOS>SUBSTRUCTURE
  1 ****   9 GROUP 4 **** **** 0

# MOE 2024.06 (io_trps.svl 2023.06)
