@<TRIPOS>MOLECULE
NONAME
49 51 1 0 0 
SMALL
USER_CHARGES


@<TRIPOS>ATOM
  1 O        0.1170     0.8030     0.1810 O.2   1 <1>  -0.5700 
  2 C       -0.5690     1.7950     0.0990 C.2   1 <1>   0.4950 
  3 C       -0.0310     3.0900    -0.1890 C.2   1 <1>   0.0290 
  4 C       -2.0530     1.5840     0.3340 C.3   1 <1>  -0.0990 
  5 C       -0.9160     4.2230    -0.1570 C.2   1 <1>   0.4950 
  6 C        1.3130     3.2080    -0.4820 C.2   1 <1>  -0.0500 
  7 C       -2.8900     2.6620    -0.3540 C.3   1 <1>   0.0640 
  8 O       -0.5550     5.3710    -0.2970 O.2   1 <1>  -0.5700 
  9 C       -2.4050     4.0460     0.0790 C.3   1 <1>  -0.0990 
 10 N        1.9690     4.3570    -0.7770 N.pl3 1 <1>  -0.8690 
 11 C       -4.3780     2.4790    -0.0720 C.ar  1 <1>  -0.1430 
 12 C        3.4050     4.4900    -1.1010 C.3   1 <1>   0.2090 
 13 C       -5.2520     2.2460    -1.1250 C.ar  1 <1>  -0.1500 
 14 C       -4.8860     2.5380     1.2200 C.ar  1 <1>  -0.1500 
 15 C        4.1500     5.0530     0.1220 C.3   1 <1>   0.3430 
 16 C       -6.6060     2.0770    -0.8930 C.ar  1 <1>  -0.1500 
 17 C       -6.2400     2.3680     1.4530 C.ar  1 <1>  -0.1500 
 18 N        5.6420     5.0780    -0.0410 N.4   1 <1>  -0.9590 
 19 C       -7.1010     2.1380     0.3960 C.ar  1 <1>  -0.1500 
 20 C        6.2680     3.7110    -0.1330 C.3   1 <1>   0.3430 
 21 C        6.3120     5.8760     1.0400 C.3   1 <1>   0.3430 
 22 C        7.8120     3.7940    -0.1870 C.3   1 <1>   0.1200 
 23 C        7.8470     5.9090     0.8470 C.3   1 <1>   0.1200 
 24 O        8.2430     5.1260    -0.2480 O.3   1 <1>  -0.5600 
 25 H       -2.2300     1.5810     1.3940 H     1 <1>   0.0800 
 26 H       -2.3370     0.6200    -0.0490 H     1 <1>   0.0800 
 27 H        1.9090     2.3050    -0.4820 H     1 <1>   0.1500 
 28 H       -2.7290     2.5750    -1.4170 H     1 <1>   0.0800 
 29 H       -2.9400     4.7950    -0.4780 H     1 <1>   0.0800 
 30 H       -2.6040     4.2110     1.1220 H     1 <1>   0.0800 
 31 H        1.4010     5.2310    -0.8100 H     1 <1>   0.4000 
 32 H        3.5160     5.1490    -1.9450 H     1 <1>   0.0800 
 33 H        3.7890     3.5200    -1.3610 H     1 <1>   0.0800 
 34 H       -4.8900     2.1950    -2.1370 H     1 <1>   0.1500 
 35 H       -4.2380     2.7160     2.0590 H     1 <1>   0.1500 
 36 H        3.8950     4.4510     0.9790 H     1 <1>   0.0800 
 37 H        3.7910     6.0530     0.2990 H     1 <1>   0.0800 
 38 H       -7.2760     1.8970    -1.7170 H     1 <1>   0.1500 
 39 H       -6.6240     2.4160     2.4570 H     1 <1>   0.1500 
 40 H        5.8990     5.5580    -0.9180 H     1 <1>   0.4500 
 41 H       -8.1540     2.0060     0.5770 H     1 <1>   0.1500 
 42 H        5.9190     3.2020    -1.0160 H     1 <1>   0.0800 
 43 H        5.9820     3.1150     0.7180 H     1 <1>   0.0800 
 44 H        6.0920     5.4470     2.0040 H     1 <1>   0.0800 
 45 H        5.9380     6.8870     1.0430 H     1 <1>   0.0800 
 46 H        8.1810     3.2870    -1.0630 H     1 <1>   0.0800 
 47 H        8.2510     3.3280     0.6790 H     1 <1>   0.0800 
 48 H        8.3500     5.5480     1.7290 H     1 <1>   0.0800 
 49 H        8.1760     6.9170     0.6630 H     1 <1>   0.0800 
@<TRIPOS>BOND
  1   1   2  2   
  2   2   3  1   
  3   2   4  1   
  4   3   5  1   
  5   3   6  2   
  6   4   7  1   
  7   4  25  1   
  8   4  26  1   
  9   5   8  2   
 10   5   9  1   
 11   6  10  1   
 12   6  27  1   
 13   7   9  1   
 14   7  11  1   
 15   7  28  1   
 16   9  29  1   
 17   9  30  1   
 18  10  12  1   
 19  10  31  1   
 20  11  13  ar  
 21  11  14  ar  
 22  12  15  1   
 23  12  32  1   
 24  12  33  1   
 25  13  16  ar  
 26  13  34  1   
 27  14  17  ar  
 28  14  35  1   
 29  15  18  1   
 30  15  36  1   
 31  15  37  1   
 32  16  19  ar  
 33  16  38  1   
 34  17  19  ar  
 35  17  39  1   
 36  18  20  1   
 37  18  21  1   
 38  18  40  1   
 39  19  41  1   
 40  20  22  1   
 41  20  42  1   
 42  20  43  1   
 43  21  23  1   
 44  21  44  1   
 45  21  45  1   
 46  22  24  1   
 47  22  46  1   
 48  22  47  1   
 49  23  24  1   
 50  23  48  1   
 51  23  49  1   
@<TRIPOS>SUBSTRUCTURE
  1 ****   3 GROUP 4 **** **** 0

# MOE 2024.06 (io_trps.svl 2023.06)
