@<TRIPOS>MOLECULE
NONAME
54 56 1 0 0 
SMALL
USER_CHARGES


@<TRIPOS>ATOM
  1 CL       4.2240     0.0300     5.3600 Cl    1 <1>  -0.1770 
  2 C        3.7590     0.5150     3.7490 C.ar  1 <1>   0.1770 
  3 C        4.6770     0.4280     2.7220 C.ar  1 <1>  -0.1500 
  4 C        2.4750     0.9760     3.5310 C.ar  1 <1>  -0.1500 
  5 C        4.3160     0.8040     1.4360 C.ar  1 <1>   0.1990 
  6 C        2.1000     1.3550     2.2520 C.ar  1 <1>  -0.1500 
  7 N        5.2370     0.6940     0.3920 N.am  1 <1>  -0.6930 
  8 C        3.0110     1.2650     1.2050 C.ar  1 <1>   0.0830 
  9 S        5.5650    -0.8480    -0.3120 S.o2  1 <1>   1.4470 
 10 C        6.2770     1.7570     0.2480 C.3   1 <1>   0.2570 
 11 O        2.6640     1.6140    -0.0670 O.3   1 <1>  -0.3630 
 12 O        6.2670    -0.5830    -1.5490 O.2   1 <1>  -0.6500 
 13 O        6.1990    -1.6410     0.7160 O.2   1 <1>  -0.6500 
 14 C        3.9070    -1.4830    -0.6860 C.ar  1 <1>  -0.0090 
 15 C        7.4580     1.6120     1.2230 C.2   1 <1>   0.5690 
 16 C        1.3630     1.3210    -0.5280 C.3   1 <1>   0.0400 
 17 C        3.1670    -2.1640     0.2740 C.ar  1 <1>  -0.1500 
 18 C        3.3200    -1.2810    -1.9300 C.ar  1 <1>  -0.1500 
 19 O        7.3300     2.1550     2.2980 O.2   1 <1>  -0.5700 
 20 N        8.6030     0.9080     0.9190 N.am  1 <1>  -0.6600 
 21 C        1.8920    -2.6310     0.0020 C.ar  1 <1>  -0.1500 
 22 C        2.0470    -1.7480    -2.2100 C.ar  1 <1>  -0.1500 
 23 C        8.9650     0.3630    -0.4220 C.3   1 <1>   0.1400 
 24 C        9.5590     0.5230     1.9970 C.3   1 <1>   0.1400 
 25 C        1.3260    -2.4270    -1.2440 C.ar  1 <1>  -0.1430 
 26 C       10.3860     0.7950    -0.8030 C.3   1 <1>  -0.1600 
 27 C       10.9770     0.9750     1.6340 C.3   1 <1>  -0.1600 
 28 C       -0.0710    -2.9400    -1.5450 C.3   1 <1>  -0.0970 
 29 C       11.4100     0.4160     0.2730 C.3   1 <1>  -0.1600 
 30 H        5.6700     0.0670     2.9230 H     1 <1>   0.1500 
 31 H        1.7830     1.0390     4.3520 H     1 <1>   0.1500 
 32 H        1.1040     1.7220     2.0870 H     1 <1>   0.1500 
 33 H        5.8120     2.7040     0.4500 H     1 <1>   0.0800 
 34 H        6.6210     1.7970    -0.7660 H     1 <1>   0.0800 
 35 H        1.3630     1.4080    -1.6000 H     1 <1>   0.0800 
 36 H        0.6720     2.0270    -0.1060 H     1 <1>   0.0800 
 37 H        1.1090     0.3140    -0.2450 H     1 <1>   0.0800 
 38 H        3.5950    -2.3310     1.2480 H     1 <1>   0.1500 
 39 H        3.8680    -0.7510    -2.6900 H     1 <1>   0.1500 
 40 H        1.3450    -3.1550     0.7670 H     1 <1>   0.1500 
 41 H        1.6230    -1.5790    -3.1840 H     1 <1>   0.1500 
 42 H        8.2970     0.7150    -1.1830 H     1 <1>   0.0800 
 43 H        8.9030    -0.7120    -0.3910 H     1 <1>   0.0800 
 44 H        9.5360    -0.5480     2.1120 H     1 <1>   0.0800 
 45 H        9.2760     0.9600     2.9390 H     1 <1>   0.0800 
 46 H       10.3950     1.8610    -0.9510 H     1 <1>   0.0800 
 47 H       10.6560     0.3330    -1.7360 H     1 <1>   0.0800 
 48 H       11.6600     0.6440     2.3960 H     1 <1>   0.0800 
 49 H       11.0020     2.0500     1.6150 H     1 <1>   0.0800 
 50 H       -0.2680    -3.8390    -0.9890 H     1 <1>   0.0800 
 51 H       -0.1720    -3.1630    -2.5930 H     1 <1>   0.0800 
 52 H       -0.8000    -2.1980    -1.2760 H     1 <1>   0.0800 
 53 H       12.3780     0.8050     0.0100 H     1 <1>   0.0800 
 54 H       11.4850    -0.6560     0.3340 H     1 <1>   0.0800 
@<TRIPOS>BOND
  1   1   2  1   
  2   2   3  ar  
  3   2   4  ar  
  4   3   5  ar  
  5   3  30  1   
  6   4   6  ar  
  7   4  31  1   
  8   5   7  1   
  9   5   8  ar  
 10   6   8  ar  
 11   6  32  1   
 12   7   9  am  
 13   7  10  1   
 14   8  11  1   
 15   9  12  2   
 16   9  13  2   
 17   9  14  1   
 18  10  15  1   
 19  10  33  1   
 20  10  34  1   
 21  11  16  1   
 22  14  17  ar  
 23  14  18  ar  
 24  15  19  2   
 25  15  20  am  
 26  16  35  1   
 27  16  36  1   
 28  16  37  1   
 29  17  21  ar  
 30  17  38  1   
 31  18  22  ar  
 32  18  39  1   
 33  20  23  1   
 34  20  24  1   
 35  21  25  ar  
 36  21  40  1   
 37  22  25  ar  
 38  22  41  1   
 39  23  26  1   
 40  23  42  1   
 41  23  43  1   
 42  24  27  1   
 43  24  44  1   
 44  24  45  1   
 45  25  28  1   
 46  26  29  1   
 47  26  46  1   
 48  26  47  1   
 49  27  29  1   
 50  27  48  1   
 51  27  49  1   
 52  28  50  1   
 53  28  51  1   
 54  28  52  1   
 55  29  53  1   
 56  29  54  1   
@<TRIPOS>SUBSTRUCTURE
  1 ****   7 GROUP 4 **** **** 0

# MOE 2024.06 (io_trps.svl 2023.06)
