@<TRIPOS>MOLECULE
NONAME
43 45 1 0 0 
SMALL
USER_CHARGES


@<TRIPOS>ATOM
  1 O        0.3810     0.7000    -2.0320 O.2   1 <1>  -0.5700 
  2 C        0.8400     1.3000    -1.0800 C.2   1 <1>   0.5440 
  3 N       -0.0060     2.0470    -0.3090 N.am  1 <1>  -0.7300 
  4 C        2.2530     1.2120    -0.7580 C.ar  1 <1>   0.0860 
  5 C       -1.4520     2.2210    -0.5340 C.3   1 <1>   0.2200 
  6 C        3.0070     0.1020    -1.1460 C.ar  1 <1>  -0.1500 
  7 C        2.9200     2.2200    -0.0560 C.ar  1 <1>  -0.1500 
  8 C       -1.7740     3.7100    -0.5150 C.3   1 <1>  -0.1600 
  9 C       -2.2040     1.6850     0.6770 C.3   1 <1>  -0.1600 
 10 C        4.3520    -0.0100    -0.8450 C.ar  1 <1>  -0.1500 
 11 C        4.2640     2.1160     0.2500 C.ar  1 <1>  -0.1500 
 12 C       -1.8730     4.0980     0.9650 C.3   1 <1>  -0.1600 
 13 C       -2.1480     2.7970     1.7310 C.3   1 <1>  -0.1600 
 14 C        4.9920     1.0040    -0.1390 C.ar  1 <1>   0.0820 
 15 O        6.3010     0.9820     0.1980 O.3   1 <1>  -0.3630 
 16 C        7.1460    -0.0850    -0.1730 C.3   1 <1>   0.2640 
 17 C        8.5610     0.2160     0.2960 C.ar  1 <1>  -0.1430 
 18 C        9.2280     1.3340    -0.1820 C.ar  1 <1>  -0.1500 
 19 C        9.2010    -0.6220     1.1970 C.ar  1 <1>  -0.1500 
 20 C       10.5200     1.6100     0.2300 C.ar  1 <1>  -0.1500 
 21 C       10.4940    -0.3470     1.6110 C.ar  1 <1>  -0.1500 
 22 C       11.1540     0.7680     1.1270 C.ar  1 <1>  -0.1500 
 23 H        0.3300     2.4640     0.5560 H     1 <1>   0.3700 
 24 H       -1.7600     1.7470    -1.4520 H     1 <1>   0.0800 
 25 H        2.5190    -0.6850    -1.6960 H     1 <1>   0.1500 
 26 H        2.3850     3.1010     0.2470 H     1 <1>   0.1500 
 27 H       -2.7340     3.8540    -0.9790 H     1 <1>   0.0800 
 28 H       -1.0440     4.2900    -1.0520 H     1 <1>   0.0800 
 29 H       -1.7950     0.7530     1.0290 H     1 <1>   0.0800 
 30 H       -3.2290     1.5230     0.3940 H     1 <1>   0.0800 
 31 H        4.8790    -0.8870    -1.1680 H     1 <1>   0.1500 
 32 H        4.7640     2.9000     0.7920 H     1 <1>   0.1500 
 33 H       -2.6590     4.8190     1.1190 H     1 <1>   0.0800 
 34 H       -0.9420     4.5250     1.2960 H     1 <1>   0.0800 
 35 H       -1.3460     2.6070     2.4230 H     1 <1>   0.0800 
 36 H       -3.0730     2.8510     2.2800 H     1 <1>   0.0800 
 37 H        7.1260    -0.1780    -1.2450 H     1 <1>   0.0800 
 38 H        6.7730    -0.9840     0.2830 H     1 <1>   0.0800 
 39 H        8.7370     1.9960    -0.8750 H     1 <1>   0.1500 
 40 H        8.6990    -1.4910     1.5840 H     1 <1>   0.1500 
 41 H       11.0300     2.4800    -0.1450 H     1 <1>   0.1500 
 42 H       10.9850    -1.0010     2.3100 H     1 <1>   0.1500 
 43 H       12.1580     0.9820     1.4480 H     1 <1>   0.1500 
@<TRIPOS>BOND
  1   1   2  2   
  2   2   3  am  
  3   2   4  1   
  4   3   5  1   
  5   3  23  1   
  6   4   6  ar  
  7   4   7  ar  
  8   5   8  1   
  9   5   9  1   
 10   5  24  1   
 11   6  10  ar  
 12   6  25  1   
 13   7  11  ar  
 14   7  26  1   
 15   8  12  1   
 16   8  27  1   
 17   8  28  1   
 18   9  13  1   
 19   9  29  1   
 20   9  30  1   
 21  10  14  ar  
 22  10  31  1   
 23  11  14  ar  
 24  11  32  1   
 25  12  13  1   
 26  12  33  1   
 27  12  34  1   
 28  13  35  1   
 29  13  36  1   
 30  14  15  1   
 31  15  16  1   
 32  16  17  1   
 33  16  37  1   
 34  16  38  1   
 35  17  18  ar  
 36  17  19  ar  
 37  18  20  ar  
 38  18  39  1   
 39  19  21  ar  
 40  19  40  1   
 41  20  22  ar  
 42  20  41  1   
 43  21  22  ar  
 44  21  42  1   
 45  22  43  1   
@<TRIPOS>SUBSTRUCTURE
  1 ****  11 GROUP 4 **** **** 0

# MOE 2024.06 (io_trps.svl 2023.06)
