@<TRIPOS>MOLECULE
NONAME
41 42 1 0 0 
SMALL
USER_CHARGES


@<TRIPOS>ATOM
  1 O        0.3500    -0.6650    -0.0070 O.3   1 <1>  -0.3630 
  2 C       -0.9010    -1.1910    -0.0080 C.ar  1 <1>   0.0830 
  3 C        1.4890    -1.4890     0.0250 C.3   1 <1>   0.1200 
  4 C       -1.9550    -0.2970    -0.0320 C.ar  1 <1>  -0.1500 
  5 C       -1.1730    -2.5540     0.0140 C.ar  1 <1>  -0.1500 
  6 C        2.7210    -0.5860     0.0250 C.3   1 <1>  -0.1600 
  7 C       -3.2630    -0.7480    -0.0340 C.ar  1 <1>  -0.1500 
  8 C       -2.4840    -2.9970     0.0120 C.ar  1 <1>  -0.1500 
  9 C        4.0090    -1.4150     0.0680 C.3   1 <1>   0.0960 
 10 C       -3.5560    -2.1100    -0.0120 C.ar  1 <1>  -0.1430 
 11 N        5.1900    -0.5300     0.0650 N.pl3 1 <1>   0.0480 
 12 C       -4.9990    -2.6610    -0.0140 C.3   1 <1>   0.1440 
 13 C        5.8660    -0.0460     1.1320 C.2   1 <1>   0.0370 
 14 C        5.8350    -0.0290    -1.0030 C.2   1 <1>  -0.3020 
 15 C       -6.0700    -1.5560    -0.0420 C.3   1 <1>  -0.2400 
 16 C       -5.2310    -3.4980     1.2530 C.3   1 <1>  -0.2400 
 17 C       -5.2120    -3.5420    -1.2540 C.3   1 <1>  -0.2400 
 18 N        6.8700     0.7070     0.8210 N.2   1 <1>  -0.5650 
 19 C        6.8520     0.7200    -0.5250 C.2   1 <1>   0.0770 
 20 H        1.4730    -2.1200    -0.8470 H     1 <1>   0.0800 
 21 H        1.4480    -2.0850     0.9210 H     1 <1>   0.0800 
 22 H       -1.7450     0.7570    -0.0490 H     1 <1>   0.1500 
 23 H       -0.3860    -3.2820     0.0330 H     1 <1>   0.1500 
 24 H        2.6820     0.0590     0.8850 H     1 <1>   0.0800 
 25 H        2.7130     0.0150    -0.8680 H     1 <1>   0.0800 
 26 H       -4.0400    -0.0070    -0.0530 H     1 <1>   0.1500 
 27 H       -2.6620    -4.0570     0.0290 H     1 <1>   0.1500 
 28 H        4.0660    -2.0610    -0.7900 H     1 <1>   0.0800 
 29 H        4.0350    -2.0190     0.9570 H     1 <1>   0.0800 
 30 H        5.5790    -0.2780     2.1420 H     1 <1>   0.1500 
 31 H        5.5450    -0.2230    -2.0190 H     1 <1>   0.1500 
 32 H       -5.9680    -0.9550    -0.9270 H     1 <1>   0.0800 
 33 H       -5.9820    -0.9240     0.8240 H     1 <1>   0.0800 
 34 H       -7.0560    -1.9840    -0.0420 H     1 <1>   0.0800 
 35 H       -5.0500    -2.8980     2.1270 H     1 <1>   0.0800 
 36 H       -4.5730    -4.3460     1.2850 H     1 <1>   0.0800 
 37 H       -6.2430    -3.8600     1.2900 H     1 <1>   0.0800 
 38 H       -5.0160    -2.9730    -2.1450 H     1 <1>   0.0800 
 39 H       -6.2230    -3.9050    -1.2940 H     1 <1>   0.0800 
 40 H       -4.5530    -4.3900    -1.2450 H     1 <1>   0.0800 
 41 H        7.5840     1.2770    -1.0860 H     1 <1>   0.1500 
@<TRIPOS>BOND
  1   1   2  1   
  2   1   3  1   
  3   2   4  ar  
  4   2   5  ar  
  5   3   6  1   
  6   3  20  1   
  7   3  21  1   
  8   4   7  ar  
  9   4  22  1   
 10   5   8  ar  
 11   5  23  1   
 12   6   9  1   
 13   6  24  1   
 14   6  25  1   
 15   7  10  ar  
 16   7  26  1   
 17   8  10  ar  
 18   8  27  1   
 19   9  11  1   
 20   9  28  1   
 21   9  29  1   
 22  10  12  1   
 23  11  13  1   
 24  11  14  1   
 25  12  15  1   
 26  12  16  1   
 27  12  17  1   
 28  13  18  2   
 29  13  30  1   
 30  14  19  2   
 31  14  31  1   
 32  15  32  1   
 33  15  33  1   
 34  15  34  1   
 35  16  35  1   
 36  16  36  1   
 37  16  37  1   
 38  17  38  1   
 39  17  39  1   
 40  17  40  1   
 41  18  19  1   
 42  19  41  1   
@<TRIPOS>SUBSTRUCTURE
  1 ****   1 GROUP 4 **** **** 0

# MOE 2024.06 (io_trps.svl 2023.06)
