@<TRIPOS>MOLECULE
NONAME
36 36 1 0 0 
SMALL
USER_CHARGES


@<TRIPOS>ATOM
  1 O        0.3350     0.9500    -1.5340 O.2   1 <1>  -0.5700 
  2 C        0.8390     1.3630    -0.5090 C.2   1 <1>   0.6340 
  3 O        0.0430     1.8080     0.4700 O.3   1 <1>  -0.4300 
  4 C        2.2700     1.3980    -0.2760 C.ar  1 <1>   0.0860 
  5 C       -1.3650     1.8060     0.3430 C.3   1 <1>   0.0400 
  6 C        2.9510     2.6220    -0.1860 C.ar  1 <1>  -0.1440 
  7 C        3.0020     0.2090    -0.1330 C.ar  1 <1>  -0.1440 
  8 C        4.3140     2.6550     0.0880 C.ar  1 <1>  -0.1430 
  9 C        2.1700     3.9260    -0.4000 C.3   1 <1>  -0.0960 
 10 C        4.3790     0.2430     0.0540 C.ar  1 <1>  -0.1430 
 11 C        2.2570    -1.1330    -0.1860 C.3   1 <1>  -0.0970 
 12 C        5.0530     1.4660     0.1880 C.ar  1 <1>   0.0860 
 13 C        5.0330     3.9970     0.2920 C.3   1 <1>  -0.0970 
 14 C        5.1870    -1.0620     0.1180 C.3   1 <1>  -0.0970 
 15 C        6.4850     1.5020     0.4210 C.2   1 <1>   0.6340 
 16 O        7.0070     1.1220     1.4490 O.2   1 <1>  -0.5700 
 17 O        7.2580     1.9760    -0.5620 O.3   1 <1>  -0.4300 
 18 C        8.6640     2.0420    -0.4350 C.3   1 <1>   0.0400 
 19 H       -1.7890     2.2060     1.2470 H     1 <1>   0.0800 
 20 H       -1.6990     0.7950     0.1910 H     1 <1>   0.0800 
 21 H       -1.6390     2.4180    -0.4990 H     1 <1>   0.0800 
 22 H        1.3270     3.7890    -1.0530 H     1 <1>   0.0800 
 23 H        2.7800     4.6780    -0.8640 H     1 <1>   0.0800 
 24 H        1.8130     4.2970     0.5450 H     1 <1>   0.0800 
 25 H        1.2400    -1.0460     0.1480 H     1 <1>   0.0800 
 26 H        2.7150    -1.8630     0.4560 H     1 <1>   0.0800 
 27 H        2.2520    -1.5050    -1.1950 H     1 <1>   0.0800 
 28 H        4.3870     4.7230     0.7500 H     1 <1>   0.0800 
 29 H        5.3710     4.3770    -0.6560 H     1 <1>   0.0800 
 30 H        5.8810     3.9050     0.9460 H     1 <1>   0.0800 
 31 H        4.7650    -1.8180    -0.5180 H     1 <1>   0.0800 
 32 H        5.2100    -1.4260     1.1300 H     1 <1>   0.0800 
 33 H        6.1990    -0.9290    -0.2170 H     1 <1>   0.0800 
 34 H        9.0690     2.4540    -1.3420 H     1 <1>   0.0800 
 35 H        9.0460     1.0490    -0.2750 H     1 <1>   0.0800 
 36 H        8.9090     2.6730     0.4010 H     1 <1>   0.0800 
@<TRIPOS>BOND
  1   1   2  2   
  2   2   3  1   
  3   2   4  1   
  4   3   5  1   
  5   4   6  ar  
  6   4   7  ar  
  7   5  19  1   
  8   5  20  1   
  9   5  21  1   
 10   6   8  ar  
 11   6   9  1   
 12   7  10  ar  
 13   7  11  1   
 14   8  12  ar  
 15   8  13  1   
 16   9  22  1   
 17   9  23  1   
 18   9  24  1   
 19  10  12  ar  
 20  10  14  1   
 21  11  25  1   
 22  11  26  1   
 23  11  27  1   
 24  12  15  1   
 25  13  28  1   
 26  13  29  1   
 27  13  30  1   
 28  14  31  1   
 29  14  32  1   
 30  14  33  1   
 31  15  16  2   
 32  15  17  1   
 33  17  18  1   
 34  18  34  1   
 35  18  35  1   
 36  18  36  1   
@<TRIPOS>SUBSTRUCTURE
  1 ****   8 GROUP 4 **** **** 0

# MOE 2024.06 (io_trps.svl 2023.06)
