@<TRIPOS>MOLECULE
NONAME
54 57 1 0 0 
SMALL
USER_CHARGES


@<TRIPOS>ATOM
  1 O       -2.6010     7.6790    -1.1390 O.2   1 <1>  -0.5740 
  2 C       -3.3120     6.8400    -0.6290 C.2   1 <1>   0.7900 
  3 O       -4.5430     7.1880    -0.2480 O.3   1 <1>  -0.4350 
  4 C       -2.8790     5.4730    -0.4060 C.2   1 <1>   0.2710 
  5 C       -5.0260     8.5070    -0.4060 C.3   1 <1>   0.1130 
  6 N       -3.6840     4.3650    -0.0470 N.pl3 1 <1>  -0.6410 
  7 C       -1.6090     4.9740    -0.4950 C.2   1 <1>   0.1750 
  8 C       -6.4570     8.5570     0.1180 C.3   1 <1>  -0.2460 
  9 C       -2.8900     3.3100     0.0590 C.cat 1 <1>   1.0690 
 10 C       -4.9680     3.9210     0.2710 C.ar  1 <1>   0.3820 
 11 N       -1.6320     3.6330    -0.2060 N.pl3 1 <1>  -0.7030 
 12 C       -0.2750     5.6270    -0.8290 C.3   1 <1>  -0.0790 
 13 N       -3.5360     2.1800     0.4040 N.pl3 1 <1>  -0.5790 
 14 C       -4.8660     2.5650     0.5670 C.ar  1 <1>   0.3050 
 15 C       -6.2040     4.5560     0.3300 C.ar  1 <1>  -0.1570 
 16 C       -2.9870     0.8170     0.6740 C.3   1 <1>   0.1610 
 17 C       -5.9850     1.8300     0.9510 C.ar  1 <1>  -0.1570 
 18 C       -7.3150     3.8240     0.7000 C.ar  1 <1>  -0.1570 
 19 C       -3.4590    -0.2130    -0.3790 C.3   1 <1>   0.3370 
 20 C       -7.2060     2.4700     1.0120 C.ar  1 <1>  -0.1570 
 21 N       -3.1650    -1.6320     0.0030 N.4   1 <1>  -0.9610 
 22 C       -1.7040    -1.9530     0.0570 C.3   1 <1>   0.3370 
 23 C       -3.8620    -2.5690    -0.9320 C.3   1 <1>   0.3370 
 24 C       -1.5110    -3.3700     0.6000 C.3   1 <1>  -0.1670 
 25 C       -3.7270    -4.0020    -0.4170 C.3   1 <1>  -0.1670 
 26 C       -2.2580    -4.4060    -0.2470 C.3   1 <1>  -0.1670 
 27 H       -4.9910     8.7660    -1.4510 H     1 <1>   0.0730 
 28 H       -4.3910     9.1750     0.1530 H     1 <1>   0.0730 
 29 H       -7.0920     7.9100    -0.4600 H     1 <1>   0.0730 
 30 H       -6.8340     9.5600     0.0340 H     1 <1>   0.0730 
 31 H       -6.4890     8.2700     1.1540 H     1 <1>   0.0730 
 32 H       -0.8220     3.0140    -0.1760 H     1 <1>   0.4450 
 33 H       -0.3640     6.6910    -0.9450 H     1 <1>   0.0730 
 34 H        0.1150     5.2230    -1.7460 H     1 <1>   0.0730 
 35 H        0.4340     5.4420    -0.0420 H     1 <1>   0.0730 
 36 H       -6.3080     5.5960     0.0930 H     1 <1>   0.1430 
 37 H       -3.3200     0.5070     1.6510 H     1 <1>   0.0730 
 38 H       -1.9120     0.8600     0.6820 H     1 <1>   0.0730 
 39 H       -5.9110     0.7880     1.2010 H     1 <1>   0.1430 
 40 H       -8.2820     4.3010     0.7530 H     1 <1>   0.1430 
 41 H       -2.9930     0.0030    -1.3260 H     1 <1>   0.0730 
 42 H       -4.5250    -0.1090    -0.5010 H     1 <1>   0.0730 
 43 H       -8.0920     1.9280     1.3060 H     1 <1>   0.1430 
 44 H       -3.5490    -1.8440     0.9350 H     1 <1>   0.4450 
 45 H       -1.1890    -1.2590     0.7000 H     1 <1>   0.0730 
 46 H       -1.2780    -1.8880    -0.9320 H     1 <1>   0.0730 
 47 H       -3.4270    -2.4980    -1.9160 H     1 <1>   0.0730 
 48 H       -4.9080    -2.3150    -1.0020 H     1 <1>   0.0730 
 49 H       -1.8500    -3.4150     1.6200 H     1 <1>   0.0730 
 50 H       -0.4610    -3.6070     0.6000 H     1 <1>   0.0730 
 51 H       -4.1990    -4.6730    -1.1150 H     1 <1>   0.0730 
 52 H       -4.2470    -4.0990     0.5210 H     1 <1>   0.0730 
 53 H       -2.1960    -5.3760     0.2200 H     1 <1>   0.0730 
 54 H       -1.7930    -4.4810    -1.2160 H     1 <1>   0.0730 
@<TRIPOS>BOND
  1   1   2  2   
  2   2   3  1   
  3   2   4  1   
  4   3   5  1   
  5   4   6  1   
  6   4   7  2   
  7   5   8  1   
  8   5  27  1   
  9   5  28  1   
 10   6   9  ar  
 11   6  10  1   
 12   7  11  1   
 13   7  12  1   
 14   8  29  1   
 15   8  30  1   
 16   8  31  1   
 17   9  11  ar  
 18   9  13  ar  
 19  10  14  ar  
 20  10  15  ar  
 21  11  32  1   
 22  12  33  1   
 23  12  34  1   
 24  12  35  1   
 25  13  14  1   
 26  13  16  1   
 27  14  17  ar  
 28  15  18  ar  
 29  15  36  1   
 30  16  19  1   
 31  16  37  1   
 32  16  38  1   
 33  17  20  ar  
 34  17  39  1   
 35  18  20  ar  
 36  18  40  1   
 37  19  21  1   
 38  19  41  1   
 39  19  42  1   
 40  20  43  1   
 41  21  22  1   
 42  21  23  1   
 43  21  44  1   
 44  22  24  1   
 45  22  45  1   
 46  22  46  1   
 47  23  25  1   
 48  23  47  1   
 49  23  48  1   
 50  24  26  1   
 51  24  49  1   
 52  24  50  1   
 53  25  26  1   
 54  25  51  1   
 55  25  52  1   
 56  26  53  1   
 57  26  54  1   
@<TRIPOS>SUBSTRUCTURE
  1 ****  13 GROUP 4 **** **** 0

# MOE 2024.06 (io_trps.svl 2023.06)
