@<TRIPOS>MOLECULE
NONAME
44 47 1 0 0 
SMALL
USER_CHARGES


@<TRIPOS>ATOM
  1 F       -0.5480     1.8780     0.6070 F     1 <1>  -0.3400 
  2 C       -1.6110     1.1900     1.0040 C.3   1 <1>   0.7380 
  3 F       -1.4800     0.0090     0.4170 F     1 <1>  -0.3400 
  4 C       -2.8610     1.8600     0.4840 C.2   1 <1>  -0.1690 
  5 N       -3.9750     1.7100     1.2670 N.pl3 1 <1>   0.6010 
  6 C       -2.9880     2.5810    -0.6650 C.2   1 <1>  -0.1360 
  7 N       -4.0750     1.1090     2.4660 N.2   1 <1>  -0.7070 
  8 C       -5.1650     2.2820     0.8840 C.2   1 <1>  -0.0260 
  9 C       -4.2460     3.1380    -1.0180 C.2   1 <1>   0.4360 
 10 C       -5.3100     1.3040     2.8220 C.2   1 <1>   0.1390 
 11 N       -5.3080     2.9970    -0.2860 N.2   1 <1>  -0.5760 
 12 C       -6.0620     2.0160     1.8910 C.2   1 <1>  -0.0860 
 13 C       -4.3440     3.9200    -2.3200 C.3   1 <1>  -0.1000 
 14 C       -7.4360     2.3810     2.0850 C.2   1 <1>   0.7160 
 15 C       -3.6190     5.2250    -2.4680 C.3   1 <1>  -0.2000 
 16 C       -5.1140     5.2080    -2.4060 C.3   1 <1>  -0.2000 
 17 O       -7.8150     2.6500     3.2090 O.2   1 <1>  -0.5700 
 18 N       -8.3690     2.4500     1.0660 N.am  1 <1>  -0.6600 
 19 C       -9.6070     3.2750     1.2020 C.3   1 <1>   0.1400 
 20 C       -8.2000     1.8290    -0.2800 C.3   1 <1>   0.1400 
 21 C       -9.6550     4.3480     0.0970 C.3   1 <1>   0.3430 
 22 C       -8.2460     2.9130    -1.3760 C.3   1 <1>   0.3430 
 23 N       -9.4920     3.7600    -1.2840 N.4   1 <1>  -0.9590 
 24 C       -9.4730     4.8360    -2.3200 C.3   1 <1>   0.2630 
 25 H       -1.5550     1.0610     2.0720 H     1 <1>   0.0800 
 26 H       -2.1570     2.7440    -1.3300 H     1 <1>   0.1500 
 27 H       -5.7130     0.9490     3.7590 H     1 <1>   0.1500 
 28 H       -4.3650     3.2710    -3.1770 H     1 <1>   0.1000 
 29 H       -3.1410     5.4490    -3.4070 H     1 <1>   0.1000 
 30 H       -3.0800     5.6300    -1.6280 H     1 <1>   0.1000 
 31 H       -5.5830     5.6050    -1.5220 H     1 <1>   0.1000 
 32 H       -5.6560     5.4400    -3.3060 H     1 <1>   0.1000 
 33 H       -9.6370     3.7640     2.1610 H     1 <1>   0.0800 
 34 H      -10.4710     2.6370     1.1380 H     1 <1>   0.0800 
 35 H       -8.9930     1.1200    -0.4420 H     1 <1>   0.0800 
 36 H       -7.2750     1.2850    -0.3400 H     1 <1>   0.0800 
 37 H       -8.8620     5.0540     0.2830 H     1 <1>   0.0800 
 38 H      -10.5900     4.8790     0.1630 H     1 <1>   0.0800 
 39 H       -8.1930     2.4390    -2.3420 H     1 <1>   0.0800 
 40 H       -7.3780     3.5420    -1.2710 H     1 <1>   0.0800 
 41 H      -10.3000     3.1450    -1.4570 H     1 <1>   0.4500 
 42 H       -8.6340     5.4940    -2.1600 H     1 <1>   0.0800 
 43 H      -10.3800     5.4170    -2.2740 H     1 <1>   0.0800 
 44 H       -9.3910     4.4070    -3.3050 H     1 <1>   0.0800 
@<TRIPOS>BOND
  1   1   2  1   
  2   2   3  1   
  3   2   4  1   
  4   2  25  1   
  5   4   5  1   
  6   4   6  2   
  7   5   7  1   
  8   5   8  1   
  9   6   9  1   
 10   6  26  1   
 11   7  10  2   
 12   8  11  1   
 13   8  12  2   
 14   9  11  2   
 15   9  13  1   
 16  10  12  1   
 17  10  27  1   
 18  12  14  1   
 19  13  15  1   
 20  13  16  1   
 21  13  28  1   
 22  14  17  2   
 23  14  18  am  
 24  15  16  1   
 25  15  29  1   
 26  15  30  1   
 27  16  31  1   
 28  16  32  1   
 29  18  19  1   
 30  18  20  1   
 31  19  21  1   
 32  19  33  1   
 33  19  34  1   
 34  20  22  1   
 35  20  35  1   
 36  20  36  1   
 37  21  23  1   
 38  21  37  1   
 39  21  38  1   
 40  22  23  1   
 41  22  39  1   
 42  22  40  1   
 43  23  24  1   
 44  23  41  1   
 45  24  42  1   
 46  24  43  1   
 47  24  44  1   
@<TRIPOS>SUBSTRUCTURE
  1 ****  11 GROUP 4 **** **** 0

# MOE 2024.06 (io_trps.svl 2023.06)
