@<TRIPOS>MOLECULE
NONAME
49 51 1 0 0 
SMALL
USER_CHARGES


@<TRIPOS>ATOM
  1 P        0.8100    -0.2290     0.8540 P.3   1 <1>   0.9780 
  2 O        0.7890    -0.2390     2.3120 O.2   1 <1>  -0.7000 
  3 C       -0.6090    -1.0170     0.1080 C.ar  1 <1>  -0.1390 
  4 C        0.9650     1.4130     0.1560 C.ar  1 <1>  -0.1390 
  5 C        2.1910    -1.1620     0.2570 C.3   1 <1>  -0.1600 
  6 C       -1.1000    -0.6790    -1.1510 C.ar  1 <1>  -0.1500 
  7 C       -1.2610    -2.0470     0.7770 C.ar  1 <1>  -0.1500 
  8 C        1.4700     1.6670    -1.1180 C.ar  1 <1>  -0.1500 
  9 C        0.5540     2.5170     0.8940 C.ar  1 <1>  -0.1500 
 10 C        3.5110    -0.5970     0.7800 C.3   1 <1>   0.1100 
 11 C       -2.1790    -1.3370    -1.7150 C.ar  1 <1>  -0.1500 
 12 C       -2.3410    -2.7130     0.2250 C.ar  1 <1>  -0.1500 
 13 C        1.5640     2.9520    -1.6250 C.ar  1 <1>  -0.1500 
 14 C        0.6430     3.8070     0.4010 C.ar  1 <1>  -0.1500 
 15 N        4.6540    -1.3570     0.2430 N.3   1 <1>  -0.8100 
 16 C       -2.8020    -2.3590    -1.0270 C.ar  1 <1>  -0.1500 
 17 C        1.1500     4.0270    -0.8640 C.ar  1 <1>  -0.1500 
 18 C        5.8970    -0.5500     0.3350 C.3   1 <1>   0.1100 
 19 C        4.8420    -2.6540     0.9480 C.3   1 <1>   0.1100 
 20 C        7.1360    -1.2950    -0.2220 C.3   1 <1>   0.3430 
 21 C        6.1050    -3.4190     0.4770 C.3   1 <1>   0.3430 
 22 N        6.7900    -2.6940    -0.6420 N.4   1 <1>  -0.9590 
 23 C        7.9420    -3.4430    -1.2210 C.3   1 <1>   0.2630 
 24 H        2.2200    -1.1810    -0.8140 H     1 <1>   0.0800 
 25 H        2.0890    -2.1750     0.5940 H     1 <1>   0.0800 
 26 H       -0.6450     0.1160    -1.7150 H     1 <1>   0.1500 
 27 H       -0.9200    -2.3340     1.7580 H     1 <1>   0.1500 
 28 H        1.7970     0.8570    -1.7440 H     1 <1>   0.1500 
 29 H        0.1540     2.3660     1.8840 H     1 <1>   0.1500 
 30 H        3.5220    -0.6100     1.8600 H     1 <1>   0.0800 
 31 H        3.5870     0.4310     0.4650 H     1 <1>   0.0800 
 32 H       -2.5360    -1.0510    -2.6890 H     1 <1>   0.1500 
 33 H       -2.8230    -3.5050     0.7730 H     1 <1>   0.1500 
 34 H        1.9580     3.1170    -2.6130 H     1 <1>   0.1500 
 35 H        0.3160     4.6360     1.0040 H     1 <1>   0.1500 
 36 H       -3.6420    -2.8740    -1.4620 H     1 <1>   0.1500 
 37 H        1.2210     5.0290    -1.2520 H     1 <1>   0.1500 
 38 H        6.0820    -0.2810     1.3610 H     1 <1>   0.0800 
 39 H        5.7710     0.3660    -0.2190 H     1 <1>   0.0800 
 40 H        3.9870    -3.2850     0.7800 H     1 <1>   0.0800 
 41 H        4.9120    -2.4880     2.0110 H     1 <1>   0.0800 
 42 H        7.9040    -1.3140     0.5320 H     1 <1>   0.0800 
 43 H        7.5200    -0.7470    -1.0670 H     1 <1>   0.0800 
 44 H        5.8140    -4.4050     0.1550 H     1 <1>   0.0800 
 45 H        6.7800    -3.5320     1.3090 H     1 <1>   0.0800 
 46 H        6.0420    -2.5620    -1.3430 H     1 <1>   0.4500 
 47 H        8.7140    -3.5740    -0.4810 H     1 <1>   0.0800 
 48 H        8.3540    -2.9040    -2.0590 H     1 <1>   0.0800 
 49 H        7.6220    -4.4140    -1.5640 H     1 <1>   0.0800 
@<TRIPOS>BOND
  1   1   2  2   
  2   1   3  1   
  3   1   4  1   
  4   1   5  1   
  5   3   6  ar  
  6   3   7  ar  
  7   4   8  ar  
  8   4   9  ar  
  9   5  10  1   
 10   5  24  1   
 11   5  25  1   
 12   6  11  ar  
 13   6  26  1   
 14   7  12  ar  
 15   7  27  1   
 16   8  13  ar  
 17   8  28  1   
 18   9  14  ar  
 19   9  29  1   
 20  10  15  1   
 21  10  30  1   
 22  10  31  1   
 23  11  16  ar  
 24  11  32  1   
 25  12  16  ar  
 26  12  33  1   
 27  13  17  ar  
 28  13  34  1   
 29  14  17  ar  
 30  14  35  1   
 31  15  18  1   
 32  15  19  1   
 33  16  36  1   
 34  17  37  1   
 35  18  20  1   
 36  18  38  1   
 37  18  39  1   
 38  19  21  1   
 39  19  40  1   
 40  19  41  1   
 41  20  22  1   
 42  20  42  1   
 43  20  43  1   
 44  21  22  1   
 45  21  44  1   
 46  21  45  1   
 47  22  23  1   
 48  22  46  1   
 49  23  47  1   
 50  23  48  1   
 51  23  49  1   
@<TRIPOS>SUBSTRUCTURE
  1 ****   5 GROUP 4 **** **** 0

# MOE 2024.06 (io_trps.svl 2023.06)
