@<TRIPOS>MOLECULE
NONAME
50 51 1 0 0 
SMALL
USER_CHARGES


@<TRIPOS>ATOM
  1 O      -13.8260     2.4200    -0.7940 O.3   1 <1>  -0.3630 
  2 C      -12.7670     3.1310    -0.3380 C.ar  1 <1>   0.0820 
  3 C      -15.0350     2.5640    -0.0790 C.3   1 <1>   0.0400 
  4 C      -12.1580     2.8840     0.8970 C.ar  1 <1>   0.0820 
  5 C      -12.2870     4.1420    -1.1520 C.ar  1 <1>  -0.1500 
  6 O      -12.5350     1.8800     1.7290 O.3   1 <1>  -0.3630 
  7 C      -11.1140     3.6870     1.3190 C.ar  1 <1>  -0.1500 
  8 C      -11.2240     4.9370    -0.7330 C.ar  1 <1>   0.0820 
  9 C      -12.4020     0.5620     1.2390 C.3   1 <1>   0.0400 
 10 C      -10.6440     4.7120     0.5120 C.ar  1 <1>  -0.1440 
 11 O      -10.7040     5.9410    -1.4960 O.3   1 <1>  -0.3630 
 12 C       -9.5000     5.5800     0.9870 C.3   1 <1>   0.4860 
 13 C      -11.3720     6.3710    -2.6680 C.3   1 <1>   0.0400 
 14 N       -8.3840     5.3600     0.0510 N.4   1 <1>  -0.9060 
 15 C       -7.1700     6.2120     0.1780 C.3   1 <1>   0.4230 
 16 C       -6.1370     5.7790    -0.9100 C.3   1 <1>   0.3430 
 17 C       -6.6330     6.0830     1.6110 C.3   1 <1>  -0.2400 
 18 O       -6.0730     4.3880    -0.9600 O.3   1 <1>  -0.6800 
 19 C       -4.7310     6.3400    -0.7170 C.ar  1 <1>  -0.1440 
 20 C       -4.3970     7.5440    -1.3230 C.ar  1 <1>  -0.1500 
 21 C       -3.7720     5.6860     0.0490 C.ar  1 <1>  -0.1500 
 22 C       -3.1330     8.0860    -1.1640 C.ar  1 <1>  -0.1500 
 23 C       -2.5080     6.2270     0.2070 C.ar  1 <1>  -0.1500 
 24 C       -2.1880     7.4280    -0.3980 C.ar  1 <1>  -0.1500 
 25 H      -15.7970     2.0080    -0.5930 H     1 <1>   0.0800 
 26 H      -15.2980     3.6060    -0.0450 H     1 <1>   0.0800 
 27 H      -14.9110     2.1780     0.9170 H     1 <1>   0.0800 
 28 H      -12.7670     4.2810    -2.1010 H     1 <1>   0.1500 
 29 H      -10.6820     3.4880     2.2840 H     1 <1>   0.1500 
 30 H      -12.5840    -0.1180     2.0520 H     1 <1>   0.0800 
 31 H      -11.4030     0.4270     0.8640 H     1 <1>   0.0800 
 32 H      -13.1210     0.3940     0.4580 H     1 <1>   0.0800 
 33 H       -9.2160     5.3080     1.9900 H     1 <1>   0.0800 
 34 H       -9.8050     6.6140     0.9710 H     1 <1>   0.0800 
 35 H      -10.8490     7.2230    -3.0640 H     1 <1>   0.0800 
 36 H      -12.3800     6.6500    -2.4160 H     1 <1>   0.0800 
 37 H      -11.3670     5.5740    -3.3910 H     1 <1>   0.0800 
 38 H       -8.8000     5.4650    -0.8860 H     1 <1>   0.4500 
 39 H       -8.0690     4.3800     0.0840 H     1 <1>   0.4500 
 40 H       -7.4280     7.2440     0.0050 H     1 <1>   0.0800 
 41 H       -6.4980     6.1030    -1.8710 H     1 <1>   0.0800 
 42 H       -6.3560     5.0650     1.8260 H     1 <1>   0.0800 
 43 H       -7.3460     6.4260     2.3370 H     1 <1>   0.0800 
 44 H       -5.7580     6.6970     1.7300 H     1 <1>   0.0800 
 45 H       -5.2820     4.1300    -1.4810 H     1 <1>   0.4000 
 46 H       -5.1090     8.0770    -1.9290 H     1 <1>   0.1500 
 47 H       -3.9940     4.7500     0.5350 H     1 <1>   0.1500 
 48 H       -2.8810     9.0190    -1.6370 H     1 <1>   0.1500 
 49 H       -1.7710     5.7150     0.8020 H     1 <1>   0.1500 
 50 H       -1.2050     7.8490    -0.2760 H     1 <1>   0.1500 
@<TRIPOS>BOND
  1   1   2  1   
  2   1   3  1   
  3   2   4  ar  
  4   2   5  ar  
  5   3  25  1   
  6   3  26  1   
  7   3  27  1   
  8   4   6  1   
  9   4   7  ar  
 10   5   8  ar  
 11   5  28  1   
 12   6   9  1   
 13   7  10  ar  
 14   7  29  1   
 15   8  10  ar  
 16   8  11  1   
 17   9  30  1   
 18   9  31  1   
 19   9  32  1   
 20  10  12  1   
 21  11  13  1   
 22  12  14  1   
 23  12  33  1   
 24  12  34  1   
 25  13  35  1   
 26  13  36  1   
 27  13  37  1   
 28  14  15  1   
 29  14  38  1   
 30  14  39  1   
 31  15  16  1   
 32  15  17  1   
 33  15  40  1   
 34  16  18  1   
 35  16  19  1   
 36  16  41  1   
 37  17  42  1   
 38  17  43  1   
 39  17  44  1   
 40  18  45  1   
 41  19  20  ar  
 42  19  21  ar  
 43  20  22  ar  
 44  20  46  1   
 45  21  23  ar  
 46  21  47  1   
 47  22  24  ar  
 48  22  48  1   
 49  23  24  ar  
 50  23  49  1   
 51  24  50  1   
@<TRIPOS>SUBSTRUCTURE
  1 ****  14 GROUP 4 **** **** 0

# MOE 2024.06 (io_trps.svl 2023.06)
