@<TRIPOS>MOLECULE
NONAME
30 32 1 0 0 
SMALL
USER_CHARGES


@<TRIPOS>ATOM
  1 O        7.1170     3.2270    -0.4670 O.2   1 <1>  -0.5700 
  2 C        7.1150     2.0080    -0.2700 C.2   1 <1>   0.4690 
  3 C        8.3640     1.3010    -0.1270 C.ar  1 <1>   0.0860 
  4 C        5.9040     1.2830    -0.1840 C.2   1 <1>  -0.1240 
  5 C        8.3270    -0.0840     0.0850 C.ar  1 <1>   0.1000 
  6 C        9.6140     1.9270    -0.1870 C.ar  1 <1>  -0.1500 
  7 C        5.9080    -0.0770    -0.0020 C.2   1 <1>   0.2000 
  8 C        4.5760     2.0240    -0.3000 C.3   1 <1>  -0.0220 
  9 N        7.0970    -0.7220     0.1440 N.pl3 1 <1>  -0.6000 
 10 C        9.5120    -0.8010     0.2340 C.ar  1 <1>  -0.1500 
 11 C       10.7820     1.2090    -0.0390 C.ar  1 <1>  -0.1500 
 12 N        4.7690    -0.8480     0.0490 N.pl3 1 <1>  -0.8380 
 13 C        3.4630     1.2380     0.4020 C.3   1 <1>  -0.1600 
 14 C       10.7310    -0.1620     0.1730 C.ar  1 <1>  -0.1500 
 15 C        3.4260    -0.2160    -0.0730 C.3   1 <1>   0.2090 
 16 C        4.7680    -2.3360    -0.0280 C.3   1 <1>   0.1290 
 17 H        9.6530     2.9900    -0.3510 H     1 <1>   0.1500 
 18 H        4.3410     2.1510    -1.3420 H     1 <1>   0.0800 
 19 H        4.6520     2.9990     0.1490 H     1 <1>   0.0800 
 20 H        7.0510    -1.7160     0.3530 H     1 <1>   0.4000 
 21 H        9.4690    -1.8620     0.3980 H     1 <1>   0.1500 
 22 H       11.7350     1.7080    -0.0880 H     1 <1>   0.1500 
 23 H        2.5130     1.7040     0.2170 H     1 <1>   0.0800 
 24 H        3.6370     1.2460     1.4630 H     1 <1>   0.0800 
 25 H       11.6450    -0.7190     0.2880 H     1 <1>   0.1500 
 26 H        2.7140    -0.7640     0.5210 H     1 <1>   0.0800 
 27 H        3.1160    -0.2550    -1.1040 H     1 <1>   0.0800 
 28 H        4.9330    -2.7470     0.9530 H     1 <1>   0.0800 
 29 H        5.5420    -2.6740    -0.6940 H     1 <1>   0.0800 
 30 H        3.8250    -2.6930    -0.4020 H     1 <1>   0.0800 
@<TRIPOS>BOND
  1   1   2  2   
  2   2   3  1   
  3   2   4  1   
  4   3   5  ar  
  5   3   6  ar  
  6   4   7  2   
  7   4   8  1   
  8   5   9  1   
  9   5  10  ar  
 10   6  11  ar  
 11   6  17  1   
 12   7   9  1   
 13   7  12  1   
 14   8  13  1   
 15   8  18  1   
 16   8  19  1   
 17   9  20  1   
 18  10  14  ar  
 19  10  21  1   
 20  11  14  ar  
 21  11  22  1   
 22  12  15  1   
 23  12  16  1   
 24  13  15  1   
 25  13  23  1   
 26  13  24  1   
 27  14  25  1   
 28  15  26  1   
 29  15  27  1   
 30  16  28  1   
 31  16  29  1   
 32  16  30  1   
@<TRIPOS>SUBSTRUCTURE
  1 ****   7 GROUP 4 **** **** 0

# MOE 2024.06 (io_trps.svl 2023.06)
