@<TRIPOS>MOLECULE
NONAME
41 42 1 0 0 
SMALL
USER_CHARGES


@<TRIPOS>ATOM
  1 BR       0.5210     0.6190     0.4450 Br    1 <1>  -0.1110 
  2 C       -0.2780    -1.1180     0.6770 C.ar  1 <1>   0.1110 
  3 C        0.3010    -2.2540     0.1070 C.ar  1 <1>   0.0860 
  4 C       -1.4460    -1.1550     1.4170 C.ar  1 <1>  -0.1500 
  5 C        1.5330    -2.2510    -0.6530 C.2   1 <1>   0.5440 
  6 C       -0.3850    -3.4540     0.3050 C.ar  1 <1>  -0.1500 
  7 C       -2.0890    -2.3650     1.6020 C.ar  1 <1>  -0.1500 
  8 O        1.5810    -2.8450    -1.7130 O.2   1 <1>  -0.5700 
  9 N        2.6510    -1.6270    -0.1650 N.am  1 <1>  -0.4930 
 10 C       -1.5560    -3.5140     1.0410 C.ar  1 <1>  -0.1500 
 11 C        3.9700    -1.5870    -0.6850 C.2   1 <1>   0.0630 
 12 C        4.7470    -2.6130    -1.2340 C.2   1 <1>   0.1080 
 13 C        4.7710    -0.4980    -0.7150 C.2   1 <1>  -0.3320 
 14 N        5.9280    -2.2030    -1.5790 N.2   1 <1>  -0.7070 
 15 C        4.3330    -4.0560    -1.4190 C.3   1 <1>  -0.0590 
 16 N        5.9500    -0.8980    -1.2590 N.pl3 1 <1>   0.3140 
 17 C        4.4720     0.9250    -0.2600 C.3   1 <1>  -0.0600 
 18 C        7.1280    -0.0810    -1.5700 C.3   1 <1>   0.1570 
 19 C        7.7740     0.3910    -0.2960 C.2   1 <1>   0.6590 
 20 O        7.6810     1.5390     0.0610 O.2   1 <1>  -0.5700 
 21 O        8.4640    -0.5120     0.3910 O.3   1 <1>  -0.4300 
 22 C        9.1320    -0.2180     1.5970 C.3   1 <1>   0.1200 
 23 C       10.5240     0.3200     1.2720 C.3   1 <1>  -0.2400 
 24 H       -1.8490    -0.2510     1.8380 H     1 <1>   0.1500 
 25 H        0.0130    -4.3550    -0.1320 H     1 <1>   0.1500 
 26 H       -3.0000    -2.4150     2.1750 H     1 <1>   0.1500 
 27 H        2.5060    -1.0080     0.6300 H     1 <1>   0.3700 
 28 H       -2.0580    -4.4570     1.1760 H     1 <1>   0.1500 
 29 H        3.6620    -4.3540    -0.6360 H     1 <1>   0.0800 
 30 H        5.2000    -4.6900    -1.3980 H     1 <1>   0.0800 
 31 H        3.8410    -4.1660    -2.3670 H     1 <1>   0.0800 
 32 H        3.4330     1.0360    -0.0140 H     1 <1>   0.0800 
 33 H        4.7050     1.6260    -1.0420 H     1 <1>   0.0800 
 34 H        5.0530     1.1690     0.6110 H     1 <1>   0.0800 
 35 H        6.8210     0.7600    -2.1600 H     1 <1>   0.0800 
 36 H        7.8260    -0.6730    -2.1290 H     1 <1>   0.0800 
 37 H        9.2040    -1.1320     2.1600 H     1 <1>   0.0800 
 38 H        8.5530     0.4970     2.1590 H     1 <1>   0.0800 
 39 H       11.0760    -0.4020     0.6970 H     1 <1>   0.0800 
 40 H       11.0590     0.5110     2.1840 H     1 <1>   0.0800 
 41 H       10.4500     1.2420     0.7230 H     1 <1>   0.0800 
@<TRIPOS>BOND
  1   1   2  1   
  2   2   3  ar  
  3   2   4  ar  
  4   3   5  1   
  5   3   6  ar  
  6   4   7  ar  
  7   4  24  1   
  8   5   8  2   
  9   5   9  am  
 10   6  10  ar  
 11   6  25  1   
 12   7  10  ar  
 13   7  26  1   
 14   9  11  1   
 15   9  27  1   
 16  10  28  1   
 17  11  12  1   
 18  11  13  2   
 19  12  14  2   
 20  12  15  1   
 21  13  16  1   
 22  13  17  1   
 23  14  16  1   
 24  15  29  1   
 25  15  30  1   
 26  15  31  1   
 27  16  18  1   
 28  17  32  1   
 29  17  33  1   
 30  17  34  1   
 31  18  19  1   
 32  18  35  1   
 33  18  36  1   
 34  19  20  2   
 35  19  21  1   
 36  21  22  1   
 37  22  23  1   
 38  22  37  1   
 39  22  38  1   
 40  23  39  1   
 41  23  40  1   
 42  23  41  1   
@<TRIPOS>SUBSTRUCTURE
  1 ****  11 GROUP 4 **** **** 0

# MOE 2024.06 (io_trps.svl 2023.06)
