@<TRIPOS>MOLECULE
NONAME
50 51 1 0 0 
SMALL
USER_CHARGES


@<TRIPOS>ATOM
  1 S        1.8660     2.9530    -1.3520 S.o2  1 <1>   1.3330 
  2 O        2.0120     1.5210    -1.4000 O.2   1 <1>  -0.6500 
  3 O        3.0320     3.8050    -1.3360 O.2   1 <1>  -0.6500 
  4 N        0.9740     3.3660     0.0690 N.am  1 <1>  -0.6930 
  5 C        0.7820     3.4980    -2.6530 C.3   1 <1>  -0.1350 
  6 C       -0.2180     2.7210     0.3840 C.ar  1 <1>   0.1990 
  7 C        1.7370     3.9960     1.1910 C.3   1 <1>   0.2570 
  8 C       -1.4580     3.3630     0.2720 C.ar  1 <1>  -0.1440 
  9 C       -0.1690     1.4040     0.8220 C.ar  1 <1>  -0.1500 
 10 C        2.7410     3.0720     1.8890 C.2   1 <1>   0.5690 
 11 C       -2.6230     2.6660     0.5840 C.ar  1 <1>  -0.1440 
 12 C       -1.5570     4.8190    -0.1890 C.3   1 <1>  -0.0970 
 13 C       -1.3240     0.7190     1.1360 C.ar  1 <1>  -0.1500 
 14 O        2.4690     2.6830     3.0000 O.2   1 <1>  -0.5700 
 15 N        3.9050     2.7510     1.2430 N.am  1 <1>  -0.5470 
 16 C       -2.5470     1.3500     1.0150 C.ar  1 <1>  -0.1500 
 17 C       -4.0020     3.3050     0.4710 C.3   1 <1>  -0.0970 
 18 C        4.9960     1.9330     1.5960 C.ar  1 <1>   0.1170 
 19 C        5.8830     1.5400     0.5870 C.ar  1 <1>   0.0830 
 20 C        5.2370     1.5010     2.8960 C.ar  1 <1>  -0.1500 
 21 O        5.6280     1.9810    -0.6780 O.3   1 <1>  -0.3630 
 22 C        6.9750     0.7330     0.8860 C.ar  1 <1>  -0.1500 
 23 C        6.3230     0.6950     3.1900 C.ar  1 <1>  -0.1500 
 24 C        6.1070     1.2710    -1.7950 C.3   1 <1>   0.1200 
 25 C        7.1920     0.3100     2.1860 C.ar  1 <1>  -0.1500 
 26 C        5.4070     1.8180    -3.0350 C.3   1 <1>  -0.2400 
 27 H        1.2340     3.3150    -3.6070 H     1 <1>   0.0800 
 28 H        0.5860     4.5470    -2.5570 H     1 <1>   0.0800 
 29 H       -0.1470     2.9640    -2.6040 H     1 <1>   0.0800 
 30 H        1.0360     4.3370     1.9320 H     1 <1>   0.0800 
 31 H        2.2610     4.8600     0.8250 H     1 <1>   0.0800 
 32 H        0.7840     0.9140     0.9160 H     1 <1>   0.1500 
 33 H       -0.6000     5.3030    -0.2400 H     1 <1>   0.0800 
 34 H       -2.1610     5.3830     0.4980 H     1 <1>   0.0800 
 35 H       -2.0080     4.8620    -1.1630 H     1 <1>   0.0800 
 36 H       -1.2700    -0.3010     1.4740 H     1 <1>   0.1500 
 37 H        3.9730     3.0660     0.2640 H     1 <1>   0.3700 
 38 H       -3.4410     0.8040     1.2620 H     1 <1>   0.1500 
 39 H       -4.1060     4.0880     1.2000 H     1 <1>   0.0800 
 40 H       -4.7790     2.5810     0.6440 H     1 <1>   0.0800 
 41 H       -4.1450     3.7150    -0.5120 H     1 <1>   0.0800 
 42 H        4.5790     1.7910     3.6930 H     1 <1>   0.1500 
 43 H        7.6680     0.4310     0.1240 H     1 <1>   0.1500 
 44 H        6.4890     0.3690     4.2020 H     1 <1>   0.1500 
 45 H        5.8790     0.2270    -1.6610 H     1 <1>   0.0800 
 46 H        7.1710     1.4190    -1.8620 H     1 <1>   0.0800 
 47 H        8.0370    -0.3160     2.4160 H     1 <1>   0.1500 
 48 H        4.3500     1.6390    -2.9650 H     1 <1>   0.0800 
 49 H        5.7810     1.3240    -3.9130 H     1 <1>   0.0800 
 50 H        5.5880     2.8740    -3.1260 H     1 <1>   0.0800 
@<TRIPOS>BOND
  1   1   2  2   
  2   1   3  2   
  3   1   4  am  
  4   1   5  1   
  5   4   6  1   
  6   4   7  1   
  7   5  27  1   
  8   5  28  1   
  9   5  29  1   
 10   6   8  ar  
 11   6   9  ar  
 12   7  10  1   
 13   7  30  1   
 14   7  31  1   
 15   8  11  ar  
 16   8  12  1   
 17   9  13  ar  
 18   9  32  1   
 19  10  14  2   
 20  10  15  am  
 21  11  16  ar  
 22  11  17  1   
 23  12  33  1   
 24  12  34  1   
 25  12  35  1   
 26  13  16  ar  
 27  13  36  1   
 28  15  18  1   
 29  15  37  1   
 30  16  38  1   
 31  17  39  1   
 32  17  40  1   
 33  17  41  1   
 34  18  19  ar  
 35  18  20  ar  
 36  19  21  1   
 37  19  22  ar  
 38  20  23  ar  
 39  20  42  1   
 40  21  24  1   
 41  22  25  ar  
 42  22  43  1   
 43  23  25  ar  
 44  23  44  1   
 45  24  26  1   
 46  24  45  1   
 47  24  46  1   
 48  25  47  1   
 49  26  48  1   
 50  26  49  1   
 51  26  50  1   
@<TRIPOS>SUBSTRUCTURE
  1 ****  10 GROUP 4 **** **** 0

# MOE 2024.06 (io_trps.svl 2023.06)
