@<TRIPOS>MOLECULE
NONAME
36 36 1 0 0 
SMALL
USER_CHARGES


@<TRIPOS>ATOM
  1 N        0.2090     1.1720     0.7070 N.3   1 <1>  -0.8100 
  2 C       -0.7580     1.5740     1.7420 C.3   1 <1>   0.1100 
  3 C       -0.3610     0.1570    -0.2050 C.3   1 <1>   0.1100 
  4 C        1.4760     0.7150     1.3070 C.3   1 <1>   0.2480 
  5 C       -2.0660     2.0930     1.1120 C.3   1 <1>   0.3430 
  6 C       -1.6670     0.6560    -0.8520 C.3   1 <1>   0.3430 
  7 C        2.5230     0.4660     0.2280 C.2   1 <1>  -0.2760 
  8 N       -2.6790     1.0820     0.1810 N.4   1 <1>  -0.9590 
  9 C        2.9920    -0.7670    -0.0150 C.2   1 <1>  -0.2880 
 10 C        2.9460     1.7480    -0.4840 C.3   1 <1>  -0.1020 
 11 C       -3.9220     1.6150    -0.4310 C.3   1 <1>   0.3430 
 12 C        4.0280    -1.2120    -1.0360 C.3   1 <1>  -0.1020 
 13 C       -4.7140     0.4760    -1.0620 C.3   1 <1>  -0.2400 
 14 H       -0.9710     0.7430     2.3930 H     1 <1>   0.0800 
 15 H       -0.3270     2.3610     2.3390 H     1 <1>   0.0800 
 16 H        0.3410    -0.0560    -0.9920 H     1 <1>   0.0800 
 17 H       -0.5430    -0.7600     0.3290 H     1 <1>   0.0800 
 18 H        1.8490     1.4650     1.9850 H     1 <1>   0.0800 
 19 H        1.3080    -0.1870     1.8710 H     1 <1>   0.0800 
 20 H       -1.8420     2.9960     0.5690 H     1 <1>   0.0800 
 21 H       -2.7620     2.3400     1.8960 H     1 <1>   0.0800 
 22 H       -2.0730    -0.1290    -1.4670 H     1 <1>   0.0800 
 23 H       -1.4280     1.4900    -1.4910 H     1 <1>   0.0800 
 24 H       -2.9170     0.2530     0.7380 H     1 <1>   0.4500 
 25 H        2.6380    -1.6140     0.5480 H     1 <1>   0.1500 
 26 H        3.3300     2.4530     0.2310 H     1 <1>   0.0800 
 27 H        2.1020     2.1920    -0.9790 H     1 <1>   0.0800 
 28 H        3.7080     1.5790    -1.2190 H     1 <1>   0.0800 
 29 H       -4.5290     2.0810     0.3290 H     1 <1>   0.0800 
 30 H       -3.6830     2.3590    -1.1740 H     1 <1>   0.0800 
 31 H        3.5960    -1.9420    -1.6970 H     1 <1>   0.0800 
 32 H        4.8630    -1.6630    -0.5290 H     1 <1>   0.0800 
 33 H        4.3980    -0.4010    -1.6320 H     1 <1>   0.0800 
 34 H       -4.9430    -0.2820    -0.3340 H     1 <1>   0.0800 
 35 H       -4.1870     0.0390    -1.8900 H     1 <1>   0.0800 
 36 H       -5.6450     0.8630    -1.4380 H     1 <1>   0.0800 
@<TRIPOS>BOND
  1   1   2  1   
  2   1   3  1   
  3   1   4  1   
  4   2   5  1   
  5   2  14  1   
  6   2  15  1   
  7   3   6  1   
  8   3  16  1   
  9   3  17  1   
 10   4   7  1   
 11   4  18  1   
 12   4  19  1   
 13   5   8  1   
 14   5  20  1   
 15   5  21  1   
 16   6   8  1   
 17   6  22  1   
 18   6  23  1   
 19   7   9  2   
 20   7  10  1   
 21   8  11  1   
 22   8  24  1   
 23   9  12  1   
 24   9  25  1   
 25  10  26  1   
 26  10  27  1   
 27  10  28  1   
 28  11  13  1   
 29  11  29  1   
 30  11  30  1   
 31  12  31  1   
 32  12  32  1   
 33  12  33  1   
 34  13  34  1   
 35  13  35  1   
 36  13  36  1   
@<TRIPOS>SUBSTRUCTURE
  1 ****   3 GROUP 4 **** **** 0

# MOE 2024.06 (io_trps.svl 2023.06)
