@<TRIPOS>MOLECULE
NONAME
46 47 1 0 0 
SMALL
USER_CHARGES


@<TRIPOS>ATOM
  1 N        0.5290     0.0360    -0.5370 N.4   1 <1>  -0.9590 
  2 C        1.8430    -0.5850    -0.2100 C.3   1 <1>   0.3430 
  3 C        0.2370     1.2360     0.2940 C.3   1 <1>   0.3430 
  4 C       -0.5710    -0.9750    -0.3900 C.3   1 <1>   0.2630 
  5 C        2.9660     0.4370    -0.3950 C.3   1 <1>  -0.1600 
  6 C        1.3430     2.2790     0.1200 C.3   1 <1>  -0.1600 
  7 C        2.7300     1.7010     0.4460 C.3   1 <1>   0.4230 
  8 N        3.8080     2.7150     0.1830 N.4   1 <1>  -0.9590 
  9 C        5.1860     2.2150     0.5340 C.3   1 <1>   0.3430 
 10 C        3.6040     4.0220     0.9000 C.3   1 <1>   0.2630 
 11 C        6.0980     2.1160    -0.7000 C.3   1 <1>   0.0630 
 12 C        7.4050     1.4640    -0.2710 C.ar  1 <1>  -0.1430 
 13 C        6.3600     3.4760    -1.3660 C.3   1 <1>  -0.2400 
 14 C        7.7730     0.2360    -0.8040 C.ar  1 <1>  -0.1500 
 15 C        8.2390     2.0720     0.6580 C.ar  1 <1>  -0.1500 
 16 C        8.9480    -0.3780    -0.4070 C.ar  1 <1>  -0.1500 
 17 C        9.4140     1.4570     1.0550 C.ar  1 <1>  -0.1500 
 18 C        9.7680     0.2310     0.5250 C.ar  1 <1>  -0.1500 
 19 H        0.5370     0.3180    -1.5310 H     1 <1>   0.4500 
 20 H        2.0180    -1.4340    -0.8540 H     1 <1>   0.0800 
 21 H        1.8350    -0.9390     0.8100 H     1 <1>   0.0800 
 22 H        0.1660     0.9510     1.3330 H     1 <1>   0.0800 
 23 H       -0.7100     1.6630     0.0020 H     1 <1>   0.0800 
 24 H       -0.6380    -1.3170     0.6310 H     1 <1>   0.0800 
 25 H       -0.3880    -1.8270    -1.0250 H     1 <1>   0.0800 
 26 H       -1.5190    -0.5420    -0.6690 H     1 <1>   0.0800 
 27 H        3.0380     0.6860    -1.4390 H     1 <1>   0.0800 
 28 H        3.8800    -0.0460    -0.1020 H     1 <1>   0.0800 
 29 H        1.1120     3.0910     0.7850 H     1 <1>   0.0800 
 30 H        1.3160     2.6510    -0.8890 H     1 <1>   0.0800 
 31 H        2.7520     1.4310     1.4910 H     1 <1>   0.0800 
 32 H        3.8230     2.9260    -0.8250 H     1 <1>   0.4500 
 33 H        5.1270     1.2450     1.0000 H     1 <1>   0.0800 
 34 H        5.6520     2.8780     1.2460 H     1 <1>   0.0800 
 35 H        3.5480     3.8640     1.9660 H     1 <1>   0.0800 
 36 H        2.6960     4.5020     0.5720 H     1 <1>   0.0800 
 37 H        4.4260     4.6900     0.6980 H     1 <1>   0.0800 
 38 H        5.6280     1.4730    -1.4230 H     1 <1>   0.0800 
 39 H        6.7790     4.1780    -0.6660 H     1 <1>   0.0800 
 40 H        5.4620     3.8950    -1.7810 H     1 <1>   0.0800 
 41 H        7.0670     3.3510    -2.1690 H     1 <1>   0.0800 
 42 H        7.1600    -0.2590    -1.5370 H     1 <1>   0.1500 
 43 H        7.9980     3.0300     1.0840 H     1 <1>   0.1500 
 44 H        9.2280    -1.3300    -0.8240 H     1 <1>   0.1500 
 45 H       10.0580     1.9330     1.7750 H     1 <1>   0.1500 
 46 H       10.6820    -0.2470     0.8330 H     1 <1>   0.1500 
@<TRIPOS>BOND
  1   1   2  1   
  2   1   3  1   
  3   1   4  1   
  4   1  19  1   
  5   2   5  1   
  6   2  20  1   
  7   2  21  1   
  8   3   6  1   
  9   3  22  1   
 10   3  23  1   
 11   4  24  1   
 12   4  25  1   
 13   4  26  1   
 14   5   7  1   
 15   5  27  1   
 16   5  28  1   
 17   6   7  1   
 18   6  29  1   
 19   6  30  1   
 20   7   8  1   
 21   7  31  1   
 22   8   9  1   
 23   8  10  1   
 24   8  32  1   
 25   9  11  1   
 26   9  33  1   
 27   9  34  1   
 28  10  35  1   
 29  10  36  1   
 30  10  37  1   
 31  11  12  1   
 32  11  13  1   
 33  11  38  1   
 34  12  14  ar  
 35  12  15  ar  
 36  13  39  1   
 37  13  40  1   
 38  13  41  1   
 39  14  16  ar  
 40  14  42  1   
 41  15  17  ar  
 42  15  43  1   
 43  16  18  ar  
 44  16  44  1   
 45  17  18  ar  
 46  17  45  1   
 47  18  46  1   
@<TRIPOS>SUBSTRUCTURE
  1 ****   9 GROUP 4 **** **** 0

# MOE 2024.06 (io_trps.svl 2023.06)
