@<TRIPOS>MOLECULE
NONAME
53 54 1 0 0 
SMALL
USER_CHARGES


@<TRIPOS>ATOM
  1 O        0.8470     0.6930    -0.9920 O.3   1 <1>  -0.5600 
  2 C       -0.5510     0.6640    -0.9860 C.3   1 <1>   0.1200 
  3 C        1.4410     0.9370     0.2460 C.3   1 <1>   0.1200 
  4 C       -1.1130     2.0870    -1.0680 C.3   1 <1>   0.1200 
  5 C        2.9460     0.7080     0.0910 C.3   1 <1>   0.1100 
  6 O       -2.4980     2.0320    -1.1220 O.3   1 <1>  -0.6800 
  7 N        3.6770     1.0480     1.3330 N.3   1 <1>  -0.8100 
  8 C        4.9300     0.2820     1.4850 C.3   1 <1>   0.1100 
  9 C        3.9090     2.4980     1.5100 C.3   1 <1>   0.1100 
 10 C        6.0620     0.8030     0.5740 C.3   1 <1>   0.3430 
 11 C        5.0440     3.0390     0.6120 C.3   1 <1>   0.3430 
 12 N        6.3330     2.2720     0.7900 N.4   1 <1>  -0.9590 
 13 C        7.4300     2.8640    -0.0460 C.3   1 <1>   0.4230 
 14 C        8.6060     1.8790    -0.2360 C.3   1 <1>  -0.1600 
 15 C        7.8830     4.1790     0.6180 C.3   1 <1>  -0.1600 
 16 C        9.7450     2.3740    -1.1480 C.3   1 <1>  -0.1600 
 17 C        8.3340     5.2430    -0.4020 C.3   1 <1>  -0.1600 
 18 C       10.8050     3.2550    -0.4570 C.3   1 <1>  -0.1600 
 19 C        9.8060     5.6470    -0.2410 C.3   1 <1>  -0.1600 
 20 C       10.8100     4.7150    -0.9350 C.3   1 <1>  -0.1600 
 21 H       -0.8970     0.1590    -0.1000 H     1 <1>   0.0800 
 22 H       -0.8560     0.1040    -1.8530 H     1 <1>   0.0800 
 23 H        1.0410     0.2490     0.9720 H     1 <1>   0.0800 
 24 H        1.2270     1.9500     0.5340 H     1 <1>   0.0800 
 25 H       -0.7600     2.5880    -1.9530 H     1 <1>   0.0800 
 26 H       -0.8470     2.6530    -0.1940 H     1 <1>   0.0800 
 27 H        3.3150     1.2870    -0.7380 H     1 <1>   0.0800 
 28 H        3.0830    -0.3360    -0.1350 H     1 <1>   0.0800 
 29 H       -2.8000     1.6380    -1.9640 H     1 <1>   0.4000 
 30 H        4.7450    -0.7580     1.2730 H     1 <1>   0.0800 
 31 H        5.2510     0.3390     2.5110 H     1 <1>   0.0800 
 32 H        4.1590     2.6860     2.5400 H     1 <1>   0.0800 
 33 H        3.0020     3.0410     1.3050 H     1 <1>   0.0800 
 34 H        5.7880     0.6290    -0.4530 H     1 <1>   0.0800 
 35 H        6.9510     0.2310     0.7820 H     1 <1>   0.0800 
 36 H        5.1920     4.0800     0.8410 H     1 <1>   0.0800 
 37 H        4.7260     2.9750    -0.4150 H     1 <1>   0.0800 
 38 H        6.6180     2.3750     1.7710 H     1 <1>   0.4500 
 39 H        7.0280     3.0900    -1.0200 H     1 <1>   0.0800 
 40 H        8.2370     0.9950    -0.7220 H     1 <1>   0.0800 
 41 H        9.0120     1.5900     0.7180 H     1 <1>   0.0800 
 42 H        8.6660     3.9750     1.3260 H     1 <1>   0.0800 
 43 H        7.0860     4.6210     1.1840 H     1 <1>   0.0800 
 44 H        9.3450     2.8580    -2.0220 H     1 <1>   0.0800 
 45 H       10.2620     1.4980    -1.5070 H     1 <1>   0.0800 
 46 H        7.7400     6.1280    -0.2430 H     1 <1>   0.0800 
 47 H        8.1520     4.9320    -1.4170 H     1 <1>   0.0800 
 48 H       11.7690     2.8460    -0.7120 H     1 <1>   0.0800 
 49 H       10.7370     3.2060     0.6150 H     1 <1>   0.0800 
 50 H       10.0560     5.7430     0.8020 H     1 <1>   0.0800 
 51 H        9.9290     6.6250    -0.6750 H     1 <1>   0.0800 
 52 H       10.6660     4.7540    -2.0020 H     1 <1>   0.0800 
 53 H       11.7920     5.1160    -0.7480 H     1 <1>   0.0800 
@<TRIPOS>BOND
  1   1   2  1   
  2   1   3  1   
  3   2   4  1   
  4   2  21  1   
  5   2  22  1   
  6   3   5  1   
  7   3  23  1   
  8   3  24  1   
  9   4   6  1   
 10   4  25  1   
 11   4  26  1   
 12   5   7  1   
 13   5  27  1   
 14   5  28  1   
 15   6  29  1   
 16   7   8  1   
 17   7   9  1   
 18   8  10  1   
 19   8  30  1   
 20   8  31  1   
 21   9  11  1   
 22   9  32  1   
 23   9  33  1   
 24  10  12  1   
 25  10  34  1   
 26  10  35  1   
 27  11  12  1   
 28  11  36  1   
 29  11  37  1   
 30  12  13  1   
 31  12  38  1   
 32  13  14  1   
 33  13  15  1   
 34  13  39  1   
 35  14  16  1   
 36  14  40  1   
 37  14  41  1   
 38  15  17  1   
 39  15  42  1   
 40  15  43  1   
 41  16  18  1   
 42  16  44  1   
 43  16  45  1   
 44  17  19  1   
 45  17  46  1   
 46  17  47  1   
 47  18  20  1   
 48  18  48  1   
 49  18  49  1   
 50  19  20  1   
 51  19  50  1   
 52  19  51  1   
 53  20  52  1   
 54  20  53  1   
@<TRIPOS>SUBSTRUCTURE
  1 ****  11 GROUP 4 **** **** 0

# MOE 2024.06 (io_trps.svl 2023.06)
