@<TRIPOS>MOLECULE
NONAME
50 53 1 0 0 
SMALL
USER_CHARGES


@<TRIPOS>ATOM
  1 S       -0.2530     0.1720    -1.2660 S.o2  1 <1>   1.4470 
  2 O       -0.6840     0.2730    -2.6450 O.2   1 <1>  -0.6500 
  3 O       -0.1940    -1.1290    -0.6380 O.2   1 <1>  -0.6500 
  4 N       -1.3190     1.1280    -0.3570 N.am  1 <1>  -0.8490 
  5 C        1.3390     1.0140    -1.0440 C.ar  1 <1>  -0.0090 
  6 C       -2.5660     0.4160    -0.0680 C.3   1 <1>   0.1960 
  7 C       -1.5720     2.4250    -0.9920 C.3   1 <1>   0.1960 
  8 C        1.7620     1.4400     0.1910 C.ar  1 <1>  -0.1500 
  9 C        2.1840     1.2460    -2.1440 C.ar  1 <1>  -0.1500 
 10 C       -3.4390     1.2400     0.8810 C.3   1 <1>  -0.1600 
 11 C       -2.4040     3.3150    -0.0660 C.3   1 <1>  -0.1600 
 12 C        2.9890     2.1040     0.3850 C.ar  1 <1>   0.0000 
 13 C        3.3840     1.8840    -1.9920 C.ar  1 <1>  -0.1500 
 14 C       -3.7330     2.6380     0.3050 C.3   1 <1>  -0.0190 
 15 C        3.8190     2.3320    -0.7300 C.ar  1 <1>   0.0000 
 16 C        3.4160     2.5500     1.6520 C.ar  1 <1>  -0.1500 
 17 C       -4.5480     3.5160     1.2630 C.2   1 <1>   0.5690 
 18 C        5.0470     2.9970    -0.5380 C.ar  1 <1>  -0.1500 
 19 C        4.6130     3.1930     1.8110 C.ar  1 <1>  -0.1500 
 20 O       -4.3320     3.4330     2.4500 O.2   1 <1>  -0.5700 
 21 N       -5.4890     4.3840     0.7770 N.am  1 <1>  -0.6600 
 22 C        5.4370     3.4190     0.7030 C.ar  1 <1>  -0.1500 
 23 C       -5.8220     4.6460    -0.6410 C.3   1 <1>   0.1400 
 24 C       -6.2960     5.2390     1.6760 C.3   1 <1>   0.1400 
 25 C       -6.6890     5.9000    -0.6120 C.3   1 <1>  -0.1600 
 26 C       -7.3360     5.8880     0.7700 C.3   1 <1>  -0.1600 
 27 H       -2.3460    -0.5280     0.4050 H     1 <1>   0.0800 
 28 H       -3.0950     0.2150    -0.9860 H     1 <1>   0.0800 
 29 H       -2.0900     2.2830    -1.9270 H     1 <1>   0.0800 
 30 H       -0.6360     2.9180    -1.1980 H     1 <1>   0.0800 
 31 H        1.1380     1.2690     1.0510 H     1 <1>   0.1500 
 32 H        1.8660     0.9090    -3.1170 H     1 <1>   0.1500 
 33 H       -2.9270     1.3300     1.8240 H     1 <1>   0.0800 
 34 H       -4.3640     0.7220     1.0610 H     1 <1>   0.0800 
 35 H       -2.5960     4.2540    -0.5520 H     1 <1>   0.0800 
 36 H       -1.8380     3.5170     0.8270 H     1 <1>   0.0800 
 37 H        4.0210     2.0550    -2.8430 H     1 <1>   0.1500 
 38 H       -4.3030     2.4920    -0.5930 H     1 <1>   0.0800 
 39 H        2.7790     2.3730     2.5000 H     1 <1>   0.1500 
 40 H        5.6770     3.1680    -1.3920 H     1 <1>   0.1500 
 41 H        4.9350     3.5310     2.7810 H     1 <1>   0.1500 
 42 H        6.3760     3.9260     0.8450 H     1 <1>   0.1500 
 43 H       -6.3850     3.8150    -1.0290 H     1 <1>   0.0800 
 44 H       -4.9340     4.7990    -1.2300 H     1 <1>   0.0800 
 45 H       -5.6570     5.9850     2.1170 H     1 <1>   0.0800 
 46 H       -6.7540     4.6520     2.4540 H     1 <1>   0.0800 
 47 H       -7.4140     5.9040    -1.4050 H     1 <1>   0.0800 
 48 H       -6.0560     6.7650    -0.7100 H     1 <1>   0.0800 
 49 H       -7.6010     6.8740     1.1090 H     1 <1>   0.0800 
 50 H       -8.2190     5.2730     0.7570 H     1 <1>   0.0800 
@<TRIPOS>BOND
  1   1   2  2   
  2   1   3  2   
  3   1   4  am  
  4   1   5  1   
  5   4   6  1   
  6   4   7  1   
  7   5   8  ar  
  8   5   9  ar  
  9   6  10  1   
 10   6  27  1   
 11   6  28  1   
 12   7  11  1   
 13   7  29  1   
 14   7  30  1   
 15   8  12  ar  
 16   8  31  1   
 17   9  13  ar  
 18   9  32  1   
 19  10  14  1   
 20  10  33  1   
 21  10  34  1   
 22  11  14  1   
 23  11  35  1   
 24  11  36  1   
 25  12  15  ar  
 26  12  16  ar  
 27  13  15  ar  
 28  13  37  1   
 29  14  17  1   
 30  14  38  1   
 31  15  18  ar  
 32  16  19  ar  
 33  16  39  1   
 34  17  20  2   
 35  17  21  am  
 36  18  22  ar  
 37  18  40  1   
 38  19  22  ar  
 39  19  41  1   
 40  21  23  1   
 41  21  24  1   
 42  22  42  1   
 43  23  25  1   
 44  23  43  1   
 45  23  44  1   
 46  24  26  1   
 47  24  45  1   
 48  24  46  1   
 49  25  26  1   
 50  25  47  1   
 51  25  48  1   
 52  26  49  1   
 53  26  50  1   
@<TRIPOS>SUBSTRUCTURE
  1 ****   7 GROUP 4 **** **** 0

# MOE 2024.06 (io_trps.svl 2023.06)
