@<TRIPOS>MOLECULE
NONAME
26 27 1 0 0 
SMALL
USER_CHARGES


@<TRIPOS>ATOM
  1 CL      -0.0900    -0.0990    -0.6260 Cl    1 <1>  -0.1770 
  2 C        1.4480    -0.8780    -0.3360 C.ar  1 <1>   0.1770 
  3 C        1.4910    -2.1510     0.2130 C.ar  1 <1>  -0.1440 
  4 C        2.6000    -0.1940    -0.6660 C.ar  1 <1>  -0.1500 
  5 C        2.7320    -2.7310     0.4220 C.ar  1 <1>  -0.1500 
  6 C        0.2170    -2.8990     0.5750 C.3   1 <1>  -0.0960 
  7 C        3.8550    -0.7610    -0.4520 C.ar  1 <1>   0.0860 
  8 C        3.8900    -2.0480     0.0920 C.ar  1 <1>  -0.1500 
  9 C        5.0650    -0.0320    -0.7880 C.2   1 <1>   0.5440 
 10 O        5.0680     0.7670    -1.7040 O.2   1 <1>  -0.5700 
 11 N        6.2110    -0.2240    -0.0650 N.am  1 <1>  -0.5790 
 12 C        7.5030     0.4340    -0.3050 C.3   1 <1>   0.0490 
 13 C        8.7470    -0.3260     0.0140 C.3   1 <1>  -0.2000 
 14 C        8.3240     0.8220     0.8800 C.3   1 <1>  -0.2000 
 15 H        2.5270     0.7910    -1.0940 H     1 <1>   0.1500 
 16 H        2.8010    -3.7220     0.8400 H     1 <1>   0.1500 
 17 H       -0.3460    -2.3380     1.3000 H     1 <1>   0.0800 
 18 H        0.4390    -3.8660     0.9890 H     1 <1>   0.0800 
 19 H       -0.3910    -3.0360    -0.3020 H     1 <1>   0.0800 
 20 H        4.8370    -2.5310     0.2510 H     1 <1>   0.1500 
 21 H        6.1800    -0.8110     0.7670 H     1 <1>   0.3700 
 22 H        7.5000     1.0840    -1.1670 H     1 <1>   0.1000 
 23 H        9.6060    -0.1950    -0.6200 H     1 <1>   0.1000 
 24 H        8.6620    -1.3290     0.3930 H     1 <1>   0.1000 
 25 H        7.9400     0.6250     1.8650 H     1 <1>   0.1000 
 26 H        8.8950     1.7330     0.8330 H     1 <1>   0.1000 
@<TRIPOS>BOND
  1   1   2  1   
  2   2   3  ar  
  3   2   4  ar  
  4   3   5  ar  
  5   3   6  1   
  6   4   7  ar  
  7   4  15  1   
  8   5   8  ar  
  9   5  16  1   
 10   6  17  1   
 11   6  18  1   
 12   6  19  1   
 13   7   8  ar  
 14   7   9  1   
 15   8  20  1   
 16   9  10  2   
 17   9  11  am  
 18  11  12  1   
 19  11  21  1   
 20  12  13  1   
 21  12  14  1   
 22  12  22  1   
 23  13  14  1   
 24  13  23  1   
 25  13  24  1   
 26  14  25  1   
 27  14  26  1   
@<TRIPOS>SUBSTRUCTURE
  1 ****   7 GROUP 4 **** **** 0

# MOE 2024.06 (io_trps.svl 2023.06)
