@<TRIPOS>MOLECULE
NONAME
42 42 1 0 0 
SMALL
USER_CHARGES


@<TRIPOS>ATOM
  1 O       -0.9560     3.4890     0.8080 O.2   1 <1>  -0.5700 
  2 C       -0.4560     2.6000     0.1630 C.2   1 <1>   0.5690 
  3 N       -1.1450     1.5410    -0.3500 N.am  1 <1>  -0.5470 
  4 C        1.0370     2.6500    -0.0990 C.3   1 <1>  -0.0990 
  5 C       -2.5000     1.1560    -0.3100 C.ar  1 <1>   0.1170 
  6 C        1.8070     1.5990     0.7180 C.3   1 <1>  -0.1600 
  7 C       -2.8430    -0.1020    -0.8150 C.ar  1 <1>   0.0830 
  8 C       -3.5090     1.9650     0.1990 C.ar  1 <1>  -0.1500 
  9 C        3.3140     1.6770     0.4480 C.3   1 <1>  -0.1600 
 10 O       -1.8260    -0.8680    -1.3180 O.3   1 <1>  -0.3630 
 11 C       -4.1670    -0.5270    -0.7950 C.ar  1 <1>  -0.1500 
 12 C       -4.8230     1.5340     0.2140 C.ar  1 <1>  -0.1500 
 13 C        4.0740     0.6290     1.2640 C.3   1 <1>  -0.2400 
 14 C       -2.0720    -2.1320    -1.8960 C.3   1 <1>   0.0400 
 15 C       -5.1710     0.2840    -0.2820 C.ar  1 <1>   0.1170 
 16 N       -6.4920    -0.1980    -0.2690 N.am  1 <1>  -0.5470 
 17 C       -7.6840     0.4690    -0.2670 C.2   1 <1>   0.5690 
 18 O       -7.7860     1.6700    -0.3100 O.2   1 <1>  -0.5700 
 19 C       -8.9540    -0.3630    -0.2250 C.3   1 <1>  -0.0990 
 20 C       -9.1440    -1.1000     1.1110 C.3   1 <1>  -0.2400 
 21 H       -0.5760     0.8390    -0.8260 H     1 <1>   0.3700 
 22 H        1.3930     3.6320     0.1560 H     1 <1>   0.0800 
 23 H        1.2090     2.5010    -1.1490 H     1 <1>   0.0800 
 24 H        1.4500     0.6140     0.4720 H     1 <1>   0.0800 
 25 H        1.6210     1.7660     1.7660 H     1 <1>   0.0800 
 26 H       -3.2800     2.9390     0.5880 H     1 <1>   0.1500 
 27 H        3.6780     2.6580     0.7070 H     1 <1>   0.0800 
 28 H        3.5060     1.5160    -0.6000 H     1 <1>   0.0800 
 29 H       -4.4430    -1.4880    -1.1780 H     1 <1>   0.1500 
 30 H       -5.5790     2.1830     0.6190 H     1 <1>   0.1500 
 31 H        3.9150     0.7840     2.3170 H     1 <1>   0.0800 
 32 H        5.1290     0.7010     1.0650 H     1 <1>   0.0800 
 33 H        3.7440    -0.3620     1.0070 H     1 <1>   0.0800 
 34 H       -1.1340    -2.5330    -2.2360 H     1 <1>   0.0800 
 35 H       -2.7400    -2.0110    -2.7300 H     1 <1>   0.0800 
 36 H       -2.4950    -2.7820    -1.1500 H     1 <1>   0.0800 
 37 H       -6.5760    -1.2120    -0.2740 H     1 <1>   0.3700 
 38 H       -8.9340    -1.0700    -1.0340 H     1 <1>   0.0800 
 39 H       -9.7930     0.2910    -0.3870 H     1 <1>   0.0800 
 40 H       -8.3420    -1.7940     1.2860 H     1 <1>   0.0800 
 41 H      -10.0730    -1.6420     1.1050 H     1 <1>   0.0800 
 42 H       -9.1680    -0.3910     1.9210 H     1 <1>   0.0800 
@<TRIPOS>BOND
  1   1   2  2   
  2   2   3  am  
  3   2   4  1   
  4   3   5  1   
  5   3  21  1   
  6   4   6  1   
  7   4  22  1   
  8   4  23  1   
  9   5   7  ar  
 10   5   8  ar  
 11   6   9  1   
 12   6  24  1   
 13   6  25  1   
 14   7  10  1   
 15   7  11  ar  
 16   8  12  ar  
 17   8  26  1   
 18   9  13  1   
 19   9  27  1   
 20   9  28  1   
 21  10  14  1   
 22  11  15  ar  
 23  11  29  1   
 24  12  15  ar  
 25  12  30  1   
 26  13  31  1   
 27  13  32  1   
 28  13  33  1   
 29  14  34  1   
 30  14  35  1   
 31  14  36  1   
 32  15  16  1   
 33  16  17  am  
 34  16  37  1   
 35  17  18  2   
 36  17  19  1   
 37  19  20  1   
 38  19  38  1   
 39  19  39  1   
 40  20  40  1   
 41  20  41  1   
 42  20  42  1   
@<TRIPOS>SUBSTRUCTURE
  1 ****   5 GROUP 4 **** **** 0

# MOE 2024.06 (io_trps.svl 2023.06)
