@<TRIPOS>MOLECULE
NONAME
27 29 1 0 0 
SMALL
USER_CHARGES


@<TRIPOS>ATOM
  1 O       -0.1020    -0.3440     0.2060 O.2   1 <1>  -0.5700 
  2 C       -0.1760    -1.5210    -0.0480 C.2   1 <1>   0.4840 
  3 C       -1.4340    -2.2310    -0.1440 C.ar  1 <1>   0.0860 
  4 C        1.1390    -2.2640    -0.2780 C.3   1 <1>  -0.1000 
  5 C       -2.6220    -1.6160     0.2640 C.ar  1 <1>  -0.1500 
  6 C       -1.5340    -3.5380    -0.6410 C.ar  1 <1>  -0.1500 
  7 C        1.5790    -3.3720     0.6370 C.3   1 <1>  -0.2000 
  8 C        2.3010    -2.0620     0.6520 C.3   1 <1>  -0.2000 
  9 C       -3.8390    -2.2650     0.1880 C.ar  1 <1>   0.0830 
 10 C       -2.7470    -4.2000    -0.7150 C.ar  1 <1>  -0.1500 
 11 O       -4.9600    -1.6100     0.5840 O.3   1 <1>  -0.3620 
 12 C       -3.9050    -3.5720    -0.2940 C.ar  1 <1>   0.0830 
 13 C       -6.1990    -2.1610     0.1800 C.3   1 <1>   0.1200 
 14 O       -5.0780    -4.2410    -0.3560 O.3   1 <1>  -0.3630 
 15 C       -6.1800    -3.6880     0.3390 C.3   1 <1>   0.1200 
 16 H        1.3740    -2.3390    -1.3240 H     1 <1>   0.1000 
 17 H       -2.5950    -0.6100     0.6440 H     1 <1>   0.1500 
 18 H       -0.6550    -4.0550    -0.9800 H     1 <1>   0.1500 
 19 H        2.0780    -4.2280     0.2160 H     1 <1>   0.1000 
 20 H        0.9720    -3.6250     1.4900 H     1 <1>   0.1000 
 21 H        2.1700    -1.4000     1.4920 H     1 <1>   0.1000 
 22 H        3.2890    -2.0010     0.2310 H     1 <1>   0.1000 
 23 H       -2.8050    -5.2050    -1.0960 H     1 <1>   0.1500 
 24 H       -6.3640    -1.8940    -0.8490 H     1 <1>   0.0800 
 25 H       -6.9700    -1.7220     0.7860 H     1 <1>   0.0800 
 26 H       -7.0770    -4.1260    -0.0590 H     1 <1>   0.0800 
 27 H       -6.0880    -3.9530     1.3770 H     1 <1>   0.0800 
@<TRIPOS>BOND
  1   1   2  2   
  2   2   3  1   
  3   2   4  1   
  4   3   5  ar  
  5   3   6  ar  
  6   4   7  1   
  7   4   8  1   
  8   4  16  1   
  9   5   9  ar  
 10   5  17  1   
 11   6  10  ar  
 12   6  18  1   
 13   7   8  1   
 14   7  19  1   
 15   7  20  1   
 16   8  21  1   
 17   8  22  1   
 18   9  11  1   
 19   9  12  ar  
 20  10  12  ar  
 21  10  23  1   
 22  11  13  1   
 23  12  14  1   
 24  13  15  1   
 25  13  24  1   
 26  13  25  1   
 27  14  15  1   
 28  15  26  1   
 29  15  27  1   
@<TRIPOS>SUBSTRUCTURE
  1 ****   3 GROUP 4 **** **** 0

# MOE 2024.06 (io_trps.svl 2023.06)
