@<TRIPOS>MOLECULE
NONAME
35 35 1 0 0 
SMALL
USER_CHARGES


@<TRIPOS>ATOM
  1 S        0.1400     0.0610    -0.8590 S.o2  1 <1>   1.3330 
  2 O        1.3780    -0.6720    -0.7050 O.2   1 <1>  -0.6500 
  3 O       -0.8630    -0.4680    -1.7580 O.2   1 <1>  -0.6500 
  4 N        0.5310     1.6220    -1.3990 N.am  1 <1>  -0.8490 
  5 C       -0.6120     0.2110     0.7470 C.3   1 <1>  -0.1350 
  6 C        1.4870     2.3570    -0.5110 C.3   1 <1>   0.1960 
  7 C       -0.6210     2.4230    -1.8160 C.3   1 <1>   0.1160 
  8 P        0.9120     3.4520     0.8390 P.3   1 <1>   0.9000 
  9 O       -0.4550     3.0610     1.2990 O.co2 1 <1>  -0.9500 
 10 O        2.0200     3.5960     1.8270 O.co2 1 <1>  -0.9500 
 11 C        0.7440     5.0520     0.0480 C.3   1 <1>  -0.1600 
 12 C        0.3340     6.1430     1.0380 C.3   1 <1>  -0.0160 
 13 C        0.1720     7.4810     0.3310 C.ar  1 <1>  -0.1440 
 14 C        1.2510     8.3420     0.2070 C.ar  1 <1>  -0.1500 
 15 C       -1.0540     7.8470    -0.2010 C.ar  1 <1>  -0.1500 
 16 C        1.1060     9.5570    -0.4400 C.ar  1 <1>  -0.1500 
 17 C       -1.2020     9.0610    -0.8490 C.ar  1 <1>  -0.1500 
 18 C       -0.1210     9.9180    -0.9690 C.ar  1 <1>  -0.1500 
 19 H       -0.9230    -0.7510     1.0990 H     1 <1>   0.0800 
 20 H       -1.4680     0.8550     0.7020 H     1 <1>   0.0800 
 21 H        0.0860     0.6210     1.4510 H     1 <1>   0.0800 
 22 H        2.1290     2.9220    -1.1590 H     1 <1>   0.0800 
 23 H        2.1380     1.6190    -0.0800 H     1 <1>   0.0800 
 24 H       -1.1770     1.8960    -2.5730 H     1 <1>   0.0800 
 25 H       -0.2880     3.3550    -2.2360 H     1 <1>   0.0800 
 26 H       -1.2750     2.6180    -0.9830 H     1 <1>   0.0800 
 27 H        0.0040     5.0240    -0.7260 H     1 <1>   0.0800 
 28 H        1.6720     5.3500    -0.4020 H     1 <1>   0.0800 
 29 H        1.0790     6.2170     1.8120 H     1 <1>   0.0800 
 30 H       -0.5900     5.8600     1.5130 H     1 <1>   0.0800 
 31 H        2.2060     8.0640     0.6180 H     1 <1>   0.1500 
 32 H       -1.8950     7.1810    -0.1090 H     1 <1>   0.1500 
 33 H        1.9480    10.2200    -0.5310 H     1 <1>   0.1500 
 34 H       -2.1570     9.3370    -1.2580 H     1 <1>   0.1500 
 35 H       -0.2350    10.8620    -1.4720 H     1 <1>   0.1500 
@<TRIPOS>BOND
  1   1   2  2   
  2   1   3  2   
  3   1   4  am  
  4   1   5  1   
  5   4   6  1   
  6   4   7  1   
  7   5  19  1   
  8   5  20  1   
  9   5  21  1   
 10   6   8  1   
 11   6  22  1   
 12   6  23  1   
 13   7  24  1   
 14   7  25  1   
 15   7  26  1   
 16   8   9  ar  
 17   8  10  ar  
 18   8  11  1   
 19  11  12  1   
 20  11  27  1   
 21  11  28  1   
 22  12  13  1   
 23  12  29  1   
 24  12  30  1   
 25  13  14  ar  
 26  13  15  ar  
 27  14  16  ar  
 28  14  31  1   
 29  15  17  ar  
 30  15  32  1   
 31  16  18  ar  
 32  16  33  1   
 33  17  18  ar  
 34  17  34  1   
 35  18  35  1   
@<TRIPOS>SUBSTRUCTURE
  1 ****  11 GROUP 4 **** **** 0

# MOE 2024.06 (io_trps.svl 2023.06)
