@<TRIPOS>MOLECULE
NONAME
37 37 1 0 0 
SMALL
USER_CHARGES


@<TRIPOS>ATOM
  1 O       -0.8850     0.2210     0.5320 O.3   1 <1>  -0.5600 
  2 C       -1.4460     1.3000    -0.1320 C.3   1 <1>   0.6180 
  3 C        0.4780     0.2680     0.3480 C.3   1 <1>   0.2000 
  4 O       -0.6430     1.4880    -1.2460 O.3   1 <1>  -0.5600 
  5 C       -2.8530     0.9520    -0.5710 C.2   1 <1>  -0.2880 
  6 C        0.6420     1.1010    -0.9170 C.3   1 <1>   0.1200 
  7 C        1.1110     0.8940     1.5920 C.3   1 <1>  -0.2400 
  8 C       -4.0100     1.5720    -0.2920 C.2   1 <1>  -0.2760 
  9 C       -5.3370     1.0570    -0.8420 C.3   1 <1>  -0.0220 
 10 C       -4.1440     2.8290     0.5610 C.3   1 <1>  -0.1020 
 11 C       -6.2030     0.4120     0.2450 C.3   1 <1>  -0.0220 
 12 C       -7.4760    -0.1650    -0.3610 C.2   1 <1>  -0.2880 
 13 C       -8.7440     0.2330    -0.1940 C.2   1 <1>  -0.2760 
 14 C       -9.8950    -0.4840    -0.8820 C.3   1 <1>  -0.1020 
 15 C       -9.2250     1.4010     0.6570 C.3   1 <1>  -0.1020 
 16 H       -1.3920     2.1710     0.4960 H     1 <1>   0.0800 
 17 H        0.8350    -0.7370     0.2020 H     1 <1>   0.0800 
 18 H       -2.8180     0.0710    -1.1850 H     1 <1>   0.1500 
 19 H        1.0450     0.5190    -1.7270 H     1 <1>   0.0800 
 20 H        1.2440     1.9770    -0.7550 H     1 <1>   0.0800 
 21 H        0.7420     1.8910     1.7510 H     1 <1>   0.0800 
 22 H        2.1780     0.9380     1.4750 H     1 <1>   0.0800 
 23 H        0.8890     0.2900     2.4540 H     1 <1>   0.0800 
 24 H       -5.8790     1.8620    -1.3060 H     1 <1>   0.0800 
 25 H       -5.1440     0.3210    -1.6030 H     1 <1>   0.0800 
 26 H       -4.6960     2.6170     1.4580 H     1 <1>   0.0800 
 27 H       -4.6610     3.5930     0.0090 H     1 <1>   0.0800 
 28 H       -3.1870     3.2210     0.8470 H     1 <1>   0.0800 
 29 H       -6.4300     1.1340     1.0040 H     1 <1>   0.0800 
 30 H       -5.6480    -0.3820     0.7140 H     1 <1>   0.0800 
 31 H       -7.2410    -1.0030    -0.9960 H     1 <1>   0.1500 
 32 H      -10.4210     0.1950    -1.5290 H     1 <1>   0.0800 
 33 H      -10.5810    -0.8700    -0.1500 H     1 <1>   0.0800 
 34 H       -9.5350    -1.3060    -1.4750 H     1 <1>   0.0800 
 35 H       -9.7840     2.0910     0.0490 H     1 <1>   0.0800 
 36 H       -8.4150     1.9410     1.1050 H     1 <1>   0.0800 
 37 H       -9.8650     1.0420     1.4430 H     1 <1>   0.0800 
@<TRIPOS>BOND
  1   1   2  1   
  2   1   3  1   
  3   2   4  1   
  4   2   5  1   
  5   2  16  1   
  6   3   6  1   
  7   3   7  1   
  8   3  17  1   
  9   4   6  1   
 10   5   8  2   
 11   5  18  1   
 12   6  19  1   
 13   6  20  1   
 14   7  21  1   
 15   7  22  1   
 16   7  23  1   
 17   8   9  1   
 18   8  10  1   
 19   9  11  1   
 20   9  24  1   
 21   9  25  1   
 22  10  26  1   
 23  10  27  1   
 24  10  28  1   
 25  11  12  1   
 26  11  29  1   
 27  11  30  1   
 28  12  13  2   
 29  12  31  1   
 30  13  14  1   
 31  13  15  1   
 32  14  32  1   
 33  14  33  1   
 34  14  34  1   
 35  15  35  1   
 36  15  36  1   
 37  15  37  1   
@<TRIPOS>SUBSTRUCTURE
  1 ****   8 GROUP 4 **** **** 0

# MOE 2024.06 (io_trps.svl 2023.06)
