@<TRIPOS>MOLECULE
NONAME
36 37 1 0 0 
SMALL
USER_CHARGES


@<TRIPOS>ATOM
  1 F       -2.5630     1.7140    -2.0680 F     1 <1>  -0.1900 
  2 C       -1.5850     2.3600    -1.4870 C.ar  1 <1>   0.1900 
  3 C       -1.4970     2.3720    -0.0980 C.ar  1 <1>  -0.1440 
  4 C       -0.6770     3.0120    -2.2980 C.ar  1 <1>  -0.1500 
  5 C       -0.4470     3.0670     0.4920 C.ar  1 <1>  -0.1500 
  6 C       -2.5200     1.6420     0.7620 C.3   1 <1>   0.2540 
  7 C        0.3470     3.6930    -1.6720 C.ar  1 <1>   0.1900 
  8 C        0.4810     3.7330    -0.2960 C.ar  1 <1>  -0.1500 
  9 N       -3.8430     2.2680     0.5910 N.3   1 <1>  -0.8100 
 10 F        1.2230     4.3240    -2.4070 F     1 <1>  -0.1900 
 11 C       -4.9600     1.3740     0.9770 C.3   1 <1>   0.1100 
 12 C       -3.9420     3.6070     1.1970 C.3   1 <1>   0.1100 
 13 C       -6.3040     1.8310     0.3680 C.3   1 <1>   0.3430 
 14 C       -4.5980     4.5670     0.1970 C.3   1 <1>  -0.1600 
 15 N       -6.0510     2.8030    -0.7370 N.4   1 <1>  -0.9590 
 16 C       -6.0210     4.1980    -0.2330 C.3   1 <1>   0.3430 
 17 C       -6.9330     2.6110    -1.9210 C.3   1 <1>   0.2630 
 18 H       -0.7610     2.9910    -3.3680 H     1 <1>   0.1500 
 19 H       -0.3430     3.0950     1.5640 H     1 <1>   0.1500 
 20 H       -2.2330     1.6570     1.8000 H     1 <1>   0.0800 
 21 H       -2.5540     0.6150     0.4390 H     1 <1>   0.0800 
 22 H        1.2990     4.2750     0.1460 H     1 <1>   0.1500 
 23 H       -5.0400     1.3040     2.0490 H     1 <1>   0.0800 
 24 H       -4.7600     0.3830     0.6050 H     1 <1>   0.0800 
 25 H       -2.9610     3.9870     1.4300 H     1 <1>   0.0800 
 26 H       -4.5010     3.5710     2.1180 H     1 <1>   0.0800 
 27 H       -6.9150     2.2860     1.1310 H     1 <1>   0.0800 
 28 H       -6.8280     0.9660    -0.0030 H     1 <1>   0.0800 
 29 H       -3.9710     4.6390    -0.6740 H     1 <1>   0.0800 
 30 H       -4.6260     5.5460     0.6390 H     1 <1>   0.0800 
 31 H       -5.0540     2.6030    -0.9760 H     1 <1>   0.4500 
 32 H       -6.3310     4.8760    -1.0130 H     1 <1>   0.0800 
 33 H       -6.7000     4.3070     0.5960 H     1 <1>   0.0800 
 34 H       -7.9600     2.8040    -1.6590 H     1 <1>   0.0800 
 35 H       -6.8510     1.6000    -2.2860 H     1 <1>   0.0800 
 36 H       -6.6430     3.2830    -2.7120 H     1 <1>   0.0800 
@<TRIPOS>BOND
  1   1   2  1   
  2   2   3  ar  
  3   2   4  ar  
  4   3   5  ar  
  5   3   6  1   
  6   4   7  ar  
  7   4  18  1   
  8   5   8  ar  
  9   5  19  1   
 10   6   9  1   
 11   6  20  1   
 12   6  21  1   
 13   7   8  ar  
 14   7  10  1   
 15   8  22  1   
 16   9  11  1   
 17   9  12  1   
 18  11  13  1   
 19  11  23  1   
 20  11  24  1   
 21  12  14  1   
 22  12  25  1   
 23  12  26  1   
 24  13  15  1   
 25  13  27  1   
 26  13  28  1   
 27  14  16  1   
 28  14  29  1   
 29  14  30  1   
 30  15  16  1   
 31  15  17  1   
 32  15  31  1   
 33  16  32  1   
 34  16  33  1   
 35  17  34  1   
 36  17  35  1   
 37  17  36  1   
@<TRIPOS>SUBSTRUCTURE
  1 ****   9 GROUP 4 **** **** 0

# MOE 2024.06 (io_trps.svl 2023.06)
