@<TRIPOS>MOLECULE
NONAME
43 45 1 0 0 
SMALL
USER_CHARGES


@<TRIPOS>ATOM
  1 O       -0.5470    -0.2760    -0.6230 O.3   1 <1>  -0.3630 
  2 C       -1.6960    -0.8440    -0.1840 C.ar  1 <1>   0.0830 
  3 C        0.0760    -0.6940    -1.8170 C.3   1 <1>   0.0400 
  4 C       -2.1710    -0.4180     1.0450 C.ar  1 <1>  -0.1500 
  5 C       -2.4020    -1.8130    -0.8900 C.ar  1 <1>  -0.1500 
  6 C       -3.3380    -0.9420     1.5690 C.ar  1 <1>  -0.1500 
  7 C       -3.5710    -2.3380    -0.3660 C.ar  1 <1>  -0.1500 
  8 C       -4.0500    -1.9010     0.8620 C.ar  1 <1>  -0.1430 
  9 C       -5.3410    -2.4590     1.4270 C.3   1 <1>   0.4860 
 10 N       -6.4810    -1.8650     0.6800 N.4   1 <1>  -0.9590 
 11 C       -6.5410    -0.3650     0.8430 C.3   1 <1>   0.3430 
 12 C       -7.7960    -2.4950     1.0560 C.3   1 <1>   0.3430 
 13 C       -7.7170     0.2640     0.0700 C.3   1 <1>   0.2090 
 14 C       -8.9810    -1.8860     0.2800 C.3   1 <1>   0.2090 
 15 N       -9.0150    -0.3980     0.4030 N.pl3 1 <1>  -0.8380 
 16 C      -10.1040     0.1840    -0.2080 C.ar  1 <1>   0.4100 
 17 N      -10.1680     0.0600    -1.5260 N.ar  1 <1>  -0.6200 
 18 C      -11.0550     0.8540     0.5560 C.ar  1 <1>  -0.1500 
 19 C      -11.2180     0.6250    -2.1020 C.ar  1 <1>   0.1600 
 20 C      -12.1400     1.4350    -0.0570 C.ar  1 <1>  -0.1500 
 21 C      -12.2150     1.3110    -1.4290 C.ar  1 <1>  -0.1500 
 22 H        0.9810    -0.1250    -1.9380 H     1 <1>   0.0800 
 23 H       -0.5860    -0.5060    -2.6430 H     1 <1>   0.0800 
 24 H        0.3130    -1.7410    -1.7400 H     1 <1>   0.0800 
 25 H       -1.6110     0.3260     1.5860 H     1 <1>   0.1500 
 26 H       -2.0530    -2.1660    -1.8420 H     1 <1>   0.1500 
 27 H       -3.6750    -0.5930     2.5310 H     1 <1>   0.1500 
 28 H       -4.0940    -3.0920    -0.9300 H     1 <1>   0.1500 
 29 H       -5.4170    -2.2220     2.4760 H     1 <1>   0.0800 
 30 H       -5.3420    -3.5320     1.3170 H     1 <1>   0.0800 
 31 H       -6.3130    -2.0390    -0.3190 H     1 <1>   0.4500 
 32 H       -5.6220     0.0800     0.4950 H     1 <1>   0.0800 
 33 H       -6.6540    -0.1180     1.8850 H     1 <1>   0.0800 
 34 H       -7.9780    -2.3520     2.1080 H     1 <1>   0.0800 
 35 H       -7.7640    -3.5550     0.8660 H     1 <1>   0.0800 
 36 H       -7.5350     0.1880    -0.9890 H     1 <1>   0.0800 
 37 H       -7.7840     1.3110     0.3140 H     1 <1>   0.0800 
 38 H       -9.9030    -2.2910     0.6620 H     1 <1>   0.0800 
 39 H       -8.9130    -2.1610    -0.7590 H     1 <1>   0.0800 
 40 H      -10.9260     0.9070     1.6190 H     1 <1>   0.1500 
 41 H      -11.2910     0.5370    -3.1730 H     1 <1>   0.1500 
 42 H      -12.8950     1.9610     0.5030 H     1 <1>   0.1500 
 43 H      -13.0370     1.7420    -1.9720 H     1 <1>   0.1500 
@<TRIPOS>BOND
  1   1   2  1   
  2   1   3  1   
  3   2   4  ar  
  4   2   5  ar  
  5   3  22  1   
  6   3  23  1   
  7   3  24  1   
  8   4   6  ar  
  9   4  25  1   
 10   5   7  ar  
 11   5  26  1   
 12   6   8  ar  
 13   6  27  1   
 14   7   8  ar  
 15   7  28  1   
 16   8   9  1   
 17   9  10  1   
 18   9  29  1   
 19   9  30  1   
 20  10  11  1   
 21  10  12  1   
 22  10  31  1   
 23  11  13  1   
 24  11  32  1   
 25  11  33  1   
 26  12  14  1   
 27  12  34  1   
 28  12  35  1   
 29  13  15  1   
 30  13  36  1   
 31  13  37  1   
 32  14  15  1   
 33  14  38  1   
 34  14  39  1   
 35  15  16  1   
 36  16  17  ar  
 37  16  18  ar  
 38  17  19  ar  
 39  18  20  ar  
 40  18  40  1   
 41  19  21  ar  
 42  19  41  1   
 43  20  21  ar  
 44  20  42  1   
 45  21  43  1   
@<TRIPOS>SUBSTRUCTURE
  1 ****  11 GROUP 4 **** **** 0

# MOE 2024.06 (io_trps.svl 2023.06)
