@<TRIPOS>MOLECULE
NONAME
51 53 1 0 0 
SMALL
USER_CHARGES


@<TRIPOS>ATOM
  1 O       -0.6260    -0.2410    -2.0830 O.2   1 <1>  -0.5700 
  2 C       -1.6770    -0.8440    -1.8960 C.2   1 <1>   0.6160 
  3 N       -1.7840    -1.9200    -1.0010 N.am  1 <1>  -0.1150 
  4 C       -2.8470    -0.4620    -2.5980 C.2   1 <1>  -0.1360 
  5 N       -2.9830    -2.5890    -0.7800 N.2   1 <1>  -0.5120 
  6 C       -0.6680    -2.3520    -0.2430 C.ar  1 <1>   0.1170 
  7 C       -4.0090    -1.1230    -2.3690 C.2   1 <1>  -0.1360 
  8 C       -4.0300    -2.1830    -1.4240 C.2   1 <1>   0.5860 
  9 C       -0.7490    -2.4240     1.1440 C.ar  1 <1>  -0.1500 
 10 C        0.5260    -2.7260    -0.8550 C.ar  1 <1>  -0.1500 
 11 O       -5.1950    -2.8230    -1.2050 O.3   1 <1>  -0.2320 
 12 C        0.3280    -2.8500     1.9000 C.ar  1 <1>  -0.1500 
 13 C        1.6060    -3.1520    -0.1030 C.ar  1 <1>  -0.1500 
 14 C       -6.2290    -2.1850    -0.6440 C.ar  1 <1>   0.7030 
 15 C        1.5090    -3.2140     1.2760 C.ar  1 <1>  -0.1500 
 16 N       -6.0310    -0.9990    -0.1300 N.ar  1 <1>  -0.6200 
 17 N       -7.3590    -2.8300    -0.6880 N.ar  1 <1>  -0.6200 
 18 C       -7.1090    -0.4680     0.3830 C.ar  1 <1>   0.7200 
 19 C       -8.3520    -2.1760    -0.1410 C.ar  1 <1>   0.7200 
 20 N       -8.2950    -0.9980     0.4090 N.ar  1 <1>  -0.6200 
 21 N       -7.0150     0.7580     0.9390 N.pl3 1 <1>  -0.8690 
 22 N       -9.5740    -2.7470    -0.1270 N.pl3 1 <1>  -0.8690 
 23 C       -5.7860     1.4130     1.3910 C.3   1 <1>   0.2890 
 24 C       -9.9230    -4.1180    -0.5030 C.3   1 <1>   0.2890 
 25 C       -6.0380     1.9690     2.7860 C.3   1 <1>  -0.2400 
 26 C       -5.4500     2.5210     0.4010 C.3   1 <1>  -0.2400 
 27 C      -11.1750    -4.0600    -1.3680 C.3   1 <1>  -0.2400 
 28 C      -10.1680    -4.9090     0.7760 C.3   1 <1>  -0.2400 
 29 H       -2.7570     0.3520    -3.2920 H     1 <1>   0.1500 
 30 H       -4.9240    -0.8710    -2.8720 H     1 <1>   0.1500 
 31 H       -1.6680    -2.1450     1.6280 H     1 <1>   0.1500 
 32 H        0.6070    -2.6770    -1.9260 H     1 <1>   0.1500 
 33 H        0.2470    -2.8990     2.9720 H     1 <1>   0.1500 
 34 H        2.5230    -3.4340    -0.5910 H     1 <1>   0.1500 
 35 H        2.3480    -3.5450     1.8620 H     1 <1>   0.1500 
 36 H       -7.8800     1.0970     1.3530 H     1 <1>   0.4000 
 37 H      -10.2850    -2.2180     0.3720 H     1 <1>   0.4000 
 38 H       -4.9750     0.7030     1.4300 H     1 <1>   0.0800 
 39 H       -9.1210    -4.5730    -1.0630 H     1 <1>   0.0800 
 40 H       -6.8370     2.6890     2.7710 H     1 <1>   0.0800 
 41 H       -5.1500     2.4510     3.1510 H     1 <1>   0.0800 
 42 H       -6.2880     1.1690     3.4600 H     1 <1>   0.0800 
 43 H       -6.2500     3.2370     0.3470 H     1 <1>   0.0800 
 44 H       -5.2850     2.0990    -0.5730 H     1 <1>   0.0800 
 45 H       -4.5530     3.0270     0.7080 H     1 <1>   0.0800 
 46 H      -11.9920    -3.6180    -0.8290 H     1 <1>   0.0800 
 47 H      -11.4570    -5.0520    -1.6690 H     1 <1>   0.0800 
 48 H      -10.9770    -3.4820    -2.2530 H     1 <1>   0.0800 
 49 H      -10.9660    -4.4720     1.3480 H     1 <1>   0.0800 
 50 H       -9.2710    -4.9240     1.3700 H     1 <1>   0.0800 
 51 H      -10.4300    -5.9230     0.5350 H     1 <1>   0.0800 
@<TRIPOS>BOND
  1   1   2  2   
  2   2   3  am  
  3   2   4  1   
  4   3   5  1   
  5   3   6  1   
  6   4   7  2   
  7   4  29  1   
  8   5   8  2   
  9   6   9  ar  
 10   6  10  ar  
 11   7   8  1   
 12   7  30  1   
 13   8  11  1   
 14   9  12  ar  
 15   9  31  1   
 16  10  13  ar  
 17  10  32  1   
 18  11  14  1   
 19  12  15  ar  
 20  12  33  1   
 21  13  15  ar  
 22  13  34  1   
 23  14  16  ar  
 24  14  17  ar  
 25  15  35  1   
 26  16  18  ar  
 27  17  19  ar  
 28  18  20  ar  
 29  18  21  1   
 30  19  20  ar  
 31  19  22  1   
 32  21  23  1   
 33  21  36  1   
 34  22  24  1   
 35  22  37  1   
 36  23  25  1   
 37  23  26  1   
 38  23  38  1   
 39  24  27  1   
 40  24  28  1   
 41  24  39  1   
 42  25  40  1   
 43  25  41  1   
 44  25  42  1   
 45  26  43  1   
 46  26  44  1   
 47  26  45  1   
 48  27  46  1   
 49  27  47  1   
 50  27  48  1   
 51  28  49  1   
 52  28  50  1   
 53  28  51  1   
@<TRIPOS>SUBSTRUCTURE
  1 ****   8 GROUP 4 **** **** 0

# MOE 2024.06 (io_trps.svl 2023.06)
