@<TRIPOS>MOLECULE
NONAME
41 42 1 0 0 
SMALL
USER_CHARGES


@<TRIPOS>ATOM
  1 O       -0.7750     0.1040    -0.9200 O.2   1 <1>  -0.5700 
  2 C       -0.5390    -1.0540    -1.2180 C.2   1 <1>   0.6900 
  3 N       -1.3600    -1.7200    -2.0790 N.am  1 <1>  -0.4300 
  4 N        0.5370    -1.7230    -0.6960 N.am  1 <1>  -0.5470 
  5 N       -2.6310    -1.2020    -2.6270 N.am  1 <1>  -0.4300 
  6 C        1.5960    -1.2660     0.1020 C.ar  1 <1>   0.1170 
  7 C       -3.8710    -1.3200    -2.0940 C.2   1 <1>   0.6300 
  8 C        2.0310     0.0570     0.0990 C.ar  1 <1>  -0.1500 
  9 C        2.2590    -2.1750     0.9190 C.ar  1 <1>  -0.1500 
 10 O       -4.8270    -0.8320    -2.6560 O.2   1 <1>  -0.5700 
 11 C       -4.0800    -2.0990    -0.8000 C.3   1 <1>  -0.1000 
 12 C        3.0910     0.4580     0.8920 C.ar  1 <1>  -0.1500 
 13 C        3.3200    -1.7780     1.7130 C.ar  1 <1>  -0.1500 
 14 C       -5.0070    -1.5900     0.2640 C.3   1 <1>  -0.1950 
 15 C       -3.5360    -1.5960     0.5150 C.3   1 <1>  -0.2000 
 16 C        3.7370    -0.4590     1.7000 C.ar  1 <1>  -0.1500 
 17 C       -5.9350    -2.5450     1.0200 C.3   1 <1>  -0.0650 
 18 C       -7.2080    -2.8090     0.2090 C.3   1 <1>  -0.1600 
 19 C       -8.1510    -3.7700     0.9430 C.3   1 <1>  -0.1600 
 20 C       -9.4180    -4.0290     0.1230 C.3   1 <1>  -0.2400 
 21 H       -1.0780    -2.6460    -2.4050 H     1 <1>   0.3700 
 22 H        0.5050    -2.7300    -0.8080 H     1 <1>   0.3700 
 23 H       -2.5620    -0.5650    -3.4270 H     1 <1>   0.3700 
 24 H        1.5430     0.7820    -0.5270 H     1 <1>   0.1500 
 25 H        1.9450    -3.2020     0.9410 H     1 <1>   0.1500 
 26 H       -4.0700    -3.1580    -0.9740 H     1 <1>   0.1000 
 27 H        3.4110     1.4860     0.8790 H     1 <1>   0.1500 
 28 H        3.8220    -2.4930     2.3420 H     1 <1>   0.1500 
 29 H       -5.4650    -0.6300     0.0880 H     1 <1>   0.1000 
 30 H       -3.0200    -0.6490     0.5370 H     1 <1>   0.1000 
 31 H       -3.1200    -2.3060     1.2080 H     1 <1>   0.1000 
 32 H        4.5620    -0.1470     2.3180 H     1 <1>   0.1500 
 33 H       -6.1930    -2.1050     1.9680 H     1 <1>   0.0800 
 34 H       -5.4280    -3.4750     1.2100 H     1 <1>   0.0800 
 35 H       -6.9390    -3.2280    -0.7460 H     1 <1>   0.0800 
 36 H       -7.7140    -1.8760     0.0290 H     1 <1>   0.0800 
 37 H       -8.4270    -3.3490     1.8950 H     1 <1>   0.0800 
 38 H       -7.6490    -4.7050     1.1220 H     1 <1>   0.0800 
 39 H       -9.9480    -3.1080    -0.0510 H     1 <1>   0.0800 
 40 H      -10.0680    -4.7030     0.6510 H     1 <1>   0.0800 
 41 H       -9.1680    -4.4680    -0.8270 H     1 <1>   0.0800 
@<TRIPOS>BOND
  1   1   2  2   
  2   2   3  am  
  3   2   4  am  
  4   3   5  1   
  5   3  21  1   
  6   4   6  1   
  7   4  22  1   
  8   5   7  am  
  9   5  23  1   
 10   6   8  ar  
 11   6   9  ar  
 12   7  10  2   
 13   7  11  1   
 14   8  12  ar  
 15   8  24  1   
 16   9  13  ar  
 17   9  25  1   
 18  11  14  1   
 19  11  15  1   
 20  11  26  1   
 21  12  16  ar  
 22  12  27  1   
 23  13  16  ar  
 24  13  28  1   
 25  14  15  1   
 26  14  17  1   
 27  14  29  1   
 28  15  30  1   
 29  15  31  1   
 30  16  32  1   
 31  17  18  1   
 32  17  33  1   
 33  17  34  1   
 34  18  19  1   
 35  18  35  1   
 36  18  36  1   
 37  19  20  1   
 38  19  37  1   
 39  19  38  1   
 40  20  39  1   
 41  20  40  1   
 42  20  41  1   
@<TRIPOS>SUBSTRUCTURE
  1 ****  15 GROUP 4 **** **** 0

# MOE 2024.06 (io_trps.svl 2023.06)
