@<TRIPOS>MOLECULE
NONAME
39 39 1 0 0 
SMALL
USER_CHARGES


@<TRIPOS>ATOM
  1 O       -0.7040    -2.9050     2.7470 O.2   1 <1>  -0.5700 
  2 C       -0.0680    -2.4840     1.8100 C.2   1 <1>   0.5690 
  3 N       -0.6230    -1.6710     0.8720 N.am  1 <1>  -0.7300 
  4 C        1.3990    -2.8790     1.6860 C.3   1 <1>   0.1810 
  5 C       -2.0290    -1.2280     0.8300 C.3   1 <1>   0.1400 
  6 O        1.9850    -2.3370     0.5080 O.3   1 <1>  -0.3620 
  7 C       -2.5570    -1.3790    -0.5940 C.3   1 <1>  -0.1600 
  8 C        3.2800    -2.5850     0.1780 C.ar  1 <1>   0.0820 
  9 C       -4.0250    -0.9690    -0.6730 C.3   1 <1>   0.1200 
 10 C        3.7480    -2.0710    -1.0280 C.ar  1 <1>  -0.1430 
 11 C        4.1390    -3.3230     0.9900 C.ar  1 <1>  -0.1500 
 12 O       -4.4210    -1.0800    -1.9990 O.3   1 <1>  -0.5600 
 13 C        5.0610    -2.2990    -1.4060 C.ar  1 <1>  -0.1500 
 14 C        2.8320    -1.2620    -1.9350 C.3   1 <1>  -0.0970 
 15 C        5.4480    -3.5430     0.5990 C.ar  1 <1>  -0.1500 
 16 C       -5.7560    -0.7580    -2.2190 C.3   1 <1>   0.0400 
 17 C        5.9150    -3.0340    -0.6000 C.ar  1 <1>  -0.1440 
 18 C        7.3520    -3.2730    -1.0300 C.3   1 <1>  -0.0970 
 19 H       -0.0170    -1.3570     0.1080 H     1 <1>   0.3700 
 20 H        1.4740    -3.9490     1.6420 H     1 <1>   0.0800 
 21 H        1.9370    -2.5040     2.5370 H     1 <1>   0.0800 
 22 H       -2.0840    -0.1990     1.1420 H     1 <1>   0.0800 
 23 H       -2.6170    -1.8240     1.5090 H     1 <1>   0.0800 
 24 H       -2.4670    -2.4070    -0.9000 H     1 <1>   0.0800 
 25 H       -1.9840    -0.7560    -1.2570 H     1 <1>   0.0800 
 26 H       -4.1540     0.0530    -0.3600 H     1 <1>   0.0800 
 27 H       -4.6350    -1.6220    -0.0720 H     1 <1>   0.0800 
 28 H        3.8160    -3.7330     1.9260 H     1 <1>   0.1500 
 29 H        5.4260    -1.9020    -2.3360 H     1 <1>   0.1500 
 30 H        2.4860    -0.3860    -1.4150 H     1 <1>   0.0800 
 31 H        1.9820    -1.8570    -2.2180 H     1 <1>   0.0800 
 32 H        3.3440    -0.9510    -2.8270 H     1 <1>   0.0800 
 33 H        6.1030    -4.1120     1.2350 H     1 <1>   0.1500 
 34 H       -5.9580    -0.8740    -3.2690 H     1 <1>   0.0800 
 35 H       -5.9290     0.2630    -1.9270 H     1 <1>   0.0800 
 36 H       -6.3810    -1.4280    -1.6530 H     1 <1>   0.0800 
 37 H        7.4090    -3.3810    -2.0980 H     1 <1>   0.0800 
 38 H        7.7390    -4.1680    -0.5780 H     1 <1>   0.0800 
 39 H        7.9630    -2.4400    -0.7310 H     1 <1>   0.0800 
@<TRIPOS>BOND
  1   1   2  2   
  2   2   3  am  
  3   2   4  1   
  4   3   5  1   
  5   3  19  1   
  6   4   6  1   
  7   4  20  1   
  8   4  21  1   
  9   5   7  1   
 10   5  22  1   
 11   5  23  1   
 12   6   8  1   
 13   7   9  1   
 14   7  24  1   
 15   7  25  1   
 16   8  10  ar  
 17   8  11  ar  
 18   9  12  1   
 19   9  26  1   
 20   9  27  1   
 21  10  13  ar  
 22  10  14  1   
 23  11  15  ar  
 24  11  28  1   
 25  12  16  1   
 26  13  17  ar  
 27  13  29  1   
 28  14  30  1   
 29  14  31  1   
 30  14  32  1   
 31  15  17  ar  
 32  15  33  1   
 33  16  34  1   
 34  16  35  1   
 35  16  36  1   
 36  17  18  1   
 37  18  37  1   
 38  18  38  1   
 39  18  39  1   
@<TRIPOS>SUBSTRUCTURE
  1 ****   6 GROUP 4 **** **** 0

# MOE 2024.06 (io_trps.svl 2023.06)
