@<TRIPOS>MOLECULE
NONAME
43 44 1 0 0 
SMALL
USER_CHARGES


@<TRIPOS>ATOM
  1 F       -4.8000     2.6100    -2.9570 F     1 <1>  -0.1900 
  2 C       -4.6200     2.2310    -1.7220 C.ar  1 <1>   0.1900 
  3 C       -4.8460     0.9070    -1.3980 C.ar  1 <1>  -0.1500 
  4 C       -4.2180     3.1640    -0.7870 C.ar  1 <1>  -0.1500 
  5 C       -4.6730     0.4990    -0.0810 C.ar  1 <1>  -0.1440 
  6 C       -4.0360     2.7500     0.5210 C.ar  1 <1>  -0.1500 
  7 C       -4.2610     1.4270     0.8700 C.ar  1 <1>  -0.1500 
  8 C       -4.9420    -0.9400     0.3190 C.3   1 <1>   0.4870 
  9 N       -6.4030    -1.1750     0.2440 N.4   1 <1>  -0.9060 
 10 C       -7.2010    -0.3070     1.1360 C.3   1 <1>   0.4860 
 11 C       -8.6370    -0.4780     0.7040 C.ar  1 <1>  -0.1430 
 12 C       -9.2070     0.4080    -0.1980 C.ar  1 <1>  -0.1500 
 13 C       -9.3870    -1.5360     1.1900 C.ar  1 <1>  -0.1500 
 14 C      -10.5240     0.2380    -0.6170 C.ar  1 <1>   0.0830 
 15 C      -10.6930    -1.7350     0.7780 C.ar  1 <1>   0.0830 
 16 O      -11.1150     1.0840    -1.5100 O.3   1 <1>  -0.3630 
 17 C      -11.2770    -0.8310    -0.1220 C.ar  1 <1>   0.0830 
 18 O      -11.2910    -2.8340     1.3160 O.3   1 <1>  -0.3630 
 19 C      -10.4610     2.2180    -2.0370 C.3   1 <1>   0.0400 
 20 O      -12.5680    -0.9760    -0.5250 O.3   1 <1>  -0.3630 
 21 C      -12.3220    -3.5220     0.6390 C.3   1 <1>   0.0400 
 22 C      -13.5040    -0.1220     0.0940 C.3   1 <1>   0.0400 
 23 H       -5.1450     0.2300    -2.1790 H     1 <1>   0.1500 
 24 H       -4.0490     4.1860    -1.0800 H     1 <1>   0.1500 
 25 H       -3.7140     3.4620     1.2650 H     1 <1>   0.1500 
 26 H       -4.1040     1.1360     1.8970 H     1 <1>   0.1500 
 27 H       -4.5830    -1.1190     1.3200 H     1 <1>   0.0800 
 28 H       -4.4230    -1.6030    -0.3540 H     1 <1>   0.0800 
 29 H       -6.6400    -2.1550     0.4360 H     1 <1>   0.4500 
 30 H       -6.7250    -0.9830    -0.7100 H     1 <1>   0.4500 
 31 H       -6.9120     0.7260     1.0250 H     1 <1>   0.0800 
 32 H       -7.0800    -0.5970     2.1670 H     1 <1>   0.0800 
 33 H       -8.6240     1.2300    -0.5700 H     1 <1>   0.1500 
 34 H       -8.9780    -2.2350     1.8980 H     1 <1>   0.1500 
 35 H      -11.1480     2.7210    -2.6940 H     1 <1>   0.0800 
 36 H       -9.5970     1.8990    -2.5930 H     1 <1>   0.0800 
 37 H      -10.1860     2.8730    -1.2290 H     1 <1>   0.0800 
 38 H      -12.4070    -4.5050     1.0650 H     1 <1>   0.0800 
 39 H      -12.0740    -3.5930    -0.4060 H     1 <1>   0.0800 
 40 H      -13.2450    -2.9880     0.7740 H     1 <1>   0.0800 
 41 H      -14.4820    -0.3700    -0.2760 H     1 <1>   0.0800 
 42 H      -13.2680     0.8980    -0.1500 H     1 <1>   0.0800 
 43 H      -13.4610    -0.2730     1.1590 H     1 <1>   0.0800 
@<TRIPOS>BOND
  1   1   2  1   
  2   2   3  ar  
  3   2   4  ar  
  4   3   5  ar  
  5   3  23  1   
  6   4   6  ar  
  7   4  24  1   
  8   5   7  ar  
  9   5   8  1   
 10   6   7  ar  
 11   6  25  1   
 12   7  26  1   
 13   8   9  1   
 14   8  27  1   
 15   8  28  1   
 16   9  10  1   
 17   9  29  1   
 18   9  30  1   
 19  10  11  1   
 20  10  31  1   
 21  10  32  1   
 22  11  12  ar  
 23  11  13  ar  
 24  12  14  ar  
 25  12  33  1   
 26  13  15  ar  
 27  13  34  1   
 28  14  16  1   
 29  14  17  ar  
 30  15  17  ar  
 31  15  18  1   
 32  16  19  1   
 33  17  20  1   
 34  18  21  1   
 35  19  35  1   
 36  19  36  1   
 37  19  37  1   
 38  20  22  1   
 39  21  38  1   
 40  21  39  1   
 41  21  40  1   
 42  22  41  1   
 43  22  42  1   
 44  22  43  1   
@<TRIPOS>SUBSTRUCTURE
  1 ****  12 GROUP 4 **** **** 0

# MOE 2024.06 (io_trps.svl 2023.06)
