@<TRIPOS>MOLECULE
NONAME
45 46 1 0 0 
SMALL
USER_CHARGES


@<TRIPOS>ATOM
  1 O       -1.3110     1.7580    -0.6320 O.2   1 <1>  -0.5700 
  2 C       -1.5030     2.9100    -0.3340 C.2   1 <1>   0.5690 
  3 N       -2.7260     3.4460    -0.0630 N.am  1 <1>  -0.5470 
  4 C       -0.3030     3.8270    -0.2550 C.3   1 <1>  -0.0990 
  5 C       -4.0270     2.9110    -0.0300 C.ar  1 <1>   0.1170 
  6 C        0.9740     2.9860    -0.1860 C.3   1 <1>   0.3430 
  7 C       -5.0720     3.7740     0.3190 C.ar  1 <1>   0.0820 
  8 C       -4.3230     1.5840    -0.3230 C.ar  1 <1>  -0.1500 
  9 N        2.1950     3.8420    -0.0990 N.4   1 <1>  -0.9590 
 10 O       -4.7390     5.0720     0.5990 O.3   1 <1>  -0.3630 
 11 C       -6.3810     3.3020     0.3690 C.ar  1 <1>  -0.1500 
 12 C       -5.6250     1.1200    -0.2720 C.ar  1 <1>  -0.1500 
 13 C        2.5100     4.5060    -1.3920 C.3   1 <1>   0.3430 
 14 C        3.3590     3.0280     0.3450 C.3   1 <1>   0.3430 
 15 C       -5.7250     6.0150     0.9620 C.3   1 <1>   0.0400 
 16 C       -6.6540     1.9770     0.0740 C.ar  1 <1>  -0.1500 
 17 C        2.9310     5.9560    -1.1530 C.3   1 <1>  -0.1600 
 18 C        4.4100     3.9010     1.0360 C.3   1 <1>  -0.1600 
 19 C        3.8910     6.2030     0.0260 C.3   1 <1>  -0.1600 
 20 C        4.9410     5.0990     0.2270 C.3   1 <1>  -0.1600 
 21 H       -2.7550     4.4410     0.1690 H     1 <1>   0.3700 
 22 H       -0.3880     4.4350     0.6260 H     1 <1>   0.0800 
 23 H       -0.3050     4.4490    -1.1290 H     1 <1>   0.0800 
 24 H        1.0310     2.3460    -1.0520 H     1 <1>   0.0800 
 25 H        0.9120     2.3500     0.6830 H     1 <1>   0.0800 
 26 H       -3.5450     0.8970    -0.5960 H     1 <1>   0.1500 
 27 H        2.0520     4.5770     0.6060 H     1 <1>   0.4500 
 28 H       -7.2010     3.9410     0.6330 H     1 <1>   0.1500 
 29 H       -5.8360     0.0900    -0.5020 H     1 <1>   0.1500 
 30 H        1.6540     4.4910    -2.0470 H     1 <1>   0.0800 
 31 H        3.3100     3.9780    -1.8850 H     1 <1>   0.0800 
 32 H        3.7990     2.5250    -0.5010 H     1 <1>   0.0800 
 33 H        3.0310     2.2750     1.0440 H     1 <1>   0.0800 
 34 H       -5.2400     6.9590     1.1350 H     1 <1>   0.0800 
 35 H       -6.2100     5.6840     1.8640 H     1 <1>   0.0800 
 36 H       -6.4310     6.1110     0.1570 H     1 <1>   0.0800 
 37 H       -7.6660     1.6130     0.1130 H     1 <1>   0.1500 
 38 H        2.0520     6.5640    -1.0230 H     1 <1>   0.0800 
 39 H        3.4060     6.3000    -2.0560 H     1 <1>   0.0800 
 40 H        5.2470     3.2650     1.2720 H     1 <1>   0.0800 
 41 H        4.0190     4.2450     1.9780 H     1 <1>   0.0800 
 42 H        3.3330     6.3390     0.9370 H     1 <1>   0.0800 
 43 H        4.4030     7.1330    -0.1570 H     1 <1>   0.0800 
 44 H        5.3430     4.7780    -0.7190 H     1 <1>   0.0800 
 45 H        5.7600     5.5260     0.7830 H     1 <1>   0.0800 
@<TRIPOS>BOND
  1   1   2  2   
  2   2   3  am  
  3   2   4  1   
  4   3   5  1   
  5   3  21  1   
  6   4   6  1   
  7   4  22  1   
  8   4  23  1   
  9   5   7  ar  
 10   5   8  ar  
 11   6   9  1   
 12   6  24  1   
 13   6  25  1   
 14   7  10  1   
 15   7  11  ar  
 16   8  12  ar  
 17   8  26  1   
 18   9  13  1   
 19   9  14  1   
 20   9  27  1   
 21  10  15  1   
 22  11  16  ar  
 23  11  28  1   
 24  12  16  ar  
 25  12  29  1   
 26  13  17  1   
 27  13  30  1   
 28  13  31  1   
 29  14  18  1   
 30  14  32  1   
 31  14  33  1   
 32  15  34  1   
 33  15  35  1   
 34  15  36  1   
 35  16  37  1   
 36  17  19  1   
 37  17  38  1   
 38  17  39  1   
 39  18  20  1   
 40  18  40  1   
 41  18  41  1   
 42  19  20  1   
 43  19  42  1   
 44  19  43  1   
 45  20  44  1   
 46  20  45  1   
@<TRIPOS>SUBSTRUCTURE
  1 ****   2 GROUP 4 **** **** 0

# MOE 2024.06 (io_trps.svl 2023.06)
