@<TRIPOS>MOLECULE
NONAME
39 41 1 0 0 
SMALL
USER_CHARGES


@<TRIPOS>ATOM
  1 O        0.4350     0.8330     1.3590 O.2   1 <1>  -0.5700 
  2 C        0.6910     1.6500     0.5070 C.2   1 <1>   0.5690 
  3 N       -0.2490     2.4540    -0.0800 N.am  1 <1>  -0.5470 
  4 C        2.1430     1.8200     0.0550 C.3   1 <1>  -0.0190 
  5 C       -1.6410     2.5380     0.0870 C.ar  1 <1>   0.1170 
  6 C        2.7150     0.5060    -0.5130 C.3   1 <1>  -0.1600 
  7 C        3.0280     2.3440     1.2020 C.3   1 <1>  -0.1600 
  8 C       -2.2880     3.6920    -0.3470 C.ar  1 <1>  -0.1500 
  9 C       -2.4070     1.5150     0.6490 C.ar  1 <1>  -0.1500 
 10 C        4.1750     0.6720    -0.9590 C.3   1 <1>  -0.1600 
 11 C        4.4880     2.5100     0.7570 C.3   1 <1>  -0.1600 
 12 C       -3.6580     3.8080    -0.2140 C.ar  1 <1>  -0.1430 
 13 C       -3.7800     1.6380     0.7810 C.ar  1 <1>  -0.1500 
 14 C        5.0470     1.2000     0.1880 C.3   1 <1>  -0.1600 
 15 C       -4.3950     2.7950     0.3430 C.ar  1 <1>  -0.1430 
 16 C       -4.5370     4.9670    -0.6150 C.3   1 <1>  -0.0170 
 17 C       -5.8620     3.1410     0.3880 C.3   1 <1>  -0.0170 
 18 C       -5.9600     4.3920    -0.5030 C.3   1 <1>  -0.1600 
 19 H        0.1270     3.1370    -0.7320 H     1 <1>   0.3700 
 20 H        2.1650     2.5500    -0.7340 H     1 <1>   0.0800 
 21 H        2.1170     0.1820    -1.3470 H     1 <1>   0.0800 
 22 H        2.6610    -0.2600     0.2440 H     1 <1>   0.0800 
 23 H        2.9860     1.6500     2.0260 H     1 <1>   0.0800 
 24 H        2.6480     3.2880     1.5520 H     1 <1>   0.0800 
 25 H       -1.7270     4.4960    -0.7830 H     1 <1>   0.1500 
 26 H       -1.9340     0.6120     0.9850 H     1 <1>   0.1500 
 27 H        4.2210     1.3580    -1.7880 H     1 <1>   0.0800 
 28 H        4.5580    -0.2760    -1.2940 H     1 <1>   0.0800 
 29 H        5.0870     2.8200     1.5970 H     1 <1>   0.0800 
 30 H        4.5500     3.2800     0.0080 H     1 <1>   0.0800 
 31 H       -4.3570     0.8430     1.2190 H     1 <1>   0.1500 
 32 H        6.0510     1.3590    -0.1660 H     1 <1>   0.0800 
 33 H        5.0870     0.4620     0.9710 H     1 <1>   0.0800 
 34 H       -4.3230     5.3000    -1.6150 H     1 <1>   0.0800 
 35 H       -4.3990     5.7770     0.0800 H     1 <1>   0.0800 
 36 H       -6.1440     3.3720     1.4010 H     1 <1>   0.0800 
 37 H       -6.4700     2.3380     0.0120 H     1 <1>   0.0800 
 38 H       -6.2890     4.0920    -1.4830 H     1 <1>   0.0800 
 39 H       -6.6530     5.1130    -0.1060 H     1 <1>   0.0800 
@<TRIPOS>BOND
  1   1   2  2   
  2   2   3  am  
  3   2   4  1   
  4   3   5  1   
  5   3  19  1   
  6   4   6  1   
  7   4   7  1   
  8   4  20  1   
  9   5   8  ar  
 10   5   9  ar  
 11   6  10  1   
 12   6  21  1   
 13   6  22  1   
 14   7  11  1   
 15   7  23  1   
 16   7  24  1   
 17   8  12  ar  
 18   8  25  1   
 19   9  13  ar  
 20   9  26  1   
 21  10  14  1   
 22  10  27  1   
 23  10  28  1   
 24  11  14  1   
 25  11  29  1   
 26  11  30  1   
 27  12  15  ar  
 28  12  16  1   
 29  13  15  ar  
 30  13  31  1   
 31  14  32  1   
 32  14  33  1   
 33  15  17  1   
 34  16  18  1   
 35  16  34  1   
 36  16  35  1   
 37  17  18  1   
 38  17  36  1   
 39  17  37  1   
 40  18  38  1   
 41  18  39  1   
@<TRIPOS>SUBSTRUCTURE
  1 ****   3 GROUP 4 **** **** 0

# MOE 2024.06 (io_trps.svl 2023.06)
