@<TRIPOS>MOLECULE
NONAME
35 36 1 0 0 
SMALL
USER_CHARGES


@<TRIPOS>ATOM
  1 O       -0.9030     0.9150    -1.2470 O.2   1 <1>  -0.5700 
  2 C       -0.6060     2.0320    -0.8810 C.2   1 <1>   0.6300 
  3 N        0.6660     2.4830    -0.9910 N.am  1 <1>  -0.4300 
  4 C       -1.6860     2.9230    -0.2850 C.3   1 <1>  -0.1000 
  5 N        1.1710     3.7950    -0.5610 N.am  1 <1>  -0.4300 
  6 C       -2.9520     3.1660    -1.0530 C.3   1 <1>  -0.0680 
  7 C       -1.9970     4.2940    -0.8150 C.3   1 <1>  -0.2000 
  8 C        1.6260     4.1120     0.6800 C.2   1 <1>   0.5690 
  9 C       -4.2800     3.0810    -0.3220 C.ar  1 <1>  -0.0320 
 10 O        1.8040     3.2650     1.5310 O.2   1 <1>  -0.5700 
 11 C        1.9230     5.5590     1.0640 C.3   1 <1>  -0.0990 
 12 C       -5.1000     4.1910    -0.2090 C.ar  1 <1>  -0.1500 
 13 C       -4.6820     1.8770     0.2320 C.ar  1 <1>  -0.1500 
 14 C        2.2660     6.5350    -0.0840 C.3   1 <1>  -0.2660 
 15 C       -6.3120     4.1000     0.4550 C.ar  1 <1>  -0.1500 
 16 C       -5.8930     1.7810     0.8960 C.ar  1 <1>  -0.1500 
 17 C        1.0770     6.8270    -0.9610 C.2   1 <1>   0.9060 
 18 C       -6.7090     2.8940     1.0080 C.ar  1 <1>  -0.1500 
 19 O        0.2800     7.6970    -0.6160 O.co2 1 <1>  -0.9000 
 20 O        0.9140     6.1190    -1.9580 O.co2 1 <1>  -0.9000 
 21 H        1.3530     1.8260    -1.3640 H     1 <1>   0.3700 
 22 H       -1.7600     2.7890     0.7780 H     1 <1>   0.1000 
 23 H        1.0330     4.5820    -1.2370 H     1 <1>   0.3700 
 24 H       -3.0080     2.7740    -2.0540 H     1 <1>   0.1000 
 25 H       -1.4220     4.6750    -1.6430 H     1 <1>   0.1000 
 26 H       -2.2370     5.0660    -0.1050 H     1 <1>   0.1000 
 27 H        2.7460     5.5470     1.7540 H     1 <1>   0.0800 
 28 H        1.0670     5.9380     1.5940 H     1 <1>   0.0800 
 29 H       -4.7900     5.1270    -0.6390 H     1 <1>   0.1500 
 30 H       -4.0460     1.0130     0.1420 H     1 <1>   0.1500 
 31 H        3.0570     6.1380    -0.6920 H     1 <1>   0.0800 
 32 H        2.5940     7.4710     0.3280 H     1 <1>   0.0800 
 33 H       -6.9430     4.9670     0.5400 H     1 <1>   0.1500 
 34 H       -6.1990     0.8430     1.3240 H     1 <1>   0.1500 
 35 H       -7.6500     2.8220     1.5240 H     1 <1>   0.1500 
@<TRIPOS>BOND
  1   1   2  2   
  2   2   3  am  
  3   2   4  1   
  4   3   5  1   
  5   3  21  1   
  6   4   6  1   
  7   4   7  1   
  8   4  22  1   
  9   5   8  am  
 10   5  23  1   
 11   6   7  1   
 12   6   9  1   
 13   6  24  1   
 14   7  25  1   
 15   7  26  1   
 16   8  10  2   
 17   8  11  1   
 18   9  12  ar  
 19   9  13  ar  
 20  11  14  1   
 21  11  27  1   
 22  11  28  1   
 23  12  15  ar  
 24  12  29  1   
 25  13  16  ar  
 26  13  30  1   
 27  14  17  1   
 28  14  31  1   
 29  14  32  1   
 30  15  18  ar  
 31  15  33  1   
 32  16  18  ar  
 33  16  34  1   
 34  17  19  ar  
 35  17  20  ar  
 36  18  35  1   
@<TRIPOS>SUBSTRUCTURE
  1 ****   7 GROUP 4 **** **** 0

# MOE 2024.06 (io_trps.svl 2023.06)
