@<TRIPOS>MOLECULE
NONAME
25 27 1 0 0 
SMALL
USER_CHARGES


@<TRIPOS>ATOM
  1 O       -0.8390    -0.6310    -1.3990 O.2   1 <1>  -0.5700 
  2 C       -1.7800    -1.1530    -0.8800 C.2   1 <1>   0.4480 
  3 C       -3.2090    -0.6470    -1.0260 C.3   1 <1>  -0.0190 
  4 C       -1.6760    -2.3950    -0.0040 C.3   1 <1>  -0.0190 
  5 C       -3.7530    -0.3140     0.3790 C.3   1 <1>  -0.1600 
  6 C       -4.0620    -1.7710    -1.6490 C.3   1 <1>  -0.1600 
  7 C       -2.5390    -3.5080    -0.6340 C.3   1 <1>  -0.1600 
  8 C       -2.2300    -2.0510     1.3940 C.3   1 <1>  -0.1600 
  9 C       -3.6910    -1.5680     1.2780 C.3   1 <1>  -0.0800 
 10 C       -4.0020    -3.0320    -0.7610 C.3   1 <1>  -0.0800 
 11 C       -4.5410    -2.6850     0.6410 C.3   1 <1>  -0.1600 
 12 H       -3.2220     0.2280    -1.6520 H     1 <1>   0.0800 
 13 H       -0.6490    -2.7070     0.0630 H     1 <1>   0.0800 
 14 H       -4.7680     0.0360     0.3050 H     1 <1>   0.0800 
 15 H       -3.1650     0.4760     0.8140 H     1 <1>   0.0800 
 16 H       -3.6910    -2.0010    -2.6330 H     1 <1>   0.0800 
 17 H       -5.0820    -1.4420    -1.7520 H     1 <1>   0.0800 
 18 H       -2.4930    -4.3950    -0.0260 H     1 <1>   0.0800 
 19 H       -2.1520    -3.7570    -1.6070 H     1 <1>   0.0800 
 20 H       -1.6250    -1.2800     1.8410 H     1 <1>   0.0800 
 21 H       -2.1790    -2.9170     2.0310 H     1 <1>   0.0800 
 22 H       -4.0750    -1.3320     2.2560 H     1 <1>   0.0800 
 23 H       -4.6020    -3.8130    -1.1970 H     1 <1>   0.0800 
 24 H       -5.5660    -2.3650     0.5680 H     1 <1>   0.0800 
 25 H       -4.5190    -3.5600     1.2670 H     1 <1>   0.0800 
@<TRIPOS>BOND
  1   1   2  2   
  2   2   3  1   
  3   2   4  1   
  4   3   5  1   
  5   3   6  1   
  6   3  12  1   
  7   4   7  1   
  8   4   8  1   
  9   4  13  1   
 10   5   9  1   
 11   5  14  1   
 12   5  15  1   
 13   6  10  1   
 14   6  16  1   
 15   6  17  1   
 16   7  10  1   
 17   7  18  1   
 18   7  19  1   
 19   8   9  1   
 20   8  20  1   
 21   8  21  1   
 22   9  11  1   
 23   9  22  1   
 24  10  11  1   
 25  10  23  1   
 26  11  24  1   
 27  11  25  1   
@<TRIPOS>SUBSTRUCTURE
  1 ****   3 GROUP 4 **** **** 0

# MOE 2024.06 (io_trps.svl 2023.06)
