@<TRIPOS>MOLECULE
NONAME
42 45 1 0 0 
SMALL
USER_CHARGES


@<TRIPOS>ATOM
  1 O        0.2050     0.6840     0.5300 O.2   1 <1>  -0.5700 
  2 C        0.4730     1.5650    -0.2550 C.2   1 <1>   0.6900 
  3 N       -0.4410     2.4470    -0.7430 N.am  1 <1>  -0.5470 
  4 N        1.7420     1.6810    -0.6620 N.am  1 <1>  -0.8000 
  5 C       -1.8340     2.5150    -0.5890 C.ar  1 <1>   0.1170 
  6 C       -2.4770     3.7220    -0.8250 C.ar  1 <1>  -0.1500 
  7 C       -2.6150     1.4260    -0.2270 C.ar  1 <1>  -0.1500 
  8 C       -3.8490     3.8360    -0.7000 C.ar  1 <1>  -0.1500 
  9 C       -3.9880     1.5400    -0.1010 C.ar  1 <1>  -0.1500 
 10 C       -4.6370     2.7490    -0.3350 C.ar  1 <1>  -0.1430 
 11 C       -6.1680     2.9250    -0.2050 C.3   1 <1>   0.1440 
 12 C       -6.7630     3.3820    -1.5590 C.3   1 <1>  -0.1600 
 13 C       -6.4860     3.9970     0.8660 C.3   1 <1>  -0.1600 
 14 C       -6.8980     1.6210     0.2090 C.3   1 <1>  -0.1600 
 15 C       -8.2820     3.6160    -1.4490 C.3   1 <1>  -0.0800 
 16 C       -8.0040     4.2330     0.9840 C.3   1 <1>  -0.0800 
 17 C       -8.4180     1.8370     0.3280 C.3   1 <1>  -0.0800 
 18 C       -8.5520     4.6930    -0.3810 C.3   1 <1>  -0.1600 
 19 C       -8.9680     2.3040    -1.0310 C.3   1 <1>  -0.1600 
 20 C       -8.6920     2.9170     1.3890 C.3   1 <1>  -0.1600 
 21 H       -0.0240     3.2420    -1.2130 H     1 <1>   0.3700 
 22 H        2.4000     0.9780    -0.3270 H     1 <1>   0.3700 
 23 H        2.0180     2.1960    -1.4930 H     1 <1>   0.3700 
 24 H       -1.9030     4.5850    -1.1070 H     1 <1>   0.1500 
 25 H       -2.1530     0.4740    -0.0420 H     1 <1>   0.1500 
 26 H       -4.3010     4.7920    -0.8920 H     1 <1>   0.1500 
 27 H       -4.5280     0.6570     0.1850 H     1 <1>   0.1500 
 28 H       -6.2960     4.2940    -1.8830 H     1 <1>   0.0800 
 29 H       -6.5620     2.6360    -2.3060 H     1 <1>   0.0800 
 30 H       -6.0110     4.9270     0.6160 H     1 <1>   0.0800 
 31 H       -6.0910     3.6800     1.8150 H     1 <1>   0.0800 
 32 H       -6.5200     1.2790     1.1570 H     1 <1>   0.0800 
 33 H       -6.7120     0.8530    -0.5210 H     1 <1>   0.0800 
 34 H       -8.6690     3.9420    -2.4000 H     1 <1>   0.0800 
 35 H       -8.1980     4.9880     1.7270 H     1 <1>   0.0800 
 36 H       -8.8960     0.9160     0.6160 H     1 <1>   0.0800 
 37 H       -9.6100     4.8720    -0.3050 H     1 <1>   0.0800 
 38 H       -8.0840     5.6180    -0.6680 H     1 <1>   0.0800 
 39 H       -8.7930     1.5480    -1.7760 H     1 <1>   0.0800 
 40 H      -10.0320     2.4550    -0.9620 H     1 <1>   0.0800 
 41 H       -8.3220     2.5920     2.3450 H     1 <1>   0.0800 
 42 H       -9.7520     3.0750     1.4850 H     1 <1>   0.0800 
@<TRIPOS>BOND
  1   1   2  2   
  2   2   3  am  
  3   2   4  am  
  4   3   5  1   
  5   3  21  1   
  6   4  22  1   
  7   4  23  1   
  8   5   6  ar  
  9   5   7  ar  
 10   6   8  ar  
 11   6  24  1   
 12   7   9  ar  
 13   7  25  1   
 14   8  10  ar  
 15   8  26  1   
 16   9  10  ar  
 17   9  27  1   
 18  10  11  1   
 19  11  12  1   
 20  11  13  1   
 21  11  14  1   
 22  12  15  1   
 23  12  28  1   
 24  12  29  1   
 25  13  16  1   
 26  13  30  1   
 27  13  31  1   
 28  14  17  1   
 29  14  32  1   
 30  14  33  1   
 31  15  18  1   
 32  15  19  1   
 33  15  34  1   
 34  16  18  1   
 35  16  20  1   
 36  16  35  1   
 37  17  19  1   
 38  17  20  1   
 39  17  36  1   
 40  18  37  1   
 41  18  38  1   
 42  19  39  1   
 43  19  40  1   
 44  20  41  1   
 45  20  42  1   
@<TRIPOS>SUBSTRUCTURE
  1 ****  10 GROUP 4 **** **** 0

# MOE 2024.06 (io_trps.svl 2023.06)
