@<TRIPOS>MOLECULE
NONAME
36 37 1 0 0 
SMALL
USER_CHARGES


@<TRIPOS>ATOM
  1 F       -0.5880    -0.5450     0.8130 F     1 <1>  -0.3400 
  2 C        0.0900    -1.4270     0.0870 C.3   1 <1>   1.1640 
  3 F       -0.2590    -1.2130    -1.1750 F     1 <1>  -0.3400 
  4 F       -0.3950    -2.6190     0.4130 F     1 <1>  -0.3400 
  5 C        1.6110    -1.3240     0.2900 C.ar  1 <1>  -0.1440 
  6 C        2.4300    -2.4190     0.0260 C.ar  1 <1>  -0.1500 
  7 C        2.1980    -0.1430     0.7350 C.ar  1 <1>  -0.1500 
  8 C        3.8090    -2.3550     0.1940 C.ar  1 <1>   0.1170 
  9 C        3.5680    -0.0600     0.9080 C.ar  1 <1>  -0.1500 
 10 N        4.6610    -3.4500    -0.0250 N.am  1 <1>  -0.5470 
 11 C        4.3680    -1.1510     0.6270 C.ar  1 <1>   0.0830 
 12 C        4.5140    -4.6110    -0.7240 C.2   1 <1>   0.6300 
 13 O        5.7100    -1.0430     0.7950 O.3   1 <1>  -0.3630 
 14 O        3.5190    -4.9060    -1.3380 O.2   1 <1>  -0.5700 
 15 C        5.6980    -5.5660    -0.7420 C.3   1 <1>  -0.1000 
 16 C        6.4740    -0.7740    -0.3600 C.3   1 <1>   0.2000 
 17 C        5.6570    -6.8380     0.0530 C.3   1 <1>  -0.2000 
 18 C        6.6060    -5.7490     0.4430 C.3   1 <1>  -0.2000 
 19 C        7.8160    -1.4850    -0.1970 C.3   1 <1>  -0.2400 
 20 C        6.6530     0.7390    -0.4850 C.3   1 <1>  -0.2400 
 21 H        1.9870    -3.3400    -0.3110 H     1 <1>   0.1500 
 22 H        1.5940     0.7240     0.9510 H     1 <1>   0.1500 
 23 H        4.0200     0.8510     1.2590 H     1 <1>   0.1500 
 24 H        5.5820    -3.3180     0.3930 H     1 <1>   0.3700 
 25 H        6.1310    -5.6260    -1.7240 H     1 <1>   0.1000 
 26 H        5.9560    -1.1630    -1.2230 H     1 <1>   0.0800 
 27 H        6.0440    -7.7360    -0.3980 H     1 <1>   0.1000 
 28 H        4.7930    -7.0260     0.6670 H     1 <1>   0.1000 
 29 H        6.4110    -5.2310     1.3670 H     1 <1>   0.1000 
 30 H        7.6580    -5.9010     0.2720 H     1 <1>   0.1000 
 31 H        8.3250    -1.1260     0.6800 H     1 <1>   0.0800 
 32 H        8.4370    -1.2960    -1.0540 H     1 <1>   0.0800 
 33 H        7.6680    -2.5460    -0.1150 H     1 <1>   0.0800 
 34 H        7.1150     1.1360     0.4010 H     1 <1>   0.0800 
 35 H        5.7020     1.2140    -0.6370 H     1 <1>   0.0800 
 36 H        7.2780     0.9650    -1.3290 H     1 <1>   0.0800 
@<TRIPOS>BOND
  1   1   2  1   
  2   2   3  1   
  3   2   4  1   
  4   2   5  1   
  5   5   6  ar  
  6   5   7  ar  
  7   6   8  ar  
  8   6  21  1   
  9   7   9  ar  
 10   7  22  1   
 11   8  10  1   
 12   8  11  ar  
 13   9  11  ar  
 14   9  23  1   
 15  10  12  am  
 16  10  24  1   
 17  11  13  1   
 18  12  14  2   
 19  12  15  1   
 20  13  16  1   
 21  15  17  1   
 22  15  18  1   
 23  15  25  1   
 24  16  19  1   
 25  16  20  1   
 26  16  26  1   
 27  17  18  1   
 28  17  27  1   
 29  17  28  1   
 30  18  29  1   
 31  18  30  1   
 32  19  31  1   
 33  19  32  1   
 34  19  33  1   
 35  20  34  1   
 36  20  35  1   
 37  20  36  1   
@<TRIPOS>SUBSTRUCTURE
  1 ****   8 GROUP 4 **** **** 0

# MOE 2024.06 (io_trps.svl 2023.06)
