@<TRIPOS>MOLECULE
NONAME
31 32 1 0 0 
SMALL
USER_CHARGES


@<TRIPOS>ATOM
  1 O        0.1450     0.6630     1.7630 O.3   1 <1>  -0.0190 
  2 N       -1.1060     0.3400     1.6850 N.2   1 <1>  -0.4100 
  3 C        0.2840     1.6240     0.8880 C.2   1 <1>   0.2980 
  4 C       -1.6630     1.0970     0.8000 C.2   1 <1>   0.4620 
  5 N       -0.7720     1.9490     0.2690 N.2   1 <1>  -0.5650 
  6 C        1.6490     2.2670     0.7030 C.3   1 <1>   0.0200 
  7 C       -3.0750     1.0450     0.4130 C.ar  1 <1>   0.3640 
  8 C        2.6400     1.4590    -0.1710 C.3   1 <1>   0.0000 
  9 N       -3.5430     1.8880    -0.5230 N.ar  1 <1>  -0.6200 
 10 C       -3.9220     0.1160     1.0250 C.ar  1 <1>  -0.1500 
 11 C        2.0610     1.2270    -1.5760 C.3   1 <1>  -0.2400 
 12 C        3.9450     2.2590    -0.3060 C.3   1 <1>  -0.2400 
 13 C        2.9700     0.0980     0.4630 C.3   1 <1>  -0.2400 
 14 C       -4.8220     1.8010    -0.8370 C.ar  1 <1>   0.1600 
 15 C       -5.2560     0.0330     0.6910 C.ar  1 <1>  -0.1500 
 16 C       -5.7100     0.9060    -0.2700 C.ar  1 <1>  -0.1500 
 17 H        2.0750     2.4350     1.6750 H     1 <1>   0.0800 
 18 H        1.4940     3.2310     0.2530 H     1 <1>   0.0800 
 19 H       -3.5280    -0.5490     1.7720 H     1 <1>   0.1500 
 20 H        1.8120     2.1640    -2.0420 H     1 <1>   0.0800 
 21 H        1.1690     0.6280    -1.5300 H     1 <1>   0.0800 
 22 H        2.7730     0.7170    -2.2000 H     1 <1>   0.0800 
 23 H        3.7590     3.2140    -0.7660 H     1 <1>   0.0800 
 24 H        4.6540     1.7260    -0.9150 H     1 <1>   0.0800 
 25 H        4.3900     2.4270     0.6590 H     1 <1>   0.0800 
 26 H        2.1020    -0.5360     0.4920 H     1 <1>   0.0800 
 27 H        3.3350     0.2240     1.4670 H     1 <1>   0.0800 
 28 H        3.7260    -0.4100    -0.1100 H     1 <1>   0.0800 
 29 H       -5.1840     2.4820    -1.5880 H     1 <1>   0.1500 
 30 H       -5.9120    -0.6810     1.1590 H     1 <1>   0.1500 
 31 H       -6.7400     0.8970    -0.5790 H     1 <1>   0.1500 
@<TRIPOS>BOND
  1   1   2  1   
  2   1   3  1   
  3   2   4  2   
  4   3   5  2   
  5   3   6  1   
  6   4   5  1   
  7   4   7  1   
  8   6   8  1   
  9   6  17  1   
 10   6  18  1   
 11   7   9  ar  
 12   7  10  ar  
 13   8  11  1   
 14   8  12  1   
 15   8  13  1   
 16   9  14  ar  
 17  10  15  ar  
 18  10  19  1   
 19  11  20  1   
 20  11  21  1   
 21  11  22  1   
 22  12  23  1   
 23  12  24  1   
 24  12  25  1   
 25  13  26  1   
 26  13  27  1   
 27  13  28  1   
 28  14  16  ar  
 29  14  29  1   
 30  15  16  ar  
 31  15  30  1   
 32  16  31  1   
@<TRIPOS>SUBSTRUCTURE
  1 ****   5 GROUP 4 **** **** 0

# MOE 2024.06 (io_trps.svl 2023.06)
