@<TRIPOS>MOLECULE
NONAME
46 48 1 0 0 
SMALL
USER_CHARGES


@<TRIPOS>ATOM
  1 F        0.7780    -0.1190    -0.6300 F     1 <1>  -0.3400 
  2 C        0.8760     1.1240    -1.0830 C.3   1 <1>   1.1640 
  3 F       -0.1890     1.3120    -1.8530 F     1 <1>  -0.3400 
  4 F        1.9320     1.1590    -1.8820 F     1 <1>  -0.3400 
  5 C        0.9000     2.1450     0.0720 C.ar  1 <1>  -0.1440 
  6 C       -0.1250     2.2110     1.0260 C.ar  1 <1>  -0.1440 
  7 C        1.9700     3.0310     0.1800 C.ar  1 <1>  -0.1500 
  8 C       -0.0430     3.1350     2.0610 C.ar  1 <1>  -0.1500 
  9 C       -1.3510     1.3010     0.9910 C.3   1 <1>   0.4870 
 10 C        2.0320     3.9530     1.2070 C.ar  1 <1>  -0.1500 
 11 C        1.0260     4.0040     2.1500 C.ar  1 <1>  -0.1500 
 12 N       -2.5600     2.1210     0.7110 N.4   1 <1>  -0.9590 
 13 C       -3.8090     1.3240     0.8500 C.3   1 <1>   0.4860 
 14 C       -2.5270     2.7930    -0.6230 C.3   1 <1>   0.3430 
 15 C       -5.0170     2.2200     0.6390 C.ar  1 <1>  -0.1430 
 16 C       -3.6240     3.8590    -0.7040 C.3   1 <1>  -0.0170 
 17 C       -4.9410     3.3960    -0.0950 C.ar  1 <1>  -0.1430 
 18 C       -6.2300     1.8440     1.1910 C.ar  1 <1>  -0.1500 
 19 C       -6.0760     4.1730    -0.2650 C.ar  1 <1>  -0.1500 
 20 C       -7.3720     2.6100     1.0300 C.ar  1 <1>   0.0830 
 21 C       -7.3010     3.8010     0.2870 C.ar  1 <1>   0.0830 
 22 O       -8.4710     2.0820     1.6440 O.3   1 <1>  -0.3630 
 23 O       -8.4110     4.5760     0.1150 O.3   1 <1>  -0.3620 
 24 C       -9.7610     2.6470     1.5640 C.3   1 <1>   0.0400 
 25 C       -8.4080     5.7660    -0.6440 C.3   1 <1>   0.0400 
 26 H        2.7790     3.0170    -0.5330 H     1 <1>   0.1500 
 27 H       -0.8060     3.1930     2.8200 H     1 <1>   0.1500 
 28 H       -1.4510     0.8180     1.9500 H     1 <1>   0.0800 
 29 H       -1.2480     0.5350     0.2420 H     1 <1>   0.0800 
 30 H        2.8680     4.6300     1.2760 H     1 <1>   0.1500 
 31 H        1.0840     4.7190     2.9550 H     1 <1>   0.1500 
 32 H       -2.6090     2.8670     1.4150 H     1 <1>   0.4500 
 33 H       -3.8610     0.8850     1.8330 H     1 <1>   0.0800 
 34 H       -3.8260     0.5310     0.1190 H     1 <1>   0.0800 
 35 H       -2.6820     2.0610    -1.4000 H     1 <1>   0.0800 
 36 H       -1.5700     3.2620    -0.7870 H     1 <1>   0.0800 
 37 H       -3.7730     4.1250    -1.7350 H     1 <1>   0.0800 
 38 H       -3.2920     4.7430    -0.1880 H     1 <1>   0.0800 
 39 H       -6.3190     0.9370     1.7630 H     1 <1>   0.1500 
 40 H       -5.9880     5.0780    -0.8350 H     1 <1>   0.1500 
 41 H      -10.4390     2.0110     2.1030 H     1 <1>   0.0800 
 42 H      -10.0540     2.7020     0.5310 H     1 <1>   0.0800 
 43 H       -9.7420     3.6240     2.0120 H     1 <1>   0.0800 
 44 H       -9.4040     6.1720    -0.6310 H     1 <1>   0.0800 
 45 H       -8.1230     5.5370    -1.6550 H     1 <1>   0.0800 
 46 H       -7.7260     6.4670    -0.1950 H     1 <1>   0.0800 
@<TRIPOS>BOND
  1   1   2  1   
  2   2   3  1   
  3   2   4  1   
  4   2   5  1   
  5   5   6  ar  
  6   5   7  ar  
  7   6   8  ar  
  8   6   9  1   
  9   7  10  ar  
 10   7  26  1   
 11   8  11  ar  
 12   8  27  1   
 13   9  12  1   
 14   9  28  1   
 15   9  29  1   
 16  10  11  ar  
 17  10  30  1   
 18  11  31  1   
 19  12  13  1   
 20  12  14  1   
 21  12  32  1   
 22  13  15  1   
 23  13  33  1   
 24  13  34  1   
 25  14  16  1   
 26  14  35  1   
 27  14  36  1   
 28  15  17  ar  
 29  15  18  ar  
 30  16  17  1   
 31  16  37  1   
 32  16  38  1   
 33  17  19  ar  
 34  18  20  ar  
 35  18  39  1   
 36  19  21  ar  
 37  19  40  1   
 38  20  21  ar  
 39  20  22  1   
 40  21  23  1   
 41  22  24  1   
 42  23  25  1   
 43  24  41  1   
 44  24  42  1   
 45  24  43  1   
 46  25  44  1   
 47  25  45  1   
 48  25  46  1   
@<TRIPOS>SUBSTRUCTURE
  1 ****  12 GROUP 4 **** **** 0

# MOE 2024.06 (io_trps.svl 2023.06)
