@<TRIPOS>MOLECULE
NONAME
44 45 1 0 0 
SMALL
USER_CHARGES


@<TRIPOS>ATOM
  1 S        0.4510     0.3810     0.1750 S.3   1 <1>  -0.0800 
  2 C       -1.0910     0.3040    -0.6560 C.2   1 <1>  -0.1100 
  3 C        0.4320    -1.3480     0.4610 C.2   1 <1>  -0.1100 
  4 C       -1.5590    -0.9590    -0.6830 C.2   1 <1>  -0.1810 
  5 C       -0.6820    -1.9030    -0.0480 C.2   1 <1>  -0.1500 
  6 C       -2.8720    -1.3880    -1.3040 C.3   1 <1>   0.5240 
  7 N       -3.7940    -1.8020    -0.2140 N.4   1 <1>  -0.9590 
  8 C       -5.0250    -2.4460    -0.7770 C.3   1 <1>   0.3430 
  9 C       -4.1220    -0.6490     0.6780 C.3   1 <1>   0.3430 
 10 C       -5.9690    -2.9330     0.3280 C.3   1 <1>  -0.0190 
 11 C       -5.0200    -1.1200     1.8230 C.3   1 <1>  -0.1600 
 12 C       -7.2270    -3.4540    -0.3580 C.2   1 <1>   0.5690 
 13 C       -6.3010    -1.7820     1.2990 C.3   1 <1>  -0.1600 
 14 O       -7.6660    -2.7460    -1.2340 O.2   1 <1>  -0.5700 
 15 N       -7.8180    -4.6520    -0.0290 N.am  1 <1>  -0.6600 
 16 C       -7.2770    -5.6630     0.9260 C.3   1 <1>   0.1400 
 17 C       -9.0490    -5.0910    -0.7570 C.3   1 <1>   0.1400 
 18 C       -7.5560    -5.2600     2.3740 C.3   1 <1>  -0.2400 
 19 C      -10.2870    -4.8290     0.0960 C.3   1 <1>  -0.2400 
 20 H       -1.4770     1.2360    -1.0360 H     1 <1>   0.1500 
 21 H        1.2750    -1.7670     0.9850 H     1 <1>   0.1500 
 22 H       -0.9060    -2.9560    -0.0030 H     1 <1>   0.1500 
 23 H       -2.6960    -2.2080    -1.9810 H     1 <1>   0.0800 
 24 H       -3.3000    -0.5700    -1.8610 H     1 <1>   0.0800 
 25 H       -3.2830    -2.4850     0.3560 H     1 <1>   0.4500 
 26 H       -4.7560    -3.2820    -1.4030 H     1 <1>   0.0800 
 27 H       -5.5540    -1.7320    -1.3890 H     1 <1>   0.0800 
 28 H       -4.6340     0.1150     0.1150 H     1 <1>   0.0800 
 29 H       -3.2180    -0.2230     1.0840 H     1 <1>   0.0800 
 30 H       -5.4790    -3.7230     0.8600 H     1 <1>   0.0800 
 31 H       -5.2840    -0.2700     2.4300 H     1 <1>   0.0800 
 32 H       -4.4760    -1.8040     2.4510 H     1 <1>   0.0800 
 33 H       -6.8900    -2.1470     2.1230 H     1 <1>   0.0800 
 34 H       -6.8970    -1.0440     0.7860 H     1 <1>   0.0800 
 35 H       -6.2200    -5.7900     0.7720 H     1 <1>   0.0800 
 36 H       -7.7390    -6.6180     0.7390 H     1 <1>   0.0800 
 37 H       -8.9820    -6.1370    -1.0010 H     1 <1>   0.0800 
 38 H       -9.1450    -4.5540    -1.6860 H     1 <1>   0.0800 
 39 H       -7.0080    -4.3810     2.6480 H     1 <1>   0.0800 
 40 H       -7.2540    -6.0570     3.0300 H     1 <1>   0.0800 
 41 H       -8.6050    -5.0850     2.5250 H     1 <1>   0.0800 
 42 H      -10.2870    -5.4510     0.9710 H     1 <1>   0.0800 
 43 H      -11.1690    -5.0550    -0.4750 H     1 <1>   0.0800 
 44 H      -10.3260    -3.7940     0.3850 H     1 <1>   0.0800 
@<TRIPOS>BOND
  1   1   2  1   
  2   1   3  1   
  3   2   4  2   
  4   2  20  1   
  5   3   5  2   
  6   3  21  1   
  7   4   5  1   
  8   4   6  1   
  9   5  22  1   
 10   6   7  1   
 11   6  23  1   
 12   6  24  1   
 13   7   8  1   
 14   7   9  1   
 15   7  25  1   
 16   8  10  1   
 17   8  26  1   
 18   8  27  1   
 19   9  11  1   
 20   9  28  1   
 21   9  29  1   
 22  10  12  1   
 23  10  13  1   
 24  10  30  1   
 25  11  13  1   
 26  11  31  1   
 27  11  32  1   
 28  12  14  2   
 29  12  15  am  
 30  13  33  1   
 31  13  34  1   
 32  15  16  1   
 33  15  17  1   
 34  16  18  1   
 35  16  35  1   
 36  16  36  1   
 37  17  19  1   
 38  17  37  1   
 39  17  38  1   
 40  18  39  1   
 41  18  40  1   
 42  18  41  1   
 43  19  42  1   
 44  19  43  1   
 45  19  44  1   
@<TRIPOS>SUBSTRUCTURE
  1 ****   8 GROUP 4 **** **** 0

# MOE 2024.06 (io_trps.svl 2023.06)
