@<TRIPOS>MOLECULE
NONAME
47 50 1 0 0 
SMALL
USER_CHARGES


@<TRIPOS>ATOM
  1 F        1.0270    -1.9010     2.5800 F     1 <1>  -0.1900 
  2 C        0.0880    -2.1260     1.6910 C.ar  1 <1>   0.1900 
  3 C        0.4350    -2.3780     0.3570 C.ar  1 <1>   0.1000 
  4 C       -1.2210    -2.1000     2.1310 C.ar  1 <1>  -0.1500 
  5 N        1.7430    -2.4140    -0.1420 N.pl3 1 <1>  -0.8380 
  6 C       -0.6100    -2.6060    -0.5290 C.ar  1 <1>  -0.1500 
  7 C       -2.2400    -2.3330     1.2210 C.ar  1 <1>  -0.1500 
  8 C        2.6110    -3.5130     0.3700 C.3   1 <1>   0.2090 
  9 C        2.4830    -1.1190    -0.1330 C.3   1 <1>   0.2090 
 10 C       -1.9300    -2.5850    -0.1070 C.ar  1 <1>  -0.1500 
 11 C        3.9080    -3.6080    -0.4550 C.3   1 <1>   0.1100 
 12 C        3.7890    -1.2270    -0.9440 C.3   1 <1>   0.1100 
 13 N        4.6630    -2.3320    -0.4710 N.3   1 <1>  -0.8100 
 14 C        5.9000    -2.4680    -1.2790 C.3   1 <1>   0.2900 
 15 C        6.8310    -1.2570    -1.2240 C.2   1 <1>   0.2980 
 16 O        6.5640    -0.2310    -1.9900 O.3   1 <1>  -0.0190 
 17 N        7.8810    -1.1460    -0.5170 N.2   1 <1>  -0.5650 
 18 N        7.5160     0.6100    -1.7380 N.2   1 <1>  -0.4100 
 19 C        8.2960     0.0770    -0.8640 C.2   1 <1>   0.4620 
 20 C        9.4880     0.6920    -0.3040 C.ar  1 <1>   0.0540 
 21 C       10.2310     0.0730     0.7040 C.ar  1 <1>  -0.1500 
 22 C        9.9410     1.9340    -0.7540 C.ar  1 <1>  -0.1500 
 23 C       11.3670     0.6540     1.2400 C.ar  1 <1>  -0.1430 
 24 C       11.0750     2.5240    -0.2280 C.ar  1 <1>  -0.1500 
 25 C       11.7890     1.8850     0.7690 C.ar  1 <1>  -0.1500 
 26 C       12.1490    -0.0510     2.3340 C.3   1 <1>  -0.0970 
 27 H       -1.4370    -1.9030     3.1650 H     1 <1>   0.1500 
 28 H       -0.3720    -2.8020    -1.5580 H     1 <1>   0.1500 
 29 H       -3.2670    -2.3180     1.5430 H     1 <1>   0.1500 
 30 H        2.0760    -4.4450     0.3110 H     1 <1>   0.0800 
 31 H        2.8600    -3.3320     1.4010 H     1 <1>   0.0800 
 32 H        2.7210    -0.8430     0.8800 H     1 <1>   0.0800 
 33 H        1.8600    -0.3510    -0.5550 H     1 <1>   0.0800 
 34 H       -2.7190    -2.7660    -0.8160 H     1 <1>   0.1500 
 35 H        3.6500    -3.8940    -1.4600 H     1 <1>   0.0800 
 36 H        4.5260    -4.3810    -0.0320 H     1 <1>   0.0800 
 37 H        4.3090    -0.2910    -0.8520 H     1 <1>   0.0800 
 38 H        3.5370    -1.3750    -1.9800 H     1 <1>   0.0800 
 39 H        5.6440    -2.6630    -2.3050 H     1 <1>   0.0800 
 40 H        6.4550    -3.3120    -0.9110 H     1 <1>   0.0800 
 41 H        9.9070    -0.8850     1.0720 H     1 <1>   0.1500 
 42 H        9.3970     2.4450    -1.5290 H     1 <1>   0.1500 
 43 H       11.4030     3.4810    -0.5940 H     1 <1>   0.1500 
 44 H       12.6720     2.3490     1.1730 H     1 <1>   0.1500 
 45 H       11.5140    -0.7270     2.8780 H     1 <1>   0.0800 
 46 H       12.5520     0.6660     3.0270 H     1 <1>   0.0800 
 47 H       12.9580    -0.6090     1.9000 H     1 <1>   0.0800 
@<TRIPOS>BOND
  1   1   2  1   
  2   2   3  ar  
  3   2   4  ar  
  4   3   5  1   
  5   3   6  ar  
  6   4   7  ar  
  7   4  27  1   
  8   5   8  1   
  9   5   9  1   
 10   6  10  ar  
 11   6  28  1   
 12   7  10  ar  
 13   7  29  1   
 14   8  11  1   
 15   8  30  1   
 16   8  31  1   
 17   9  12  1   
 18   9  32  1   
 19   9  33  1   
 20  10  34  1   
 21  11  13  1   
 22  11  35  1   
 23  11  36  1   
 24  12  13  1   
 25  12  37  1   
 26  12  38  1   
 27  13  14  1   
 28  14  15  1   
 29  14  39  1   
 30  14  40  1   
 31  15  16  1   
 32  15  17  2   
 33  16  18  1   
 34  17  19  1   
 35  18  19  2   
 36  19  20  1   
 37  20  21  ar  
 38  20  22  ar  
 39  21  23  ar  
 40  21  41  1   
 41  22  24  ar  
 42  22  42  1   
 43  23  25  ar  
 44  23  26  1   
 45  24  25  ar  
 46  24  43  1   
 47  25  44  1   
 48  26  45  1   
 49  26  46  1   
 50  26  47  1   
@<TRIPOS>SUBSTRUCTURE
  1 ****  13 GROUP 4 **** **** 0

# MOE 2024.06 (io_trps.svl 2023.06)
