@<TRIPOS>MOLECULE
NONAME
41 42 1 0 0 
SMALL
USER_CHARGES


@<TRIPOS>ATOM
  1 O        0.1100    -0.2860     0.8050 O.2   1 <1>  -0.5700 
  2 C        0.0510    -1.3280     0.1790 C.2   1 <1>   0.5440 
  3 N        1.1900    -1.7740    -0.4230 N.am  1 <1>  -0.7300 
  4 C       -1.1950    -2.0670     0.0710 C.ar  1 <1>   0.0860 
  5 C        2.5310    -1.1640    -0.2960 C.3   1 <1>   0.2840 
  6 C       -2.4230    -1.4330     0.2790 C.ar  1 <1>  -0.1500 
  7 C       -1.2300    -3.4290    -0.2410 C.ar  1 <1>  -0.1500 
  8 C        3.5810    -2.2620    -0.1630 C.ar  1 <1>   0.1660 
  9 C       -3.6230    -2.1110     0.1750 C.ar  1 <1>  -0.1500 
 10 C       -2.4260    -4.1150    -0.3480 C.ar  1 <1>  -0.1500 
 11 N        3.6880    -3.1150    -1.1760 N.ar  1 <1>  -0.6200 
 12 C        4.3580    -2.3250     0.9860 C.ar  1 <1>  -0.1500 
 13 C       -3.6320    -3.4660    -0.1430 C.ar  1 <1>   0.0830 
 14 C        4.6080    -4.0580    -1.0380 C.ar  1 <1>   0.1600 
 15 C        5.3090    -3.3140     1.1150 C.ar  1 <1>  -0.1500 
 16 O       -4.7550    -4.2060    -0.2650 O.3   1 <1>  -0.3630 
 17 C        5.4300    -4.1990     0.0670 C.ar  1 <1>  -0.1500 
 18 C       -6.0360    -3.6570    -0.0410 C.3   1 <1>   0.1200 
 19 C       -7.1000    -4.7520    -0.2130 C.3   1 <1>  -0.0800 
 20 C       -8.5040    -4.1560    -0.0570 C.3   1 <1>  -0.2400 
 21 C       -6.9080    -5.8950     0.7940 C.3   1 <1>  -0.2400 
 22 H        1.2020    -2.6330    -0.9760 H     1 <1>   0.3700 
 23 H        2.5600    -0.5090     0.5570 H     1 <1>   0.0800 
 24 H        2.7370    -0.5840    -1.1780 H     1 <1>   0.0800 
 25 H       -2.4270    -0.3850     0.5280 H     1 <1>   0.1500 
 26 H       -0.3110    -3.9650    -0.3960 H     1 <1>   0.1500 
 27 H       -4.5360    -1.5730     0.3440 H     1 <1>   0.1500 
 28 H       -2.4350    -5.1620    -0.5900 H     1 <1>   0.1500 
 29 H        4.2190    -1.6090     1.7760 H     1 <1>   0.1500 
 30 H        4.7130    -4.7560    -1.8500 H     1 <1>   0.1500 
 31 H        5.9280    -3.3900     1.9930 H     1 <1>   0.1500 
 32 H        6.1540    -4.9930     0.1020 H     1 <1>   0.1500 
 33 H       -6.1900    -2.8680    -0.7560 H     1 <1>   0.0800 
 34 H       -6.0640    -3.2590     0.9590 H     1 <1>   0.0800 
 35 H       -7.0130    -5.1480    -1.2120 H     1 <1>   0.0800 
 36 H       -8.6360    -3.7460     0.9290 H     1 <1>   0.0800 
 37 H       -9.2500    -4.9150    -0.2140 H     1 <1>   0.0800 
 38 H       -8.6630    -3.3750    -0.7800 H     1 <1>   0.0800 
 39 H       -6.9760    -5.5280     1.8030 H     1 <1>   0.0800 
 40 H       -5.9420    -6.3520     0.6620 H     1 <1>   0.0800 
 41 H       -7.6590    -6.6520     0.6500 H     1 <1>   0.0800 
@<TRIPOS>BOND
  1   1   2  2   
  2   2   3  am  
  3   2   4  1   
  4   3   5  1   
  5   3  22  1   
  6   4   6  ar  
  7   4   7  ar  
  8   5   8  1   
  9   5  23  1   
 10   5  24  1   
 11   6   9  ar  
 12   6  25  1   
 13   7  10  ar  
 14   7  26  1   
 15   8  11  ar  
 16   8  12  ar  
 17   9  13  ar  
 18   9  27  1   
 19  10  13  ar  
 20  10  28  1   
 21  11  14  ar  
 22  12  15  ar  
 23  12  29  1   
 24  13  16  1   
 25  14  17  ar  
 26  14  30  1   
 27  15  17  ar  
 28  15  31  1   
 29  16  18  1   
 30  17  32  1   
 31  18  19  1   
 32  18  33  1   
 33  18  34  1   
 34  19  20  1   
 35  19  21  1   
 36  19  35  1   
 37  20  36  1   
 38  20  37  1   
 39  20  38  1   
 40  21  39  1   
 41  21  40  1   
 42  21  41  1   
@<TRIPOS>SUBSTRUCTURE
  1 ****   7 GROUP 4 **** **** 0

# MOE 2024.06 (io_trps.svl 2023.06)
