@<TRIPOS>MOLECULE
NONAME
49 51 1 0 0 
SMALL
USER_CHARGES


@<TRIPOS>ATOM
  1 S       -0.0600    -0.5170    -1.5540 S.o2  1 <1>   1.4470 
  2 O        0.2520     0.4120    -2.6190 O.2   1 <1>  -0.6500 
  3 O       -0.7050    -1.7710    -1.8770 O.2   1 <1>  -0.6500 
  4 N       -1.0610     0.3040    -0.4600 N.am  1 <1>  -0.8490 
  5 C        1.4270    -0.8660    -0.5710 C.ar  1 <1>  -0.0090 
  6 C       -2.4500     0.3280    -0.9280 C.3   1 <1>   0.1960 
  7 C       -0.5800     1.6630    -0.1830 C.3   1 <1>   0.1960 
  8 C        2.5630    -0.0750    -0.6740 C.ar  1 <1>  -0.1500 
  9 C        1.4500    -1.9190     0.3350 C.ar  1 <1>  -0.1500 
 10 C       -3.3640     0.9350     0.1410 C.3   1 <1>  -0.1600 
 11 C       -1.4200     2.3090     0.9220 C.3   1 <1>  -0.1600 
 12 C        3.7090    -0.2990     0.0870 C.ar  1 <1>   0.0860 
 13 C        2.5690    -2.1710     1.1070 C.ar  1 <1>  -0.1500 
 14 C       -2.9050     2.3410     0.5440 C.3   1 <1>  -0.1600 
 15 C        4.8700     0.5580    -0.0530 C.2   1 <1>   0.5440 
 16 C        3.6850    -1.3660     0.9860 C.ar  1 <1>  -0.1500 
 17 O        4.7260     1.7430    -0.2710 O.2   1 <1>  -0.5700 
 18 N        6.1310     0.0110     0.0320 N.am  1 <1>  -0.5470 
 19 C        7.3900     0.6140     0.0820 C.ar  1 <1>   0.1170 
 20 C        7.5940     1.9170     0.5240 C.ar  1 <1>  -0.1500 
 21 C        8.5060    -0.1180    -0.3040 C.ar  1 <1>  -0.1500 
 22 C        8.8620     2.4620     0.5710 C.ar  1 <1>  -0.1500 
 23 C        9.7740     0.4300    -0.2570 C.ar  1 <1>  -0.1500 
 24 C        9.9940     1.7410     0.1820 C.ar  1 <1>   0.0860 
 25 C       11.3060     2.3500     0.2460 C.2   1 <1>   0.4230 
 26 O       11.5020     3.4540     0.6860 O.2   1 <1>  -0.5700 
 27 C       12.5270     1.6010    -0.2530 C.3   1 <1>  -0.1790 
 28 H       -2.7840    -0.6770    -1.1330 H     1 <1>   0.0800 
 29 H       -2.5180     0.8960    -1.8420 H     1 <1>   0.0800 
 30 H       -0.6320     2.2630    -1.0780 H     1 <1>   0.0800 
 31 H        0.4470     1.6300     0.1400 H     1 <1>   0.0800 
 32 H        2.5650     0.7500    -1.3690 H     1 <1>   0.1500 
 33 H        0.5780    -2.5450     0.4360 H     1 <1>   0.1500 
 34 H       -3.3590     0.2900     1.0030 H     1 <1>   0.0800 
 35 H       -4.3720     0.9760    -0.2320 H     1 <1>   0.0800 
 36 H       -1.0700     3.3110     1.0980 H     1 <1>   0.0800 
 37 H       -1.2870     1.7490     1.8310 H     1 <1>   0.0800 
 38 H        2.5640    -2.9910     1.8060 H     1 <1>   0.1500 
 39 H       -3.4910     2.6980     1.3730 H     1 <1>   0.0800 
 40 H       -3.0500     3.0150    -0.2840 H     1 <1>   0.0800 
 41 H        4.5420    -1.5620     1.6060 H     1 <1>   0.1500 
 42 H        6.1460    -1.0050    -0.0210 H     1 <1>   0.3700 
 43 H        6.7560     2.5130     0.8380 H     1 <1>   0.1500 
 44 H        8.3820    -1.1270    -0.6510 H     1 <1>   0.1500 
 45 H        8.9840     3.4750     0.9170 H     1 <1>   0.1500 
 46 H       10.6020    -0.1790    -0.5680 H     1 <1>   0.1500 
 47 H       12.6910     0.7240     0.3440 H     1 <1>   0.0800 
 48 H       13.3960     2.2310    -0.1800 H     1 <1>   0.0800 
 49 H       12.3940     1.3230    -1.2820 H     1 <1>   0.0800 
@<TRIPOS>BOND
  1   1   2  2   
  2   1   3  2   
  3   1   4  am  
  4   1   5  1   
  5   4   6  1   
  6   4   7  1   
  7   5   8  ar  
  8   5   9  ar  
  9   6  10  1   
 10   6  28  1   
 11   6  29  1   
 12   7  11  1   
 13   7  30  1   
 14   7  31  1   
 15   8  12  ar  
 16   8  32  1   
 17   9  13  ar  
 18   9  33  1   
 19  10  14  1   
 20  10  34  1   
 21  10  35  1   
 22  11  14  1   
 23  11  36  1   
 24  11  37  1   
 25  12  15  1   
 26  12  16  ar  
 27  13  16  ar  
 28  13  38  1   
 29  14  39  1   
 30  14  40  1   
 31  15  17  2   
 32  15  18  am  
 33  16  41  1   
 34  18  19  1   
 35  18  42  1   
 36  19  20  ar  
 37  19  21  ar  
 38  20  22  ar  
 39  20  43  1   
 40  21  23  ar  
 41  21  44  1   
 42  22  24  ar  
 43  22  45  1   
 44  23  24  ar  
 45  23  46  1   
 46  24  25  1   
 47  25  26  2   
 48  25  27  1   
 49  27  47  1   
 50  27  48  1   
 51  27  49  1   
@<TRIPOS>SUBSTRUCTURE
  1 ****  15 GROUP 4 **** **** 0

# MOE 2024.06 (io_trps.svl 2023.06)
