@<TRIPOS>MOLECULE
NONAME
51 53 1 0 0 
SMALL
USER_CHARGES


@<TRIPOS>ATOM
  1 F        0.4160     1.6230    -0.1780 F     1 <1>  -0.3400 
  2 C        1.4520     1.0560    -0.7860 C.3   1 <1>   1.1640 
  3 F        1.3480    -0.2470    -0.5520 F     1 <1>  -0.3400 
  4 F        1.2550     1.2190    -2.0880 F     1 <1>  -0.3400 
  5 C        2.8030     1.6300    -0.3310 C.ar  1 <1>  -0.1440 
  6 C        3.9610     0.8660    -0.4220 C.ar  1 <1>  -0.1500 
  7 C        2.9020     2.9250     0.1690 C.ar  1 <1>  -0.1500 
  8 C        5.1960     1.3600    -0.0230 C.ar  1 <1>   0.1000 
  9 C        4.1260     3.4330     0.5690 C.ar  1 <1>  -0.1500 
 10 N        6.3230     0.5490    -0.1230 N.pl3 1 <1>  -0.8380 
 11 C        5.2640     2.6560     0.4740 C.ar  1 <1>  -0.1500 
 12 C        7.6040     1.0870    -0.6780 C.3   1 <1>   0.2090 
 13 C        6.4270    -0.6460     0.7660 C.3   1 <1>   0.2090 
 14 C        8.6820     1.2280     0.4180 C.3   1 <1>   0.3430 
 15 C        7.5230    -0.4560     1.8370 C.3   1 <1>   0.3430 
 16 N        8.8410    -0.0260     1.2450 N.4   1 <1>  -0.9590 
 17 C        9.8980     0.1230     2.2820 C.3   1 <1>   0.4860 
 18 C       11.2150     0.4030     1.5840 C.ar  1 <1>  -0.1430 
 19 C       11.7820    -0.5600     0.7630 C.ar  1 <1>  -0.1500 
 20 C       11.8590     1.6200     1.7460 C.ar  1 <1>  -0.1500 
 21 C       12.9640    -0.3260     0.0820 C.ar  1 <1>   0.0830 
 22 C       13.0470     1.8700     1.0820 C.ar  1 <1>  -0.1500 
 23 O       13.3660    -1.3690    -0.6980 O.3   1 <1>  -0.3630 
 24 C       13.6050     0.9130     0.2480 C.ar  1 <1>   0.0830 
 25 C       14.5950    -1.3920    -1.3840 C.3   1 <1>   0.1200 
 26 O       14.7590     1.2420    -0.3710 O.3   1 <1>  -0.5330 
 27 C       14.7290    -2.7490    -2.0670 C.3   1 <1>  -0.2400 
 28 H        3.9190    -0.1330    -0.8190 H     1 <1>   0.1500 
 29 H        2.0270     3.5500     0.2490 H     1 <1>   0.1500 
 30 H        4.1870     4.4370     0.9540 H     1 <1>   0.1500 
 31 H        6.2030     3.0630     0.7920 H     1 <1>   0.1500 
 32 H        7.4280     2.0440    -1.1380 H     1 <1>   0.0800 
 33 H        7.9570     0.4230    -1.4470 H     1 <1>   0.0800 
 34 H        6.6460    -1.5130     0.1670 H     1 <1>   0.0800 
 35 H        5.4820    -0.8180     1.2540 H     1 <1>   0.0800 
 36 H        8.4030     2.0480     1.0580 H     1 <1>   0.0800 
 37 H        9.6190     1.4820    -0.0510 H     1 <1>   0.0800 
 38 H        7.6440    -1.3810     2.3770 H     1 <1>   0.0800 
 39 H        7.1790     0.2910     2.5330 H     1 <1>   0.0800 
 40 H        9.1600    -0.7590     0.5990 H     1 <1>   0.4500 
 41 H        9.9870    -0.7840     2.8580 H     1 <1>   0.0800 
 42 H        9.6550     0.9330     2.9510 H     1 <1>   0.0800 
 43 H       11.3200    -1.5230     0.6310 H     1 <1>   0.1500 
 44 H       11.4500     2.3840     2.3870 H     1 <1>   0.1500 
 45 H       13.5370     2.8180     1.2190 H     1 <1>   0.1500 
 46 H       15.3880    -1.2440    -0.6710 H     1 <1>   0.0800 
 47 H       14.5950    -0.5990    -2.1120 H     1 <1>   0.0800 
 48 H       15.0960     2.1220    -0.1240 H     1 <1>   0.4500 
 49 H       14.7180    -3.5350    -1.3340 H     1 <1>   0.0800 
 50 H       15.6590    -2.7940    -2.6040 H     1 <1>   0.0800 
 51 H       13.9240    -2.8940    -2.7650 H     1 <1>   0.0800 
@<TRIPOS>BOND
  1   1   2  1   
  2   2   3  1   
  3   2   4  1   
  4   2   5  1   
  5   5   6  ar  
  6   5   7  ar  
  7   6   8  ar  
  8   6  28  1   
  9   7   9  ar  
 10   7  29  1   
 11   8  10  1   
 12   8  11  ar  
 13   9  11  ar  
 14   9  30  1   
 15  10  12  1   
 16  10  13  1   
 17  11  31  1   
 18  12  14  1   
 19  12  32  1   
 20  12  33  1   
 21  13  15  1   
 22  13  34  1   
 23  13  35  1   
 24  14  16  1   
 25  14  36  1   
 26  14  37  1   
 27  15  16  1   
 28  15  38  1   
 29  15  39  1   
 30  16  17  1   
 31  16  40  1   
 32  17  18  1   
 33  17  41  1   
 34  17  42  1   
 35  18  19  ar  
 36  18  20  ar  
 37  19  21  ar  
 38  19  43  1   
 39  20  22  ar  
 40  20  44  1   
 41  21  23  1   
 42  21  24  ar  
 43  22  24  ar  
 44  22  45  1   
 45  23  25  1   
 46  24  26  1   
 47  25  27  1   
 48  25  46  1   
 49  25  47  1   
 50  26  48  1   
 51  27  49  1   
 52  27  50  1   
 53  27  51  1   
@<TRIPOS>SUBSTRUCTURE
  1 ****  14 GROUP 4 **** **** 0

# MOE 2024.06 (io_trps.svl 2023.06)
