@<TRIPOS>MOLECULE
NONAME
45 45 1 0 0 
SMALL
USER_CHARGES


@<TRIPOS>ATOM
  1 S        0.0740    -0.0810     0.5180 S.o2  1 <1>   1.3330 
  2 O        0.3040    -1.1690    -0.4050 O.2   1 <1>  -0.6500 
  3 O       -0.2720    -0.3620     1.8940 O.2   1 <1>  -0.6500 
  4 N        1.4520     0.9070     0.5230 N.am  1 <1>  -0.8490 
  5 C       -1.1760     0.9910    -0.2010 C.3   1 <1>  -0.0550 
  6 C        2.6900     0.1100     0.4760 C.3   1 <1>   0.1960 
  7 C        1.4810     1.8180     1.6740 C.3   1 <1>   0.1960 
  8 C       -2.5550     0.3260    -0.3420 C.3   1 <1>  -0.1600 
  9 C        3.9100     1.0210     0.2900 C.3   1 <1>  -0.0190 
 10 C        2.6420     2.8080     1.5340 C.3   1 <1>  -0.1600 
 11 C       -3.5780     1.2860    -0.9580 C.3   1 <1>  -0.2400 
 12 C        5.1710     0.1750     0.2290 C.2   1 <1>   0.5690 
 13 C        3.9840     2.0750     1.4100 C.3   1 <1>  -0.1600 
 14 O        5.4230    -0.5580     1.1550 O.2   1 <1>  -0.5700 
 15 N        5.9620     0.2830    -0.8740 N.am  1 <1>  -0.7300 
 16 C        7.2080    -0.4250    -1.1820 C.3   1 <1>   0.3000 
 17 C        7.6610     0.0730    -2.5530 C.3   1 <1>  -0.2400 
 18 C        6.9470    -1.9300    -1.2460 C.3   1 <1>  -0.2400 
 19 C        8.2690    -0.0850    -0.1360 C.3   1 <1>  -0.2400 
 20 H       -0.8410     1.3030    -1.1720 H     1 <1>   0.0800 
 21 H       -1.2780     1.8680     0.4060 H     1 <1>   0.0800 
 22 H        2.6540    -0.5780    -0.3530 H     1 <1>   0.0800 
 23 H        2.7890    -0.4680     1.3820 H     1 <1>   0.0800 
 24 H        1.5900     1.2540     2.5870 H     1 <1>   0.0800 
 25 H        0.5560     2.3670     1.7310 H     1 <1>   0.0800 
 26 H       -2.8990     0.0090     0.6290 H     1 <1>   0.0800 
 27 H       -2.4660    -0.5500    -0.9630 H     1 <1>   0.0800 
 28 H        3.7920     1.5260    -0.6510 H     1 <1>   0.0800 
 29 H        2.6640     3.4550     2.3940 H     1 <1>   0.0800 
 30 H        2.4750     3.4200     0.6650 H     1 <1>   0.0800 
 31 H       -3.6990     2.1590    -0.3400 H     1 <1>   0.0800 
 32 H       -4.5320     0.7970    -1.0460 H     1 <1>   0.0800 
 33 H       -3.2630     1.5960    -1.9390 H     1 <1>   0.0800 
 34 H        4.7740     2.7770     1.2040 H     1 <1>   0.0800 
 35 H        4.2090     1.5860     2.3430 H     1 <1>   0.0800 
 36 H        5.6810     0.9250    -1.6120 H     1 <1>   0.3700 
 37 H        6.9200    -0.1460    -3.3010 H     1 <1>   0.0800 
 38 H        8.5760    -0.4160    -2.8370 H     1 <1>   0.0800 
 39 H        7.8440     1.1330    -2.5310 H     1 <1>   0.0800 
 40 H        6.1660    -2.1490    -1.9520 H     1 <1>   0.0800 
 41 H        6.6590    -2.3070    -0.2810 H     1 <1>   0.0800 
 42 H        7.8380    -2.4490    -1.5490 H     1 <1>   0.0800 
 43 H        8.4110     0.9780    -0.0730 H     1 <1>   0.0800 
 44 H        9.2060    -0.5410    -0.3970 H     1 <1>   0.0800 
 45 H        7.9800    -0.4570     0.8310 H     1 <1>   0.0800 
@<TRIPOS>BOND
  1   1   2  2   
  2   1   3  2   
  3   1   4  am  
  4   1   5  1   
  5   4   6  1   
  6   4   7  1   
  7   5   8  1   
  8   5  20  1   
  9   5  21  1   
 10   6   9  1   
 11   6  22  1   
 12   6  23  1   
 13   7  10  1   
 14   7  24  1   
 15   7  25  1   
 16   8  11  1   
 17   8  26  1   
 18   8  27  1   
 19   9  12  1   
 20   9  13  1   
 21   9  28  1   
 22  10  13  1   
 23  10  29  1   
 24  10  30  1   
 25  11  31  1   
 26  11  32  1   
 27  11  33  1   
 28  12  14  2   
 29  12  15  am  
 30  13  34  1   
 31  13  35  1   
 32  15  16  1   
 33  15  36  1   
 34  16  17  1   
 35  16  18  1   
 36  16  19  1   
 37  17  37  1   
 38  17  38  1   
 39  17  39  1   
 40  18  40  1   
 41  18  41  1   
 42  18  42  1   
 43  19  43  1   
 44  19  44  1   
 45  19  45  1   
@<TRIPOS>SUBSTRUCTURE
  1 ****   6 GROUP 4 **** **** 0

# MOE 2024.06 (io_trps.svl 2023.06)
