@<TRIPOS>MOLECULE
NONAME
36 37 1 0 0 
SMALL
USER_CHARGES


@<TRIPOS>ATOM
  1 BR      -0.0800     0.3250     0.8280 Br    1 <1>  -0.1110 
  2 C        1.8010     0.1250     0.4630 C.ar  1 <1>   0.1110 
  3 C        2.4460    -1.0200     0.8870 C.ar  1 <1>  -0.1500 
  4 C        2.4600     1.1320    -0.2150 C.ar  1 <1>  -0.1500 
  5 C        3.7970    -1.1560     0.6210 C.ar  1 <1>  -0.1500 
  6 C        3.8120     0.9810    -0.4720 C.ar  1 <1>  -0.1500 
  7 C        4.4980    -0.1590    -0.0580 C.ar  1 <1>   0.1170 
  8 N        5.8660    -0.2610    -0.3600 N.am  1 <1>  -0.5470 
  9 C        6.8600    -1.0020     0.2220 C.2   1 <1>   0.5690 
 10 O        6.6850    -1.7090     1.1830 O.2   1 <1>  -0.5700 
 11 C        8.2610    -0.8950    -0.3830 C.3   1 <1>  -0.0190 
 12 C        9.0190    -2.2390    -0.3550 C.3   1 <1>  -0.1600 
 13 C        9.0890     0.1880     0.3330 C.3   1 <1>  -0.1600 
 14 C       10.4290    -2.1050    -0.9350 C.3   1 <1>   0.1400 
 15 C       10.5020     0.2990    -0.2480 C.3   1 <1>   0.1400 
 16 N       11.1650    -1.0330    -0.2070 N.am  1 <1>  -0.6600 
 17 C       12.3400    -1.2100     0.4790 C.2   1 <1>   0.5690 
 18 O       12.9130    -0.2980     1.0230 O.2   1 <1>  -0.5700 
 19 C       12.9760    -2.5770     0.5810 C.3   1 <1>  -0.1790 
 20 H        1.9040    -1.7860     1.4130 H     1 <1>   0.1500 
 21 H        1.9250     2.0100    -0.5300 H     1 <1>   0.1500 
 22 H        4.3030    -2.0480     0.9440 H     1 <1>   0.1500 
 23 H        4.3350     1.7590    -0.9960 H     1 <1>   0.1500 
 24 H        6.1740     0.3560    -1.1070 H     1 <1>   0.3700 
 25 H        8.1540    -0.6080    -1.4140 H     1 <1>   0.0800 
 26 H        8.4700    -2.9750    -0.9160 H     1 <1>   0.0800 
 27 H        9.0960    -2.5940     0.6580 H     1 <1>   0.0800 
 28 H        9.1650    -0.0490     1.3810 H     1 <1>   0.0800 
 29 H        8.5980     1.1410     0.2510 H     1 <1>   0.0800 
 30 H       10.3730    -1.8410    -1.9770 H     1 <1>   0.0800 
 31 H       10.9350    -3.0490    -0.8610 H     1 <1>   0.0800 
 32 H       11.0630     1.0240     0.3180 H     1 <1>   0.0800 
 33 H       10.4600     0.6380    -1.2690 H     1 <1>   0.0800 
 34 H       13.2430    -2.9300    -0.3960 H     1 <1>   0.0800 
 35 H       12.2940    -3.2620     1.0480 H     1 <1>   0.0800 
 36 H       13.8660    -2.5170     1.1800 H     1 <1>   0.0800 
@<TRIPOS>BOND
  1   1   2  1   
  2   2   3  ar  
  3   2   4  ar  
  4   3   5  ar  
  5   3  20  1   
  6   4   6  ar  
  7   4  21  1   
  8   5   7  ar  
  9   5  22  1   
 10   6   7  ar  
 11   6  23  1   
 12   7   8  1   
 13   8   9  am  
 14   8  24  1   
 15   9  10  2   
 16   9  11  1   
 17  11  12  1   
 18  11  13  1   
 19  11  25  1   
 20  12  14  1   
 21  12  26  1   
 22  12  27  1   
 23  13  15  1   
 24  13  28  1   
 25  13  29  1   
 26  14  16  1   
 27  14  30  1   
 28  14  31  1   
 29  15  16  1   
 30  15  32  1   
 31  15  33  1   
 32  16  17  am  
 33  17  18  2   
 34  17  19  1   
 35  19  34  1   
 36  19  35  1   
 37  19  36  1   
@<TRIPOS>SUBSTRUCTURE
  1 ****   9 GROUP 4 **** **** 0

# MOE 2024.06 (io_trps.svl 2023.06)
