@<TRIPOS>MOLECULE
NONAME
33 35 1 0 0 
SMALL
USER_CHARGES


@<TRIPOS>ATOM
  1 S       -4.6620    -0.6590    -1.2380 S.3   1 <1>  -0.0800 
  2 C       -5.8710     0.4920    -0.7180 C.2   1 <1>   0.1240 
  3 C       -3.3980     0.5640    -1.0830 C.2   1 <1>   0.1240 
  4 N       -7.2360     0.2610    -0.5720 N.pl3 1 <1>  -0.8220 
  5 C       -5.3300     1.6880    -0.4580 C.2   1 <1>  -0.1810 
  6 N       -2.1280     0.1620    -1.3960 N.pl3 1 <1>  -0.8840 
  7 C       -3.9010     1.7720    -0.6570 C.2   1 <1>  -0.0860 
  8 C       -7.5950     0.5920     0.8460 C.3   1 <1>   0.2090 
  9 C       -7.9510     1.2510    -1.4440 C.3   1 <1>   0.2090 
 10 C       -6.3970     2.6800    -0.0070 C.3   1 <1>   0.1010 
 11 C       -3.1320     2.9620    -0.4340 C.2   1 <1>   0.8060 
 12 C       -7.0860     2.0190     1.2110 C.3   1 <1>  -0.1600 
 13 C       -7.4520     2.6950    -1.1390 C.3   1 <1>  -0.1600 
 14 O       -3.6080     4.0190    -0.0560 O.2   1 <1>  -0.5700 
 15 O       -1.8070     2.9220    -0.6510 O.3   1 <1>  -0.4300 
 16 C       -0.9900     4.0530    -0.4520 C.3   1 <1>   0.1200 
 17 C        0.4460     3.6620    -0.7880 C.3   1 <1>  -0.2400 
 18 H       -1.3280     0.8020    -1.3360 H     1 <1>   0.4000 
 19 H       -1.9210    -0.7930    -1.7040 H     1 <1>   0.4000 
 20 H       -7.1400    -0.1360     1.4970 H     1 <1>   0.0800 
 21 H       -8.6620     0.5290     0.9730 H     1 <1>   0.0800 
 22 H       -9.0130     1.1770    -1.2780 H     1 <1>   0.0800 
 23 H       -7.7590     1.0080    -2.4750 H     1 <1>   0.0800 
 24 H       -6.0250     3.6620     0.2180 H     1 <1>   0.0800 
 25 H       -6.3820     1.9430     2.0200 H     1 <1>   0.0800 
 26 H       -7.9080     2.6220     1.5500 H     1 <1>   0.0800 
 27 H       -8.2850     3.3180    -0.8670 H     1 <1>   0.0800 
 28 H       -7.0130     3.1090    -2.0290 H     1 <1>   0.0800 
 29 H       -1.0760     4.3620     0.5760 H     1 <1>   0.0800 
 30 H       -1.3360     4.8430    -1.0980 H     1 <1>   0.0800 
 31 H        0.7740     2.8670    -0.1420 H     1 <1>   0.0800 
 32 H        1.0940     4.5080    -0.6450 H     1 <1>   0.0800 
 33 H        0.5150     3.3480    -1.8140 H     1 <1>   0.0800 
@<TRIPOS>BOND
  1   1   2  1   
  2   1   3  1   
  3   2   4  1   
  4   2   5  2   
  5   3   6  1   
  6   3   7  2   
  7   4   8  1   
  8   4   9  1   
  9   5   7  1   
 10   5  10  1   
 11   6  18  1   
 12   6  19  1   
 13   7  11  1   
 14   8  12  1   
 15   8  20  1   
 16   8  21  1   
 17   9  13  1   
 18   9  22  1   
 19   9  23  1   
 20  10  12  1   
 21  10  13  1   
 22  10  24  1   
 23  11  14  2   
 24  11  15  1   
 25  12  25  1   
 26  12  26  1   
 27  13  27  1   
 28  13  28  1   
 29  15  16  1   
 30  16  17  1   
 31  16  29  1   
 32  16  30  1   
 33  17  31  1   
 34  17  32  1   
 35  17  33  1   
@<TRIPOS>SUBSTRUCTURE
  1 ****   7 GROUP 4 **** **** 0

# MOE 2024.06 (io_trps.svl 2023.06)
