@<TRIPOS>MOLECULE
NONAME
37 37 1 0 0 
SMALL
USER_CHARGES


@<TRIPOS>ATOM
  1 BR      -0.5600    -0.0520     0.0570 Br    1 <1>  -0.1110 
  2 C        0.5770    -1.6120     0.0170 C.ar  1 <1>   0.1110 
  3 C        0.0010    -2.8750     0.0060 C.ar  1 <1>   0.0820 
  4 C        1.9440    -1.4170     0.0010 C.ar  1 <1>  -0.1500 
  5 O       -1.3560    -2.9650     0.0230 O.3   1 <1>  -0.3630 
  6 C        0.8500    -3.9790    -0.0220 C.ar  1 <1>  -0.1500 
  7 C        2.7790    -2.5230    -0.0280 C.ar  1 <1>  -0.1430 
  8 C       -2.0180    -4.2020     0.0110 C.3   1 <1>   0.1200 
  9 C        2.2250    -3.7960    -0.0380 C.ar  1 <1>  -0.1500 
 10 C        4.2870    -2.3470    -0.0440 C.3   1 <1>  -0.0960 
 11 C       -3.5180    -3.8980     0.0340 C.3   1 <1>   0.3430 
 12 N       -4.3440    -5.1440     0.0230 N.4   1 <1>  -0.9060 
 13 C       -5.7950    -4.8420     0.0460 C.3   1 <1>   0.3430 
 14 C       -6.5740    -6.1540     0.0330 C.3   1 <1>  -0.1600 
 15 C       -8.0850    -5.8920     0.0550 C.3   1 <1>  -0.1600 
 16 C       -8.8690    -7.2070     0.0420 C.3   1 <1>  -0.2400 
 17 H        2.3420    -0.4180     0.0130 H     1 <1>   0.1500 
 18 H        0.4740    -4.9830    -0.0310 H     1 <1>   0.1500 
 19 H       -1.7170    -4.7500     0.8860 H     1 <1>   0.0800 
 20 H       -1.7390    -4.7210    -0.8900 H     1 <1>   0.0800 
 21 H        2.8730    -4.6560    -0.0580 H     1 <1>   0.1500 
 22 H        4.5520    -1.3740    -0.4160 H     1 <1>   0.0800 
 23 H        4.7430    -3.0870    -0.6780 H     1 <1>   0.0800 
 24 H        4.6770    -2.4550     0.9520 H     1 <1>   0.0800 
 25 H       -3.7590    -3.2960    -0.8280 H     1 <1>   0.0800 
 26 H       -3.7380    -3.3250     0.9210 H     1 <1>   0.0800 
 27 H       -4.1150    -5.7270     0.8390 H     1 <1>   0.4500 
 28 H       -4.1350    -5.6990    -0.8160 H     1 <1>   0.4500 
 29 H       -6.0660    -4.2520    -0.8170 H     1 <1>   0.0800 
 30 H       -6.0450    -4.2820     0.9340 H     1 <1>   0.0800 
 31 H       -6.3130    -6.7430     0.8960 H     1 <1>   0.0800 
 32 H       -6.3330    -6.7130    -0.8560 H     1 <1>   0.0800 
 33 H       -8.3730    -5.3080    -0.8040 H     1 <1>   0.0800 
 34 H       -8.3520    -5.3370     0.9400 H     1 <1>   0.0800 
 35 H       -8.6490    -7.7740    -0.8460 H     1 <1>   0.0800 
 36 H       -9.9260    -7.0050     0.0580 H     1 <1>   0.0800 
 37 H       -8.6280    -7.8040     0.9040 H     1 <1>   0.0800 
@<TRIPOS>BOND
  1   1   2  1   
  2   2   3  ar  
  3   2   4  ar  
  4   3   5  1   
  5   3   6  ar  
  6   4   7  ar  
  7   4  17  1   
  8   5   8  1   
  9   6   9  ar  
 10   6  18  1   
 11   7   9  ar  
 12   7  10  1   
 13   8  11  1   
 14   8  19  1   
 15   8  20  1   
 16   9  21  1   
 17  10  22  1   
 18  10  23  1   
 19  10  24  1   
 20  11  12  1   
 21  11  25  1   
 22  11  26  1   
 23  12  13  1   
 24  12  27  1   
 25  12  28  1   
 26  13  14  1   
 27  13  29  1   
 28  13  30  1   
 29  14  15  1   
 30  14  31  1   
 31  14  32  1   
 32  15  16  1   
 33  15  33  1   
 34  15  34  1   
 35  16  35  1   
 36  16  36  1   
 37  16  37  1   
@<TRIPOS>SUBSTRUCTURE
  1 ****   8 GROUP 4 **** **** 0

# MOE 2024.06 (io_trps.svl 2023.06)
