@<TRIPOS>MOLECULE
NONAME
42 43 1 0 0 
SMALL
USER_CHARGES


@<TRIPOS>ATOM
  1 N        0.0290     0.1240     0.1720 N.4   1 <1>  -0.9590 
  2 C       -0.0720     1.1460     1.2710 C.3   1 <1>   0.3430 
  3 C       -1.2420    -0.6680     0.0840 C.3   1 <1>   0.3430 
  4 C        1.2460    -0.7290     0.2090 C.3   1 <1>   0.3430 
  5 C       -1.3140     2.0510     1.0810 C.3   1 <1>   0.1100 
  6 C       -2.4710     0.2580    -0.0950 C.3   1 <1>   0.1100 
  7 C        2.4970     0.1100    -0.0500 C.3   1 <1>  -0.1600 
  8 N       -2.0940     1.6900    -0.1250 N.3   1 <1>  -0.8100 
  9 C        3.7700    -0.7500    -0.1030 C.3   1 <1>   0.0630 
 10 C       -3.2740     2.5520    -0.2800 C.3   1 <1>   0.0300 
 11 C        4.9920     0.1610    -0.1510 C.ar  1 <1>  -0.1440 
 12 C        3.7740    -1.7240    -1.2890 C.3   1 <1>  -0.2400 
 13 C        5.2370     0.9850    -1.2430 C.ar  1 <1>  -0.1500 
 14 C        5.8800     0.1810     0.9150 C.ar  1 <1>  -0.1500 
 15 C        6.3450     1.8140    -1.2650 C.ar  1 <1>  -0.1500 
 16 C        6.9890     1.0100     0.8940 C.ar  1 <1>  -0.1500 
 17 C        7.2220     1.8280    -0.1960 C.ar  1 <1>  -0.1500 
 18 H        0.0160     0.6950    -0.6890 H     1 <1>   0.4500 
 19 H        0.8070     1.7690     1.2790 H     1 <1>   0.0800 
 20 H       -0.1340     0.6540     2.2280 H     1 <1>   0.0800 
 21 H       -1.3710    -1.2580     0.9770 H     1 <1>   0.0800 
 22 H       -1.1950    -1.3460    -0.7520 H     1 <1>   0.0800 
 23 H        1.1710    -1.4860    -0.5550 H     1 <1>   0.0800 
 24 H        1.3240    -1.2200     1.1650 H     1 <1>   0.0800 
 25 H       -0.9880     3.0750     0.9990 H     1 <1>   0.0800 
 26 H       -1.9390     1.9820     1.9560 H     1 <1>   0.0800 
 27 H       -3.1680     0.0790     0.7070 H     1 <1>   0.0800 
 28 H       -2.9670     0.0030    -1.0160 H     1 <1>   0.0800 
 29 H        2.6230     0.8280     0.7400 H     1 <1>   0.0800 
 30 H        2.3910     0.6410    -0.9790 H     1 <1>   0.0800 
 31 H        3.8250    -1.3350     0.8000 H     1 <1>   0.0800 
 32 H       -2.9700     3.5840    -0.3450 H     1 <1>   0.0800 
 33 H       -3.9440     2.4370     0.5560 H     1 <1>   0.0800 
 34 H       -3.7990     2.3000    -1.1860 H     1 <1>   0.0800 
 35 H        3.6290    -1.2040    -2.2190 H     1 <1>   0.0800 
 36 H        3.0090    -2.4710    -1.1860 H     1 <1>   0.0800 
 37 H        4.7240    -2.2290    -1.3340 H     1 <1>   0.0800 
 38 H        4.5710     0.9900    -2.0860 H     1 <1>   0.1500 
 39 H        5.7210    -0.4480     1.7730 H     1 <1>   0.1500 
 40 H        6.5270     2.4480    -2.1160 H     1 <1>   0.1500 
 41 H        7.6720     1.0180     1.7260 H     1 <1>   0.1500 
 42 H        8.0840     2.4720    -0.2130 H     1 <1>   0.1500 
@<TRIPOS>BOND
  1   1   2  1   
  2   1   3  1   
  3   1   4  1   
  4   1  18  1   
  5   2   5  1   
  6   2  19  1   
  7   2  20  1   
  8   3   6  1   
  9   3  21  1   
 10   3  22  1   
 11   4   7  1   
 12   4  23  1   
 13   4  24  1   
 14   5   8  1   
 15   5  25  1   
 16   5  26  1   
 17   6   8  1   
 18   6  27  1   
 19   6  28  1   
 20   7   9  1   
 21   7  29  1   
 22   7  30  1   
 23   8  10  1   
 24   9  11  1   
 25   9  12  1   
 26   9  31  1   
 27  10  32  1   
 28  10  33  1   
 29  10  34  1   
 30  11  13  ar  
 31  11  14  ar  
 32  12  35  1   
 33  12  36  1   
 34  12  37  1   
 35  13  15  ar  
 36  13  38  1   
 37  14  16  ar  
 38  14  39  1   
 39  15  17  ar  
 40  15  40  1   
 41  16  17  ar  
 42  16  41  1   
 43  17  42  1   
@<TRIPOS>SUBSTRUCTURE
  1 ****   7 GROUP 4 **** **** 0

# MOE 2024.06 (io_trps.svl 2023.06)
