@<TRIPOS>MOLECULE
NONAME
45 46 1 0 0 
SMALL
USER_CHARGES


@<TRIPOS>ATOM
  1 O        1.0120    -0.9290     0.1640 O.2   1 <1>  -0.5700 
  2 C        0.9030     0.0860    -0.4840 C.2   1 <1>   0.5690 
  3 N       -0.0570     1.0270    -0.2430 N.am  1 <1>  -0.5470 
  4 C        1.8920     0.3340    -1.6320 C.3   1 <1>   0.2610 
  5 C       -1.0470     1.0500     0.7500 C.ar  1 <1>   0.1170 
  6 O        2.0790     1.7250    -1.8600 O.3   1 <1>  -0.3630 
  7 C        1.3940    -0.2680    -2.9500 C.3   1 <1>  -0.2400 
  8 C       -2.1640     0.2090     0.6870 C.ar  1 <1>  -0.1440 
  9 C       -0.9300     1.9590     1.8050 C.ar  1 <1>  -0.1430 
 10 C        2.6810     2.5320    -0.9500 C.ar  1 <1>   0.0820 
 11 C       -3.1350     0.2880     1.6710 C.ar  1 <1>  -0.1500 
 12 C       -2.3700    -0.7980    -0.4430 C.3   1 <1>  -0.0170 
 13 C       -1.9120     2.0200     2.7780 C.ar  1 <1>  -0.1500 
 14 C        0.2750     2.8850     1.9210 C.3   1 <1>  -0.0970 
 15 C        3.3060     2.0720     0.2070 C.ar  1 <1>  -0.1500 
 16 C        2.6410     3.8920    -1.2070 C.ar  1 <1>  -0.1500 
 17 C       -3.0130     1.1880     2.7130 C.ar  1 <1>  -0.1500 
 18 C       -2.9430    -0.1170    -1.6880 C.3   1 <1>  -0.2400 
 19 C        3.8710     2.9680     1.1000 C.ar  1 <1>  -0.1430 
 20 C        3.2080     4.7890    -0.3200 C.ar  1 <1>  -0.1500 
 21 C        3.8200     4.3270     0.8320 C.ar  1 <1>  -0.1500 
 22 C        4.5430     2.4620     2.3640 C.3   1 <1>  -0.0970 
 23 H        0.0940     1.9120    -0.7290 H     1 <1>   0.3700 
 24 H        2.8450    -0.0980    -1.3870 H     1 <1>   0.0800 
 25 H        0.4490     0.1630    -3.2250 H     1 <1>   0.0800 
 26 H        1.2650    -1.3300    -2.8350 H     1 <1>   0.0800 
 27 H        2.1130    -0.0930    -3.7300 H     1 <1>   0.0800 
 28 H       -3.9990    -0.3520     1.6330 H     1 <1>   0.1500 
 29 H       -3.0480    -1.5690    -0.1210 H     1 <1>   0.0800 
 30 H       -1.4440    -1.2860    -0.6850 H     1 <1>   0.0800 
 31 H       -1.8280     2.7140     3.5950 H     1 <1>   0.1500 
 32 H        1.1620     2.3010     2.0840 H     1 <1>   0.0800 
 33 H        0.1650     3.5670     2.7430 H     1 <1>   0.0800 
 34 H        0.3980     3.4610     1.0210 H     1 <1>   0.0800 
 35 H        3.3610     1.0240     0.4340 H     1 <1>   0.1500 
 36 H        2.1660     4.2460    -2.1050 H     1 <1>   0.1500 
 37 H       -3.7730     1.2390     3.4730 H     1 <1>   0.1500 
 38 H       -3.8820     0.3520    -1.4530 H     1 <1>   0.0800 
 39 H       -3.1010    -0.8420    -2.4660 H     1 <1>   0.0800 
 40 H       -2.2630     0.6350    -2.0480 H     1 <1>   0.0800 
 41 H        3.1740     5.8450    -0.5250 H     1 <1>   0.1500 
 42 H        4.2600     5.0300     1.5180 H     1 <1>   0.1500 
 43 H        4.0620     1.5660     2.7130 H     1 <1>   0.0800 
 44 H        4.4870     3.2010     3.1430 H     1 <1>   0.0800 
 45 H        5.5770     2.2460     2.1650 H     1 <1>   0.0800 
@<TRIPOS>BOND
  1   1   2  2   
  2   2   3  am  
  3   2   4  1   
  4   3   5  1   
  5   3  23  1   
  6   4   6  1   
  7   4   7  1   
  8   4  24  1   
  9   5   8  ar  
 10   5   9  ar  
 11   6  10  1   
 12   7  25  1   
 13   7  26  1   
 14   7  27  1   
 15   8  11  ar  
 16   8  12  1   
 17   9  13  ar  
 18   9  14  1   
 19  10  15  ar  
 20  10  16  ar  
 21  11  17  ar  
 22  11  28  1   
 23  12  18  1   
 24  12  29  1   
 25  12  30  1   
 26  13  17  ar  
 27  13  31  1   
 28  14  32  1   
 29  14  33  1   
 30  14  34  1   
 31  15  19  ar  
 32  15  35  1   
 33  16  20  ar  
 34  16  36  1   
 35  17  37  1   
 36  18  38  1   
 37  18  39  1   
 38  18  40  1   
 39  19  21  ar  
 40  19  22  1   
 41  20  21  ar  
 42  20  41  1   
 43  21  42  1   
 44  22  43  1   
 45  22  44  1   
 46  22  45  1   
@<TRIPOS>SUBSTRUCTURE
  1 ****   3 GROUP 4 **** **** 0

# MOE 2024.06 (io_trps.svl 2023.06)
