@<TRIPOS>MOLECULE
NONAME
47 48 1 0 0 
SMALL
USER_CHARGES


@<TRIPOS>ATOM
  1 S       -0.0790    -0.7890     1.6090 S.o2  1 <1>   1.4470 
  2 O        0.3660    -1.9370     2.3700 O.2   1 <1>  -0.6500 
  3 O        0.3020     0.5380     2.0400 O.2   1 <1>  -0.6500 
  4 N        0.5280    -0.9820     0.0380 N.am  1 <1>  -0.8490 
  5 C       -1.8760    -0.8550     1.3670 C.ar  1 <1>  -0.0090 
  6 C        1.9560    -0.6390    -0.0310 C.3   1 <1>   0.1960 
  7 C        0.3300    -2.3440    -0.4850 C.3   1 <1>   0.1960 
  8 C       -2.4930    -0.0800     0.3940 C.ar  1 <1>  -0.1500 
  9 C       -2.6790    -1.6790     2.1420 C.ar  1 <1>  -0.1500 
 10 C        2.5030    -0.8220    -1.4590 C.3   1 <1>   0.1200 
 11 C        0.9070    -2.4770    -1.9060 C.3   1 <1>   0.1200 
 12 C       -3.8630    -0.1110     0.1730 C.ar  1 <1>  -0.1430 
 13 C       -4.0470    -1.7300     1.9480 C.ar  1 <1>  -0.1500 
 14 O        2.2600    -2.1210    -1.9210 O.3   1 <1>  -0.5600 
 15 C       -4.6510    -0.9510     0.9640 C.ar  1 <1>   0.0830 
 16 C       -4.4280     0.7900    -0.9350 C.3   1 <1>   0.0630 
 17 O       -5.9910    -0.9820     0.7490 O.3   1 <1>  -0.3630 
 18 C       -5.3770     1.8610    -0.3630 C.3   1 <1>  -0.1600 
 19 C       -5.0650    -0.0400    -2.0590 C.3   1 <1>  -0.2400 
 20 C       -6.8760    -1.7180     1.5610 C.3   1 <1>   0.1200 
 21 C       -5.7440     2.9560    -1.3740 C.3   1 <1>  -0.2400 
 22 C       -8.2930    -1.4590     1.0600 C.3   1 <1>  -0.2400 
 23 H        2.5180    -1.2610     0.6470 H     1 <1>   0.0800 
 24 H        2.0960     0.3870     0.2660 H     1 <1>   0.0800 
 25 H       -0.7210    -2.5740    -0.5110 H     1 <1>   0.0800 
 26 H        0.8150    -3.0650     0.1540 H     1 <1>   0.0800 
 27 H       -1.8690     0.5650    -0.2020 H     1 <1>   0.1500 
 28 H       -2.2280    -2.2880     2.9080 H     1 <1>   0.1500 
 29 H        3.5660    -0.6600    -1.4740 H     1 <1>   0.0800 
 30 H        2.0350    -0.1240    -2.1320 H     1 <1>   0.0800 
 31 H        0.3740    -1.8400    -2.5910 H     1 <1>   0.0800 
 32 H        0.8310    -3.4950    -2.2450 H     1 <1>   0.0800 
 33 H       -4.6230    -2.3850     2.5730 H     1 <1>   0.1500 
 34 H       -3.6020     1.3180    -1.3800 H     1 <1>   0.0800 
 35 H       -4.8970     2.3230     0.4830 H     1 <1>   0.0800 
 36 H       -6.2800     1.4000    -0.0060 H     1 <1>   0.0800 
 37 H       -5.9880    -0.4830    -1.7340 H     1 <1>   0.0800 
 38 H       -4.3950    -0.8270    -2.3560 H     1 <1>   0.0800 
 39 H       -5.2650     0.5740    -2.9170 H     1 <1>   0.0800 
 40 H       -6.7640    -1.3830     2.5780 H     1 <1>   0.0800 
 41 H       -6.6270    -2.7620     1.4780 H     1 <1>   0.0800 
 42 H       -4.8580     3.4240    -1.7630 H     1 <1>   0.0800 
 43 H       -6.3430     3.7080    -0.8920 H     1 <1>   0.0800 
 44 H       -6.3130     2.5480    -2.1900 H     1 <1>   0.0800 
 45 H       -8.5240    -0.4110     1.1300 H     1 <1>   0.0800 
 46 H       -8.9980    -2.0070     1.6600 H     1 <1>   0.0800 
 47 H       -8.3890    -1.7810     0.0380 H     1 <1>   0.0800 
@<TRIPOS>BOND
  1   1   2  2   
  2   1   3  2   
  3   1   4  am  
  4   1   5  1   
  5   4   6  1   
  6   4   7  1   
  7   5   8  ar  
  8   5   9  ar  
  9   6  10  1   
 10   6  23  1   
 11   6  24  1   
 12   7  11  1   
 13   7  25  1   
 14   7  26  1   
 15   8  12  ar  
 16   8  27  1   
 17   9  13  ar  
 18   9  28  1   
 19  10  14  1   
 20  10  29  1   
 21  10  30  1   
 22  11  14  1   
 23  11  31  1   
 24  11  32  1   
 25  12  15  ar  
 26  12  16  1   
 27  13  15  ar  
 28  13  33  1   
 29  15  17  1   
 30  16  18  1   
 31  16  19  1   
 32  16  34  1   
 33  17  20  1   
 34  18  21  1   
 35  18  35  1   
 36  18  36  1   
 37  19  37  1   
 38  19  38  1   
 39  19  39  1   
 40  20  22  1   
 41  20  40  1   
 42  20  41  1   
 43  21  42  1   
 44  21  43  1   
 45  21  44  1   
 46  22  45  1   
 47  22  46  1   
 48  22  47  1   
@<TRIPOS>SUBSTRUCTURE
  1 ****   8 GROUP 4 **** **** 0

# MOE 2024.06 (io_trps.svl 2023.06)
