@<TRIPOS>MOLECULE
NONAME
51 56 1 0 0 
SMALL
USER_CHARGES


@<TRIPOS>ATOM
  1 S       -0.4150     0.3000     0.2600 S.3   1 <1>  -0.0800 
  2 C       -1.7850    -0.8150     0.2360 C.ar  1 <1>   0.2970 
  3 C        0.7380    -1.0340     0.1820 C.2   1 <1>  -0.0450 
  4 N       -3.0140    -0.3500     0.2860 N.ar  1 <1>  -0.5670 
  5 C       -1.3480    -2.1340     0.1620 C.ar  1 <1>   0.0000 
  6 C        2.1440    -0.9190     0.1650 C.2   1 <1>   0.7150 
  7 C        0.0930    -2.2260     0.1410 C.2   1 <1>   0.1250 
  8 C       -3.9400    -1.2970     0.2680 C.ar  1 <1>   0.4100 
  9 C       -2.3440    -3.1150     0.1300 C.ar  1 <1>  -0.1430 
 10 O        2.7220     0.1600     0.1840 O.2   1 <1>  -0.5700 
 11 N        2.8410    -2.1090     0.1040 N.am  1 <1>  -0.2370 
 12 N        0.8320    -3.3850     0.0950 N.2   1 <1>  -0.5750 
 13 N       -5.2460    -0.8480     0.2910 N.pl3 1 <1>  -0.8380 
 14 C       -3.6550    -2.6760     0.2050 C.ar  1 <1>  -0.1430 
 15 C       -1.9790    -4.5950     0.0330 C.3   1 <1>  -0.0170 
 16 C        4.2370    -2.1590     0.1250 C.ar  1 <1>   0.4270 
 17 C        2.1170    -3.2880     0.0870 C.2   1 <1>   0.4500 
 18 C       -5.8900    -0.5800    -1.0270 C.3   1 <1>   0.2090 
 19 C       -5.6440     0.1370     1.3430 C.3   1 <1>   0.2090 
 20 C       -4.8180    -3.6720     0.2190 C.3   1 <1>  -0.0170 
 21 C       -3.1750    -5.4970    -0.2860 C.3   1 <1>  -0.1600 
 22 N        4.7820    -2.9550     1.0400 N.ar  1 <1>  -0.6200 
 23 C        4.9950    -1.4320    -0.7920 C.ar  1 <1>  -0.1500 
 24 C       -5.8060     0.9110    -1.4020 C.3   1 <1>   0.1200 
 25 C       -5.5990     1.5860     0.8200 C.3   1 <1>   0.1200 
 26 C       -4.3840    -5.1010     0.5600 C.3   1 <1>  -0.1600 
 27 C        6.1040    -3.0140     1.0530 C.ar  1 <1>   0.1600 
 28 C        6.3690    -1.5060    -0.7710 C.ar  1 <1>  -0.1500 
 29 O       -6.3180     1.7150    -0.3760 O.3   1 <1>  -0.5600 
 30 C        6.9310    -2.3240     0.1860 C.ar  1 <1>  -0.1500 
 31 H       -1.5450    -4.8980     0.9700 H     1 <1>   0.0800 
 32 H       -1.2400    -4.7380    -0.7350 H     1 <1>   0.0800 
 33 H        2.6990    -4.1930     0.0580 H     1 <1>   0.0600 
 34 H       -6.9220    -0.8770    -0.9830 H     1 <1>   0.0800 
 35 H       -5.4070    -1.1640    -1.7910 H     1 <1>   0.0800 
 36 H       -4.9860     0.0450     2.1900 H     1 <1>   0.0800 
 37 H       -6.6420    -0.0880     1.6740 H     1 <1>   0.0800 
 38 H       -5.2820    -3.6620    -0.7510 H     1 <1>   0.0800 
 39 H       -5.5560    -3.3610     0.9380 H     1 <1>   0.0800 
 40 H       -2.9120    -6.5230    -0.0980 H     1 <1>   0.0800 
 41 H       -3.4240    -5.4020    -1.3290 H     1 <1>   0.0800 
 42 H        4.5050    -0.8050    -1.5150 H     1 <1>   0.1500 
 43 H       -6.3810     1.1040    -2.2900 H     1 <1>   0.0800 
 44 H       -4.7820     1.1920    -1.5830 H     1 <1>   0.0800 
 45 H       -4.5810     1.8870     0.6450 H     1 <1>   0.0800 
 46 H       -6.0360     2.2530     1.5410 H     1 <1>   0.0800 
 47 H       -5.2000    -5.7780     0.3790 H     1 <1>   0.0800 
 48 H       -4.1260    -5.1560     1.6040 H     1 <1>   0.0800 
 49 H        6.5550    -3.6500     1.7970 H     1 <1>   0.1500 
 50 H        6.9780    -0.9500    -1.4640 H     1 <1>   0.1500 
 51 H        7.9990    -2.4250     0.2610 H     1 <1>   0.1500 
@<TRIPOS>BOND
  1   1   2  1   
  2   1   3  1   
  3   2   4  ar  
  4   2   5  ar  
  5   3   6  1   
  6   3   7  2   
  7   4   8  ar  
  8   5   7  1   
  9   5   9  ar  
 10   6  10  2   
 11   6  11  am  
 12   7  12  1   
 13   8  13  1   
 14   8  14  ar  
 15   9  14  ar  
 16   9  15  1   
 17  11  16  1   
 18  11  17  1   
 19  12  17  2   
 20  13  18  1   
 21  13  19  1   
 22  14  20  1   
 23  15  21  1   
 24  15  31  1   
 25  15  32  1   
 26  16  22  ar  
 27  16  23  ar  
 28  17  33  1   
 29  18  24  1   
 30  18  34  1   
 31  18  35  1   
 32  19  25  1   
 33  19  36  1   
 34  19  37  1   
 35  20  26  1   
 36  20  38  1   
 37  20  39  1   
 38  21  26  1   
 39  21  40  1   
 40  21  41  1   
 41  22  27  ar  
 42  23  28  ar  
 43  23  42  1   
 44  24  29  1   
 45  24  43  1   
 46  24  44  1   
 47  25  29  1   
 48  25  45  1   
 49  25  46  1   
 50  26  47  1   
 51  26  48  1   
 52  27  30  ar  
 53  27  49  1   
 54  28  30  ar  
 55  28  50  1   
 56  30  51  1   
@<TRIPOS>SUBSTRUCTURE
  1 ****   5 GROUP 4 **** **** 0

# MOE 2024.06 (io_trps.svl 2023.06)
