@<TRIPOS>MOLECULE
NONAME
39 40 1 0 0 
SMALL
USER_CHARGES


@<TRIPOS>ATOM
  1 O       -1.2800    -0.6870     1.2400 O.2   1 <1>  -0.5700 
  2 C       -0.8160    -1.4000     0.3880 C.2   1 <1>   0.5690 
  3 N        0.4570    -1.2210    -0.0080 N.am  1 <1>  -0.8000 
  4 C       -1.6560    -2.5080    -0.2430 C.3   1 <1>  -0.0190 
  5 C       -3.0360    -1.9910    -0.6960 C.3   1 <1>  -0.1600 
  6 C       -1.8240    -3.6940     0.7240 C.3   1 <1>  -0.1600 
  7 C       -3.8920    -3.1150    -1.2840 C.3   1 <1>   0.1400 
  8 C       -2.7020    -4.7970     0.1250 C.3   1 <1>   0.1400 
  9 N       -4.0100    -4.2180    -0.2890 N.am  1 <1>  -0.6600 
 10 C       -5.1860    -4.6670     0.2610 C.2   1 <1>   0.5690 
 11 O       -5.2140    -5.6200     1.0050 O.2   1 <1>  -0.5700 
 12 C       -6.4980    -3.9640    -0.0590 C.3   1 <1>  -0.0990 
 13 C       -7.6950    -4.4650     0.7620 C.3   1 <1>  -0.0170 
 14 C       -8.9460    -3.6860     0.3910 C.ar  1 <1>  -0.1440 
 15 C       -9.2590    -2.5090     1.0540 C.ar  1 <1>  -0.1500 
 16 C       -9.7810    -4.1410    -0.6180 C.ar  1 <1>  -0.1500 
 17 C      -10.3940    -1.7940     0.7120 C.ar  1 <1>  -0.1500 
 18 C      -10.9160    -3.4270    -0.9610 C.ar  1 <1>  -0.1500 
 19 C      -11.2230    -2.2530    -0.2970 C.ar  1 <1>  -0.1500 
 20 H        1.0080    -0.4800     0.4290 H     1 <1>   0.3700 
 21 H        0.9310    -1.7870    -0.7100 H     1 <1>   0.3700 
 22 H       -1.1350    -2.8610    -1.1160 H     1 <1>   0.0800 
 23 H       -2.9080    -1.2170    -1.4310 H     1 <1>   0.0800 
 24 H       -3.5570    -1.5610     0.1430 H     1 <1>   0.0800 
 25 H       -2.2770    -3.3530     1.6400 H     1 <1>   0.0800 
 26 H       -0.8610    -4.1030     0.9710 H     1 <1>   0.0800 
 27 H       -3.4270    -3.5000    -2.1750 H     1 <1>   0.0800 
 28 H       -4.8550    -2.7260    -1.5610 H     1 <1>   0.0800 
 29 H       -2.8410    -5.5780     0.8530 H     1 <1>   0.0800 
 30 H       -2.2210    -5.2300    -0.7360 H     1 <1>   0.0800 
 31 H       -6.7120    -4.1010    -1.1020 H     1 <1>   0.0800 
 32 H       -6.3750    -2.9140     0.1310 H     1 <1>   0.0800 
 33 H       -7.4890    -4.3470     1.8120 H     1 <1>   0.0800 
 34 H       -7.8490    -5.5140     0.5780 H     1 <1>   0.0800 
 35 H       -8.6190    -2.1450     1.8390 H     1 <1>   0.1500 
 36 H       -9.5500    -5.0530    -1.1390 H     1 <1>   0.1500 
 37 H      -10.6310    -0.8820     1.2300 H     1 <1>   0.1500 
 38 H      -11.5600    -3.7860    -1.7440 H     1 <1>   0.1500 
 39 H      -12.1060    -1.6980    -0.5630 H     1 <1>   0.1500 
@<TRIPOS>BOND
  1   1   2  2   
  2   2   3  am  
  3   2   4  1   
  4   3  20  1   
  5   3  21  1   
  6   4   5  1   
  7   4   6  1   
  8   4  22  1   
  9   5   7  1   
 10   5  23  1   
 11   5  24  1   
 12   6   8  1   
 13   6  25  1   
 14   6  26  1   
 15   7   9  1   
 16   7  27  1   
 17   7  28  1   
 18   8   9  1   
 19   8  29  1   
 20   8  30  1   
 21   9  10  am  
 22  10  11  2   
 23  10  12  1   
 24  12  13  1   
 25  12  31  1   
 26  12  32  1   
 27  13  14  1   
 28  13  33  1   
 29  13  34  1   
 30  14  15  ar  
 31  14  16  ar  
 32  15  17  ar  
 33  15  35  1   
 34  16  18  ar  
 35  16  36  1   
 36  17  19  ar  
 37  17  37  1   
 38  18  19  ar  
 39  18  38  1   
 40  19  39  1   
@<TRIPOS>SUBSTRUCTURE
  1 ****  12 GROUP 4 **** **** 0

# MOE 2024.06 (io_trps.svl 2023.06)
