@<TRIPOS>MOLECULE
NONAME
33 33 1 0 0 
SMALL
USER_CHARGES


@<TRIPOS>ATOM
  1 CL       0.4700     1.5090    -3.2650 Cl    1 <1>  -0.1770 
  2 C        1.1280     2.1470    -1.7730 C.ar  1 <1>   0.1770 
  3 C        0.3020     2.4510    -0.6960 C.ar  1 <1>   0.0830 
  4 C        2.4940     2.3470    -1.6970 C.ar  1 <1>  -0.1500 
  5 O       -1.0380     2.2700    -0.7390 O.3   1 <1>  -0.3630 
  6 C        0.8620     2.9760     0.4570 C.ar  1 <1>  -0.1500 
  7 C        3.0560     2.8620    -0.5370 C.ar  1 <1>  -0.1430 
  8 C       -1.4990     0.9470    -0.5790 C.3   1 <1>   0.0400 
  9 C        2.2310     3.1760     0.5360 C.ar  1 <1>  -0.1500 
 10 C        4.5570     3.0800    -0.4460 C.3   1 <1>  -0.0160 
 11 C        5.2550     1.7830    -0.0150 C.3   1 <1>  -0.1600 
 12 C        6.7680     1.9680     0.0940 C.3   1 <1>   0.1680 
 13 N        7.3760     0.6800     0.5090 N.pl3 1 <1>  -0.8440 
 14 C        8.3670     0.0100    -0.0150 C.cat 1 <1>   1.2000 
 15 N        8.7250    -1.1140     0.5070 N.pl3 1 <1>  -0.9670 
 16 N        9.0120     0.4370    -1.0490 N.pl3 1 <1>  -0.9670 
 17 H        3.1040     2.1010    -2.5470 H     1 <1>   0.1500 
 18 H        0.2230     3.2270     1.2850 H     1 <1>   0.1500 
 19 H       -2.5740     0.9630    -0.5910 H     1 <1>   0.0800 
 20 H       -1.1450     0.5670     0.3630 H     1 <1>   0.0800 
 21 H       -1.1330     0.3430    -1.3900 H     1 <1>   0.0800 
 22 H        2.6480     3.5830     1.4410 H     1 <1>   0.1500 
 23 H        4.7630     3.8650     0.2620 H     1 <1>   0.0800 
 24 H        4.9260     3.4010    -1.4050 H     1 <1>   0.0800 
 25 H        5.0350     1.0160    -0.7380 H     1 <1>   0.0800 
 26 H        4.8540     1.4810     0.9370 H     1 <1>   0.0800 
 27 H        6.9900     2.7230     0.8310 H     1 <1>   0.0800 
 28 H        7.1610     2.2940    -0.8550 H     1 <1>   0.0800 
 29 H        6.9320     0.2750     1.3300 H     1 <1>   0.4500 
 30 H        9.4900    -1.6670     0.1310 H     1 <1>   0.4500 
 31 H        8.2700    -1.5210     1.3190 H     1 <1>   0.4500 
 32 H        9.7870    -0.0650    -1.4720 H     1 <1>   0.4500 
 33 H        8.7710     1.3170    -1.4920 H     1 <1>   0.4500 
@<TRIPOS>BOND
  1   1   2  1   
  2   2   3  ar  
  3   2   4  ar  
  4   3   5  1   
  5   3   6  ar  
  6   4   7  ar  
  7   4  17  1   
  8   5   8  1   
  9   6   9  ar  
 10   6  18  1   
 11   7   9  ar  
 12   7  10  1   
 13   8  19  1   
 14   8  20  1   
 15   8  21  1   
 16   9  22  1   
 17  10  11  1   
 18  10  23  1   
 19  10  24  1   
 20  11  12  1   
 21  11  25  1   
 22  11  26  1   
 23  12  13  1   
 24  12  27  1   
 25  12  28  1   
 26  13  14  ar  
 27  13  29  1   
 28  14  15  ar  
 29  14  16  ar  
 30  15  30  1   
 31  15  31  1   
 32  16  32  1   
 33  16  33  1   
@<TRIPOS>SUBSTRUCTURE
  1 ****   7 GROUP 4 **** **** 0

# MOE 2024.06 (io_trps.svl 2023.06)
