@<TRIPOS>MOLECULE
NONAME
33 33 1 0 0 
SMALL
USER_CHARGES


@<TRIPOS>ATOM
  1 O       -0.6660     0.3790     1.1250 O.2   1 <1>  -0.5700 
  2 C       -0.6890     1.0980     0.1490 C.2   1 <1>   0.6900 
  3 N       -1.8210     1.7400    -0.2960 N.am  1 <1>  -0.3680 
  4 N        0.4610     1.2710    -0.5240 N.am  1 <1>  -0.8000 
  5 N       -3.0770     1.7710     0.3020 N.2   1 <1>  -0.5120 
  6 C       -4.0890     2.3680    -0.1860 C.2   1 <1>   0.3280 
  7 C       -5.4720     2.3450     0.5300 C.3   1 <1>   0.0610 
  8 C       -4.0250     3.1770    -1.4850 C.3   1 <1>  -0.1790 
  9 C       -5.5610     1.2190     1.5970 C.3   1 <1>  -0.1600 
 10 C       -6.6550     2.1400    -0.4520 C.3   1 <1>  -0.1600 
 11 C       -5.6680     3.6890     1.2600 C.3   1 <1>  -0.2400 
 12 C       -5.5790    -0.1940     0.9880 C.3   1 <1>  -0.1600 
 13 C       -6.6490     0.7460    -1.1010 C.3   1 <1>  -0.1600 
 14 C       -6.7120    -0.3500    -0.0320 C.3   1 <1>  -0.1600 
 15 H       -1.7180     2.2000    -1.1960 H     1 <1>   0.3700 
 16 H        1.2900     0.8260    -0.1300 H     1 <1>   0.3700 
 17 H        0.6220     2.0250    -1.1840 H     1 <1>   0.3700 
 18 H       -4.5830     4.0880    -1.3880 H     1 <1>   0.0800 
 19 H       -4.4410     2.6000    -2.2900 H     1 <1>   0.0800 
 20 H       -3.0220     3.4500    -1.7440 H     1 <1>   0.0800 
 21 H       -4.7370     1.2970     2.2850 H     1 <1>   0.0800 
 22 H       -6.4630     1.3440     2.1710 H     1 <1>   0.0800 
 23 H       -7.5790     2.2490     0.0890 H     1 <1>   0.0800 
 24 H       -6.6590     2.8930    -1.2180 H     1 <1>   0.0800 
 25 H       -6.5890     3.6920     1.8150 H     1 <1>   0.0800 
 26 H       -5.6940     4.5100     0.5670 H     1 <1>   0.0800 
 27 H       -4.8570     3.8520     1.9490 H     1 <1>   0.0800 
 28 H       -4.6360    -0.3950     0.5090 H     1 <1>   0.0800 
 29 H       -5.6990    -0.9200     1.7740 H     1 <1>   0.0800 
 30 H       -7.4950     0.6510    -1.7590 H     1 <1>   0.0800 
 31 H       -5.7580     0.6150    -1.6900 H     1 <1>   0.0800 
 32 H       -7.6580    -0.2970     0.4780 H     1 <1>   0.0800 
 33 H       -6.6440    -1.3170    -0.5000 H     1 <1>   0.0800 
@<TRIPOS>BOND
  1   1   2  2   
  2   2   3  am  
  3   2   4  am  
  4   3   5  1   
  5   3  15  1   
  6   4  16  1   
  7   4  17  1   
  8   5   6  2   
  9   6   7  1   
 10   6   8  1   
 11   7   9  1   
 12   7  10  1   
 13   7  11  1   
 14   8  18  1   
 15   8  19  1   
 16   8  20  1   
 17   9  12  1   
 18   9  21  1   
 19   9  22  1   
 20  10  13  1   
 21  10  23  1   
 22  10  24  1   
 23  11  25  1   
 24  11  26  1   
 25  11  27  1   
 26  12  14  1   
 27  12  28  1   
 28  12  29  1   
 29  13  14  1   
 30  13  30  1   
 31  13  31  1   
 32  14  32  1   
 33  14  33  1   
@<TRIPOS>SUBSTRUCTURE
  1 ****   6 GROUP 4 **** **** 0

# MOE 2024.06 (io_trps.svl 2023.06)
