@<TRIPOS>MOLECULE
NONAME
40 42 1 0 0 
SMALL
USER_CHARGES


@<TRIPOS>ATOM
  1 O        0.4590     0.3780    -0.8700 O.co2 1 <1>  -0.9000 
  2 C        0.8650     0.8610     0.1910 C.2   1 <1>   0.9060 
  3 O        1.4290     0.1720     1.0420 O.co2 1 <1>  -0.9000 
  4 C        0.6200     2.3130     0.5020 C.3   1 <1>  -0.1860 
  5 C       -0.7650     2.7080     1.0710 C.3   1 <1>  -0.0190 
  6 C        0.7060     3.2190    -0.7330 C.3   1 <1>   0.2000 
  7 C       -1.9580     1.7480     1.0530 C.2   1 <1>   0.5690 
  8 C       -1.1090     3.8860     0.1550 C.3   1 <1>   0.2000 
  9 O       -0.6230     3.4310    -1.0480 O.3   1 <1>  -0.5600 
 10 C        1.0990     4.6350    -0.3010 C.3   1 <1>  -0.1600 
 11 O       -2.8460     1.9980     1.8380 O.2   1 <1>  -0.5700 
 12 N       -2.0670     0.7110     0.1710 N.am  1 <1>  -0.5470 
 13 C       -0.1890     5.0920     0.3960 C.3   1 <1>  -0.1600 
 14 C       -3.1980    -0.0920    -0.0630 C.ar  1 <1>   0.1170 
 15 C       -3.3030    -1.4690     0.2300 C.ar  1 <1>   0.0830 
 16 C       -4.2980     0.5430    -0.6280 C.ar  1 <1>  -0.1500 
 17 O       -2.3460    -2.2640     0.7930 O.3   1 <1>  -0.3630 
 18 C       -4.4870    -2.1350    -0.0470 C.ar  1 <1>  -0.1500 
 19 C       -5.4710    -0.1350    -0.9030 C.ar  1 <1>  -0.1500 
 20 C       -0.9750    -1.9360     0.7680 C.3   1 <1>   0.1200 
 21 C       -5.5680    -1.4810    -0.6120 C.ar  1 <1>  -0.1500 
 22 C       -0.1840    -3.1510     1.2380 C.3   1 <1>  -0.2400 
 23 H        1.3880     2.5890     1.1990 H     1 <1>   0.0800 
 24 H       -0.6540     3.0510     2.0830 H     1 <1>   0.0800 
 25 H        1.2530     2.8140    -1.5680 H     1 <1>   0.0800 
 26 H       -2.1580     4.1220     0.0910 H     1 <1>   0.0800 
 27 H        1.3000     5.2330    -1.1720 H     1 <1>   0.0800 
 28 H        1.9570     4.6420     0.3470 H     1 <1>   0.0800 
 29 H       -1.2240     0.5050    -0.4020 H     1 <1>   0.3700 
 30 H       -0.0500     5.2830     1.4450 H     1 <1>   0.0800 
 31 H       -0.5950     5.9660    -0.0800 H     1 <1>   0.0800 
 32 H       -4.2250     1.5930    -0.8510 H     1 <1>   0.1500 
 33 H       -4.5550    -3.1820     0.1860 H     1 <1>   0.1500 
 34 H       -6.3040     0.3870    -1.3400 H     1 <1>   0.1500 
 35 H       -0.8050    -1.1060     1.4290 H     1 <1>   0.0800 
 36 H       -0.7010    -1.6770    -0.2400 H     1 <1>   0.0800 
 37 H       -6.4760    -2.0190    -0.8190 H     1 <1>   0.1500 
 38 H       -0.4700    -3.4120     2.2410 H     1 <1>   0.0800 
 39 H        0.8630    -2.9030     1.2300 H     1 <1>   0.0800 
 40 H       -0.3500    -3.9800     0.5760 H     1 <1>   0.0800 
@<TRIPOS>BOND
  1   1   2  ar  
  2   2   3  ar  
  3   2   4  1   
  4   4   5  1   
  5   4   6  1   
  6   4  23  1   
  7   5   7  1   
  8   5   8  1   
  9   5  24  1   
 10   6   9  1   
 11   6  10  1   
 12   6  25  1   
 13   7  11  2   
 14   7  12  am  
 15   8   9  1   
 16   8  13  1   
 17   8  26  1   
 18  10  13  1   
 19  10  27  1   
 20  10  28  1   
 21  12  14  1   
 22  12  29  1   
 23  13  30  1   
 24  13  31  1   
 25  14  15  ar  
 26  14  16  ar  
 27  15  17  1   
 28  15  18  ar  
 29  16  19  ar  
 30  16  32  1   
 31  17  20  1   
 32  18  21  ar  
 33  18  33  1   
 34  19  21  ar  
 35  19  34  1   
 36  20  22  1   
 37  20  35  1   
 38  20  36  1   
 39  21  37  1   
 40  22  38  1   
 41  22  39  1   
 42  22  40  1   
@<TRIPOS>SUBSTRUCTURE
  1 ****  12 GROUP 4 **** **** 0

# MOE 2024.06 (io_trps.svl 2023.06)
