@<TRIPOS>MOLECULE
NONAME
42 45 1 0 0 
SMALL
USER_CHARGES


@<TRIPOS>ATOM
  1 O        4.2200     0.6790     0.1700 O.2   1 <1>  -0.5750 
  2 C        3.1870     0.1830    -0.2260 C.2   1 <1>   0.5640 
  3 N        2.6280    -0.9090     0.3830 N.am  1 <1>  -0.6650 
  4 C        2.4970     0.9100    -1.3850 C.3   1 <1>   0.2210 
  5 C        3.4220    -1.7650     1.3120 C.3   1 <1>   0.1310 
  6 C        1.2650    -1.4570     0.1260 C.3   1 <1>   0.1310 
  7 N        1.8020     2.1580    -0.9330 N.pl3 1 <1>  -0.5800 
  8 C        3.5790    -3.1620     0.7000 C.3   1 <1>  -0.1690 
  9 C        1.3910    -2.8360    -0.5280 C.3   1 <1>  -0.1690 
 10 C        2.2000     2.9910     0.0480 C.cat 1 <1>   1.0690 
 11 C        0.6310     2.7220    -1.4350 C.ar  1 <1>   0.3040 
 12 C        2.2210    -3.7880     0.3460 C.3   1 <1>  -0.1690 
 13 N        3.1750     3.0980     0.9180 N.pl3 1 <1>  -0.7040 
 14 N        1.3910     4.0170     0.2090 N.pl3 1 <1>  -0.3370 
 15 C        0.3680     3.8870    -0.7200 C.ar  1 <1>   0.3800 
 16 C       -0.2270     2.3170    -2.4530 C.ar  1 <1>  -0.1590 
 17 C        2.9140     4.2410     1.6180 C.2   1 <1>   0.4790 
 18 N        1.8410     4.8280     1.2180 N.2   1 <1>  -0.2680 
 19 C       -0.7440     4.6680    -0.9970 C.ar  1 <1>  -0.1590 
 20 C       -1.3360     3.0940    -2.7300 C.ar  1 <1>  -0.1590 
 21 C        3.8220     4.7100     2.7320 C.3   1 <1>  -0.0810 
 22 C       -1.5940     4.2610    -2.0080 C.ar  1 <1>  -0.1590 
 23 H        1.8050     0.2560    -1.8800 H     1 <1>   0.0710 
 24 H        3.2510     1.1770    -2.1050 H     1 <1>   0.0710 
 25 H        2.9090    -1.8340     2.2560 H     1 <1>   0.0710 
 26 H        4.3960    -1.3410     1.4890 H     1 <1>   0.0710 
 27 H        0.6820    -0.8040    -0.4960 H     1 <1>   0.0710 
 28 H        0.7490    -1.5570     1.0660 H     1 <1>   0.0710 
 29 H        4.0960    -3.7980     1.3970 H     1 <1>   0.0710 
 30 H        4.1860    -3.0880    -0.1850 H     1 <1>   0.0710 
 31 H        1.8540    -2.7320    -1.4930 H     1 <1>   0.0710 
 32 H        0.4110    -3.2530    -0.6760 H     1 <1>   0.0710 
 33 H        1.6820    -3.9990     1.2530 H     1 <1>   0.0710 
 34 H        2.3740    -4.7190    -0.1720 H     1 <1>   0.0710 
 35 H        3.9260     2.3980     1.0020 H     1 <1>   0.4440 
 36 H       -0.0310     1.4200    -3.0130 H     1 <1>   0.1410 
 37 H       -0.9300     5.5650    -0.4320 H     1 <1>   0.1410 
 38 H       -2.0170     2.8030    -3.5150 H     1 <1>   0.1410 
 39 H        3.8720     3.9650     3.5050 H     1 <1>   0.0710 
 40 H        3.4460     5.6240     3.1570 H     1 <1>   0.0710 
 41 H        4.8110     4.8890     2.3500 H     1 <1>   0.0710 
 42 H       -2.4680     4.8470    -2.2480 H     1 <1>   0.1410 
@<TRIPOS>BOND
  1   1   2  2   
  2   2   3  am  
  3   2   4  1   
  4   3   5  1   
  5   3   6  1   
  6   4   7  1   
  7   4  23  1   
  8   4  24  1   
  9   5   8  1   
 10   5  25  1   
 11   5  26  1   
 12   6   9  1   
 13   6  27  1   
 14   6  28  1   
 15   7  10  ar  
 16   7  11  1   
 17   8  12  1   
 18   8  29  1   
 19   8  30  1   
 20   9  12  1   
 21   9  31  1   
 22   9  32  1   
 23  10  13  ar  
 24  10  14  ar  
 25  11  15  ar  
 26  11  16  ar  
 27  12  33  1   
 28  12  34  1   
 29  13  17  1   
 30  13  35  1   
 31  14  15  1   
 32  14  18  1   
 33  15  19  ar  
 34  16  20  ar  
 35  16  36  1   
 36  17  18  2   
 37  17  21  1   
 38  19  22  ar  
 39  19  37  1   
 40  20  22  ar  
 41  20  38  1   
 42  21  39  1   
 43  21  40  1   
 44  21  41  1   
 45  22  42  1   
@<TRIPOS>SUBSTRUCTURE
  1 ****   7 GROUP 4 **** **** 0

# MOE 2024.06 (io_trps.svl 2023.06)
