@<TRIPOS>MOLECULE
NONAME
32 32 1 0 0 
SMALL
USER_CHARGES


@<TRIPOS>ATOM
  1 O        0.9430     1.9860    -1.9570 O.2   1 <1>  -0.5700 
  2 C        0.2170     2.0980    -0.9980 C.2   1 <1>   0.5690 
  3 N        0.6290     1.7830     0.2590 N.am  1 <1>  -0.7300 
  4 C       -1.2040     2.6050    -1.2190 C.3   1 <1>   0.1810 
  5 C        1.9660     1.2960     0.6380 C.3   1 <1>   0.1400 
  6 O       -1.9310     2.6760     0.0020 O.3   1 <1>  -0.3620 
  7 C        2.4810     2.1420     1.7960 C.3   1 <1>  -0.2400 
  8 C       -3.2210     3.0970     0.0240 C.ar  1 <1>   0.0820 
  9 C       -3.8470     3.1220     1.2590 C.ar  1 <1>  -0.1500 
 10 C       -3.9280     3.4930    -1.1080 C.ar  1 <1>  -0.1500 
 11 C       -5.1630     3.5370     1.3710 C.ar  1 <1>  -0.1500 
 12 C       -5.2440     3.9070    -0.9910 C.ar  1 <1>  -0.1500 
 13 C       -5.8690     3.9320     0.2460 C.ar  1 <1>  -0.1440 
 14 C       -7.3140     4.3850     0.3670 C.3   1 <1>  -0.0170 
 15 C       -8.2640     3.1960     0.2080 C.3   1 <1>  -0.2400 
 16 H       -0.0490     1.8990     1.0180 H     1 <1>   0.3700 
 17 H       -1.7170     1.9350    -1.8820 H     1 <1>   0.0800 
 18 H       -1.1630     3.5890    -1.6470 H     1 <1>   0.0800 
 19 H        2.6370     1.3710    -0.2030 H     1 <1>   0.0800 
 20 H        1.9000     0.2620     0.9310 H     1 <1>   0.0800 
 21 H        2.5480     3.1730     1.4980 H     1 <1>   0.0800 
 22 H        3.4620     1.8060     2.0790 H     1 <1>   0.0800 
 23 H        1.8300     2.0530     2.6470 H     1 <1>   0.0800 
 24 H       -3.3020     2.8160     2.1330 H     1 <1>   0.1500 
 25 H       -3.4800     3.4870    -2.0820 H     1 <1>   0.1500 
 26 H       -5.6350     3.5480     2.3370 H     1 <1>   0.1500 
 27 H       -5.7840     4.2090    -1.8710 H     1 <1>   0.1500 
 28 H       -7.5290     5.1230    -0.3860 H     1 <1>   0.0800 
 29 H       -7.4710     4.8460     1.3270 H     1 <1>   0.0800 
 30 H       -8.1270     2.7390    -0.7560 H     1 <1>   0.0800 
 31 H       -9.2850     3.5220     0.2960 H     1 <1>   0.0800 
 32 H       -8.0680     2.4610     0.9680 H     1 <1>   0.0800 
@<TRIPOS>BOND
  1   1   2  2   
  2   2   3  am  
  3   2   4  1   
  4   3   5  1   
  5   3  16  1   
  6   4   6  1   
  7   4  17  1   
  8   4  18  1   
  9   5   7  1   
 10   5  19  1   
 11   5  20  1   
 12   6   8  1   
 13   7  21  1   
 14   7  22  1   
 15   7  23  1   
 16   8   9  ar  
 17   8  10  ar  
 18   9  11  ar  
 19   9  24  1   
 20  10  12  ar  
 21  10  25  1   
 22  11  13  ar  
 23  11  26  1   
 24  12  13  ar  
 25  12  27  1   
 26  13  14  1   
 27  14  15  1   
 28  14  28  1   
 29  14  29  1   
 30  15  30  1   
 31  15  31  1   
 32  15  32  1   
@<TRIPOS>SUBSTRUCTURE
  1 ****   8 GROUP 4 **** **** 0

# MOE 2024.06 (io_trps.svl 2023.06)
