@<TRIPOS>MOLECULE
NONAME
53 55 1 0 0 
SMALL
USER_CHARGES


@<TRIPOS>ATOM
  1 O        1.9410    -4.9640     0.9670 O.3   1 <1>  -0.3630 
  2 C        0.6490    -4.9440     0.5560 C.ar  1 <1>   0.0820 
  3 C        2.7210    -3.8210     0.6690 C.3   1 <1>   0.1200 
  4 C       -0.2800    -4.1130     1.1860 C.ar  1 <1>  -0.1440 
  5 C        0.2600    -5.7670    -0.5000 C.ar  1 <1>  -0.1440 
  6 C        3.4190    -4.0140    -0.6820 C.3   1 <1>   0.2000 
  7 C       -1.5740    -4.0570     0.6960 C.ar  1 <1>  -0.1500 
  8 C        0.0560    -3.2780     2.4160 C.3   1 <1>  -0.0960 
  9 C       -1.0410    -5.6930    -0.9700 C.ar  1 <1>  -0.1500 
 10 C        1.2080    -6.7650    -1.1510 C.3   1 <1>  -0.0960 
 11 O        4.1310    -5.2160    -0.6520 O.3   1 <1>  -0.6800 
 12 C        4.3780    -2.8590    -1.0500 C.3   1 <1>   0.3430 
 13 C       -1.9520    -4.8350    -0.3820 C.ar  1 <1>  -0.1500 
 14 N        5.7880    -3.1640    -0.6520 N.4   1 <1>  -0.9590 
 15 C        6.1150    -2.8050     0.7760 C.3   1 <1>   0.3430 
 16 C        6.7950    -2.5880    -1.6130 C.3   1 <1>   0.3430 
 17 C        7.5710    -3.1430     1.1540 C.3   1 <1>   0.2090 
 18 C        8.2500    -2.9240    -1.2260 C.3   1 <1>   0.2090 
 19 N        8.5370    -2.5430     0.1880 N.pl3 1 <1>  -0.8380 
 20 C        9.8590    -2.6860     0.5510 C.ar  1 <1>   0.4100 
 21 N       10.3280    -3.9250     0.5720 N.ar  1 <1>  -0.6200 
 22 C       10.6180    -1.5640     0.8670 C.ar  1 <1>  -0.1500 
 23 C       11.5990    -4.0480     0.9210 C.ar  1 <1>   0.1600 
 24 C       11.9370    -1.7070     1.2280 C.ar  1 <1>  -0.1500 
 25 C       12.4340    -2.9950     1.2530 C.ar  1 <1>  -0.1500 
 26 H        3.4360    -3.7050     1.4630 H     1 <1>   0.0800 
 27 H        2.0860    -2.9530     0.6420 H     1 <1>   0.0800 
 28 H        2.6610    -4.0900    -1.4430 H     1 <1>   0.0800 
 29 H       -2.3010    -3.4110     1.1560 H     1 <1>   0.1500 
 30 H        0.8390    -3.7420     2.9880 H     1 <1>   0.0800 
 31 H       -0.8070    -3.1940     3.0520 H     1 <1>   0.0800 
 32 H        0.3630    -2.2910     2.1250 H     1 <1>   0.0800 
 33 H       -1.3580    -6.3090    -1.7940 H     1 <1>   0.1500 
 34 H        1.7830    -6.2860    -1.9210 H     1 <1>   0.0800 
 35 H        0.6530    -7.5730    -1.5950 H     1 <1>   0.0800 
 36 H        1.8690    -7.1890    -0.4170 H     1 <1>   0.0800 
 37 H        3.5390    -5.9120    -0.2780 H     1 <1>   0.4000 
 38 H        4.0430    -1.9330    -0.6120 H     1 <1>   0.0800 
 39 H        4.3350    -2.7410    -2.1210 H     1 <1>   0.0800 
 40 H       -2.9600    -4.7830    -0.7560 H     1 <1>   0.1500 
 41 H        5.8360    -4.2010    -0.7160 H     1 <1>   0.4500 
 42 H        5.4570    -3.3320     1.4450 H     1 <1>   0.0800 
 43 H        5.9690    -1.7480     0.9240 H     1 <1>   0.0800 
 44 H        6.6970    -1.5150    -1.6360 H     1 <1>   0.0800 
 45 H        6.6060    -2.9590    -2.6070 H     1 <1>   0.0800 
 46 H        7.7010    -4.2130     1.1760 H     1 <1>   0.0800 
 47 H        7.7810    -2.7690     2.1420 H     1 <1>   0.0800 
 48 H        8.9250    -2.3950    -1.8780 H     1 <1>   0.0800 
 49 H        8.4260    -3.9780    -1.3580 H     1 <1>   0.0800 
 50 H       10.1590    -0.5950     0.8240 H     1 <1>   0.1500 
 51 H       12.0010    -5.0470     0.9450 H     1 <1>   0.1500 
 52 H       12.5530    -0.8600     1.4790 H     1 <1>   0.1500 
 53 H       13.4570    -3.1790     1.5260 H     1 <1>   0.1500 
@<TRIPOS>BOND
  1   1   2  1   
  2   1   3  1   
  3   2   4  ar  
  4   2   5  ar  
  5   3   6  1   
  6   3  26  1   
  7   3  27  1   
  8   4   7  ar  
  9   4   8  1   
 10   5   9  ar  
 11   5  10  1   
 12   6  11  1   
 13   6  12  1   
 14   6  28  1   
 15   7  13  ar  
 16   7  29  1   
 17   8  30  1   
 18   8  31  1   
 19   8  32  1   
 20   9  13  ar  
 21   9  33  1   
 22  10  34  1   
 23  10  35  1   
 24  10  36  1   
 25  11  37  1   
 26  12  14  1   
 27  12  38  1   
 28  12  39  1   
 29  13  40  1   
 30  14  15  1   
 31  14  16  1   
 32  14  41  1   
 33  15  17  1   
 34  15  42  1   
 35  15  43  1   
 36  16  18  1   
 37  16  44  1   
 38  16  45  1   
 39  17  19  1   
 40  17  46  1   
 41  17  47  1   
 42  18  19  1   
 43  18  48  1   
 44  18  49  1   
 45  19  20  1   
 46  20  21  ar  
 47  20  22  ar  
 48  21  23  ar  
 49  22  24  ar  
 50  22  50  1   
 51  23  25  ar  
 52  23  51  1   
 53  24  25  ar  
 54  24  52  1   
 55  25  53  1   
@<TRIPOS>SUBSTRUCTURE
  1 ****  14 GROUP 4 **** **** 0

# MOE 2024.06 (io_trps.svl 2023.06)
