@<TRIPOS>MOLECULE
NONAME
47 48 1 0 0 
SMALL
USER_CHARGES


@<TRIPOS>ATOM
  1 S       -0.3940    -1.1110     0.2640 S.o2  1 <1>   1.4470 
  2 O       -0.2610    -2.1390    -0.7400 O.2   1 <1>  -0.6500 
  3 O       -1.1360    -1.3700     1.4780 O.2   1 <1>  -0.6500 
  4 N       -1.1500     0.1380    -0.5570 N.am  1 <1>  -0.9140 
  5 C        1.2280    -0.4030     0.6650 C.ar  1 <1>  -0.0090 
  6 C       -2.5890     0.0020    -0.6180 C.3   1 <1>   0.2760 
  7 C        2.2160    -0.2850    -0.3000 C.ar  1 <1>  -0.1500 
  8 C        1.5160     0.0650     1.9380 C.ar  1 <1>  -0.1500 
  9 C       -3.0100     0.3590    -2.0490 C.3   1 <1>  -0.1600 
 10 C       -3.2070     0.9050     0.4600 C.3   1 <1>  -0.1600 
 11 C        3.4730     0.2790    -0.0570 C.ar  1 <1>   0.0860 
 12 C        2.7440     0.6240     2.2300 C.ar  1 <1>  -0.1500 
 13 C       -4.5270     0.3410    -2.3040 C.3   1 <1>  -0.1600 
 14 C       -4.6920     0.5950     0.7040 C.3   1 <1>  -0.1600 
 15 C        3.7270     0.7380     1.2480 C.ar  1 <1>   0.0830 
 16 C        4.4220     0.3580    -1.1610 C.2   1 <1>   0.5440 
 17 C       -5.2430     1.5430    -1.6720 C.3   1 <1>  -0.1600 
 18 C       -5.6720     1.3460    -0.2100 C.3   1 <1>  -0.1600 
 19 O        4.9310     1.2960     1.5330 O.3   1 <1>  -0.3630 
 20 O        4.0320     0.2690    -2.3110 O.2   1 <1>  -0.5700 
 21 N        5.7640     0.5180    -0.9560 N.am  1 <1>  -0.7300 
 22 C        5.2420     1.8780     2.7820 C.3   1 <1>   0.0400 
 23 C        6.8150     0.6070    -2.0000 C.3   1 <1>   0.0600 
 24 H       -0.8240     0.0020    -1.5100 H     1 <1>   0.4200 
 25 H       -2.8710    -1.0230    -0.4310 H     1 <1>   0.0800 
 26 H        2.0030    -0.6490    -1.2920 H     1 <1>   0.1500 
 27 H        0.7660    -0.0090     2.7100 H     1 <1>   0.1500 
 28 H       -2.5620    -0.3590    -2.7140 H     1 <1>   0.0800 
 29 H       -2.6230     1.3300    -2.3050 H     1 <1>   0.0800 
 30 H       -3.0700     1.9420     0.2100 H     1 <1>   0.0800 
 31 H       -2.6900     0.7250     1.3860 H     1 <1>   0.0800 
 32 H        2.9120     0.9650     3.2340 H     1 <1>   0.1500 
 33 H       -4.9630    -0.5840    -1.9680 H     1 <1>   0.0800 
 34 H       -4.6750     0.3950    -3.3690 H     1 <1>   0.0800 
 35 H       -4.9320     0.8510     1.7220 H     1 <1>   0.0800 
 36 H       -4.8540    -0.4660     0.6110 H     1 <1>   0.0800 
 37 H       -6.1290     1.7550    -2.2460 H     1 <1>   0.0800 
 38 H       -4.6150     2.4150    -1.7460 H     1 <1>   0.0800 
 39 H       -5.8580     2.3190     0.2110 H     1 <1>   0.0800 
 40 H       -6.6090     0.8160    -0.1930 H     1 <1>   0.0800 
 41 H        6.0530     0.7160     0.0080 H     1 <1>   0.3700 
 42 H        6.2360     2.2850     2.7250 H     1 <1>   0.0800 
 43 H        5.2030     1.1190     3.5430 H     1 <1>   0.0800 
 44 H        4.5390     2.6670     2.9870 H     1 <1>   0.0800 
 45 H        6.4050     0.3690    -2.9670 H     1 <1>   0.0800 
 46 H        7.6060    -0.0870    -1.7790 H     1 <1>   0.0800 
 47 H        7.2130     1.6060    -2.0290 H     1 <1>   0.0800 
@<TRIPOS>BOND
  1   1   2  2   
  2   1   3  2   
  3   1   4  am  
  4   1   5  1   
  5   4   6  1   
  6   4  24  1   
  7   5   7  ar  
  8   5   8  ar  
  9   6   9  1   
 10   6  10  1   
 11   6  25  1   
 12   7  11  ar  
 13   7  26  1   
 14   8  12  ar  
 15   8  27  1   
 16   9  13  1   
 17   9  28  1   
 18   9  29  1   
 19  10  14  1   
 20  10  30  1   
 21  10  31  1   
 22  11  15  ar  
 23  11  16  1   
 24  12  15  ar  
 25  12  32  1   
 26  13  17  1   
 27  13  33  1   
 28  13  34  1   
 29  14  18  1   
 30  14  35  1   
 31  14  36  1   
 32  15  19  1   
 33  16  20  2   
 34  16  21  am  
 35  17  18  1   
 36  17  37  1   
 37  17  38  1   
 38  18  39  1   
 39  18  40  1   
 40  19  22  1   
 41  21  23  1   
 42  21  41  1   
 43  22  42  1   
 44  22  43  1   
 45  22  44  1   
 46  23  45  1   
 47  23  46  1   
 48  23  47  1   
@<TRIPOS>SUBSTRUCTURE
  1 ****   5 GROUP 4 **** **** 0

# MOE 2024.06 (io_trps.svl 2023.06)
