@<TRIPOS>MOLECULE
NONAME
37 38 1 0 0 
SMALL
USER_CHARGES


@<TRIPOS>ATOM
  1 BR       0.1360    -0.1900     0.7200 Br    1 <1>  -0.1110 
  2 C       -1.5970    -0.9130     0.3050 C.ar  1 <1>   0.1110 
  3 C       -2.7140    -0.1340     0.5290 C.ar  1 <1>  -0.1500 
  4 C       -1.6760    -2.1930    -0.2050 C.ar  1 <1>  -0.1500 
  5 C       -3.9850    -0.6320     0.2380 C.ar  1 <1>   0.0860 
  6 C       -2.9270    -2.7020    -0.5000 C.ar  1 <1>  -0.1500 
  7 C       -5.1680     0.1790     0.4690 C.2   1 <1>   0.6340 
  8 C       -4.0590    -1.9320    -0.2800 C.ar  1 <1>  -0.1500 
  9 O       -5.1290     1.3060     0.9150 O.2   1 <1>  -0.5700 
 10 O       -6.3690    -0.3360     0.1760 O.3   1 <1>  -0.4300 
 11 C       -7.5450     0.4170     0.3930 C.3   1 <1>   0.1200 
 12 C       -8.7530    -0.4100    -0.0620 C.3   1 <1>   0.3430 
 13 N      -10.0570     0.2810     0.2070 N.4   1 <1>  -0.9590 
 14 C      -11.1950    -0.6610    -0.0150 C.3   1 <1>   0.3430 
 15 C      -10.2220     1.5290    -0.6030 C.3   1 <1>   0.3430 
 16 C      -12.5070     0.0040     0.4060 C.3   1 <1>  -0.1600 
 17 C      -11.5130     2.2410    -0.1960 C.3   1 <1>  -0.1600 
 18 C      -12.7360     1.3270    -0.3360 C.3   1 <1>  -0.1600 
 19 H       -2.5970     0.8590     0.9290 H     1 <1>   0.1500 
 20 H       -0.7830    -2.7710    -0.3670 H     1 <1>   0.1500 
 21 H       -3.0180    -3.6990    -0.9000 H     1 <1>   0.1500 
 22 H       -5.0190    -2.3540    -0.5190 H     1 <1>   0.1500 
 23 H       -7.4600     1.3280    -0.1730 H     1 <1>   0.0800 
 24 H       -7.6050     0.6390     1.4450 H     1 <1>   0.0800 
 25 H       -8.7330    -1.3480     0.4680 H     1 <1>   0.0800 
 26 H       -8.6620    -0.6130    -1.1170 H     1 <1>   0.0800 
 27 H      -10.0900     0.5540     1.1990 H     1 <1>   0.4500 
 28 H      -11.0500    -1.5610     0.5620 H     1 <1>   0.0800 
 29 H      -11.2480    -0.9310    -1.0570 H     1 <1>   0.0800 
 30 H      -10.2640     1.2810    -1.6510 H     1 <1>   0.0800 
 31 H       -9.3880     2.1930    -0.4430 H     1 <1>   0.0800 
 32 H      -12.4970     0.1760     1.4690 H     1 <1>   0.0800 
 33 H      -13.3230    -0.6660     0.1980 H     1 <1>   0.0800 
 34 H      -11.6460     3.1090    -0.8190 H     1 <1>   0.0800 
 35 H      -11.4270     2.5870     0.8200 H     1 <1>   0.0800 
 36 H      -13.6100     1.8210     0.0560 H     1 <1>   0.0800 
 37 H      -12.9170     1.1260    -1.3800 H     1 <1>   0.0800 
@<TRIPOS>BOND
  1   1   2  1   
  2   2   3  ar  
  3   2   4  ar  
  4   3   5  ar  
  5   3  19  1   
  6   4   6  ar  
  7   4  20  1   
  8   5   7  1   
  9   5   8  ar  
 10   6   8  ar  
 11   6  21  1   
 12   7   9  2   
 13   7  10  1   
 14   8  22  1   
 15  10  11  1   
 16  11  12  1   
 17  11  23  1   
 18  11  24  1   
 19  12  13  1   
 20  12  25  1   
 21  12  26  1   
 22  13  14  1   
 23  13  15  1   
 24  13  27  1   
 25  14  16  1   
 26  14  28  1   
 27  14  29  1   
 28  15  17  1   
 29  15  30  1   
 30  15  31  1   
 31  16  18  1   
 32  16  32  1   
 33  16  33  1   
 34  17  18  1   
 35  17  34  1   
 36  17  35  1   
 37  18  36  1   
 38  18  37  1   
@<TRIPOS>SUBSTRUCTURE
  1 ****  10 GROUP 4 **** **** 0

# MOE 2024.06 (io_trps.svl 2023.06)
