@<TRIPOS>MOLECULE
NONAME
46 47 1 0 0 
SMALL
USER_CHARGES


@<TRIPOS>ATOM
  1 O       -2.1790     2.1010    -0.3030 O.2   1 <1>  -0.5700 
  2 C       -2.4640     1.1100    -0.9220 C.2   1 <1>   0.4230 
  3 C       -3.6940     0.3750    -0.7060 C.ar  1 <1>   0.0860 
  4 C       -1.4610     0.6510    -1.9630 C.3   1 <1>  -0.1790 
  5 C       -3.9300    -0.9030    -1.2270 C.ar  1 <1>  -0.1500 
  6 C       -4.7180     0.9370     0.0590 C.ar  1 <1>  -0.1500 
  7 C       -5.1180    -1.5810    -1.0000 C.ar  1 <1>  -0.1430 
  8 C       -5.9090     0.2780     0.2910 C.ar  1 <1>  -0.1500 
  9 C       -6.1220    -0.9900    -0.2380 C.ar  1 <1>   0.0830 
 10 C       -5.3270    -2.9700    -1.5810 C.3   1 <1>   0.4870 
 11 O       -7.2630    -1.6980    -0.0460 O.3   1 <1>  -0.3630 
 12 N       -5.6260    -3.9130    -0.4760 N.4   1 <1>  -0.9590 
 13 C       -8.3480    -1.2580     0.7450 C.3   1 <1>   0.2000 
 14 C       -4.4910    -4.0700     0.4760 C.3   1 <1>   0.3430 
 15 C       -6.1650    -5.2100    -0.9620 C.3   1 <1>   0.3430 
 16 C       -8.0240    -1.5270     2.2160 C.3   1 <1>  -0.2400 
 17 C       -9.5740    -2.0530     0.3010 C.3   1 <1>  -0.2400 
 18 C       -4.9560    -4.8750     1.6910 C.3   1 <1>  -0.1600 
 19 C       -6.6580    -6.0320     0.2300 C.3   1 <1>  -0.1600 
 20 C       -5.5580    -6.2270     1.2840 C.3   1 <1>  -0.1600 
 21 H       -0.9650    -0.2400    -1.6290 H     1 <1>   0.0800 
 22 H       -0.7210     1.4170    -2.1130 H     1 <1>   0.0800 
 23 H       -1.9530     0.4700    -2.9010 H     1 <1>   0.0800 
 24 H       -3.1640    -1.3710    -1.8180 H     1 <1>   0.1500 
 25 H       -4.5700     1.9190     0.4790 H     1 <1>   0.1500 
 26 H       -6.6530     0.7740     0.8860 H     1 <1>   0.1500 
 27 H       -4.4500    -3.2910    -2.1190 H     1 <1>   0.0800 
 28 H       -6.1590    -2.9350    -2.2660 H     1 <1>   0.0800 
 29 H       -6.3820    -3.4330     0.0440 H     1 <1>   0.4500 
 30 H       -8.5200    -0.2120     0.5590 H     1 <1>   0.0800 
 31 H       -4.1420    -3.1030     0.8020 H     1 <1>   0.0800 
 32 H       -3.6760    -4.5840    -0.0070 H     1 <1>   0.0800 
 33 H       -5.3930    -5.7550    -1.4820 H     1 <1>   0.0800 
 34 H       -6.9840    -5.0410    -1.6430 H     1 <1>   0.0800 
 35 H       -7.8650    -2.5760     2.3860 H     1 <1>   0.0800 
 36 H       -8.8470    -1.2070     2.8310 H     1 <1>   0.0800 
 37 H       -7.1520    -0.9800     2.5230 H     1 <1>   0.0800 
 38 H      -10.4330    -1.7440     0.8690 H     1 <1>   0.0800 
 39 H       -9.4250    -3.1060     0.4550 H     1 <1>   0.0800 
 40 H       -9.7770    -1.8650    -0.7380 H     1 <1>   0.0800 
 41 H       -5.6830    -4.3000     2.2390 H     1 <1>   0.0800 
 42 H       -4.1180    -5.0400     2.3450 H     1 <1>   0.0800 
 43 H       -6.9900    -6.9940    -0.1190 H     1 <1>   0.0800 
 44 H       -7.5070    -5.5410     0.6740 H     1 <1>   0.0800 
 45 H       -5.9660    -6.7210     2.1500 H     1 <1>   0.0800 
 46 H       -4.7830    -6.8590     0.8820 H     1 <1>   0.0800 
@<TRIPOS>BOND
  1   1   2  2   
  2   2   3  1   
  3   2   4  1   
  4   3   5  ar  
  5   3   6  ar  
  6   4  21  1   
  7   4  22  1   
  8   4  23  1   
  9   5   7  ar  
 10   5  24  1   
 11   6   8  ar  
 12   6  25  1   
 13   7   9  ar  
 14   7  10  1   
 15   8   9  ar  
 16   8  26  1   
 17   9  11  1   
 18  10  12  1   
 19  10  27  1   
 20  10  28  1   
 21  11  13  1   
 22  12  14  1   
 23  12  15  1   
 24  12  29  1   
 25  13  16  1   
 26  13  17  1   
 27  13  30  1   
 28  14  18  1   
 29  14  31  1   
 30  14  32  1   
 31  15  19  1   
 32  15  33  1   
 33  15  34  1   
 34  16  35  1   
 35  16  36  1   
 36  16  37  1   
 37  17  38  1   
 38  17  39  1   
 39  17  40  1   
 40  18  20  1   
 41  18  41  1   
 42  18  42  1   
 43  19  20  1   
 44  19  43  1   
 45  19  44  1   
 46  20  45  1   
 47  20  46  1   
@<TRIPOS>SUBSTRUCTURE
  1 ****   7 GROUP 4 **** **** 0

# MOE 2024.06 (io_trps.svl 2023.06)
