@<TRIPOS>MOLECULE
NONAME
40 40 1 0 0 
SMALL
USER_CHARGES


@<TRIPOS>ATOM
  1 O        0.4960    -0.2990     0.3100 O.3   1 <1>  -0.3630 
  2 C       -0.7280    -0.8210     0.0440 C.ar  1 <1>   0.0830 
  3 C        1.6700    -0.9400    -0.1210 C.3   1 <1>   0.1200 
  4 C       -1.8190    -0.1410     0.5590 C.ar  1 <1>  -0.1500 
  5 C       -0.9340    -1.9790    -0.7010 C.ar  1 <1>  -0.1500 
  6 C        2.8500    -0.1000     0.3760 C.3   1 <1>   0.3430 
  7 C       -3.1030    -0.6060     0.3380 C.ar  1 <1>  -0.1500 
  8 C       -2.2210    -2.4400    -0.9200 C.ar  1 <1>  -0.1500 
  9 N        4.1880    -0.6390    -0.0510 N.4   1 <1>  -0.9590 
 10 C       -3.3120    -1.7580    -0.4030 C.ar  1 <1>  -0.1430 
 11 C        4.4870    -1.9600     0.5680 C.3   1 <1>   0.3430 
 12 C        5.2450     0.3630     0.2550 C.3   1 <1>   0.3430 
 13 C       -4.7220    -2.2690    -0.6450 C.3   1 <1>  -0.0170 
 14 C        4.4370    -3.0250    -0.5190 C.3   1 <1>  -0.2400 
 15 C        6.4980     0.0480    -0.5530 C.3   1 <1>  -0.2400 
 16 C       -5.1370    -3.2440     0.4590 C.3   1 <1>  -0.2400 
 17 H        1.6510    -0.9810    -1.1960 H     1 <1>   0.0800 
 18 H        1.6820    -1.9260     0.3060 H     1 <1>   0.0800 
 19 H       -1.6630     0.7530     1.1350 H     1 <1>   0.1500 
 20 H       -0.1200    -2.5360    -1.1210 H     1 <1>   0.1500 
 21 H        2.8090    -0.0500     1.4520 H     1 <1>   0.0800 
 22 H        2.7300     0.8980    -0.0120 H     1 <1>   0.0800 
 23 H       -3.9400    -0.0680     0.7470 H     1 <1>   0.1500 
 24 H       -2.3750    -3.3360    -1.4950 H     1 <1>   0.1500 
 25 H        4.1800    -0.7620    -1.0720 H     1 <1>   0.4500 
 26 H        3.7720    -2.1860     1.3440 H     1 <1>   0.0800 
 27 H        5.4700    -1.9520     1.0130 H     1 <1>   0.0800 
 28 H        5.4700     0.3600     1.3110 H     1 <1>   0.0800 
 29 H        4.9000     1.3500    -0.0120 H     1 <1>   0.0800 
 30 H       -4.7710    -2.7640    -1.6000 H     1 <1>   0.0800 
 31 H       -5.4090    -1.4410    -0.6730 H     1 <1>   0.0800 
 32 H        3.4630    -3.0820    -0.9700 H     1 <1>   0.0800 
 33 H        5.1770    -2.8320    -1.2760 H     1 <1>   0.0800 
 34 H        4.6550    -3.9840    -0.0830 H     1 <1>   0.0800 
 35 H        7.2370     0.8080    -0.3640 H     1 <1>   0.0800 
 36 H        6.9250    -0.8970    -0.2720 H     1 <1>   0.0800 
 37 H        6.2850     0.0520    -1.6070 H     1 <1>   0.0800 
 38 H       -4.4670    -4.0850     0.4830 H     1 <1>   0.0800 
 39 H       -6.1350    -3.6010     0.2830 H     1 <1>   0.0800 
 40 H       -5.1080    -2.7530     1.4160 H     1 <1>   0.0800 
@<TRIPOS>BOND
  1   1   2  1   
  2   1   3  1   
  3   2   4  ar  
  4   2   5  ar  
  5   3   6  1   
  6   3  17  1   
  7   3  18  1   
  8   4   7  ar  
  9   4  19  1   
 10   5   8  ar  
 11   5  20  1   
 12   6   9  1   
 13   6  21  1   
 14   6  22  1   
 15   7  10  ar  
 16   7  23  1   
 17   8  10  ar  
 18   8  24  1   
 19   9  11  1   
 20   9  12  1   
 21   9  25  1   
 22  10  13  1   
 23  11  14  1   
 24  11  26  1   
 25  11  27  1   
 26  12  15  1   
 27  12  28  1   
 28  12  29  1   
 29  13  16  1   
 30  13  30  1   
 31  13  31  1   
 32  14  32  1   
 33  14  33  1   
 34  14  34  1   
 35  15  35  1   
 36  15  36  1   
 37  15  37  1   
 38  16  38  1   
 39  16  39  1   
 40  16  40  1   
@<TRIPOS>SUBSTRUCTURE
  1 ****   1 GROUP 4 **** **** 0

# MOE 2024.06 (io_trps.svl 2023.06)
