@<TRIPOS>MOLECULE
NONAME
46 48 1 0 0 
SMALL
USER_CHARGES


@<TRIPOS>ATOM
  1 N       -0.7650    -0.3450    -0.3080 N.4   1 <1>  -0.9590 
  2 C       -2.0350     0.3700    -0.6320 C.3   1 <1>   0.3430 
  3 C       -1.0100    -1.5750     0.5080 C.3   1 <1>   0.3430 
  4 C        0.1930     0.5850     0.3540 C.3   1 <1>   0.3430 
  5 C       -2.9690    -0.5530    -1.4040 C.3   1 <1>  -0.1600 
  6 C       -1.9280    -2.5280    -0.2520 C.3   1 <1>  -0.1600 
  7 C        1.6110     0.0100     0.3200 C.3   1 <1>  -0.1600 
  8 C       -3.2330    -1.8280    -0.6120 C.3   1 <1>   0.2890 
  9 C        2.6200     1.0120     0.8910 C.3   1 <1>  -0.2400 
 10 N       -4.0440    -2.7240    -1.4390 N.pl3 1 <1>  -0.8690 
 11 C       -5.2370    -3.1970    -0.9060 C.ar  1 <1>   0.1000 
 12 C       -6.2340    -2.3240    -0.4830 C.ar  1 <1>  -0.1500 
 13 C       -5.4450    -4.5690    -0.7890 C.ar  1 <1>  -0.1500 
 14 C       -7.3980    -2.8270     0.0650 C.ar  1 <1>  -0.1440 
 15 C       -6.6150    -5.0680    -0.2410 C.ar  1 <1>  -0.1500 
 16 C       -7.5860    -4.1810     0.1860 C.ar  1 <1>  -0.1440 
 17 C       -8.5890    -2.0610     0.5830 C.3   1 <1>  -0.0170 
 18 C       -8.9240    -4.4970     0.8050 C.3   1 <1>  -0.0170 
 19 C       -9.6630    -3.1480     0.7620 C.3   1 <1>  -0.1600 
 20 H       -0.3430    -0.6390    -1.2000 H     1 <1>   0.4500 
 21 H       -1.8260     1.2450    -1.2270 H     1 <1>   0.0800 
 22 H       -2.5170     0.6890     0.2790 H     1 <1>   0.0800 
 23 H       -1.4690    -1.3060     1.4460 H     1 <1>   0.0800 
 24 H       -0.0790    -2.0750     0.7190 H     1 <1>   0.0800 
 25 H       -0.1060     0.7660     1.3740 H     1 <1>   0.0800 
 26 H        0.1960     1.5300    -0.1660 H     1 <1>   0.0800 
 27 H       -2.5390    -0.7900    -2.3610 H     1 <1>   0.0800 
 28 H       -3.9030    -0.0480    -1.5750 H     1 <1>   0.0800 
 29 H       -2.1450    -3.3770     0.3720 H     1 <1>   0.0800 
 30 H       -1.4280    -2.8770    -1.1380 H     1 <1>   0.0800 
 31 H        1.8910    -0.2140    -0.6960 H     1 <1>   0.0800 
 32 H        1.6670    -0.8930     0.9020 H     1 <1>   0.0800 
 33 H       -3.7680    -1.5860     0.2930 H     1 <1>   0.0800 
 34 H        2.6220     1.9240     0.3190 H     1 <1>   0.0800 
 35 H        3.6120     0.5940     0.8580 H     1 <1>   0.0800 
 36 H        2.3900     1.2470     1.9170 H     1 <1>   0.0800 
 37 H       -3.4950    -3.4550    -1.9000 H     1 <1>   0.4000 
 38 H       -6.1020    -1.2650    -0.5900 H     1 <1>   0.1500 
 39 H       -4.6890    -5.2520    -1.1270 H     1 <1>   0.1500 
 40 H       -6.7700    -6.1280    -0.1500 H     1 <1>   0.1500 
 41 H       -8.9050    -1.3040    -0.1130 H     1 <1>   0.0800 
 42 H       -8.3430    -1.6110     1.5290 H     1 <1>   0.0800 
 43 H       -8.7820    -4.8210     1.8210 H     1 <1>   0.0800 
 44 H       -9.4490    -5.2530     0.2480 H     1 <1>   0.0800 
 45 H      -10.3100    -3.1370    -0.0980 H     1 <1>   0.0800 
 46 H      -10.2530    -2.9860     1.6460 H     1 <1>   0.0800 
@<TRIPOS>BOND
  1   1   2  1   
  2   1   3  1   
  3   1   4  1   
  4   1  20  1   
  5   2   5  1   
  6   2  21  1   
  7   2  22  1   
  8   3   6  1   
  9   3  23  1   
 10   3  24  1   
 11   4   7  1   
 12   4  25  1   
 13   4  26  1   
 14   5   8  1   
 15   5  27  1   
 16   5  28  1   
 17   6   8  1   
 18   6  29  1   
 19   6  30  1   
 20   7   9  1   
 21   7  31  1   
 22   7  32  1   
 23   8  10  1   
 24   8  33  1   
 25   9  34  1   
 26   9  35  1   
 27   9  36  1   
 28  10  11  1   
 29  10  37  1   
 30  11  12  ar  
 31  11  13  ar  
 32  12  14  ar  
 33  12  38  1   
 34  13  15  ar  
 35  13  39  1   
 36  14  16  ar  
 37  14  17  1   
 38  15  16  ar  
 39  15  40  1   
 40  16  18  1   
 41  17  19  1   
 42  17  41  1   
 43  17  42  1   
 44  18  19  1   
 45  18  43  1   
 46  18  44  1   
 47  19  45  1   
 48  19  46  1   
@<TRIPOS>SUBSTRUCTURE
  1 ****   8 GROUP 4 **** **** 0

# MOE 2024.06 (io_trps.svl 2023.06)
