@<TRIPOS>MOLECULE
NONAME
37 38 1 0 0 
SMALL
USER_CHARGES


@<TRIPOS>ATOM
  1 O        0.4200     1.3950    -2.4730 O.2   1 <1>  -0.5700 
  2 C       -0.0920     1.9100    -1.5040 C.2   1 <1>   0.5690 
  3 N        0.5660     1.9680    -0.2970 N.am  1 <1>  -0.6600 
  4 C       -1.4770     2.5240    -1.6980 C.3   1 <1>   0.1810 
  5 C        1.8900     1.3080    -0.0960 C.3   1 <1>   0.1400 
  6 C        0.0300     2.5970     0.9490 C.3   1 <1>   0.1400 
  7 O       -2.4180     2.0060    -0.7690 O.3   1 <1>  -0.3620 
  8 C        2.8580     2.2380     0.6510 C.3   1 <1>   0.1200 
  9 C        1.1090     3.4460     1.6440 C.3   1 <1>   0.1200 
 10 C       -3.6710     2.5180    -0.6820 C.ar  1 <1>   0.0820 
 11 O        2.2800     2.7050     1.8380 O.3   1 <1>  -0.5600 
 12 C       -4.4610     2.0610     0.3580 C.ar  1 <1>  -0.1500 
 13 C       -4.1860     3.4610    -1.5650 C.ar  1 <1>  -0.1500 
 14 C       -5.7510     2.5340     0.5390 C.ar  1 <1>  -0.1440 
 15 C       -5.4730     3.9350    -1.3890 C.ar  1 <1>  -0.1500 
 16 C       -6.2620     3.4810    -0.3430 C.ar  1 <1>  -0.1440 
 17 C       -6.5780     1.9990     1.6990 C.3   1 <1>  -0.0970 
 18 C       -7.6730     4.0310    -0.1880 C.3   1 <1>  -0.0970 
 19 H       -1.8310     2.3000    -2.6880 H     1 <1>   0.0800 
 20 H       -1.4140     3.5880    -1.5660 H     1 <1>   0.0800 
 21 H        2.3240     1.0330    -1.0420 H     1 <1>   0.0800 
 22 H        1.7510     0.4080     0.4760 H     1 <1>   0.0800 
 23 H       -0.2970     1.8220     1.6210 H     1 <1>   0.0800 
 24 H       -0.8150     3.2250     0.7340 H     1 <1>   0.0800 
 25 H        3.1200     3.0830     0.0370 H     1 <1>   0.0800 
 26 H        3.7570     1.7070     0.9100 H     1 <1>   0.0800 
 27 H        0.7620     3.7680     2.6090 H     1 <1>   0.0800 
 28 H        1.3460     4.3140     1.0540 H     1 <1>   0.0800 
 29 H       -4.0490     1.3270     1.0270 H     1 <1>   0.1500 
 30 H       -3.6110     3.8330    -2.3910 H     1 <1>   0.1500 
 31 H       -5.8600     4.6650    -2.0790 H     1 <1>   0.1500 
 32 H       -6.0190     1.2820     2.2730 H     1 <1>   0.0800 
 33 H       -7.4640     1.5160     1.3280 H     1 <1>   0.0800 
 34 H       -6.8620     2.8040     2.3520 H     1 <1>   0.0800 
 35 H       -8.3890     3.2320    -0.2570 H     1 <1>   0.0800 
 36 H       -7.8950     4.7490    -0.9560 H     1 <1>   0.0800 
 37 H       -7.7770     4.5150     0.7660 H     1 <1>   0.0800 
@<TRIPOS>BOND
  1   1   2  2   
  2   2   3  am  
  3   2   4  1   
  4   3   5  1   
  5   3   6  1   
  6   4   7  1   
  7   4  19  1   
  8   4  20  1   
  9   5   8  1   
 10   5  21  1   
 11   5  22  1   
 12   6   9  1   
 13   6  23  1   
 14   6  24  1   
 15   7  10  1   
 16   8  11  1   
 17   8  25  1   
 18   8  26  1   
 19   9  11  1   
 20   9  27  1   
 21   9  28  1   
 22  10  12  ar  
 23  10  13  ar  
 24  12  14  ar  
 25  12  29  1   
 26  13  15  ar  
 27  13  30  1   
 28  14  16  ar  
 29  14  17  1   
 30  15  16  ar  
 31  15  31  1   
 32  16  18  1   
 33  17  32  1   
 34  17  33  1   
 35  17  34  1   
 36  18  35  1   
 37  18  36  1   
 38  18  37  1   
@<TRIPOS>SUBSTRUCTURE
  1 ****   7 GROUP 4 **** **** 0

# MOE 2024.06 (io_trps.svl 2023.06)
