@<TRIPOS>MOLECULE
NONAME
36 36 1 0 0 
SMALL
USER_CHARGES


@<TRIPOS>ATOM
  1 O        0.4680     0.5520     0.4040 O.co2 1 <1>  -0.9000 
  2 C        1.4690     0.7500    -0.3070 C.2   1 <1>   0.9790 
  3 O        1.3670     1.5420    -1.2630 O.co2 1 <1>  -0.9000 
  4 C        2.7170     0.0420    -0.0340 C.ar  1 <1>  -0.1790 
  5 C        3.9950     0.6220    -0.1070 C.ar  1 <1>  -0.1440 
  6 C        2.6380    -1.3050     0.3200 C.ar  1 <1>  -0.1500 
  7 C        5.1450    -0.1480     0.1030 C.ar  1 <1>   0.1170 
  8 C        4.1060     2.1190    -0.4140 C.3   1 <1>  -0.0970 
  9 C        3.7650    -2.0640     0.5580 C.ar  1 <1>  -0.1500 
 10 N        6.4120     0.4360    -0.0650 N.am  1 <1>  -0.5470 
 11 C        5.0120    -1.4890     0.4410 C.ar  1 <1>  -0.1500 
 12 C        7.6510     0.1170     0.4180 C.2   1 <1>   0.5690 
 13 O        7.8670    -0.8160     1.1550 O.2   1 <1>  -0.5700 
 14 C        8.8170     1.0210     0.0050 C.3   1 <1>  -0.0190 
 15 C        9.9130     0.1740    -0.6850 C.3   1 <1>  -0.1600 
 16 C        9.3320     1.8140     1.2310 C.3   1 <1>  -0.1600 
 17 C       11.0730     0.9830    -1.2780 C.3   1 <1>  -0.2400 
 18 C        9.7410     3.2580     0.9010 C.3   1 <1>  -0.2400 
 19 H        1.6610    -1.7520     0.4070 H     1 <1>   0.1500 
 20 H        3.2910     2.6520     0.0420 H     1 <1>   0.0800 
 21 H        4.0500     2.2740    -1.4760 H     1 <1>   0.0800 
 22 H        5.0080     2.5550    -0.0310 H     1 <1>   0.0800 
 23 H        3.6680    -3.1000     0.8290 H     1 <1>   0.1500 
 24 H        6.3710     1.2840    -0.6220 H     1 <1>   0.3700 
 25 H        5.8820    -2.0940     0.6100 H     1 <1>   0.1500 
 26 H        8.4390     1.7200    -0.7190 H     1 <1>   0.0800 
 27 H        9.4530    -0.3890    -1.4810 H     1 <1>   0.0800 
 28 H       10.3070    -0.5410     0.0180 H     1 <1>   0.0800 
 29 H       10.1560     1.2900     1.6850 H     1 <1>   0.0800 
 30 H        8.5500     1.8630     1.9710 H     1 <1>   0.0800 
 31 H       10.7040     1.7590    -1.9250 H     1 <1>   0.0800 
 32 H       11.7100     0.3340    -1.8520 H     1 <1>   0.0800 
 33 H       11.6660     1.4220    -0.4970 H     1 <1>   0.0800 
 34 H       10.5370     3.2890     0.1810 H     1 <1>   0.0800 
 35 H       10.0790     3.7510     1.7960 H     1 <1>   0.0800 
 36 H        8.9020     3.8060     0.5110 H     1 <1>   0.0800 
@<TRIPOS>BOND
  1   1   2  ar  
  2   2   3  ar  
  3   2   4  1   
  4   4   5  ar  
  5   4   6  ar  
  6   5   7  ar  
  7   5   8  1   
  8   6   9  ar  
  9   6  19  1   
 10   7  10  1   
 11   7  11  ar  
 12   8  20  1   
 13   8  21  1   
 14   8  22  1   
 15   9  11  ar  
 16   9  23  1   
 17  10  12  am  
 18  10  24  1   
 19  11  25  1   
 20  12  13  2   
 21  12  14  1   
 22  14  15  1   
 23  14  16  1   
 24  14  26  1   
 25  15  17  1   
 26  15  27  1   
 27  15  28  1   
 28  16  18  1   
 29  16  29  1   
 30  16  30  1   
 31  17  31  1   
 32  17  32  1   
 33  17  33  1   
 34  18  34  1   
 35  18  35  1   
 36  18  36  1   
@<TRIPOS>SUBSTRUCTURE
  1 ****   7 GROUP 4 **** **** 0

# MOE 2024.06 (io_trps.svl 2023.06)
