@<TRIPOS>MOLECULE
NONAME
50 51 1 0 0 
SMALL
USER_CHARGES


@<TRIPOS>ATOM
  1 S        0.4890     0.2920    -0.0020 S.o2  1 <1>   1.4470 
  2 O        1.4990     0.1790    -1.0350 O.2   1 <1>  -0.6500 
  3 O        0.8450     0.0380     1.3730 O.2   1 <1>  -0.6500 
  4 N       -0.0680     1.9300    -0.0760 N.am  1 <1>  -0.6930 
  5 C       -0.9910    -0.6370    -0.4830 C.ar  1 <1>  -0.0090 
  6 C       -1.0450     2.3680     0.8070 C.ar  1 <1>   0.1990 
  7 C        0.8830     2.9430    -0.6330 C.3   1 <1>   0.2570 
  8 C       -1.9120    -1.0560     0.4700 C.ar  1 <1>  -0.1500 
  9 C       -1.2650    -0.9190    -1.8160 C.ar  1 <1>  -0.1500 
 10 C       -0.7080     2.8290     2.0780 C.ar  1 <1>  -0.1500 
 11 C       -2.3830     2.3420     0.4240 C.ar  1 <1>  -0.1500 
 12 C        2.1690     3.1260     0.1820 C.2   1 <1>   0.5690 
 13 C       -3.0630    -1.7340     0.1080 C.ar  1 <1>  -0.1500 
 14 C       -2.4130    -1.5990    -2.1850 C.ar  1 <1>  -0.1500 
 15 C       -1.6880     3.2600     2.9550 C.ar  1 <1>  -0.1500 
 16 C       -3.3750     2.7680     1.2900 C.ar  1 <1>  -0.1500 
 17 O        2.2720     4.0960     0.8960 O.2   1 <1>  -0.5700 
 18 N        3.1630     2.2030     0.0820 N.am  1 <1>  -0.7300 
 19 C       -3.3190    -2.0110    -1.2230 C.ar  1 <1>  -0.1430 
 20 C       -3.0060     3.2210     2.5430 C.ar  1 <1>   0.1900 
 21 C        4.4160     2.2080     0.8580 C.3   1 <1>   0.1400 
 22 C       -4.5790    -2.7550    -1.6260 C.3   1 <1>  -0.0970 
 23 F       -3.9380     3.6250     3.3670 F     1 <1>  -0.1900 
 24 C        5.5680     1.7980    -0.0550 C.3   1 <1>  -0.1600 
 25 C        6.8890     1.8020     0.7090 C.3   1 <1>   0.1200 
 26 O        7.8870     1.4040    -0.1700 O.3   1 <1>  -0.5600 
 27 C        9.1570     1.3670     0.3940 C.3   1 <1>   0.0400 
 28 H        0.3850     3.8940    -0.6850 H     1 <1>   0.0800 
 29 H        1.1490     2.6630    -1.6360 H     1 <1>   0.0800 
 30 H       -1.7290    -0.8450     1.5110 H     1 <1>   0.1500 
 31 H       -0.5700    -0.6060    -2.5770 H     1 <1>   0.1500 
 32 H        0.3260     2.8450     2.3800 H     1 <1>   0.1500 
 33 H       -2.6430     1.9830    -0.5570 H     1 <1>   0.1500 
 34 H       -3.7570    -2.0460     0.8690 H     1 <1>   0.1500 
 35 H       -2.5980    -1.8050    -3.2250 H     1 <1>   0.1500 
 36 H       -1.4380     3.6190     3.9380 H     1 <1>   0.1500 
 37 H       -4.4120     2.7510     1.0060 H     1 <1>   0.1500 
 38 H        2.9890     1.3490    -0.4680 H     1 <1>   0.3700 
 39 H        4.3230     1.5130     1.6760 H     1 <1>   0.0800 
 40 H        4.5920     3.1920     1.2610 H     1 <1>   0.0800 
 41 H       -4.9080    -3.3990    -0.8300 H     1 <1>   0.0800 
 42 H       -4.3960    -3.3610    -2.4960 H     1 <1>   0.0800 
 43 H       -5.3610    -2.0530    -1.8500 H     1 <1>   0.0800 
 44 H        5.6380     2.4930    -0.8740 H     1 <1>   0.0800 
 45 H        5.3890     0.8090    -0.4380 H     1 <1>   0.0800 
 46 H        6.8560     1.1070     1.5310 H     1 <1>   0.0800 
 47 H        7.1190     2.7910     1.0680 H     1 <1>   0.0800 
 48 H        9.8500     1.0500    -0.3650 H     1 <1>   0.0800 
 49 H        9.1640     0.6640     1.2090 H     1 <1>   0.0800 
 50 H        9.4210     2.3520     0.7380 H     1 <1>   0.0800 
@<TRIPOS>BOND
  1   1   2  2   
  2   1   3  2   
  3   1   4  am  
  4   1   5  1   
  5   4   6  1   
  6   4   7  1   
  7   5   8  ar  
  8   5   9  ar  
  9   6  10  ar  
 10   6  11  ar  
 11   7  12  1   
 12   7  28  1   
 13   7  29  1   
 14   8  13  ar  
 15   8  30  1   
 16   9  14  ar  
 17   9  31  1   
 18  10  15  ar  
 19  10  32  1   
 20  11  16  ar  
 21  11  33  1   
 22  12  17  2   
 23  12  18  am  
 24  13  19  ar  
 25  13  34  1   
 26  14  19  ar  
 27  14  35  1   
 28  15  20  ar  
 29  15  36  1   
 30  16  20  ar  
 31  16  37  1   
 32  18  21  1   
 33  18  38  1   
 34  19  22  1   
 35  20  23  1   
 36  21  24  1   
 37  21  39  1   
 38  21  40  1   
 39  22  41  1   
 40  22  42  1   
 41  22  43  1   
 42  24  25  1   
 43  24  44  1   
 44  24  45  1   
 45  25  26  1   
 46  25  46  1   
 47  25  47  1   
 48  26  27  1   
 49  27  48  1   
 50  27  49  1   
 51  27  50  1   
@<TRIPOS>SUBSTRUCTURE
  1 ****   4 GROUP 4 **** **** 0

# MOE 2024.06 (io_trps.svl 2023.06)
