@<TRIPOS>MOLECULE
NONAME
46 46 1 0 0 
SMALL
USER_CHARGES


@<TRIPOS>ATOM
  1 O        0.6200    -1.2280    -0.5910 O.3   1 <1>  -0.3630 
  2 C       -0.6860    -1.3800    -0.2430 C.ar  1 <1>   0.0830 
  3 C        1.5770    -0.7460     0.3180 C.3   1 <1>   0.1200 
  4 C       -1.5570    -1.8720    -1.2110 C.ar  1 <1>  -0.1440 
  5 C       -1.1730    -1.0670     1.0250 C.ar  1 <1>  -0.1500 
  6 C        2.9230    -0.7130    -0.4090 C.3   1 <1>  -0.1600 
  7 C       -2.8960    -2.0450    -0.9010 C.ar  1 <1>  -0.1500 
  8 C       -1.0540    -2.2220    -2.6040 C.3   1 <1>  -0.0970 
  9 C       -2.5130    -1.2410     1.3280 C.ar  1 <1>  -0.1430 
 10 C        4.0520    -0.1990     0.4970 C.3   1 <1>  -0.1600 
 11 C       -3.3710    -1.7330     0.3600 C.ar  1 <1>  -0.1500 
 12 C       -3.0380    -0.9000     2.7120 C.3   1 <1>  -0.0970 
 13 C        5.3770    -0.1810    -0.2630 C.3   1 <1>   0.3430 
 14 N        6.4480     0.3190     0.6380 N.4   1 <1>  -0.9060 
 15 C        7.7980     0.4030     0.0740 C.3   1 <1>   0.5030 
 16 C        8.2690    -0.9870    -0.3510 C.3   1 <1>  -0.2400 
 17 C        7.8050     1.3720    -1.1080 C.3   1 <1>  -0.2400 
 18 C        8.6930     0.9370     1.1870 C.3   1 <1>  -0.2400 
 19 H        1.6070    -1.4140     1.1610 H     1 <1>   0.0800 
 20 H        1.2790     0.2410     0.6290 H     1 <1>   0.0800 
 21 H       -0.5250    -0.6880     1.7890 H     1 <1>   0.1500 
 22 H        2.8270    -0.0740    -1.2710 H     1 <1>   0.0800 
 23 H        3.1510    -1.7100    -0.7460 H     1 <1>   0.0800 
 24 H       -3.5780    -2.4250    -1.6400 H     1 <1>   0.1500 
 25 H       -0.6280    -1.3500    -3.0660 H     1 <1>   0.0800 
 26 H       -1.8510    -2.5850    -3.2260 H     1 <1>   0.0800 
 27 H       -0.2970    -2.9830    -2.5370 H     1 <1>   0.0800 
 28 H        4.1310    -0.8450     1.3540 H     1 <1>   0.0800 
 29 H        3.8070     0.7960     0.8270 H     1 <1>   0.0800 
 30 H       -4.4140    -1.8750     0.5820 H     1 <1>   0.1500 
 31 H       -2.5040    -0.0600     3.1190 H     1 <1>   0.0800 
 32 H       -2.9120    -1.7440     3.3660 H     1 <1>   0.0800 
 33 H       -4.0820    -0.6480     2.6680 H     1 <1>   0.0800 
 34 H        5.2870     0.4590    -1.1260 H     1 <1>   0.0800 
 35 H        5.6090    -1.1790    -0.6010 H     1 <1>   0.0800 
 36 H        6.5000    -0.2840     1.4640 H     1 <1>   0.4500 
 37 H        6.1970     1.2540     0.9700 H     1 <1>   0.4500 
 38 H        8.2180    -1.6820     0.4680 H     1 <1>   0.0800 
 39 H        9.2950    -0.9370    -0.6730 H     1 <1>   0.0800 
 40 H        7.6960    -1.3660    -1.1770 H     1 <1>   0.0800 
 41 H        7.4270     2.3380    -0.8220 H     1 <1>   0.0800 
 42 H        8.8140     1.5070    -1.4580 H     1 <1>   0.0800 
 43 H        7.2310     0.9950    -1.9350 H     1 <1>   0.0800 
 44 H        8.7010     0.2730     2.0330 H     1 <1>   0.0800 
 45 H        8.3780     1.9150     1.5060 H     1 <1>   0.0800 
 46 H        9.7060     1.0220     0.8330 H     1 <1>   0.0800 
@<TRIPOS>BOND
  1   1   2  1   
  2   1   3  1   
  3   2   4  ar  
  4   2   5  ar  
  5   3   6  1   
  6   3  19  1   
  7   3  20  1   
  8   4   7  ar  
  9   4   8  1   
 10   5   9  ar  
 11   5  21  1   
 12   6  10  1   
 13   6  22  1   
 14   6  23  1   
 15   7  11  ar  
 16   7  24  1   
 17   8  25  1   
 18   8  26  1   
 19   8  27  1   
 20   9  11  ar  
 21   9  12  1   
 22  10  13  1   
 23  10  28  1   
 24  10  29  1   
 25  11  30  1   
 26  12  31  1   
 27  12  32  1   
 28  12  33  1   
 29  13  14  1   
 30  13  34  1   
 31  13  35  1   
 32  14  15  1   
 33  14  36  1   
 34  14  37  1   
 35  15  16  1   
 36  15  17  1   
 37  15  18  1   
 38  16  38  1   
 39  16  39  1   
 40  16  40  1   
 41  17  41  1   
 42  17  42  1   
 43  17  43  1   
 44  18  44  1   
 45  18  45  1   
 46  18  46  1   
@<TRIPOS>SUBSTRUCTURE
  1 ****   3 GROUP 4 **** **** 0

# MOE 2024.06 (io_trps.svl 2023.06)
