@<TRIPOS>MOLECULE
NONAME
27 27 1 0 0 
SMALL
USER_CHARGES


@<TRIPOS>ATOM
  1 CL       2.2370    -2.0380    -2.6220 Cl    1 <1>  -0.1770 
  2 C        1.1670    -2.5810    -1.3440 C.ar  1 <1>   0.1770 
  3 C        1.6470    -2.6660    -0.0370 C.ar  1 <1>   0.1170 
  4 C       -0.1330    -2.9130    -1.6750 C.ar  1 <1>  -0.1500 
  5 N        2.9790    -2.3090     0.2420 N.am  1 <1>  -0.5470 
  6 C        0.7590    -3.1020     0.9430 C.ar  1 <1>  -0.1500 
  7 C       -0.9960    -3.3460    -0.6830 C.ar  1 <1>  -0.1500 
  8 C        3.8020    -2.5180     1.3100 C.2   1 <1>   0.5690 
  9 C       -0.5460    -3.4390     0.6240 C.ar  1 <1>  -0.1500 
 10 O        3.4760    -3.0960     2.3190 O.2   1 <1>  -0.5700 
 11 C        5.2270    -1.9730     1.1860 C.3   1 <1>   0.1710 
 12 N        5.6520    -1.6970    -0.2210 N.3   1 <1>  -0.8100 
 13 C        5.9590    -2.9420    -0.9430 C.3   1 <1>   0.0300 
 14 C        6.8120    -0.8000    -0.2500 C.3   1 <1>   0.0300 
 15 H       -0.4630    -2.8340    -2.6950 H     1 <1>   0.1500 
 16 H        3.4940    -1.8710    -0.5340 H     1 <1>   0.3700 
 17 H        1.0820    -3.1790     1.9650 H     1 <1>   0.1500 
 18 H       -2.0120    -3.6100    -0.9250 H     1 <1>   0.1500 
 19 H       -1.2140    -3.7750     1.3990 H     1 <1>   0.1500 
 20 H        5.9070    -2.6670     1.6480 H     1 <1>   0.0800 
 21 H        5.2580    -1.0580     1.7510 H     1 <1>   0.0800 
 22 H        5.1040    -3.5960    -0.9480 H     1 <1>   0.0800 
 23 H        6.7850    -3.4540    -0.4800 H     1 <1>   0.0800 
 24 H        6.2150    -2.7180    -1.9650 H     1 <1>   0.0800 
 25 H        6.5680     0.1320     0.2310 H     1 <1>   0.0800 
 26 H        7.0880    -0.5900    -1.2700 H     1 <1>   0.0800 
 27 H        7.6510    -1.2480     0.2560 H     1 <1>   0.0800 
@<TRIPOS>BOND
  1   1   2  1   
  2   2   3  ar  
  3   2   4  ar  
  4   3   5  1   
  5   3   6  ar  
  6   4   7  ar  
  7   4  15  1   
  8   5   8  am  
  9   5  16  1   
 10   6   9  ar  
 11   6  17  1   
 12   7   9  ar  
 13   7  18  1   
 14   8  10  2   
 15   8  11  1   
 16   9  19  1   
 17  11  12  1   
 18  11  20  1   
 19  11  21  1   
 20  12  13  1   
 21  12  14  1   
 22  13  22  1   
 23  13  23  1   
 24  13  24  1   
 25  14  25  1   
 26  14  26  1   
 27  14  27  1   
@<TRIPOS>SUBSTRUCTURE
  1 ****   5 GROUP 4 **** **** 0

# MOE 2024.06 (io_trps.svl 2023.06)
