@<TRIPOS>MOLECULE
NONAME
45 46 1 0 0 
SMALL
USER_CHARGES


@<TRIPOS>ATOM
  1 S        0.4950    -0.7550     0.7750 S.o2  1 <1>   1.3330 
  2 O        0.4200    -0.7210     2.2180 O.2   1 <1>  -0.6500 
  3 O       -0.5270    -0.0890    -0.0010 O.2   1 <1>  -0.6500 
  4 N        2.0070    -0.1270     0.3400 N.am  1 <1>  -0.8490 
  5 C        0.5590    -2.4460     0.2230 C.3   1 <1>  -0.1350 
  6 C        3.0390    -0.5450     1.3060 C.3   1 <1>   0.3340 
  7 C        1.9350     1.3280     0.1320 C.3   1 <1>   0.1960 
  8 C        4.3830    -0.8020     0.6420 C.2   1 <1>  -0.1240 
  9 C        3.1740     1.8900    -0.5710 C.3   1 <1>  -0.1600 
 10 C        4.4740    -1.9200    -0.2490 C.2   1 <1>   0.6160 
 11 C        5.4780    -0.0350     0.8890 C.2   1 <1>  -0.1780 
 12 C        2.9070     3.2880    -1.1450 C.3   1 <1>  -0.1600 
 13 O        3.5780    -2.7260    -0.4350 O.2   1 <1>  -0.5700 
 14 N        5.6550    -2.1320    -0.8910 N.am  1 <1>  -0.5470 
 15 C        6.7250    -0.2900     0.2310 C.ar  1 <1>   0.0280 
 16 C        4.1610     3.8500    -1.8210 C.3   1 <1>  -0.2400 
 17 C        6.7920    -1.3580    -0.6790 C.ar  1 <1>   0.1170 
 18 C        7.8660     0.4830     0.4510 C.ar  1 <1>  -0.1500 
 19 C        7.9830    -1.6270    -1.3460 C.ar  1 <1>  -0.1500 
 20 C        9.0490     0.2070    -0.2170 C.ar  1 <1>   0.0820 
 21 C        9.0990    -0.8520    -1.1160 C.ar  1 <1>  -0.1500 
 22 O       10.1980     0.9140    -0.0560 O.3   1 <1>  -0.3620 
 23 C       10.2590     2.0150     0.8230 C.3   1 <1>   0.0400 
 24 H       -0.3890    -2.9200     0.3830 H     1 <1>   0.0800 
 25 H        1.3090    -2.9910     0.7600 H     1 <1>   0.0800 
 26 H        0.7920    -2.4820    -0.8230 H     1 <1>   0.0800 
 27 H        2.7530    -1.4670     1.7860 H     1 <1>   0.0800 
 28 H        3.1330     0.1950     2.0820 H     1 <1>   0.0800 
 29 H        1.7680     1.8320     1.0700 H     1 <1>   0.0800 
 30 H        1.0940     1.5450    -0.5060 H     1 <1>   0.0800 
 31 H        3.4580     1.2280    -1.3720 H     1 <1>   0.0800 
 32 H        3.9800     1.9660     0.1300 H     1 <1>   0.0800 
 33 H        5.4490     0.7920     1.5750 H     1 <1>   0.1500 
 34 H        2.6000     3.9530    -0.3560 H     1 <1>   0.0800 
 35 H        2.1100     3.2360    -1.8680 H     1 <1>   0.0800 
 36 H        5.6720    -2.9310    -1.5220 H     1 <1>   0.3700 
 37 H        4.9670     3.9350    -1.1130 H     1 <1>   0.0800 
 38 H        3.9550     4.8270    -2.2230 H     1 <1>   0.0800 
 39 H        4.4730     3.2090    -2.6270 H     1 <1>   0.0800 
 40 H        7.7990     1.2940     1.1480 H     1 <1>   0.1500 
 41 H        8.0310    -2.4450    -2.0420 H     1 <1>   0.1500 
 42 H       10.0230    -1.0540    -1.6270 H     1 <1>   0.1500 
 43 H        9.5530     2.7600     0.5000 H     1 <1>   0.0800 
 44 H       11.2550     2.4170     0.7860 H     1 <1>   0.0800 
 45 H       10.0380     1.6780     1.8210 H     1 <1>   0.0800 
@<TRIPOS>BOND
  1   1   2  2   
  2   1   3  2   
  3   1   4  am  
  4   1   5  1   
  5   4   6  1   
  6   4   7  1   
  7   5  24  1   
  8   5  25  1   
  9   5  26  1   
 10   6   8  1   
 11   6  27  1   
 12   6  28  1   
 13   7   9  1   
 14   7  29  1   
 15   7  30  1   
 16   8  10  1   
 17   8  11  2   
 18   9  12  1   
 19   9  31  1   
 20   9  32  1   
 21  10  13  2   
 22  10  14  am  
 23  11  15  1   
 24  11  33  1   
 25  12  16  1   
 26  12  34  1   
 27  12  35  1   
 28  14  17  1   
 29  14  36  1   
 30  15  17  ar  
 31  15  18  ar  
 32  16  37  1   
 33  16  38  1   
 34  16  39  1   
 35  17  19  ar  
 36  18  20  ar  
 37  18  40  1   
 38  19  21  ar  
 39  19  41  1   
 40  20  21  ar  
 41  20  22  1   
 42  21  42  1   
 43  22  23  1   
 44  23  43  1   
 45  23  44  1   
 46  23  45  1   
@<TRIPOS>SUBSTRUCTURE
  1 ****   8 GROUP 4 **** **** 0

# MOE 2024.06 (io_trps.svl 2023.06)
