@<TRIPOS>MOLECULE
NONAME
57 59 1 0 0 
SMALL
USER_CHARGES


@<TRIPOS>ATOM
  1 O        1.7690    -0.8590     0.7620 O.2   1 <1>  -0.5700 
  2 C        1.6370    -0.9320    -0.4460 C.2   1 <1>   0.5440 
  3 N        2.4500    -0.1910    -1.2600 N.am  1 <1>  -0.5470 
  4 C        0.6730    -1.8620    -1.0130 C.ar  1 <1>   0.0860 
  5 C        3.5830     0.5830    -0.9320 C.ar  1 <1>   0.1170 
  6 C       -0.2370    -2.5230    -0.1880 C.ar  1 <1>  -0.1500 
  7 C        0.6350    -2.1760    -2.3760 C.ar  1 <1>  -0.1500 
  8 C        4.7130     0.0990    -0.2330 C.ar  1 <1>   0.1000 
  9 C        3.5700     1.9040    -1.3610 C.ar  1 <1>  -0.1500 
 10 C       -1.1220    -3.4670    -0.6740 C.ar  1 <1>   0.0830 
 11 C       -0.2570    -3.1070    -2.8790 C.ar  1 <1>  -0.1500 
 12 N        4.8660    -1.2090     0.2630 N.pl3 1 <1>  -0.8380 
 13 C        5.7710     0.9710    -0.0050 C.ar  1 <1>  -0.1500 
 14 C        4.6340     2.7530    -1.1190 C.ar  1 <1>  -0.1500 
 15 O       -1.9300    -4.0620     0.2340 O.3   1 <1>  -0.3630 
 16 C       -1.1360    -3.7580    -2.0330 C.ar  1 <1>  -0.1500 
 17 C        4.7250    -2.4120    -0.6190 C.3   1 <1>   0.2090 
 18 C        4.9040    -1.3890     1.7530 C.3   1 <1>   0.2090 
 19 C        5.7400     2.2830    -0.4390 C.ar  1 <1>  -0.1500 
 20 C       -2.9940    -4.8970    -0.1660 C.3   1 <1>   0.1200 
 21 C        3.7630    -3.4940    -0.0610 C.3   1 <1>   0.3430 
 22 C        4.3070    -2.7330     2.2240 C.3   1 <1>   0.3430 
 23 C       -3.7630    -5.3240     1.0840 C.3   1 <1>  -0.1600 
 24 N        3.2160    -3.1730     1.3030 N.4   1 <1>  -0.9590 
 25 C       -4.9370    -6.2440     0.7270 C.3   1 <1>  -0.1600 
 26 C        2.3270    -4.2300     1.8600 C.3   1 <1>   0.2630 
 27 C       -5.7020    -6.6700     1.9820 C.3   1 <1>  -0.2400 
 28 H        2.0800    -0.0030    -2.1890 H     1 <1>   0.3700 
 29 H       -0.2670    -2.3000     0.8640 H     1 <1>   0.1500 
 30 H        1.3090    -1.7010    -3.0660 H     1 <1>   0.1500 
 31 H        2.7140     2.2850    -1.8870 H     1 <1>   0.1500 
 32 H       -0.2700    -3.3280    -3.9330 H     1 <1>   0.1500 
 33 H        6.6390     0.6130     0.5160 H     1 <1>   0.1500 
 34 H        4.6020     3.7740    -1.4580 H     1 <1>   0.1500 
 35 H       -1.8150    -4.4810    -2.4460 H     1 <1>   0.1500 
 36 H        5.6990    -2.8510    -0.7510 H     1 <1>   0.0800 
 37 H        4.3900    -2.1060    -1.5950 H     1 <1>   0.0800 
 38 H        4.3430    -0.5880     2.2050 H     1 <1>   0.0800 
 39 H        5.9200    -1.3070     2.0980 H     1 <1>   0.0800 
 40 H        6.5740     2.9360    -0.2480 H     1 <1>   0.1500 
 41 H       -2.5850    -5.7550    -0.6700 H     1 <1>   0.0800 
 42 H       -3.6320    -4.3410    -0.8320 H     1 <1>   0.0800 
 43 H        4.2900    -4.4330    -0.0270 H     1 <1>   0.0800 
 44 H        2.9450    -3.6120    -0.7520 H     1 <1>   0.0800 
 45 H        3.9270    -2.6120     3.2240 H     1 <1>   0.0800 
 46 H        5.0850    -3.4770     2.2480 H     1 <1>   0.0800 
 47 H       -4.1360    -4.4460     1.5830 H     1 <1>   0.0800 
 48 H       -3.0940    -5.8420     1.7490 H     1 <1>   0.0800 
 49 H        2.6620    -2.2960     1.1690 H     1 <1>   0.4500 
 50 H       -4.5710    -7.1220     0.2220 H     1 <1>   0.0800 
 51 H       -5.6110    -5.7320     0.0610 H     1 <1>   0.0800 
 52 H        2.8790    -5.1410     2.0200 H     1 <1>   0.0800 
 53 H        1.5150    -4.4290     1.1780 H     1 <1>   0.0800 
 54 H        1.9090    -3.9050     2.7990 H     1 <1>   0.0800 
 55 H       -5.0550    -7.2050     2.6560 H     1 <1>   0.0800 
 56 H       -6.5210    -7.3150     1.7140 H     1 <1>   0.0800 
 57 H       -6.0990    -5.8100     2.4930 H     1 <1>   0.0800 
@<TRIPOS>BOND
  1   1   2  2   
  2   2   3  am  
  3   2   4  1   
  4   3   5  1   
  5   3  28  1   
  6   4   6  ar  
  7   4   7  ar  
  8   5   8  ar  
  9   5   9  ar  
 10   6  10  ar  
 11   6  29  1   
 12   7  11  ar  
 13   7  30  1   
 14   8  12  1   
 15   8  13  ar  
 16   9  14  ar  
 17   9  31  1   
 18  10  15  1   
 19  10  16  ar  
 20  11  16  ar  
 21  11  32  1   
 22  12  17  1   
 23  12  18  1   
 24  13  19  ar  
 25  13  33  1   
 26  14  19  ar  
 27  14  34  1   
 28  15  20  1   
 29  16  35  1   
 30  17  21  1   
 31  17  36  1   
 32  17  37  1   
 33  18  22  1   
 34  18  38  1   
 35  18  39  1   
 36  19  40  1   
 37  20  23  1   
 38  20  41  1   
 39  20  42  1   
 40  21  24  1   
 41  21  43  1   
 42  21  44  1   
 43  22  24  1   
 44  22  45  1   
 45  22  46  1   
 46  23  25  1   
 47  23  47  1   
 48  23  48  1   
 49  24  26  1   
 50  24  49  1   
 51  25  27  1   
 52  25  50  1   
 53  25  51  1   
 54  26  52  1   
 55  26  53  1   
 56  26  54  1   
 57  27  55  1   
 58  27  56  1   
 59  27  57  1   
@<TRIPOS>SUBSTRUCTURE
  1 ****   2 GROUP 4 **** **** 0

# MOE 2024.06 (io_trps.svl 2023.06)
