@<TRIPOS>MOLECULE
NONAME
32 32 1 0 0 
SMALL
USER_CHARGES


@<TRIPOS>ATOM
  1 S        1.2900    -0.6810    -1.3930 S.3   1 <1>  -0.3320 
  2 C        0.6490    -1.9230    -0.2400 C.ar  1 <1>   0.1020 
  3 C       -0.1090    -0.1040    -2.4550 C.3   1 <1>  -0.0100 
  4 C        1.4510    -2.3990     0.8100 C.ar  1 <1>   0.0860 
  5 C       -0.6500    -2.3800    -0.4200 C.ar  1 <1>  -0.1500 
  6 C        2.8260    -2.0000     1.0690 C.2   1 <1>   0.5440 
  7 C        0.8670    -3.3340     1.6700 C.ar  1 <1>  -0.1500 
  8 C       -1.1890    -3.3110     0.4480 C.ar  1 <1>  -0.1500 
  9 O        3.2320    -1.9090     2.2130 O.2   1 <1>  -0.5700 
 10 N        3.7100    -1.7630     0.0580 N.am  1 <1>  -0.7300 
 11 C       -0.4270    -3.7870     1.4970 C.ar  1 <1>  -0.1500 
 12 C        5.1150    -1.3360     0.2250 C.3   1 <1>   0.1400 
 13 C        5.9500    -1.7440    -0.9990 C.3   1 <1>  -0.0800 
 14 C        7.4210    -1.3690    -0.7770 C.3   1 <1>  -0.2400 
 15 C        5.4440    -1.0890    -2.2950 C.3   1 <1>  -0.2400 
 16 H        0.2590     0.7010    -3.0660 H     1 <1>   0.0800 
 17 H       -0.8970     0.2400    -1.8100 H     1 <1>   0.0800 
 18 H       -0.4280    -0.9290    -3.0660 H     1 <1>   0.0800 
 19 H       -1.2610    -2.0290    -1.2270 H     1 <1>   0.1500 
 20 H        1.4490    -3.7130     2.4940 H     1 <1>   0.1500 
 21 H       -2.1970    -3.6650     0.3090 H     1 <1>   0.1500 
 22 H        3.3240    -1.6240    -0.8800 H     1 <1>   0.3700 
 23 H       -0.8410    -4.5090     2.1810 H     1 <1>   0.1500 
 24 H        5.5190    -1.7930     1.1130 H     1 <1>   0.0800 
 25 H        5.1430    -0.2670     0.3540 H     1 <1>   0.0800 
 26 H        5.8920    -2.8150    -1.1020 H     1 <1>   0.0800 
 27 H        7.5290    -0.3050    -0.6670 H     1 <1>   0.0800 
 28 H        8.0200    -1.6920    -1.6110 H     1 <1>   0.0800 
 29 H        7.7970    -1.8460     0.1110 H     1 <1>   0.0800 
 30 H        5.4430    -0.0170    -2.2000 H     1 <1>   0.0800 
 31 H        4.4450    -1.4140    -2.5240 H     1 <1>   0.0800 
 32 H        6.0770    -1.3600    -3.1210 H     1 <1>   0.0800 
@<TRIPOS>BOND
  1   1   2  1   
  2   1   3  1   
  3   2   4  ar  
  4   2   5  ar  
  5   3  16  1   
  6   3  17  1   
  7   3  18  1   
  8   4   6  1   
  9   4   7  ar  
 10   5   8  ar  
 11   5  19  1   
 12   6   9  2   
 13   6  10  am  
 14   7  11  ar  
 15   7  20  1   
 16   8  11  ar  
 17   8  21  1   
 18  10  12  1   
 19  10  22  1   
 20  11  23  1   
 21  12  13  1   
 22  12  24  1   
 23  12  25  1   
 24  13  14  1   
 25  13  15  1   
 26  13  26  1   
 27  14  27  1   
 28  14  28  1   
 29  14  29  1   
 30  15  30  1   
 31  15  31  1   
 32  15  32  1   
@<TRIPOS>SUBSTRUCTURE
  1 ****   6 GROUP 4 **** **** 0

# MOE 2024.06 (io_trps.svl 2023.06)
