@<TRIPOS>MOLECULE
NONAME
56 59 1 0 0 
SMALL
USER_CHARGES


@<TRIPOS>ATOM
  1 O       -1.4660     0.5110     1.1970 O.2   1 <1>  -0.5700 
  2 C       -1.7460     1.4560     0.4950 C.2   1 <1>   0.5690 
  3 N       -2.9110     1.4430    -0.2130 N.am  1 <1>  -0.7300 
  4 C       -0.7650     2.6410     0.3820 C.3   1 <1>   0.0610 
  5 C       -4.0630     0.5100    -0.0230 C.3   1 <1>   0.1400 
  6 C       -1.2900     3.7690    -0.5480 C.3   1 <1>  -0.1600 
  7 C        0.5890     2.1450    -0.1830 C.3   1 <1>  -0.1600 
  8 C       -0.5160     3.2510     1.7830 C.3   1 <1>  -0.1600 
  9 C       -3.8420    -0.8600    -0.7000 C.3   1 <1>   0.3430 
 10 C       -0.2850     4.9340    -0.6390 C.3   1 <1>   0.0000 
 11 C        1.6150     3.2920    -0.2710 C.3   1 <1>   0.0000 
 12 C        0.4970     4.4070     1.7070 C.3   1 <1>  -0.0800 
 13 N       -2.6600    -1.5650    -0.1260 N.4   1 <1>  -0.9590 
 14 C        1.0510     4.3960    -1.1880 C.3   1 <1>  -0.1600 
 15 C       -0.0520     5.5010     0.7760 C.3   1 <1>  -0.1600 
 16 C       -0.8310     6.0310    -1.5620 C.3   1 <1>  -0.2400 
 17 C        1.8260     3.8780     1.1400 C.3   1 <1>  -0.1600 
 18 C        2.9450     2.7700    -0.8290 C.3   1 <1>  -0.2400 
 19 C       -1.9630    -2.4680    -1.0980 C.3   1 <1>   0.3430 
 20 C       -2.9540    -2.2720     1.1650 C.3   1 <1>   0.3430 
 21 C       -0.7570    -3.1670    -0.4400 C.3   1 <1>   0.1200 
 22 C       -1.6950    -2.9740     1.7080 C.3   1 <1>   0.1200 
 23 O       -1.1540    -3.8190     0.7320 O.3   1 <1>  -0.5600 
 24 H       -3.1140     2.2770    -0.7750 H     1 <1>   0.3700 
 25 H       -4.9460     0.9650    -0.4370 H     1 <1>   0.0800 
 26 H       -4.2370     0.3700     1.0310 H     1 <1>   0.0800 
 27 H       -2.2250     4.1440    -0.1700 H     1 <1>   0.0800 
 28 H       -1.4580     3.3780    -1.5360 H     1 <1>   0.0800 
 29 H        0.4380     1.7210    -1.1600 H     1 <1>   0.0800 
 30 H        0.9800     1.3690     0.4520 H     1 <1>   0.0800 
 31 H       -0.1380     2.4940     2.4490 H     1 <1>   0.0800 
 32 H       -1.4430     3.6100     2.1960 H     1 <1>   0.0800 
 33 H       -3.6900    -0.6930    -1.7530 H     1 <1>   0.0800 
 34 H       -4.7220    -1.4720    -0.5850 H     1 <1>   0.0800 
 35 H        0.6590     4.8150     2.6900 H     1 <1>   0.0800 
 36 H       -1.9920    -0.8120     0.1460 H     1 <1>   0.4500 
 37 H        0.9070     4.0050    -2.1800 H     1 <1>   0.0800 
 38 H        1.7620     5.2020    -1.2580 H     1 <1>   0.0800 
 39 H       -0.9720     5.8880     1.1760 H     1 <1>   0.0800 
 40 H        0.6500     6.3160     0.7310 H     1 <1>   0.0800 
 41 H       -0.9940     5.6460    -2.5530 H     1 <1>   0.0800 
 42 H       -0.1320     6.8460    -1.6270 H     1 <1>   0.0800 
 43 H       -1.7620     6.4140    -1.1850 H     1 <1>   0.0800 
 44 H        2.5420     4.6810     1.1000 H     1 <1>   0.0800 
 45 H        2.2230     3.1230     1.7970 H     1 <1>   0.0800 
 46 H        2.8080     2.3620    -1.8140 H     1 <1>   0.0800 
 47 H        3.3450     2.0010    -0.1920 H     1 <1>   0.0800 
 48 H        3.6640     3.5680    -0.8900 H     1 <1>   0.0800 
 49 H       -1.6230    -1.9000    -1.9490 H     1 <1>   0.0800 
 50 H       -2.6450    -3.2240    -1.4500 H     1 <1>   0.0800 
 51 H       -3.7220    -3.0120     1.0150 H     1 <1>   0.0800 
 52 H       -3.3020    -1.5640     1.8990 H     1 <1>   0.0800 
 53 H        0.0160    -2.4580    -0.1970 H     1 <1>   0.0800 
 54 H       -0.3480    -3.9070    -1.1050 H     1 <1>   0.0800 
 55 H       -1.9440    -3.5770     2.5630 H     1 <1>   0.0800 
 56 H       -0.9490    -2.2540     2.0010 H     1 <1>   0.0800 
@<TRIPOS>BOND
  1   1   2  2   
  2   2   3  am  
  3   2   4  1   
  4   3   5  1   
  5   3  24  1   
  6   4   6  1   
  7   4   7  1   
  8   4   8  1   
  9   5   9  1   
 10   5  25  1   
 11   5  26  1   
 12   6  10  1   
 13   6  27  1   
 14   6  28  1   
 15   7  11  1   
 16   7  29  1   
 17   7  30  1   
 18   8  12  1   
 19   8  31  1   
 20   8  32  1   
 21   9  13  1   
 22   9  33  1   
 23   9  34  1   
 24  10  14  1   
 25  10  15  1   
 26  10  16  1   
 27  11  14  1   
 28  11  17  1   
 29  11  18  1   
 30  12  15  1   
 31  12  17  1   
 32  12  35  1   
 33  13  19  1   
 34  13  20  1   
 35  13  36  1   
 36  14  37  1   
 37  14  38  1   
 38  15  39  1   
 39  15  40  1   
 40  16  41  1   
 41  16  42  1   
 42  16  43  1   
 43  17  44  1   
 44  17  45  1   
 45  18  46  1   
 46  18  47  1   
 47  18  48  1   
 48  19  21  1   
 49  19  49  1   
 50  19  50  1   
 51  20  22  1   
 52  20  51  1   
 53  20  52  1   
 54  21  23  1   
 55  21  53  1   
 56  21  54  1   
 57  22  23  1   
 58  22  55  1   
 59  22  56  1   
@<TRIPOS>SUBSTRUCTURE
  1 ****   2 GROUP 4 **** **** 0

# MOE 2024.06 (io_trps.svl 2023.06)
