@<TRIPOS>MOLECULE
NONAME
35 34 1 0 0 
SMALL
USER_CHARGES


@<TRIPOS>ATOM
  1 F       -1.3910     1.0340     1.1770 F     1 <1>  -0.3400 
  2 C       -0.0800     1.1150     1.3800 C.3   1 <1>   1.0200 
  3 F        0.0780     1.4650     2.6510 F     1 <1>  -0.3400 
  4 F        0.3560    -0.1430     1.3310 F     1 <1>  -0.3400 
  5 C        0.6810     2.0180     0.3550 C.3   1 <1>   0.3000 
  6 N        2.1790     1.6620     0.3750 N.am  1 <1>  -0.7300 
  7 C        0.3480     3.4850     0.8100 C.3   1 <1>   1.0200 
  8 C        0.1700     1.7710    -1.1070 C.3   1 <1>  -0.1600 
  9 C        3.1830     2.3140    -0.2440 C.2   1 <1>   0.6900 
 10 F        1.0460     3.8770     1.8720 F     1 <1>  -0.3400 
 11 F       -0.9290     3.6680     1.1330 F     1 <1>  -0.3400 
 12 F        0.5740     4.4030    -0.1210 F     1 <1>  -0.3400 
 13 C        0.3910     0.3620    -1.6890 C.3   1 <1>  -0.2400 
 14 O        2.9640     3.2800    -0.9390 O.2   1 <1>  -0.5700 
 15 N        4.4330     1.8390    -0.0700 N.am  1 <1>  -0.7300 
 16 C        5.6470     2.4120    -0.6940 C.3   1 <1>   0.1400 
 17 C        6.5550     1.2940    -1.2320 C.3   1 <1>  -0.0800 
 18 C        7.0460     0.3530    -0.1190 C.3   1 <1>  -0.2400 
 19 C        7.7630     1.9050    -1.9530 C.3   1 <1>  -0.2400 
 20 H        2.3990     0.7400     0.7530 H     1 <1>   0.3700 
 21 H        0.6540     2.4720    -1.7660 H     1 <1>   0.0800 
 22 H       -0.8820     1.9950    -1.1590 H     1 <1>   0.0800 
 23 H        1.4340     0.0960    -1.6780 H     1 <1>   0.0800 
 24 H        0.0600     0.3430    -2.7130 H     1 <1>   0.0800 
 25 H       -0.1680    -0.3830    -1.1510 H     1 <1>   0.0800 
 26 H        4.6040     1.1230     0.6300 H     1 <1>   0.3700 
 27 H        6.1760     2.9980     0.0380 H     1 <1>   0.0800 
 28 H        5.3640     3.0650    -1.5030 H     1 <1>   0.0800 
 29 H        5.9940     0.7230    -1.9520 H     1 <1>   0.0800 
 30 H        7.5710     0.9050     0.6400 H     1 <1>   0.0800 
 31 H        7.7140    -0.3860    -0.5270 H     1 <1>   0.0800 
 32 H        6.2220    -0.1660     0.3360 H     1 <1>   0.0800 
 33 H        8.3600     2.4870    -1.2730 H     1 <1>   0.0800 
 34 H        7.4360     2.5430    -2.7560 H     1 <1>   0.0800 
 35 H        8.3800     1.1300    -2.3730 H     1 <1>   0.0800 
@<TRIPOS>BOND
  1   1   2  1   
  2   2   3  1   
  3   2   4  1   
  4   2   5  1   
  5   5   6  1   
  6   5   7  1   
  7   5   8  1   
  8   6   9  am  
  9   6  20  1   
 10   7  10  1   
 11   7  11  1   
 12   7  12  1   
 13   8  13  1   
 14   8  21  1   
 15   8  22  1   
 16   9  14  2   
 17   9  15  am  
 18  13  23  1   
 19  13  24  1   
 20  13  25  1   
 21  15  16  1   
 22  15  26  1   
 23  16  17  1   
 24  16  27  1   
 25  16  28  1   
 26  17  18  1   
 27  17  19  1   
 28  17  29  1   
 29  18  30  1   
 30  18  31  1   
 31  18  32  1   
 32  19  33  1   
 33  19  34  1   
 34  19  35  1   
@<TRIPOS>SUBSTRUCTURE
  1 ****   6 GROUP 4 **** **** 0

# MOE 2024.06 (io_trps.svl 2023.06)
