@<TRIPOS>MOLECULE
NONAME
36 36 1 0 0 
SMALL
USER_CHARGES


@<TRIPOS>ATOM
  1 O       -1.5040     2.7960     3.2720 O.2   1 <1>  -0.5700 
  2 C       -1.0540     2.0890     2.3960 C.2   1 <1>   0.6900 
  3 N       -1.6580     1.9180     1.1720 N.am  1 <1>  -0.3680 
  4 N        0.0980     1.4440     2.6460 N.am  1 <1>  -0.8000 
  5 N       -2.9090     2.3750     0.7660 N.2   1 <1>  -0.5120 
  6 C       -3.3630     2.2380    -0.4110 C.2   1 <1>   0.3890 
  7 C       -4.7460     2.7540    -0.8040 C.3   1 <1>  -0.1000 
  8 C       -2.6470     1.5450    -1.5620 C.3   1 <1>  -0.1790 
  9 C       -5.3080     4.1010    -0.4160 C.3   1 <1>  -0.1900 
 10 C       -4.9070     3.8430    -1.8380 C.3   1 <1>  -0.2000 
 11 C       -6.8210     4.2400    -0.0220 C.3   1 <1>   0.0950 
 12 C       -4.3740     5.0700     0.3460 C.3   1 <1>  -0.1450 
 13 C       -7.7510     3.2350    -0.7340 C.3   1 <1>  -0.2400 
 14 C       -6.9960     4.0140     1.4880 C.3   1 <1>  -0.2400 
 15 C       -7.3370     5.6460    -0.3740 C.3   1 <1>  -0.2400 
 16 H       -1.0870     1.4300     0.4880 H     1 <1>   0.3700 
 17 H        0.4810     1.5510     3.5850 H     1 <1>   0.3700 
 18 H        0.4090     0.6300     2.1240 H     1 <1>   0.3700 
 19 H       -5.4170     1.9230    -0.8940 H     1 <1>   0.1000 
 20 H       -2.4540     2.2580    -2.3420 H     1 <1>   0.0800 
 21 H       -3.2750     0.7660    -1.9540 H     1 <1>   0.0800 
 22 H       -1.7160     1.1070    -1.2640 H     1 <1>   0.0800 
 23 H       -5.6530     3.7200    -2.6000 H     1 <1>   0.1000 
 24 H       -4.0300     4.3360    -2.2170 H     1 <1>   0.1000 
 25 H       -3.3650     5.0000    -0.0190 H     1 <1>   0.0800 
 26 H       -4.3460     4.8270     1.3930 H     1 <1>   0.0800 
 27 H       -4.6800     6.0920     0.2290 H     1 <1>   0.0800 
 28 H       -8.7750     3.4150    -0.4610 H     1 <1>   0.0800 
 29 H       -7.5230     2.2250    -0.4490 H     1 <1>   0.0800 
 30 H       -7.6810     3.3230    -1.8020 H     1 <1>   0.0800 
 31 H       -6.5170     4.7890     2.0570 H     1 <1>   0.0800 
 32 H       -6.5640     3.0710     1.7720 H     1 <1>   0.0800 
 33 H       -8.0370     4.0080     1.7560 H     1 <1>   0.0800 
 34 H       -7.1570     5.8570    -1.4130 H     1 <1>   0.0800 
 35 H       -8.3930     5.7210    -0.1890 H     1 <1>   0.0800 
 36 H       -6.8530     6.4010     0.2170 H     1 <1>   0.0800 
@<TRIPOS>BOND
  1   1   2  2   
  2   2   3  am  
  3   2   4  am  
  4   3   5  1   
  5   3  16  1   
  6   4  17  1   
  7   4  18  1   
  8   5   6  2   
  9   6   7  1   
 10   6   8  1   
 11   7   9  1   
 12   7  10  1   
 13   7  19  1   
 14   8  20  1   
 15   8  21  1   
 16   8  22  1   
 17   9  10  1   
 18   9  11  1   
 19   9  12  1   
 20  10  23  1   
 21  10  24  1   
 22  11  13  1   
 23  11  14  1   
 24  11  15  1   
 25  12  25  1   
 26  12  26  1   
 27  12  27  1   
 28  13  28  1   
 29  13  29  1   
 30  13  30  1   
 31  14  31  1   
 32  14  32  1   
 33  14  33  1   
 34  15  34  1   
 35  15  35  1   
 36  15  36  1   
@<TRIPOS>SUBSTRUCTURE
  1 ****   6 GROUP 4 **** **** 0

# MOE 2024.06 (io_trps.svl 2023.06)
