@<TRIPOS>MOLECULE
NONAME
47 48 1 0 0 
SMALL
USER_CHARGES


@<TRIPOS>ATOM
  1 CL      -3.7020     4.4300    -2.9490 Cl    1 <1>  -0.1770 
  2 C       -2.7090     3.3810    -1.9580 C.ar  1 <1>   0.1770 
  3 C       -2.4360     3.7180    -0.6370 C.ar  1 <1>   0.0830 
  4 C       -2.2280     2.2130    -2.5170 C.ar  1 <1>  -0.1500 
  5 O       -2.9360     4.8850    -0.1490 O.3   1 <1>  -0.3630 
  6 C       -1.6670     2.8450     0.1280 C.ar  1 <1>  -0.1500 
  7 C       -1.4630     1.3540    -1.7450 C.ar  1 <1>  -0.1500 
  8 C       -3.2270     5.0490     1.2360 C.3   1 <1>   0.2610 
  9 C       -1.1860     1.6660    -0.4220 C.ar  1 <1>  -0.1430 
 10 C       -4.1610     3.9430     1.7700 C.2   1 <1>   0.5690 
 11 C       -3.7820     6.4670     1.4680 C.3   1 <1>  -0.1600 
 12 C       -0.3530     0.7200     0.4250 C.3   1 <1>  -0.0960 
 13 O       -3.7720     3.3420     2.7480 O.2   1 <1>  -0.5700 
 14 N       -5.3700     3.6190     1.1920 N.am  1 <1>  -0.6600 
 15 C       -2.8200     7.5740     1.0080 C.3   1 <1>  -0.2400 
 16 C       -6.1110     2.4070     1.6730 C.3   1 <1>   0.1400 
 17 C       -5.9730     4.2770    -0.0150 C.3   1 <1>   0.1400 
 18 C       -7.5550     2.3540     1.1440 C.3   1 <1>   0.1960 
 19 C       -6.5650     3.2160    -0.9570 C.3   1 <1>   0.1960 
 20 N       -7.6570     2.4290    -0.3330 N.am  1 <1>  -0.8490 
 21 S       -9.2040     2.9290    -0.8010 S.o2  1 <1>   1.3330 
 22 O      -10.1560     2.3120     0.0920 O.2   1 <1>  -0.6500 
 23 O       -9.1690     4.3660    -0.9440 O.2   1 <1>  -0.6500 
 24 C       -9.3910     2.1760    -2.4040 C.3   1 <1>  -0.1350 
 25 H       -2.4500     1.9790    -3.5420 H     1 <1>   0.1500 
 26 H       -1.4330     3.0700     1.1520 H     1 <1>   0.1500 
 27 H       -1.0850     0.4430    -2.1770 H     1 <1>   0.1500 
 28 H       -2.2920     4.9770     1.7620 H     1 <1>   0.0800 
 29 H       -3.9690     6.5870     2.5210 H     1 <1>   0.0800 
 30 H       -4.7240     6.5790     0.9630 H     1 <1>   0.0800 
 31 H       -0.6590     0.7700     1.4550 H     1 <1>   0.0800 
 32 H        0.6850     0.9900     0.3580 H     1 <1>   0.0800 
 33 H       -0.4720    -0.2940     0.0870 H     1 <1>   0.0800 
 34 H       -1.8730     7.4840     1.5110 H     1 <1>   0.0800 
 35 H       -3.2360     8.5410     1.2310 H     1 <1>   0.0800 
 36 H       -2.6540     7.5130    -0.0530 H     1 <1>   0.0800 
 37 H       -6.1320     2.4070     2.7500 H     1 <1>   0.0800 
 38 H       -5.5850     1.5250     1.3540 H     1 <1>   0.0800 
 39 H       -5.2470     4.8470    -0.5590 H     1 <1>   0.0800 
 40 H       -6.7520     4.9530     0.2930 H     1 <1>   0.0800 
 41 H       -8.0930     3.1780     1.5850 H     1 <1>   0.0800 
 42 H       -8.0280     1.4470     1.4810 H     1 <1>   0.0800 
 43 H       -5.7720     2.5440    -1.2360 H     1 <1>   0.0800 
 44 H       -6.9060     3.6920    -1.8600 H     1 <1>   0.0800 
 45 H       -9.2950     1.1120    -2.3210 H     1 <1>   0.0800 
 46 H       -8.6440     2.5420    -3.0790 H     1 <1>   0.0800 
 47 H      -10.3590     2.4050    -2.8030 H     1 <1>   0.0800 
@<TRIPOS>BOND
  1   1   2  1   
  2   2   3  ar  
  3   2   4  ar  
  4   3   5  1   
  5   3   6  ar  
  6   4   7  ar  
  7   4  25  1   
  8   5   8  1   
  9   6   9  ar  
 10   6  26  1   
 11   7   9  ar  
 12   7  27  1   
 13   8  10  1   
 14   8  11  1   
 15   8  28  1   
 16   9  12  1   
 17  10  13  2   
 18  10  14  am  
 19  11  15  1   
 20  11  29  1   
 21  11  30  1   
 22  12  31  1   
 23  12  32  1   
 24  12  33  1   
 25  14  16  1   
 26  14  17  1   
 27  15  34  1   
 28  15  35  1   
 29  15  36  1   
 30  16  18  1   
 31  16  37  1   
 32  16  38  1   
 33  17  19  1   
 34  17  39  1   
 35  17  40  1   
 36  18  20  1   
 37  18  41  1   
 38  18  42  1   
 39  19  20  1   
 40  19  43  1   
 41  19  44  1   
 42  20  21  am  
 43  21  22  2   
 44  21  23  2   
 45  21  24  1   
 46  24  45  1   
 47  24  46  1   
 48  24  47  1   
@<TRIPOS>SUBSTRUCTURE
  1 ****  14 GROUP 4 **** **** 0

# MOE 2024.06 (io_trps.svl 2023.06)
