@<TRIPOS>MOLECULE
NONAME
26 26 1 0 0 
SMALL
USER_CHARGES


@<TRIPOS>ATOM
  1 P       -0.1040    -0.4800     0.6900 P.3   1 <1>   0.9000 
  2 O       -0.3900     0.4520     1.8210 O.co2 1 <1>  -0.9500 
  3 O        0.7780    -1.6590     0.9320 O.co2 1 <1>  -0.9500 
  4 C        0.6950     0.5470    -0.5790 C.3   1 <1>   0.3430 
  5 C       -1.6410    -1.0300    -0.0300 C.3   1 <1>  -0.2400 
  6 N        1.8770     1.3050    -0.0230 N.4   1 <1>  -0.9590 
  7 C        2.5170     2.2910    -0.9880 C.3   1 <1>   0.3170 
  8 C        2.8910     0.3370     0.4580 C.3   1 <1>   0.3430 
  9 C        1.8110     2.6560    -2.3250 C.2   1 <1>   0.9060 
 10 C        3.9270     1.7360    -1.1970 C.3   1 <1>  -0.1600 
 11 C        4.2290     0.9480     0.0750 C.3   1 <1>  -0.1600 
 12 O        1.3390     1.7580    -3.0400 O.co2 1 <1>  -0.9000 
 13 O        1.7280     3.8490    -2.6330 O.co2 1 <1>  -0.9000 
 14 H        0.0000     1.2720    -0.9630 H     1 <1>   0.0800 
 15 H        1.0240    -0.0380    -1.4180 H     1 <1>   0.0800 
 16 H       -1.4750    -1.6240    -0.9070 H     1 <1>   0.0800 
 17 H       -2.2700    -0.2040    -0.2990 H     1 <1>   0.0800 
 18 H       -2.1860    -1.6340     0.6690 H     1 <1>   0.0800 
 19 H        1.4750     1.7740     0.8050 H     1 <1>   0.4500 
 20 H        2.6190     3.2250    -0.4650 H     1 <1>   0.0800 
 21 H        2.7610    -0.6060    -0.0510 H     1 <1>   0.0800 
 22 H        2.7960     0.1650     1.5190 H     1 <1>   0.0800 
 23 H        4.6340     2.5270    -1.3780 H     1 <1>   0.0800 
 24 H        3.9170     1.0770    -2.0490 H     1 <1>   0.0800 
 25 H        4.9760     0.1900    -0.0790 H     1 <1>   0.0800 
 26 H        4.5500     1.6100     0.8600 H     1 <1>   0.0800 
@<TRIPOS>BOND
  1   1   2  ar  
  2   1   3  ar  
  3   1   4  1   
  4   1   5  1   
  5   4   6  1   
  6   4  14  1   
  7   4  15  1   
  8   5  16  1   
  9   5  17  1   
 10   5  18  1   
 11   6   7  1   
 12   6   8  1   
 13   6  19  1   
 14   7   9  1   
 15   7  10  1   
 16   7  20  1   
 17   8  11  1   
 18   8  21  1   
 19   8  22  1   
 20   9  12  ar  
 21   9  13  ar  
 22  10  11  1   
 23  10  23  1   
 24  10  24  1   
 25  11  25  1   
 26  11  26  1   
@<TRIPOS>SUBSTRUCTURE
  1 ****   6 GROUP 4 **** **** 0

# MOE 2024.06 (io_trps.svl 2023.06)
