@<TRIPOS>MOLECULE
NONAME
36 37 1 0 0 
SMALL
USER_CHARGES


@<TRIPOS>ATOM
  1 F       -2.3460     1.7280    -1.8970 F     1 <1>  -0.1900 
  2 C       -1.4200     2.3720    -1.2320 C.ar  1 <1>   0.1900 
  3 C       -1.4310     2.3450     0.1590 C.ar  1 <1>  -0.1440 
  4 C       -0.4670     3.0600    -1.9660 C.ar  1 <1>  -0.1500 
  5 C       -0.4340     3.0410     0.8300 C.ar  1 <1>  -0.1500 
  6 C       -2.4960     1.5780     0.9290 C.3   1 <1>   0.2540 
  7 C        0.5230     3.7540    -1.2890 C.ar  1 <1>  -0.1500 
  8 C        0.5170     3.7300     0.0950 C.ar  1 <1>   0.1900 
  9 N       -3.8130     2.1990     0.6970 N.3   1 <1>  -0.8100 
 10 F        1.4470     4.3850     0.7360 F     1 <1>  -0.1900 
 11 C       -4.9410     1.2810     0.9830 C.3   1 <1>   0.1100 
 12 C       -3.9630     3.5140     1.3450 C.3   1 <1>   0.1100 
 13 C       -6.2530     1.7510     0.3160 C.3   1 <1>   0.3430 
 14 C       -4.5680     4.5040     0.3430 C.3   1 <1>  -0.1600 
 15 N       -5.9450     2.7640    -0.7380 N.4   1 <1>  -0.9590 
 16 C       -5.9590     4.1400    -0.1840 C.3   1 <1>   0.3430 
 17 C       -6.7560     2.6070    -1.9770 C.3   1 <1>   0.2630 
 18 H       -0.4990     3.0490    -3.0400 H     1 <1>   0.1500 
 19 H       -0.3820     3.0580     1.9040 H     1 <1>   0.1500 
 20 H       -2.2730     1.5610     1.9830 H     1 <1>   0.0800 
 21 H       -2.5000     0.5620     0.5720 H     1 <1>   0.0800 
 22 H        1.2840     4.3020    -1.8170 H     1 <1>   0.1500 
 23 H       -5.0810     1.1690     2.0460 H     1 <1>   0.0800 
 24 H       -4.7100     0.3070     0.5860 H     1 <1>   0.0800 
 25 H       -3.0020     3.8940     1.6510 H     1 <1>   0.0800 
 26 H       -4.5750     3.4390     2.2290 H     1 <1>   0.0800 
 27 H       -6.9090     2.1740     1.0580 H     1 <1>   0.0800 
 28 H       -6.7470     0.8960    -0.1150 H     1 <1>   0.0800 
 29 H       -3.8910     4.6130    -0.4870 H     1 <1>   0.0800 
 30 H       -4.6320     5.4660     0.8170 H     1 <1>   0.0800 
 31 H       -4.9350     2.5800    -0.9260 H     1 <1>   0.4500 
 32 H       -6.2290     4.8430    -0.9570 H     1 <1>   0.0800 
 33 H       -6.6880     4.2140     0.6070 H     1 <1>   0.0800 
 34 H       -7.7990     2.7840    -1.7680 H     1 <1>   0.0800 
 35 H       -6.6440     1.6100    -2.3710 H     1 <1>   0.0800 
 36 H       -6.4280     3.3080    -2.7270 H     1 <1>   0.0800 
@<TRIPOS>BOND
  1   1   2  1   
  2   2   3  ar  
  3   2   4  ar  
  4   3   5  ar  
  5   3   6  1   
  6   4   7  ar  
  7   4  18  1   
  8   5   8  ar  
  9   5  19  1   
 10   6   9  1   
 11   6  20  1   
 12   6  21  1   
 13   7   8  ar  
 14   7  22  1   
 15   8  10  1   
 16   9  11  1   
 17   9  12  1   
 18  11  13  1   
 19  11  23  1   
 20  11  24  1   
 21  12  14  1   
 22  12  25  1   
 23  12  26  1   
 24  13  15  1   
 25  13  27  1   
 26  13  28  1   
 27  14  16  1   
 28  14  29  1   
 29  14  30  1   
 30  15  16  1   
 31  15  17  1   
 32  15  31  1   
 33  16  32  1   
 34  16  33  1   
 35  17  34  1   
 36  17  35  1   
 37  17  36  1   
@<TRIPOS>SUBSTRUCTURE
  1 ****   9 GROUP 4 **** **** 0

# MOE 2024.06 (io_trps.svl 2023.06)
