@<TRIPOS>MOLECULE
NONAME
36 37 1 0 0 
SMALL
USER_CHARGES


@<TRIPOS>ATOM
  1 O        0.1210     1.5060    -1.8330 O.2   1 <1>  -0.5200 
  2 N       -0.1280     0.4420    -1.2460 N.pl3 1 <1>   0.8000 
  3 O        0.6450    -0.5280    -1.3120 O.2   1 <1>  -0.5200 
  4 C       -1.4300     0.3160    -0.4930 C.3   1 <1>   0.3780 
  5 C       -1.5280     1.3570     0.6240 C.2   1 <1>  -0.2880 
  6 C       -1.5620    -1.0910     0.1440 C.3   1 <1>   0.1100 
  7 C       -2.6150     0.5340    -1.4550 C.3   1 <1>  -0.1600 
  8 C       -2.6670     1.9400     1.0490 C.2   1 <1>  -0.1240 
  9 N       -2.8550    -1.2630     0.8610 N.3   1 <1>  -0.8100 
 10 C       -3.9410     0.4250    -0.6620 C.3   1 <1>   0.2400 
 11 C       -2.7140     2.9260     2.1160 C.2   1 <1>   0.6160 
 12 C       -4.0040     1.5670     0.3960 C.3   1 <1>  -0.0220 
 13 C       -4.0130    -0.9760    -0.0080 C.3   1 <1>   0.1100 
 14 C       -2.9790    -2.5820     1.4950 C.3   1 <1>   0.1100 
 15 N       -5.1370     0.5260    -1.5630 N.pl3 1 <1>   0.8000 
 16 O       -1.7060     3.2960     2.6720 O.2   1 <1>  -0.5700 
 17 N       -3.8660     3.4850     2.5410 N.am  1 <1>  -0.8000 
 18 C       -2.1050    -2.6480     2.7440 C.3   1 <1>  -0.2400 
 19 O       -5.0190     0.2680    -2.7690 O.2   1 <1>  -0.5200 
 20 O       -6.2360     0.8110    -1.0640 O.2   1 <1>  -0.5200 
 21 H       -0.5750     1.5830     1.0770 H     1 <1>   0.1500 
 22 H       -0.7520    -1.2210     0.8410 H     1 <1>   0.0800 
 23 H       -1.4780    -1.8470    -0.6190 H     1 <1>   0.0800 
 24 H       -2.5780    -0.2140    -2.2280 H     1 <1>   0.0800 
 25 H       -2.5440     1.5090    -1.9080 H     1 <1>   0.0800 
 26 H       -4.3790     2.4590    -0.0760 H     1 <1>   0.0800 
 27 H       -4.6990     1.2800     1.1670 H     1 <1>   0.0800 
 28 H       -4.9130    -1.0420     0.5830 H     1 <1>   0.0800 
 29 H       -4.0640    -1.7290    -0.7790 H     1 <1>   0.0800 
 30 H       -2.7110    -3.3630     0.8020 H     1 <1>   0.0800 
 31 H       -4.0020    -2.7380     1.7990 H     1 <1>   0.0800 
 32 H       -3.8160     4.1590     3.3060 H     1 <1>   0.3700 
 33 H       -4.7930     3.2430     2.2020 H     1 <1>   0.3700 
 34 H       -1.0620    -2.6420     2.4930 H     1 <1>   0.0800 
 35 H       -2.3110    -3.5580     3.2780 H     1 <1>   0.0800 
 36 H       -2.3240    -1.8180     3.3920 H     1 <1>   0.0800 
@<TRIPOS>BOND
  1   1   2  2   
  2   2   3  2   
  3   2   4  1   
  4   4   5  1   
  5   4   6  1   
  6   4   7  1   
  7   5   8  2   
  8   5  21  1   
  9   6   9  1   
 10   6  22  1   
 11   6  23  1   
 12   7  10  1   
 13   7  24  1   
 14   7  25  1   
 15   8  11  1   
 16   8  12  1   
 17   9  13  1   
 18   9  14  1   
 19  10  12  1   
 20  10  13  1   
 21  10  15  1   
 22  11  16  2   
 23  11  17  am  
 24  12  26  1   
 25  12  27  1   
 26  13  28  1   
 27  13  29  1   
 28  14  18  1   
 29  14  30  1   
 30  14  31  1   
 31  15  19  2   
 32  15  20  2   
 33  17  32  1   
 34  17  33  1   
 35  18  34  1   
 36  18  35  1   
 37  18  36  1   
@<TRIPOS>SUBSTRUCTURE
  1 ****   4 GROUP 4 **** **** 0

# MOE 2024.06 (io_trps.svl 2023.06)
