@<TRIPOS>MOLECULE
NONAME
50 51 1 0 0 
SMALL
USER_CHARGES


@<TRIPOS>ATOM
  1 O        0.5060    -7.7710    -0.3570 O.3   1 <1>  -0.3630 
  2 C       -0.7350    -7.2450    -0.2100 C.ar  1 <1>   0.0830 
  3 C        1.6490    -7.0660     0.0550 C.3   1 <1>   0.1200 
  4 C       -1.7920    -7.9920    -0.6980 C.ar  1 <1>  -0.1500 
  5 C       -0.9930    -6.0200     0.3920 C.ar  1 <1>  -0.1500 
  6 C        2.8620    -7.9360    -0.2870 C.3   1 <1>   0.3430 
  7 C       -3.1000    -7.5420    -0.6010 C.ar  1 <1>  -0.1440 
  8 C       -2.2950    -5.5670     0.4920 C.ar  1 <1>  -0.1500 
  9 N        4.1640    -7.3110     0.1190 N.4   1 <1>  -0.9590 
 10 C       -3.3630    -6.3110     0.0020 C.ar  1 <1>  -0.1430 
 11 C       -4.2000    -8.4310    -1.1660 C.3   1 <1>  -0.0970 
 12 C        4.4790    -6.0870    -0.6790 C.3   1 <1>   0.3430 
 13 C        5.2640    -8.3150     0.0180 C.3   1 <1>   0.3430 
 14 C       -4.7820    -5.7440     0.1480 C.3   1 <1>   0.0630 
 15 C        5.7590    -5.4410    -0.1480 C.3   1 <1>  -0.1600 
 16 C        6.5600    -7.7170     0.5650 C.3   1 <1>  -0.1600 
 17 C       -4.9260    -4.4200    -0.6110 C.3   1 <1>  -0.2400 
 18 C       -5.1550    -5.5670     1.6240 C.3   1 <1>  -0.2400 
 19 C        6.9390    -6.4230    -0.1680 C.3   1 <1>  -0.0800 
 20 C        8.1820    -5.7870     0.4640 C.3   1 <1>  -0.2400 
 21 H        1.5760    -6.9040     1.1160 H     1 <1>   0.0800 
 22 H        1.6690    -6.1330    -0.4800 H     1 <1>   0.0800 
 23 H       -1.5770    -8.9380    -1.1600 H     1 <1>   0.1500 
 24 H       -0.2110    -5.4040     0.7890 H     1 <1>   0.1500 
 25 H        2.8660    -8.1240    -1.3490 H     1 <1>   0.0800 
 26 H        2.7450    -8.8790     0.2210 H     1 <1>   0.0800 
 27 H       -2.4760    -4.6160     0.9610 H     1 <1>   0.1500 
 28 H        4.1070    -7.0340     1.1080 H     1 <1>   0.4500 
 29 H       -3.7950    -9.3340    -1.5850 H     1 <1>   0.0800 
 30 H       -4.7300    -7.9100    -1.9440 H     1 <1>   0.0800 
 31 H       -4.8890    -8.7040    -0.3870 H     1 <1>   0.0800 
 32 H        3.6710    -5.3770    -0.6120 H     1 <1>   0.0800 
 33 H        4.6130    -6.3510    -1.7160 H     1 <1>   0.0800 
 34 H        5.4060    -8.6010    -1.0120 H     1 <1>   0.0800 
 35 H        5.0130    -9.1990     0.5840 H     1 <1>   0.0800 
 36 H       -5.4990    -6.4220    -0.2740 H     1 <1>   0.0800 
 37 H        5.5890    -5.0810     0.8520 H     1 <1>   0.0800 
 38 H        5.9960    -4.5870    -0.7600 H     1 <1>   0.0800 
 39 H        7.3520    -8.4380     0.4460 H     1 <1>   0.0800 
 40 H        6.4510    -7.5320     1.6190 H     1 <1>   0.0800 
 41 H       -4.2940    -3.6600    -0.1880 H     1 <1>   0.0800 
 42 H       -5.9440    -4.0780    -0.5730 H     1 <1>   0.0800 
 43 H       -4.6500    -4.5600    -1.6410 H     1 <1>   0.0800 
 44 H       -4.5280    -4.8330     2.0970 H     1 <1>   0.0800 
 45 H       -5.0380    -6.5020     2.1420 H     1 <1>   0.0800 
 46 H       -6.1780    -5.2520     1.7140 H     1 <1>   0.0800 
 47 H        7.1710    -6.6620    -1.1940 H     1 <1>   0.0800 
 48 H        8.0040    -5.5270     1.4930 H     1 <1>   0.0800 
 49 H        8.4590    -4.8940    -0.0690 H     1 <1>   0.0800 
 50 H        9.0140    -6.4690     0.4250 H     1 <1>   0.0800 
@<TRIPOS>BOND
  1   1   2  1   
  2   1   3  1   
  3   2   4  ar  
  4   2   5  ar  
  5   3   6  1   
  6   3  21  1   
  7   3  22  1   
  8   4   7  ar  
  9   4  23  1   
 10   5   8  ar  
 11   5  24  1   
 12   6   9  1   
 13   6  25  1   
 14   6  26  1   
 15   7  10  ar  
 16   7  11  1   
 17   8  10  ar  
 18   8  27  1   
 19   9  12  1   
 20   9  13  1   
 21   9  28  1   
 22  10  14  1   
 23  11  29  1   
 24  11  30  1   
 25  11  31  1   
 26  12  15  1   
 27  12  32  1   
 28  12  33  1   
 29  13  16  1   
 30  13  34  1   
 31  13  35  1   
 32  14  17  1   
 33  14  18  1   
 34  14  36  1   
 35  15  19  1   
 36  15  37  1   
 37  15  38  1   
 38  16  19  1   
 39  16  39  1   
 40  16  40  1   
 41  17  41  1   
 42  17  42  1   
 43  17  43  1   
 44  18  44  1   
 45  18  45  1   
 46  18  46  1   
 47  19  20  1   
 48  19  47  1   
 49  20  48  1   
 50  20  49  1   
 51  20  50  1   
@<TRIPOS>SUBSTRUCTURE
  1 ****   3 GROUP 4 **** **** 0

# MOE 2024.06 (io_trps.svl 2023.06)
