@<TRIPOS>MOLECULE
NONAME
62 65 1 0 0 
SMALL
USER_CHARGES


@<TRIPOS>ATOM
  1 O       -1.3220    -1.2120     1.7330 O.2   1 <1>  -0.5700 
  2 C       -2.0120    -1.8110     0.9310 C.2   1 <1>   0.5440 
  3 N       -1.4350    -2.8080     0.1920 N.am  1 <1>  -0.7300 
  4 C       -3.4060    -1.4620     0.7420 C.ar  1 <1>   0.0860 
  5 C       -0.0180    -3.2580     0.3090 C.3   1 <1>   0.1400 
  6 C       -4.3520    -2.3890     0.2990 C.ar  1 <1>  -0.1500 
  7 C       -3.8640    -0.1680     0.9950 C.ar  1 <1>  -0.1500 
  8 C        0.8550    -2.6460    -0.7950 C.3   1 <1>   0.2000 
  9 C       -5.6740    -2.0370     0.1060 C.ar  1 <1>  -0.1500 
 10 C       -5.1850     0.1880     0.8030 C.ar  1 <1>  -0.1500 
 11 O        2.1370    -3.1950    -0.7270 O.3   1 <1>  -0.5600 
 12 C        1.0420    -1.1360    -0.6930 C.3   1 <1>  -0.1600 
 13 C       -6.1160    -0.7430     0.3520 C.ar  1 <1>   0.1170 
 14 C        3.1280    -2.2300    -0.9120 C.3   1 <1>   0.1200 
 15 C        2.4180    -0.9390    -1.2910 C.3   1 <1>  -0.1600 
 16 N       -7.4610    -0.4400     0.1250 N.am  1 <1>  -0.5470 
 17 C       -8.2710     0.5710     0.5810 C.2   1 <1>   0.5690 
 18 O       -7.8760     1.4090     1.3570 O.2   1 <1>  -0.5700 
 19 C       -9.7330     0.6030     0.0610 C.3   1 <1>   0.2040 
 20 C      -10.1520    -0.8560    -0.2670 C.ar  1 <1>  -0.1430 
 21 C      -10.7270     1.1730     1.1090 C.3   1 <1>  -0.1600 
 22 C       -9.7960     1.5240    -1.1820 C.3   1 <1>  -0.1600 
 23 C      -10.4120    -1.3100    -1.5590 C.ar  1 <1>  -0.1500 
 24 C      -10.2380    -1.7770     0.7730 C.ar  1 <1>  -0.1500 
 25 C      -10.6230     2.6940     1.2970 C.3   1 <1>   0.1200 
 26 C       -9.6640     3.0020    -0.8100 C.3   1 <1>   0.1200 
 27 C      -10.7500    -2.6310    -1.8010 C.ar  1 <1>  -0.1500 
 28 C      -10.5740    -3.0970     0.5350 C.ar  1 <1>  -0.1500 
 29 O      -10.7000     3.3230     0.0580 O.3   1 <1>  -0.5600 
 30 C      -10.8330    -3.5360    -0.7500 C.ar  1 <1>   0.0830 
 31 O      -11.1540    -4.8450    -0.8990 O.3   1 <1>  -0.3620 
 32 C      -11.5230    -5.3710    -2.1540 C.3   1 <1>   0.0400 
 33 H       -1.9690    -3.2330    -0.5660 H     1 <1>   0.3700 
 34 H        0.0140    -4.3310     0.2310 H     1 <1>   0.0800 
 35 H        0.3750    -2.9750     1.2700 H     1 <1>   0.0800 
 36 H       -4.0510    -3.4050     0.1130 H     1 <1>   0.1500 
 37 H       -3.1630     0.5690     1.3500 H     1 <1>   0.1500 
 38 H        0.4630    -2.9060    -1.7630 H     1 <1>   0.0800 
 39 H       -6.3760    -2.7780    -0.2340 H     1 <1>   0.1500 
 40 H       -5.4890     1.1980     1.0050 H     1 <1>   0.1500 
 41 H        1.0370    -0.8360     0.3410 H     1 <1>   0.0800 
 42 H        0.2730    -0.5990    -1.2180 H     1 <1>   0.0800 
 43 H        3.8070    -2.5650    -1.6780 H     1 <1>   0.0800 
 44 H        3.6510    -2.1210     0.0220 H     1 <1>   0.0800 
 45 H        2.9200    -0.0710    -0.9020 H     1 <1>   0.0800 
 46 H        2.3560    -0.8660    -2.3630 H     1 <1>   0.0800 
 47 H       -7.9780    -1.1570    -0.3900 H     1 <1>   0.3700 
 48 H      -10.5720     0.7060     2.0630 H     1 <1>   0.0800 
 49 H      -11.7320     0.9490     0.7980 H     1 <1>   0.0800 
 50 H      -10.7440     1.4110    -1.6770 H     1 <1>   0.0800 
 51 H       -9.0180     1.2640    -1.8770 H     1 <1>   0.0800 
 52 H      -10.3590    -0.6580    -2.4110 H     1 <1>   0.1500 
 53 H      -10.0350    -1.4820     1.7880 H     1 <1>   0.1500 
 54 H       -9.7010     2.9820     1.7730 H     1 <1>   0.0800 
 55 H      -11.4410     3.0520     1.8970 H     1 <1>   0.0800 
 56 H       -9.7680     3.6220    -1.6840 H     1 <1>   0.0800 
 57 H       -8.7230     3.2240    -0.3340 H     1 <1>   0.0800 
 58 H      -10.9440    -2.9370    -2.8110 H     1 <1>   0.1500 
 59 H      -10.6400    -3.7980     1.3480 H     1 <1>   0.1500 
 60 H      -11.7680    -6.4100    -2.0210 H     1 <1>   0.0800 
 61 H      -10.6930    -5.2760    -2.8310 H     1 <1>   0.0800 
 62 H      -12.3830    -4.8370    -2.5170 H     1 <1>   0.0800 
@<TRIPOS>BOND
  1   1   2  2   
  2   2   3  am  
  3   2   4  1   
  4   3   5  1   
  5   3  33  1   
  6   4   6  ar  
  7   4   7  ar  
  8   5   8  1   
  9   5  34  1   
 10   5  35  1   
 11   6   9  ar  
 12   6  36  1   
 13   7  10  ar  
 14   7  37  1   
 15   8  11  1   
 16   8  12  1   
 17   8  38  1   
 18   9  13  ar  
 19   9  39  1   
 20  10  13  ar  
 21  10  40  1   
 22  11  14  1   
 23  12  15  1   
 24  12  41  1   
 25  12  42  1   
 26  13  16  1   
 27  14  15  1   
 28  14  43  1   
 29  14  44  1   
 30  15  45  1   
 31  15  46  1   
 32  16  17  am  
 33  16  47  1   
 34  17  18  2   
 35  17  19  1   
 36  19  20  1   
 37  19  21  1   
 38  19  22  1   
 39  20  23  ar  
 40  20  24  ar  
 41  21  25  1   
 42  21  48  1   
 43  21  49  1   
 44  22  26  1   
 45  22  50  1   
 46  22  51  1   
 47  23  27  ar  
 48  23  52  1   
 49  24  28  ar  
 50  24  53  1   
 51  25  29  1   
 52  25  54  1   
 53  25  55  1   
 54  26  29  1   
 55  26  56  1   
 56  26  57  1   
 57  27  30  ar  
 58  27  58  1   
 59  28  30  ar  
 60  28  59  1   
 61  30  31  1   
 62  31  32  1   
 63  32  60  1   
 64  32  61  1   
 65  32  62  1   
@<TRIPOS>SUBSTRUCTURE
  1 ****  13 GROUP 4 **** **** 0

# MOE 2024.06 (io_trps.svl 2023.06)
