@<TRIPOS>MOLECULE
NONAME
38 39 1 0 0 
SMALL
USER_CHARGES


@<TRIPOS>ATOM
  1 O        0.4490    -0.2380    -1.3520 O.2   1 <1>  -0.5700 
  2 C        1.2190    -1.0270    -0.8220 C.2   1 <1>   0.6160 
  3 N        2.5060    -0.6930    -0.5470 N.am  1 <1>  -0.5470 
  4 C        0.9700    -2.3690    -0.3940 C.2   1 <1>  -0.0140 
  5 C        3.1320    -1.7660     0.0570 C.ar  1 <1>   0.1170 
  6 C        2.2180    -2.8070     0.1670 C.ar  1 <1>   0.0280 
  7 C       -0.1940    -3.0790    -0.4930 C.2   1 <1>  -0.0500 
  8 C        4.4340    -1.8910     0.5150 C.ar  1 <1>  -0.1500 
  9 C        2.6200    -4.0050     0.7490 C.ar  1 <1>  -0.1500 
 10 N       -1.3330    -2.5870    -1.0550 N.pl3 1 <1>  -0.8690 
 11 C        4.8230    -3.0870     1.0930 C.ar  1 <1>  -0.1500 
 12 C        3.9190    -4.1390     1.2090 C.ar  1 <1>  -0.1500 
 13 C       -2.6190    -3.2800    -1.1910 C.3   1 <1>   0.2090 
 14 C       -3.6490    -2.4950    -0.3850 C.3   1 <1>  -0.1600 
 15 C       -5.0210    -3.1590    -0.4630 C.3   1 <1>   0.3430 
 16 N       -5.9950    -2.4500     0.4190 N.4   1 <1>  -0.9590 
 17 C       -7.2280    -3.2740     0.6130 C.3   1 <1>   0.2630 
 18 C       -6.3540    -1.0920    -0.1020 C.3   1 <1>   0.2630 
 19 H        2.8930     0.2210    -0.7730 H     1 <1>   0.3700 
 20 H       -0.2290    -4.0870    -0.1130 H     1 <1>   0.1500 
 21 H        5.1220    -1.0710     0.4190 H     1 <1>   0.1500 
 22 H        1.9230    -4.8190     0.8390 H     1 <1>   0.1500 
 23 H       -1.2860    -1.6310    -1.4570 H     1 <1>   0.4000 
 24 H        5.8300    -3.2070     1.4550 H     1 <1>   0.1500 
 25 H        4.2360    -5.0630     1.6600 H     1 <1>   0.1500 
 26 H       -2.8900    -3.3190    -2.2330 H     1 <1>   0.0800 
 27 H       -2.5260    -4.2870    -0.8170 H     1 <1>   0.0800 
 28 H       -3.6940    -1.4960    -0.7800 H     1 <1>   0.0800 
 29 H       -3.3200    -2.4600     0.6390 H     1 <1>   0.0800 
 30 H       -4.9270    -4.1850    -0.1420 H     1 <1>   0.0800 
 31 H       -5.3740    -3.1570    -1.4820 H     1 <1>   0.0800 
 32 H       -5.5430    -2.3290     1.3400 H     1 <1>   0.4500 
 33 H       -7.7280    -3.4290    -0.3300 H     1 <1>   0.0800 
 34 H       -7.9080    -2.7770     1.2860 H     1 <1>   0.0800 
 35 H       -6.9750    -4.2350     1.0310 H     1 <1>   0.0800 
 36 H       -6.7970    -1.1710    -1.0820 H     1 <1>   0.0800 
 37 H       -5.4770    -0.4680    -0.1690 H     1 <1>   0.0800 
 38 H       -7.0610    -0.6130     0.5570 H     1 <1>   0.0800 
@<TRIPOS>BOND
  1   1   2  2   
  2   2   3  am  
  3   2   4  1   
  4   3   5  1   
  5   3  19  1   
  6   4   6  1   
  7   4   7  2   
  8   5   6  ar  
  9   5   8  ar  
 10   6   9  ar  
 11   7  10  1   
 12   7  20  1   
 13   8  11  ar  
 14   8  21  1   
 15   9  12  ar  
 16   9  22  1   
 17  10  13  1   
 18  10  23  1   
 19  11  12  ar  
 20  11  24  1   
 21  12  25  1   
 22  13  14  1   
 23  13  26  1   
 24  13  27  1   
 25  14  15  1   
 26  14  28  1   
 27  14  29  1   
 28  15  16  1   
 29  15  30  1   
 30  15  31  1   
 31  16  17  1   
 32  16  18  1   
 33  16  32  1   
 34  17  33  1   
 35  17  34  1   
 36  17  35  1   
 37  18  36  1   
 38  18  37  1   
 39  18  38  1   
@<TRIPOS>SUBSTRUCTURE
  1 ****   7 GROUP 4 **** **** 0

# MOE 2024.06 (io_trps.svl 2023.06)
