@<TRIPOS>MOLECULE
NONAME
47 48 1 0 0 
SMALL
USER_CHARGES


@<TRIPOS>ATOM
  1 O      -14.4890     2.5990    -0.4610 O.3   1 <1>  -0.3630 
  2 C      -13.4100     2.0270     0.1340 C.ar  1 <1>   0.0830 
  3 C      -15.8210     2.2470    -0.1590 C.3   1 <1>   0.2000 
  4 C      -12.1700     2.5250    -0.2270 C.ar  1 <1>  -0.1500 
  5 C      -13.4840     0.9910     1.0620 C.ar  1 <1>  -0.1500 
  6 C      -16.6810     2.7060    -1.3330 C.3   1 <1>  -0.2400 
  7 C      -16.2380     2.9500     1.1350 C.3   1 <1>  -0.2400 
  8 C      -11.0070     2.0080     0.3200 C.ar  1 <1>   0.0830 
  9 C      -12.3260     0.4710     1.6150 C.ar  1 <1>  -0.1500 
 10 O       -9.8380     2.5570    -0.0950 O.3   1 <1>  -0.3630 
 11 C      -11.0900     0.9740     1.2490 C.ar  1 <1>  -0.1500 
 12 C       -8.5950     2.0490     0.3380 C.3   1 <1>   0.1200 
 13 C       -7.4900     2.8750    -0.3260 C.3   1 <1>   0.1100 
 14 N       -6.1410     2.3930     0.0470 N.3   1 <1>  -0.8100 
 15 C       -5.1340     3.4530    -0.1640 C.3   1 <1>   0.1100 
 16 C       -5.7720     1.1540    -0.6740 C.3   1 <1>   0.1100 
 17 C       -3.7220     2.9860     0.2470 C.3   1 <1>   0.3430 
 18 C       -4.3650     0.6620    -0.2730 C.3   1 <1>   0.3430 
 19 N       -3.3210     1.7270    -0.4720 N.4   1 <1>  -0.9590 
 20 C       -1.9750     1.2570    -0.0300 C.3   1 <1>   0.2630 
 21 H      -15.8890     1.1770    -0.0710 H     1 <1>   0.0800 
 22 H      -12.1110     3.3240    -0.9420 H     1 <1>   0.1500 
 23 H      -14.4260     0.5790     1.3670 H     1 <1>   0.1500 
 24 H      -16.6010     3.7710    -1.4630 H     1 <1>   0.0800 
 25 H      -17.7110     2.4570    -1.1560 H     1 <1>   0.0800 
 26 H      -16.3620     2.2130    -2.2340 H     1 <1>   0.0800 
 27 H      -16.1480     4.0160     1.0240 H     1 <1>   0.0800 
 28 H      -15.6240     2.6300     1.9570 H     1 <1>   0.0800 
 29 H      -17.2600     2.7140     1.3670 H     1 <1>   0.0800 
 30 H      -12.3890    -0.3290     2.3330 H     1 <1>   0.1500 
 31 H      -10.2120     0.5510     1.6980 H     1 <1>   0.1500 
 32 H       -8.5420     1.0170     0.0440 H     1 <1>   0.0800 
 33 H       -8.5430     2.1480     1.4070 H     1 <1>   0.0800 
 34 H       -7.6110     3.8930     0.0060 H     1 <1>   0.0800 
 35 H       -7.6110     2.8500    -1.3960 H     1 <1>   0.0800 
 36 H       -5.3960     4.3110     0.4320 H     1 <1>   0.0800 
 37 H       -5.1290     3.7580    -1.1970 H     1 <1>   0.0800 
 38 H       -5.8060     1.3220    -1.7370 H     1 <1>   0.0800 
 39 H       -6.4800     0.3780    -0.4410 H     1 <1>   0.0800 
 40 H       -3.7210     2.8130     1.3110 H     1 <1>   0.0800 
 41 H       -3.0150     3.7720     0.0370 H     1 <1>   0.0800 
 42 H       -4.1160    -0.2100    -0.8550 H     1 <1>   0.0800 
 43 H       -4.3930     0.3720     0.7640 H     1 <1>   0.0800 
 44 H       -3.2930     1.9440    -1.4770 H     1 <1>   0.4500 
 45 H       -1.9860     1.0250     1.0220 H     1 <1>   0.0800 
 46 H       -1.2350     2.0210    -0.2070 H     1 <1>   0.0800 
 47 H       -1.6890     0.3710    -0.5760 H     1 <1>   0.0800 
@<TRIPOS>BOND
  1   1   2  1   
  2   1   3  1   
  3   2   4  ar  
  4   2   5  ar  
  5   3   6  1   
  6   3   7  1   
  7   3  21  1   
  8   4   8  ar  
  9   4  22  1   
 10   5   9  ar  
 11   5  23  1   
 12   6  24  1   
 13   6  25  1   
 14   6  26  1   
 15   7  27  1   
 16   7  28  1   
 17   7  29  1   
 18   8  10  1   
 19   8  11  ar  
 20   9  11  ar  
 21   9  30  1   
 22  10  12  1   
 23  11  31  1   
 24  12  13  1   
 25  12  32  1   
 26  12  33  1   
 27  13  14  1   
 28  13  34  1   
 29  13  35  1   
 30  14  15  1   
 31  14  16  1   
 32  15  17  1   
 33  15  36  1   
 34  15  37  1   
 35  16  18  1   
 36  16  38  1   
 37  16  39  1   
 38  17  19  1   
 39  17  40  1   
 40  17  41  1   
 41  18  19  1   
 42  18  42  1   
 43  18  43  1   
 44  19  20  1   
 45  19  44  1   
 46  20  45  1   
 47  20  46  1   
 48  20  47  1   
@<TRIPOS>SUBSTRUCTURE
  1 ****  10 GROUP 4 **** **** 0

# MOE 2024.06 (io_trps.svl 2023.06)
