@<TRIPOS>MOLECULE
NONAME
27 28 1 0 0 
SMALL
USER_CHARGES


@<TRIPOS>ATOM
  1 CL       2.3670    -1.0050    -2.1880 Cl    1 <1>  -0.1770 
  2 C        1.3490    -2.0340    -1.2020 C.ar  1 <1>   0.1770 
  3 C        1.8580    -2.6130    -0.0440 C.ar  1 <1>   0.0830 
  4 C        0.0440    -2.2500    -1.6040 C.ar  1 <1>  -0.1500 
  5 O        3.1510    -2.3520     0.2830 O.3   1 <1>  -0.3630 
  6 C        1.0220    -3.4260     0.7190 C.ar  1 <1>  -0.1500 
  7 C       -0.7780    -3.0600    -0.8380 C.ar  1 <1>  -0.1500 
  8 C        3.7570    -2.8990     1.4470 C.3   1 <1>   0.1810 
  9 C       -0.2870    -3.6450     0.3190 C.ar  1 <1>  -0.1500 
 10 C        5.2060    -2.4480     1.5730 C.2   1 <1>   0.5690 
 11 O        5.8480    -2.8380     2.5200 O.2   1 <1>  -0.5700 
 12 N        5.7270    -1.6250     0.6220 N.am  1 <1>  -0.5790 
 13 C        7.0940    -1.0930     0.5810 C.3   1 <1>   0.0490 
 14 C        7.2940     0.2820     0.0380 C.3   1 <1>  -0.2000 
 15 C        7.7350    -0.9130    -0.7540 C.3   1 <1>  -0.2000 
 16 H       -0.3210    -1.7880    -2.5040 H     1 <1>   0.1500 
 17 H        1.3650    -3.8970     1.6210 H     1 <1>   0.1500 
 18 H       -1.7960    -3.2350    -1.1410 H     1 <1>   0.1500 
 19 H        3.7250    -3.9710     1.3780 H     1 <1>   0.0800 
 20 H        3.2070    -2.5670     2.3080 H     1 <1>   0.0800 
 21 H       -0.9300    -4.2740     0.9110 H     1 <1>   0.1500 
 22 H        5.1120    -1.3420    -0.1470 H     1 <1>   0.3700 
 23 H        7.7040    -1.4180     1.4110 H     1 <1>   0.1000 
 24 H        8.0500     0.9060     0.4810 H     1 <1>   0.1000 
 25 H        6.4360     0.8400    -0.2910 H     1 <1>   0.1000 
 26 H        7.1850    -1.1890    -1.6360 H     1 <1>   0.1000 
 27 H        8.7910    -1.1000    -0.8480 H     1 <1>   0.1000 
@<TRIPOS>BOND
  1   1   2  1   
  2   2   3  ar  
  3   2   4  ar  
  4   3   5  1   
  5   3   6  ar  
  6   4   7  ar  
  7   4  16  1   
  8   5   8  1   
  9   6   9  ar  
 10   6  17  1   
 11   7   9  ar  
 12   7  18  1   
 13   8  10  1   
 14   8  19  1   
 15   8  20  1   
 16   9  21  1   
 17  10  11  2   
 18  10  12  am  
 19  12  13  1   
 20  12  22  1   
 21  13  14  1   
 22  13  15  1   
 23  13  23  1   
 24  14  15  1   
 25  14  24  1   
 26  14  25  1   
 27  15  26  1   
 28  15  27  1   
@<TRIPOS>SUBSTRUCTURE
  1 ****   5 GROUP 4 **** **** 0

# MOE 2024.06 (io_trps.svl 2023.06)
