@<TRIPOS>MOLECULE
NONAME
37 38 1 0 0 
SMALL
USER_CHARGES


@<TRIPOS>ATOM
  1 O        0.0060    -0.4660    -0.5010 O.3   1 <1>  -0.3630 
  2 C       -1.1840    -0.8370     0.0140 C.ar  1 <1>   0.0830 
  3 C        1.1450    -0.9470     0.1750 C.3   1 <1>   0.1200 
  4 C       -1.9550     0.0860     0.7110 C.ar  1 <1>  -0.1440 
  5 C       -1.6270    -2.1390    -0.1630 C.ar  1 <1>  -0.1500 
  6 C        2.3730    -0.1860    -0.3190 C.3   1 <1>   0.0960 
  7 C       -3.1690    -0.3230     1.2350 C.ar  1 <1>  -0.1500 
  8 C       -1.4810     1.5200     0.9020 C.3   1 <1>  -0.0960 
  9 C       -2.8440    -2.5470     0.3630 C.ar  1 <1>  -0.1430 
 10 N        2.2490     1.2510    -0.0210 N.pl3 1 <1>   0.3140 
 11 C       -3.6080    -1.6250     1.0650 C.ar  1 <1>  -0.1500 
 12 C       -3.3490    -3.9760     0.1800 C.3   1 <1>   0.0640 
 13 N        2.8390     1.8170     1.0230 N.2   1 <1>  -0.7070 
 14 C        1.5730     2.1900    -0.6890 C.2   1 <1>   0.0360 
 15 C       -2.3940    -4.9820     0.8310 C.3   1 <1>  -0.2400 
 16 C       -3.5490    -4.2970    -1.3050 C.3   1 <1>  -0.2400 
 17 C        2.4780     3.0530     0.9090 C.2   1 <1>   0.3660 
 18 N        1.6910     3.3430    -0.1350 N.2   1 <1>  -0.5650 
 19 H        1.2400    -1.9980    -0.0290 H     1 <1>   0.0800 
 20 H        1.0100    -0.7960     1.2330 H     1 <1>   0.0800 
 21 H       -1.0190    -2.8260    -0.7190 H     1 <1>   0.1500 
 22 H        2.4910    -0.3190    -1.3780 H     1 <1>   0.0800 
 23 H        3.2520    -0.5570     0.1750 H     1 <1>   0.0800 
 24 H       -3.7840     0.3720     1.7810 H     1 <1>   0.1500 
 25 H       -0.5470     1.5310     1.4350 H     1 <1>   0.0800 
 26 H       -2.1980     2.0950     1.4570 H     1 <1>   0.0800 
 27 H       -1.3370     1.9870    -0.0560 H     1 <1>   0.0800 
 28 H       -4.5550    -1.9150     1.4830 H     1 <1>   0.1500 
 29 H       -4.3050    -4.0700     0.6670 H     1 <1>   0.0800 
 30 H        1.0010     1.9770    -1.5740 H     1 <1>   0.1500 
 31 H       -1.4350    -4.9680     0.3470 H     1 <1>   0.0800 
 32 H       -2.7990    -5.9760     0.7640 H     1 <1>   0.0800 
 33 H       -2.2590    -4.7360     1.8690 H     1 <1>   0.0800 
 34 H       -2.6150    -4.2630    -1.8340 H     1 <1>   0.0800 
 35 H       -4.2190    -3.5800    -1.7450 H     1 <1>   0.0800 
 36 H       -3.9750    -5.2780    -1.4200 H     1 <1>   0.0800 
 37 H        2.7800     3.8230     1.6000 H     1 <1>   0.1500 
@<TRIPOS>BOND
  1   1   2  1   
  2   1   3  1   
  3   2   4  ar  
  4   2   5  ar  
  5   3   6  1   
  6   3  19  1   
  7   3  20  1   
  8   4   7  ar  
  9   4   8  1   
 10   5   9  ar  
 11   5  21  1   
 12   6  10  1   
 13   6  22  1   
 14   6  23  1   
 15   7  11  ar  
 16   7  24  1   
 17   8  25  1   
 18   8  26  1   
 19   8  27  1   
 20   9  11  ar  
 21   9  12  1   
 22  10  13  1   
 23  10  14  1   
 24  11  28  1   
 25  12  15  1   
 26  12  16  1   
 27  12  29  1   
 28  13  17  2   
 29  14  18  2   
 30  14  30  1   
 31  15  31  1   
 32  15  32  1   
 33  15  33  1   
 34  16  34  1   
 35  16  35  1   
 36  16  36  1   
 37  17  18  1   
 38  17  37  1   
@<TRIPOS>SUBSTRUCTURE
  1 ****   2 GROUP 4 **** **** 0

# MOE 2024.06 (io_trps.svl 2023.06)
