@<TRIPOS>MOLECULE
NONAME
50 53 1 0 0 
SMALL
USER_CHARGES


@<TRIPOS>ATOM
  1 S       -0.0670     1.3030     2.2140 S.3   1 <1>  -0.0800 
  2 C        0.7660    -0.1540     1.6900 C.2   1 <1>   0.1040 
  3 C        0.9320     2.3000     1.1820 C.2   1 <1>  -0.1400 
  4 N        0.3990    -1.3790     2.2260 N.am  1 <1>  -0.4940 
  5 C        1.7640     0.1410     0.7980 C.2   1 <1>  -0.0860 
  6 C        1.8400     1.5630     0.5260 C.2   1 <1>  -0.1810 
  7 C        0.7060     3.7950     1.1290 C.3   1 <1>   0.0200 
  8 C       -0.7710    -1.8900     2.7130 C.2   1 <1>   0.5690 
  9 C        2.6140    -0.8680     0.2220 C.2   1 <1>   0.8060 
 10 C        2.8390     2.2350    -0.4110 C.3   1 <1>   0.0210 
 11 C        1.4750     4.3770    -0.0700 C.3   1 <1>  -0.1600 
 12 O       -0.7410    -2.8940     3.3790 O.2   1 <1>  -0.5700 
 13 C       -2.1310    -1.2640     2.4120 C.3   1 <1>   0.2010 
 14 O        2.7650    -1.9680     0.7250 O.2   1 <1>  -0.5700 
 15 O        3.2630    -0.6000    -0.9170 O.3   1 <1>  -0.4300 
 16 C        2.8830     3.7620    -0.1960 C.3   1 <1>  -0.1600 
 17 N       -3.0250    -2.2150     1.6870 N.am  1 <1>  -0.4200 
 18 C        4.0890    -1.5540    -1.5430 C.3   1 <1>   0.1200 
 19 C       -3.0150    -2.2690     0.3140 C.2   1 <1>   0.5440 
 20 C       -3.7990    -3.0980     2.3990 C.2   1 <1>   0.4500 
 21 C        4.6660    -0.9200    -2.8050 C.3   1 <1>  -0.2400 
 22 O       -2.2810    -1.5240    -0.3160 O.2   1 <1>  -0.5700 
 23 C       -3.8850    -3.2120    -0.3290 C.ar  1 <1>   0.0860 
 24 N       -4.5860    -3.9580     1.8720 N.2   1 <1>  -0.6290 
 25 C       -4.6610    -4.0370     0.4950 C.ar  1 <1>   0.1790 
 26 C       -3.9970    -3.3440    -1.7160 C.ar  1 <1>  -0.1500 
 27 C       -5.5230    -4.9630    -0.0830 C.ar  1 <1>  -0.1500 
 28 C       -4.8570    -4.2670    -2.2750 C.ar  1 <1>  -0.1500 
 29 C       -5.6250    -5.0810    -1.4540 C.ar  1 <1>  -0.1500 
 30 H        1.1430    -2.0860     2.2180 H     1 <1>   0.3700 
 31 H        1.0610     4.2340     2.0450 H     1 <1>   0.0800 
 32 H       -0.3430     4.0090     1.0280 H     1 <1>   0.0800 
 33 H        2.5560     2.0220    -1.4270 H     1 <1>   0.0800 
 34 H        3.8250     1.8390    -0.2450 H     1 <1>   0.0800 
 35 H        1.5470     5.4460     0.0340 H     1 <1>   0.0800 
 36 H        0.9240     4.1680    -0.9710 H     1 <1>   0.0800 
 37 H       -2.0210    -0.3810     1.8150 H     1 <1>   0.0800 
 38 H       -2.5890    -0.9790     3.3410 H     1 <1>   0.0800 
 39 H        3.4090     4.2210    -1.0150 H     1 <1>   0.0800 
 40 H        3.4330     3.9690     0.7060 H     1 <1>   0.0800 
 41 H        3.4920    -2.4190    -1.7840 H     1 <1>   0.0800 
 42 H        4.8720    -1.8340    -0.8580 H     1 <1>   0.0800 
 43 H       -3.7240    -3.0410     3.4710 H     1 <1>   0.0600 
 44 H        3.8730    -0.6360    -3.4720 H     1 <1>   0.0800 
 45 H        5.3010    -1.6260    -3.3080 H     1 <1>   0.0800 
 46 H        5.2520    -0.0540    -2.5510 H     1 <1>   0.0800 
 47 H       -3.3990    -2.7110    -2.3500 H     1 <1>   0.1500 
 48 H       -6.1120    -5.5890     0.5640 H     1 <1>   0.1500 
 49 H       -4.9360    -4.3600    -3.3450 H     1 <1>   0.1500 
 50 H       -6.2970    -5.8010    -1.8880 H     1 <1>   0.1500 
@<TRIPOS>BOND
  1   1   2  1   
  2   1   3  1   
  3   2   4  1   
  4   2   5  2   
  5   3   6  2   
  6   3   7  1   
  7   4   8  am  
  8   4  30  1   
  9   5   6  1   
 10   5   9  1   
 11   6  10  1   
 12   7  11  1   
 13   7  31  1   
 14   7  32  1   
 15   8  12  2   
 16   8  13  1   
 17   9  14  2   
 18   9  15  1   
 19  10  16  1   
 20  10  33  1   
 21  10  34  1   
 22  11  16  1   
 23  11  35  1   
 24  11  36  1   
 25  13  17  1   
 26  13  37  1   
 27  13  38  1   
 28  15  18  1   
 29  16  39  1   
 30  16  40  1   
 31  17  19  am  
 32  17  20  1   
 33  18  21  1   
 34  18  41  1   
 35  18  42  1   
 36  19  22  2   
 37  19  23  1   
 38  20  24  2   
 39  20  43  1   
 40  21  44  1   
 41  21  45  1   
 42  21  46  1   
 43  23  25  ar  
 44  23  26  ar  
 45  24  25  1   
 46  25  27  ar  
 47  26  28  ar  
 48  26  47  1   
 49  27  29  ar  
 50  27  48  1   
 51  28  29  ar  
 52  28  49  1   
 53  29  50  1   
@<TRIPOS>SUBSTRUCTURE
  1 ****  22 GROUP 4 **** **** 0

# MOE 2024.06 (io_trps.svl 2023.06)
