@<TRIPOS>MOLECULE
NONAME
40 41 1 0 0 
SMALL
USER_CHARGES


@<TRIPOS>ATOM
  1 O       -0.7310    -0.9870     0.7050 O.3   1 <1>  -0.5600 
  2 C       -0.1420    -1.7890    -0.2780 C.3   1 <1>   0.1200 
  3 C       -2.1210    -0.8780     0.6250 C.3   1 <1>   0.1200 
  4 C       -0.7010    -3.2230    -0.1980 C.3   1 <1>   0.3430 
  5 C       -2.7720    -2.2700     0.7450 C.3   1 <1>   0.3430 
  6 N       -2.2060    -3.2380    -0.2630 N.4   1 <1>  -0.9590 
  7 C       -2.7190    -4.6350    -0.0660 C.3   1 <1>   0.3430 
  8 C       -4.2180    -4.7700    -0.3560 C.3   1 <1>   0.1200 
  9 O       -4.5590    -6.1160    -0.1420 O.3   1 <1>  -0.3630 
 10 C       -5.8350    -6.5560    -0.2910 C.ar  1 <1>   0.0820 
 11 C       -6.0740    -7.8840     0.0150 C.ar  1 <1>  -0.1500 
 12 C       -6.8860    -5.7520    -0.7250 C.ar  1 <1>  -0.1500 
 13 C       -7.3440    -8.4220    -0.1030 C.ar  1 <1>   0.0820 
 14 C       -8.1580    -6.2850    -0.8460 C.ar  1 <1>  -0.1500 
 15 O       -7.4840    -9.7320     0.2190 O.3   1 <1>  -0.3630 
 16 C       -8.3920    -7.6140    -0.5370 C.ar  1 <1>  -0.1500 
 17 C       -8.7320   -10.3800     0.1330 C.3   1 <1>   0.1200 
 18 C       -8.5400   -11.8320     0.5610 C.3   1 <1>  -0.2400 
 19 H        0.9200    -1.7940    -0.1010 H     1 <1>   0.0800 
 20 H       -0.3260    -1.3490    -1.2430 H     1 <1>   0.0800 
 21 H       -2.3800    -0.4020    -0.3060 H     1 <1>   0.0800 
 22 H       -2.4450    -0.2450     1.4330 H     1 <1>   0.0800 
 23 H       -0.3720    -3.6600     0.7310 H     1 <1>   0.0800 
 24 H       -0.2890    -3.8090    -1.0030 H     1 <1>   0.0800 
 25 H       -3.8370    -2.1730     0.6120 H     1 <1>   0.0800 
 26 H       -2.5960    -2.6380     1.7430 H     1 <1>   0.0800 
 27 H       -2.4710    -2.9130    -1.2030 H     1 <1>   0.4500 
 28 H       -2.5330    -4.9480     0.9490 H     1 <1>   0.0800 
 29 H       -2.1920    -5.3050    -0.7260 H     1 <1>   0.0800 
 30 H       -4.4360    -4.5310    -1.3810 H     1 <1>   0.0800 
 31 H       -4.8040    -4.1720     0.3180 H     1 <1>   0.0800 
 32 H       -5.2700    -8.5120     0.3490 H     1 <1>   0.1500 
 33 H       -6.7450    -4.7190    -0.9760 H     1 <1>   0.1500 
 34 H       -8.9730    -5.6660    -1.1810 H     1 <1>   0.1500 
 35 H       -9.3880    -7.9990    -0.6390 H     1 <1>   0.1500 
 36 H       -9.0740   -10.3270    -0.8860 H     1 <1>   0.0800 
 37 H       -9.4230    -9.8780     0.7880 H     1 <1>   0.0800 
 38 H       -7.8350   -12.3180    -0.0890 H     1 <1>   0.0800 
 39 H       -9.4770   -12.3550     0.5060 H     1 <1>   0.0800 
 40 H       -8.1820   -11.8730     1.5750 H     1 <1>   0.0800 
@<TRIPOS>BOND
  1   1   2  1   
  2   1   3  1   
  3   2   4  1   
  4   2  19  1   
  5   2  20  1   
  6   3   5  1   
  7   3  21  1   
  8   3  22  1   
  9   4   6  1   
 10   4  23  1   
 11   4  24  1   
 12   5   6  1   
 13   5  25  1   
 14   5  26  1   
 15   6   7  1   
 16   6  27  1   
 17   7   8  1   
 18   7  28  1   
 19   7  29  1   
 20   8   9  1   
 21   8  30  1   
 22   8  31  1   
 23   9  10  1   
 24  10  11  ar  
 25  10  12  ar  
 26  11  13  ar  
 27  11  32  1   
 28  12  14  ar  
 29  12  33  1   
 30  13  15  1   
 31  13  16  ar  
 32  14  16  ar  
 33  14  34  1   
 34  15  17  1   
 35  16  35  1   
 36  17  18  1   
 37  17  36  1   
 38  17  37  1   
 39  18  38  1   
 40  18  39  1   
 41  18  40  1   
@<TRIPOS>SUBSTRUCTURE
  1 ****   9 GROUP 4 **** **** 0

# MOE 2024.06 (io_trps.svl 2023.06)
