@<TRIPOS>MOLECULE
NONAME
42 43 1 0 0 
SMALL
USER_CHARGES


@<TRIPOS>ATOM
  1 S       -0.0870    -0.0880    -0.8750 S.o2  1 <1>   1.0900 
  2 O       -0.5020    -1.0170    -1.8980 O.2   1 <1>  -0.6500 
  3 O        0.3090     1.2300    -1.3080 O.2   1 <1>  -0.6500 
  4 C        1.2970    -0.8520     0.0220 C.3   1 <1>   0.2100 
  5 C       -1.4510     0.1260     0.2730 C.3   1 <1>  -0.0550 
  6 S        0.5340    -2.0300     1.1880 S.o2  1 <1>   1.0900 
  7 C        2.2230    -1.5810    -1.0140 C.3   1 <1>  -0.1600 
  8 C        2.1330     0.2030     0.8310 C.3   1 <1>  -0.1600 
  9 C       -2.0470    -1.1800     0.8340 C.3   1 <1>   0.0640 
 10 O        0.3940    -1.3470     2.4530 O.2   1 <1>  -0.6500 
 11 O        1.2700    -3.2710     1.1740 O.2   1 <1>  -0.6500 
 12 C       -1.1360    -2.4030     0.6670 C.3   1 <1>  -0.0550 
 13 C        3.5800    -2.1490    -0.5230 C.3   1 <1>   0.0400 
 14 C        2.9920     1.2390     0.0590 C.3   1 <1>   0.0400 
 15 C       -3.4390    -1.4570     0.2750 C.ar  1 <1>  -0.1440 
 16 C        4.3500    -2.7260    -1.6610 C.1   1 <1>   0.3570 
 17 C        3.9400     1.9270     0.9800 C.1   1 <1>   0.3570 
 18 C       -4.5300    -1.4660     1.1350 C.ar  1 <1>  -0.1500 
 19 C       -3.6510    -1.7030    -1.0760 C.ar  1 <1>  -0.1500 
 20 N        4.9320    -3.1390    -2.5440 N.1   1 <1>  -0.5570 
 21 N        4.6670     2.4220     1.6990 N.1   1 <1>  -0.5570 
 22 C       -5.8050    -1.7140     0.6560 C.ar  1 <1>  -0.1500 
 23 C       -4.9250    -1.9510    -1.5550 C.ar  1 <1>  -0.1500 
 24 C       -6.0040    -1.9560    -0.6900 C.ar  1 <1>  -0.1500 
 25 H       -2.2340     0.6770    -0.2140 H     1 <1>   0.0800 
 26 H       -1.1220     0.7310     1.0970 H     1 <1>   0.0800 
 27 H        2.4230    -0.9000    -1.8250 H     1 <1>   0.0800 
 28 H        1.6690    -2.3980    -1.4480 H     1 <1>   0.0800 
 29 H        2.7860    -0.3390     1.4960 H     1 <1>   0.0800 
 30 H        1.4660     0.7590     1.4690 H     1 <1>   0.0800 
 31 H       -2.1600    -1.0230     1.8940 H     1 <1>   0.0800 
 32 H       -1.5280    -3.1900     1.2840 H     1 <1>   0.0800 
 33 H       -1.1520    -2.7690    -0.3420 H     1 <1>   0.0800 
 34 H        3.4510    -2.9300     0.2020 H     1 <1>   0.0800 
 35 H        4.1940    -1.3890    -0.0790 H     1 <1>   0.0800 
 36 H        2.3840     2.0030    -0.3870 H     1 <1>   0.0800 
 37 H        3.5760     0.7850    -0.7190 H     1 <1>   0.0800 
 38 H       -4.4040    -1.2810     2.1870 H     1 <1>   0.1500 
 39 H       -2.8390    -1.7090    -1.7790 H     1 <1>   0.1500 
 40 H       -6.6430    -1.7180     1.3310 H     1 <1>   0.1500 
 41 H       -5.0770    -2.1390    -2.6040 H     1 <1>   0.1500 
 42 H       -6.9950    -2.1490    -1.0640 H     1 <1>   0.1500 
@<TRIPOS>BOND
  1   1   2  2   
  2   1   3  2   
  3   1   4  1   
  4   1   5  1   
  5   4   6  1   
  6   4   7  1   
  7   4   8  1   
  8   5   9  1   
  9   5  25  1   
 10   5  26  1   
 11   6  10  2   
 12   6  11  2   
 13   6  12  1   
 14   7  13  1   
 15   7  27  1   
 16   7  28  1   
 17   8  14  1   
 18   8  29  1   
 19   8  30  1   
 20   9  12  1   
 21   9  15  1   
 22   9  31  1   
 23  12  32  1   
 24  12  33  1   
 25  13  16  1   
 26  13  34  1   
 27  13  35  1   
 28  14  17  1   
 29  14  36  1   
 30  14  37  1   
 31  15  18  ar  
 32  15  19  ar  
 33  16  20  3   
 34  17  21  3   
 35  18  22  ar  
 36  18  38  1   
 37  19  23  ar  
 38  19  39  1   
 39  22  24  ar  
 40  22  40  1   
 41  23  24  ar  
 42  23  41  1   
 43  24  42  1   
@<TRIPOS>SUBSTRUCTURE
  1 ****   1 GROUP 4 **** **** 0

# MOE 2024.06 (io_trps.svl 2023.06)
