@<TRIPOS>MOLECULE
NONAME
44 44 1 0 0 
SMALL
USER_CHARGES


@<TRIPOS>ATOM
  1 O        0.1720    -0.8270     0.9230 O.3   1 <1>  -0.3630 
  2 C       -1.0730    -1.1030     0.4750 C.ar  1 <1>   0.0820 
  3 C        1.1870    -0.8640    -0.0460 C.3   1 <1>   0.1200 
  4 C       -1.5330    -2.4170     0.4810 C.ar  1 <1>  -0.1440 
  5 C       -1.8870    -0.0680     0.0190 C.ar  1 <1>  -0.1440 
  6 C        2.5060    -0.5280     0.6520 C.3   1 <1>  -0.1600 
  7 C       -2.7980    -2.6910    -0.0120 C.ar  1 <1>  -0.1500 
  8 C       -0.6810    -3.5570     1.0210 C.3   1 <1>  -0.0960 
  9 C       -3.1480    -0.3680    -0.4680 C.ar  1 <1>  -0.1500 
 10 C       -1.4250     1.3820     0.0510 C.3   1 <1>  -0.0970 
 11 C        3.6880    -0.5410    -0.3280 C.3   1 <1>  -0.1600 
 12 C       -3.6070    -1.6740    -0.4920 C.ar  1 <1>  -0.1440 
 13 C        4.9870    -0.2010     0.3990 C.3   1 <1>   0.3430 
 14 C       -4.9910    -1.9880    -1.0290 C.3   1 <1>  -0.0970 
 15 N        6.1070    -0.2230    -0.5730 N.4   1 <1>  -0.9060 
 16 C        7.4100     0.1030     0.0810 C.3   1 <1>   0.3430 
 17 C        8.5720     0.0830    -0.9200 C.3   1 <1>   0.1200 
 18 O        9.7220     0.3950    -0.2210 O.3   1 <1>  -0.6800 
 19 H        0.9510    -0.1440    -0.8100 H     1 <1>   0.0800 
 20 H        1.2100    -1.8520    -0.4740 H     1 <1>   0.0800 
 21 H        2.6700    -1.2500     1.4340 H     1 <1>   0.0800 
 22 H        2.4130     0.4480     1.1000 H     1 <1>   0.0800 
 23 H       -3.1610    -3.7030    -0.0190 H     1 <1>   0.1500 
 24 H        0.0310    -3.8660     0.2790 H     1 <1>   0.0800 
 25 H       -1.2960    -4.3990     1.2830 H     1 <1>   0.0800 
 26 H       -0.1550    -3.2410     1.9040 H     1 <1>   0.0800 
 27 H       -3.7830     0.4220    -0.8290 H     1 <1>   0.1500 
 28 H       -0.8810     1.5780     0.9580 H     1 <1>   0.0800 
 29 H       -2.2670     2.0490     0.0160 H     1 <1>   0.0800 
 30 H       -0.7900     1.5830    -0.7910 H     1 <1>   0.0800 
 31 H        3.5030     0.1810    -1.1050 H     1 <1>   0.0800 
 32 H        3.7610    -1.5210    -0.7700 H     1 <1>   0.0800 
 33 H        5.1620    -0.9220     1.1820 H     1 <1>   0.0800 
 34 H        4.9050     0.7760     0.8480 H     1 <1>   0.0800 
 35 H       -5.0130    -2.9740    -1.4580 H     1 <1>   0.0800 
 36 H       -5.2690    -1.2810    -1.7890 H     1 <1>   0.0800 
 37 H       -5.7090    -1.9410    -0.2300 H     1 <1>   0.0800 
 38 H        5.9150     0.4540    -1.3220 H     1 <1>   0.4500 
 39 H        6.1590    -1.1530    -1.0060 H     1 <1>   0.4500 
 40 H        7.6160    -0.6130     0.8590 H     1 <1>   0.0800 
 41 H        7.3590     1.0840     0.5260 H     1 <1>   0.0800 
 42 H        8.4400     0.8240    -1.6900 H     1 <1>   0.0800 
 43 H        8.7010    -0.8950    -1.3520 H     1 <1>   0.0800 
 44 H       10.5150     0.4010    -0.8010 H     1 <1>   0.4000 
@<TRIPOS>BOND
  1   1   2  1   
  2   1   3  1   
  3   2   4  ar  
  4   2   5  ar  
  5   3   6  1   
  6   3  19  1   
  7   3  20  1   
  8   4   7  ar  
  9   4   8  1   
 10   5   9  ar  
 11   5  10  1   
 12   6  11  1   
 13   6  21  1   
 14   6  22  1   
 15   7  12  ar  
 16   7  23  1   
 17   8  24  1   
 18   8  25  1   
 19   8  26  1   
 20   9  12  ar  
 21   9  27  1   
 22  10  28  1   
 23  10  29  1   
 24  10  30  1   
 25  11  13  1   
 26  11  31  1   
 27  11  32  1   
 28  12  14  1   
 29  13  15  1   
 30  13  33  1   
 31  13  34  1   
 32  14  35  1   
 33  14  36  1   
 34  14  37  1   
 35  15  16  1   
 36  15  38  1   
 37  15  39  1   
 38  16  17  1   
 39  16  40  1   
 40  16  41  1   
 41  17  18  1   
 42  17  42  1   
 43  17  43  1   
 44  18  44  1   
@<TRIPOS>SUBSTRUCTURE
  1 ****   3 GROUP 4 **** **** 0

# MOE 2024.06 (io_trps.svl 2023.06)
