@<TRIPOS>MOLECULE
NONAME
38 39 1 0 0 
SMALL
USER_CHARGES


@<TRIPOS>ATOM
  1 S       -1.0170     0.8300     0.5480 S.3   1 <1>  -0.2860 
  2 C        0.7070     1.2440     0.3450 C.2   1 <1>   0.5340 
  3 C       -1.3530    -0.2170    -0.9530 C.3   1 <1>   0.1310 
  4 O        1.2750     1.9900     1.2560 O.3   1 <1>  -0.2800 
  5 N        1.4440     0.8690    -0.6340 N.2   1 <1>  -0.5650 
  6 C       -2.8040    -0.6680    -1.0160 C.2   1 <1>   0.5690 
  7 C        2.5070     2.1190     0.8410 C.2   1 <1>  -0.0400 
  8 C        2.6260     1.4380    -0.3150 C.2   1 <1>   0.0460 
  9 O       -3.0890    -1.5250    -1.8160 O.2   1 <1>  -0.5700 
 10 N       -3.7100    -0.0880    -0.1690 N.am  1 <1>  -0.5470 
 11 C        3.4710     2.9390     1.6750 C.3   1 <1>  -0.0600 
 12 C        3.8200     1.2460    -1.2260 C.3   1 <1>  -0.0590 
 13 C       -5.0910    -0.2640     0.0200 C.ar  1 <1>   0.1170 
 14 C       -5.6780     0.1420     1.2220 C.ar  1 <1>  -0.1430 
 15 C       -5.9020    -0.8140    -0.9690 C.ar  1 <1>  -0.1500 
 16 C       -7.0450    -0.0040     1.4040 C.ar  1 <1>  -0.1500 
 17 C       -4.8570     0.7450     2.3600 C.3   1 <1>  -0.0170 
 18 C       -7.2620    -0.9610    -0.7770 C.ar  1 <1>  -0.1500 
 19 C       -7.8370    -0.5540     0.4120 C.ar  1 <1>  -0.1500 
 20 C       -4.6150     2.2400     2.1320 C.3   1 <1>  -0.2400 
 21 H       -0.7000    -1.0670    -0.9000 H     1 <1>   0.0800 
 22 H       -1.1090     0.3740    -1.8160 H     1 <1>   0.0800 
 23 H       -3.2930     0.5660     0.4940 H     1 <1>   0.3700 
 24 H        3.5540     2.5110     2.6570 H     1 <1>   0.0800 
 25 H        3.1050     3.9460     1.7640 H     1 <1>   0.0800 
 26 H        4.4440     2.9620     1.2210 H     1 <1>   0.0800 
 27 H        4.0430     0.1980    -1.3110 H     1 <1>   0.0800 
 28 H        4.6810     1.7570    -0.8390 H     1 <1>   0.0800 
 29 H        3.5930     1.6330    -2.2030 H     1 <1>   0.0800 
 30 H       -5.4740    -1.1290    -1.9020 H     1 <1>   0.1500 
 31 H       -7.5060     0.3090     2.3240 H     1 <1>   0.1500 
 32 H       -3.9180     0.2290     2.4570 H     1 <1>   0.0800 
 33 H       -5.3800     0.6140     3.2910 H     1 <1>   0.0800 
 34 H       -7.8720    -1.3900    -1.5530 H     1 <1>   0.1500 
 35 H       -8.8960    -0.6640     0.5650 H     1 <1>   0.1500 
 36 H       -4.0830     2.4070     1.2140 H     1 <1>   0.0800 
 37 H       -4.0400     2.6500     2.9440 H     1 <1>   0.0800 
 38 H       -5.5560     2.7600     2.0800 H     1 <1>   0.0800 
@<TRIPOS>BOND
  1   1   2  1   
  2   1   3  1   
  3   2   4  1   
  4   2   5  2   
  5   3   6  1   
  6   3  21  1   
  7   3  22  1   
  8   4   7  1   
  9   5   8  1   
 10   6   9  2   
 11   6  10  am  
 12   7   8  2   
 13   7  11  1   
 14   8  12  1   
 15  10  13  1   
 16  10  23  1   
 17  11  24  1   
 18  11  25  1   
 19  11  26  1   
 20  12  27  1   
 21  12  28  1   
 22  12  29  1   
 23  13  14  ar  
 24  13  15  ar  
 25  14  16  ar  
 26  14  17  1   
 27  15  18  ar  
 28  15  30  1   
 29  16  19  ar  
 30  16  31  1   
 31  17  20  1   
 32  17  32  1   
 33  17  33  1   
 34  18  19  ar  
 35  18  34  1   
 36  19  35  1   
 37  20  36  1   
 38  20  37  1   
 39  20  38  1   
@<TRIPOS>SUBSTRUCTURE
  1 ****   1 GROUP 4 **** **** 0

# MOE 2024.06 (io_trps.svl 2023.06)
