@<TRIPOS>MOLECULE
NONAME
37 38 1 0 0 
SMALL
USER_CHARGES


@<TRIPOS>ATOM
  1 S        0.1180    -0.1320     0.8480 S.o2  1 <1>   1.4470 
  2 O        0.8490    -0.9980    -0.0480 O.2   1 <1>  -0.6500 
  3 O        0.2520    -0.2870     2.2770 O.2   1 <1>  -0.6500 
  4 N        0.6100     1.4470     0.5820 N.am  1 <1>  -0.9140 
  5 C       -1.6360    -0.1030     0.3810 C.ar  1 <1>  -0.0090 
  6 C        2.0260     1.5840     0.3270 C.3   1 <1>   0.2760 
  7 C       -2.6190    -0.6120     1.2210 C.ar  1 <1>  -0.1500 
  8 C       -2.0430     0.4220    -0.8380 C.ar  1 <1>  -0.1500 
  9 C        2.5010     2.8820     0.9890 C.3   1 <1>  -0.1600 
 10 C        2.2660     1.6310    -1.1880 C.3   1 <1>  -0.1600 
 11 C       -3.9540    -0.5950     0.8580 C.ar  1 <1>  -0.1500 
 12 C       -3.3780     0.4400    -1.2020 C.ar  1 <1>  -0.1500 
 13 C        3.9790     3.1600     0.6770 C.3   1 <1>  -0.1600 
 14 C        3.7420     1.9070    -1.5120 C.3   1 <1>  -0.1600 
 15 C       -4.3690    -0.0720    -0.3680 C.ar  1 <1>   0.0860 
 16 C        4.2270     3.1960    -0.8370 C.3   1 <1>  -0.1600 
 17 C       -5.7660    -0.0540    -0.7710 C.2   1 <1>   0.5440 
 18 O       -6.1810     0.7320    -1.5940 O.2   1 <1>  -0.5700 
 19 N       -6.6750    -0.9180    -0.2640 N.am  1 <1>  -0.8000 
 20 H        0.4500     1.8760     1.4900 H     1 <1>   0.4200 
 21 H        2.5740     0.7590     0.7590 H     1 <1>   0.0800 
 22 H       -2.3330    -1.0240     2.1750 H     1 <1>   0.1500 
 23 H       -1.3030     0.8250    -1.5100 H     1 <1>   0.1500 
 24 H        2.3780     2.8110     2.0550 H     1 <1>   0.0800 
 25 H        1.9090     3.7060     0.6270 H     1 <1>   0.0800 
 26 H        1.6600     2.4090    -1.6190 H     1 <1>   0.0800 
 27 H        1.9820     0.6950    -1.6340 H     1 <1>   0.0800 
 28 H       -4.6840    -0.9870     1.5420 H     1 <1>   0.1500 
 29 H       -3.6640     0.8580    -2.1530 H     1 <1>   0.1500 
 30 H        4.5890     2.3910     1.1190 H     1 <1>   0.0800 
 31 H        4.2690     4.1010     1.1110 H     1 <1>   0.0800 
 32 H        3.8670     1.9880    -2.5780 H     1 <1>   0.0800 
 33 H        4.3410     1.0780    -1.1730 H     1 <1>   0.0800 
 34 H        5.2790     3.3290    -1.0270 H     1 <1>   0.0800 
 35 H        3.7080     4.0380    -1.2630 H     1 <1>   0.0800 
 36 H       -7.6320    -0.8740    -0.6160 H     1 <1>   0.3700 
 37 H       -6.4400    -1.7160     0.3240 H     1 <1>   0.3700 
@<TRIPOS>BOND
  1   1   2  2   
  2   1   3  2   
  3   1   4  am  
  4   1   5  1   
  5   4   6  1   
  6   4  20  1   
  7   5   7  ar  
  8   5   8  ar  
  9   6   9  1   
 10   6  10  1   
 11   6  21  1   
 12   7  11  ar  
 13   7  22  1   
 14   8  12  ar  
 15   8  23  1   
 16   9  13  1   
 17   9  24  1   
 18   9  25  1   
 19  10  14  1   
 20  10  26  1   
 21  10  27  1   
 22  11  15  ar  
 23  11  28  1   
 24  12  15  ar  
 25  12  29  1   
 26  13  16  1   
 27  13  30  1   
 28  13  31  1   
 29  14  16  1   
 30  14  32  1   
 31  14  33  1   
 32  15  17  1   
 33  16  34  1   
 34  16  35  1   
 35  17  18  2   
 36  17  19  am  
 37  19  36  1   
 38  19  37  1   
@<TRIPOS>SUBSTRUCTURE
  1 ****   5 GROUP 4 **** **** 0

# MOE 2024.06 (io_trps.svl 2023.06)
