@<TRIPOS>MOLECULE
NONAME
41 41 1 0 0 
SMALL
USER_CHARGES


@<TRIPOS>ATOM
  1 S        0.2500    -0.1250    -0.4360 S.o2  1 <1>   1.4470 
  2 O        0.7980     0.7130    -1.4810 O.2   1 <1>  -0.6500 
  3 O        0.6760    -1.5090    -0.3760 O.2   1 <1>  -0.6500 
  4 N        0.7230     0.5600     1.0480 N.am  1 <1>  -0.8490 
  5 C       -1.5730    -0.0220    -0.4120 C.ar  1 <1>  -0.0090 
  6 C        2.1670     0.7970     1.1000 C.3   1 <1>   0.1160 
  7 C        0.3000    -0.2320     2.2060 C.3   1 <1>   0.1160 
  8 C       -2.2890     1.1760    -0.5040 C.ar  1 <1>  -0.1440 
  9 C       -2.2910    -1.2050    -0.2760 C.ar  1 <1>  -0.1500 
 10 C       -3.6820     1.1550    -0.4720 C.ar  1 <1>  -0.1430 
 11 C       -1.5310     2.4990    -0.6510 C.3   1 <1>  -0.0970 
 12 C       -3.6760    -1.2540    -0.2300 C.ar  1 <1>  -0.1430 
 13 C       -4.3540    -0.0490    -0.3330 C.ar  1 <1>  -0.1500 
 14 C       -4.5240     2.4200    -0.5930 C.3   1 <1>  -0.0970 
 15 C       -4.3840    -2.6180    -0.0740 C.3   1 <1>   0.1430 
 16 C       -3.9350    -3.2840     1.2350 C.3   1 <1>  -0.2400 
 17 C       -5.9180    -2.5050    -0.0330 C.3   1 <1>  -0.2400 
 18 C       -4.0190    -3.5250    -1.2590 C.3   1 <1>  -0.2400 
 19 H        2.4600     1.4560     0.2990 H     1 <1>   0.0800 
 20 H        2.7040    -0.1320     0.9980 H     1 <1>   0.0800 
 21 H        2.4350     1.2620     2.0330 H     1 <1>   0.0800 
 22 H       -0.7700    -0.3560     2.1990 H     1 <1>   0.0800 
 23 H        0.5730     0.2720     3.1170 H     1 <1>   0.0800 
 24 H        0.7640    -1.2050     2.1890 H     1 <1>   0.0800 
 25 H       -1.7360    -2.1240    -0.2060 H     1 <1>   0.1500 
 26 H       -0.7180     2.5530     0.0490 H     1 <1>   0.0800 
 27 H       -2.1450     3.3580    -0.4680 H     1 <1>   0.0800 
 28 H       -1.1320     2.5790    -1.6460 H     1 <1>   0.0800 
 29 H       -5.4260    -0.0260    -0.3080 H     1 <1>   0.1500 
 30 H       -4.2540     2.9610    -1.4820 H     1 <1>   0.0800 
 31 H       -4.3690     3.0480     0.2660 H     1 <1>   0.0800 
 32 H       -5.5730     2.1900    -0.6530 H     1 <1>   0.0800 
 33 H       -2.8800    -3.4840     1.2290 H     1 <1>   0.0800 
 34 H       -4.4490    -4.2180     1.3820 H     1 <1>   0.0800 
 35 H       -4.1530    -2.6400     2.0680 H     1 <1>   0.0800 
 36 H       -6.2290    -1.8970     0.7970 H     1 <1>   0.0800 
 37 H       -6.3670    -3.4750     0.0780 H     1 <1>   0.0800 
 38 H       -6.2880    -2.0700    -0.9450 H     1 <1>   0.0800 
 39 H       -4.2970    -3.0500    -2.1840 H     1 <1>   0.0800 
 40 H       -4.5320    -4.4670    -1.1900 H     1 <1>   0.0800 
 41 H       -2.9630    -3.7230    -1.2880 H     1 <1>   0.0800 
@<TRIPOS>BOND
  1   1   2  2   
  2   1   3  2   
  3   1   4  am  
  4   1   5  1   
  5   4   6  1   
  6   4   7  1   
  7   5   8  ar  
  8   5   9  ar  
  9   6  19  1   
 10   6  20  1   
 11   6  21  1   
 12   7  22  1   
 13   7  23  1   
 14   7  24  1   
 15   8  10  ar  
 16   8  11  1   
 17   9  12  ar  
 18   9  25  1   
 19  10  13  ar  
 20  10  14  1   
 21  11  26  1   
 22  11  27  1   
 23  11  28  1   
 24  12  13  ar  
 25  12  15  1   
 26  13  29  1   
 27  14  30  1   
 28  14  31  1   
 29  14  32  1   
 30  15  16  1   
 31  15  17  1   
 32  15  18  1   
 33  16  33  1   
 34  16  34  1   
 35  16  35  1   
 36  17  36  1   
 37  17  37  1   
 38  17  38  1   
 39  18  39  1   
 40  18  40  1   
 41  18  41  1   
@<TRIPOS>SUBSTRUCTURE
  1 ****   5 GROUP 4 **** **** 0

# MOE 2024.06 (io_trps.svl 2023.06)
