@<TRIPOS>MOLECULE
NONAME
31 31 1 0 0 
SMALL
USER_CHARGES


@<TRIPOS>ATOM
  1 F       -2.7000     1.1360     0.7900 F     1 <1>  -0.1900 
  2 C       -1.7840     1.9660     0.3570 C.ar  1 <1>   0.1900 
  3 C       -1.6410     2.1740    -1.0190 C.ar  1 <1>   0.1170 
  4 C       -0.9940     2.5940     1.2980 C.ar  1 <1>  -0.1500 
  5 N       -2.4400     1.5360    -1.9830 N.am  1 <1>  -0.5470 
  6 C       -0.6440     3.0490    -1.4410 C.ar  1 <1>  -0.1500 
  7 C       -0.0230     3.4570     0.8290 C.ar  1 <1>   0.1900 
  8 C       -3.7780     1.6080    -2.2190 C.2   1 <1>   0.5690 
  9 C        0.1680     3.6950    -0.5210 C.ar  1 <1>  -0.1500 
 10 F        0.7440     4.0700     1.6910 F     1 <1>  -0.1900 
 11 O       -4.2460     0.9260    -3.0970 O.2   1 <1>  -0.5700 
 12 C       -4.6920     2.5540    -1.4260 C.3   1 <1>  -0.0190 
 13 C       -5.7850     1.7510    -0.6890 C.3   1 <1>  -0.1600 
 14 C       -5.2930     3.6260    -2.3550 C.3   1 <1>  -0.2400 
 15 C       -6.6080     2.5920     0.3000 C.3   1 <1>  -0.1600 
 16 C       -7.5870     1.7120     1.0820 C.3   1 <1>  -0.2400 
 17 H       -1.1250     2.4190     2.3500 H     1 <1>   0.1500 
 18 H       -1.9690     0.9060    -2.6320 H     1 <1>   0.3700 
 19 H       -0.5060     3.2280    -2.4940 H     1 <1>   0.1500 
 20 H        0.9390     4.3750    -0.8400 H     1 <1>   0.1500 
 21 H       -4.1030     3.0640    -0.6880 H     1 <1>   0.0800 
 22 H       -5.3090     0.9520    -0.1460 H     1 <1>   0.0800 
 23 H       -6.4420     1.2970    -1.4120 H     1 <1>   0.0800 
 24 H       -5.9590     3.1700    -3.0670 H     1 <1>   0.0800 
 25 H       -4.5090     4.1250    -2.8960 H     1 <1>   0.0800 
 26 H       -5.8360     4.3650    -1.7940 H     1 <1>   0.0800 
 27 H       -7.1670     3.3440    -0.2290 H     1 <1>   0.0800 
 28 H       -5.9480     3.0860     0.9930 H     1 <1>   0.0800 
 29 H       -8.2670     1.2190     0.4090 H     1 <1>   0.0800 
 30 H       -8.1590     2.3150     1.7650 H     1 <1>   0.0800 
 31 H       -7.0550     0.9660     1.6460 H     1 <1>   0.0800 
@<TRIPOS>BOND
  1   1   2  1   
  2   2   3  ar  
  3   2   4  ar  
  4   3   5  1   
  5   3   6  ar  
  6   4   7  ar  
  7   4  17  1   
  8   5   8  am  
  9   5  18  1   
 10   6   9  ar  
 11   6  19  1   
 12   7   9  ar  
 13   7  10  1   
 14   8  11  2   
 15   8  12  1   
 16   9  20  1   
 17  12  13  1   
 18  12  14  1   
 19  12  21  1   
 20  13  15  1   
 21  13  22  1   
 22  13  23  1   
 23  14  24  1   
 24  14  25  1   
 25  14  26  1   
 26  15  16  1   
 27  15  27  1   
 28  15  28  1   
 29  16  29  1   
 30  16  30  1   
 31  16  31  1   
@<TRIPOS>SUBSTRUCTURE
  1 ****   3 GROUP 4 **** **** 0

# MOE 2024.06 (io_trps.svl 2023.06)
