@<TRIPOS>MOLECULE
NONAME
59 61 1 0 0 
SMALL
USER_CHARGES


@<TRIPOS>ATOM
  1 O       -0.3860     2.3720    -1.4790 O.2   1 <1>  -0.5700 
  2 C       -0.2070     1.9050    -0.3820 C.2   1 <1>   0.5690 
  3 N        0.8720     1.1530    -0.0430 N.am  1 <1>  -0.7300 
  4 C       -1.2520     2.2020     0.6900 C.3   1 <1>  -0.0190 
  5 C        2.0950     0.8600    -0.8260 C.3   1 <1>   0.3640 
  6 C       -2.6380     1.6770     0.2670 C.3   1 <1>  -0.1600 
  7 C       -1.3140     3.7170     0.9730 C.3   1 <1>  -0.1600 
  8 C        3.1180     1.9650    -0.5800 C.ar  1 <1>  -0.1440 
  9 C        1.8300     0.6150    -2.3120 C.3   1 <1>  -0.2400 
 10 C       -3.7400     2.0920     1.2390 C.3   1 <1>   0.3430 
 11 C       -2.4470     4.0860     1.9270 C.3   1 <1>   0.3430 
 12 C        4.2970     1.6800     0.0950 C.ar  1 <1>  -0.1500 
 13 C        2.8910     3.2640    -1.0150 C.ar  1 <1>  -0.1500 
 14 N       -3.7350     3.5770     1.3840 N.4   1 <1>  -0.9590 
 15 C        5.2310     2.6740     0.3310 C.ar  1 <1>  -0.1500 
 16 C        3.8240     4.2590    -0.7810 C.ar  1 <1>  -0.1500 
 17 C       -4.8990     4.0650     2.1730 C.3   1 <1>   0.4860 
 18 C        4.9950     3.9650    -0.1070 C.ar  1 <1>  -0.1500 
 19 C       -6.1740     3.6720     1.4520 C.ar  1 <1>  -0.1440 
 20 C       -6.4850     4.2400     0.2240 C.ar  1 <1>  -0.1500 
 21 C       -7.0310     2.7290     2.0050 C.ar  1 <1>  -0.1500 
 22 C       -7.6290     3.8570    -0.4550 C.ar  1 <1>   0.0820 
 23 C       -8.1780     2.3420     1.3300 C.ar  1 <1>  -0.1500 
 24 O       -7.8840     4.4010    -1.6700 O.3   1 <1>  -0.3630 
 25 C       -8.4770     2.8970     0.0980 C.ar  1 <1>   0.0820 
 26 C       -8.3570     5.7300    -1.7110 C.3   1 <1>   0.1200 
 27 O       -9.5900     2.4990    -0.5510 O.3   1 <1>  -0.5330 
 28 C       -9.8470     5.7560    -1.3720 C.3   1 <1>  -0.2400 
 29 H        0.9960     0.9020     0.9360 H     1 <1>   0.3700 
 30 H       -0.9640     1.7000     1.5970 H     1 <1>   0.0800 
 31 H        2.4990    -0.0590    -0.4370 H     1 <1>   0.0800 
 32 H       -2.6080     0.6030     0.2040 H     1 <1>   0.0800 
 33 H       -2.8870     2.0430    -0.7160 H     1 <1>   0.0800 
 34 H       -1.4460     4.2560     0.0490 H     1 <1>   0.0800 
 35 H       -0.3760     4.0380     1.3930 H     1 <1>   0.0800 
 36 H        1.5420     1.5190    -2.8150 H     1 <1>   0.0800 
 37 H        1.0600    -0.1240    -2.4360 H     1 <1>   0.0800 
 38 H        2.7290     0.2570    -2.7780 H     1 <1>   0.0800 
 39 H       -3.5760     1.6260     2.1970 H     1 <1>   0.0800 
 40 H       -4.6920     1.7580     0.8550 H     1 <1>   0.0800 
 41 H       -2.4860     5.1580     2.0350 H     1 <1>   0.0800 
 42 H       -2.2600     3.6520     2.8970 H     1 <1>   0.0800 
 43 H        4.5000     0.6820     0.4420 H     1 <1>   0.1500 
 44 H        1.9840     3.5060    -1.5420 H     1 <1>   0.1500 
 45 H       -3.8480     3.9520     0.4330 H     1 <1>   0.4500 
 46 H        6.1430     2.4440     0.8540 H     1 <1>   0.1500 
 47 H        3.6380     5.2610    -1.1250 H     1 <1>   0.1500 
 48 H       -4.8620     5.1390     2.2650 H     1 <1>   0.0800 
 49 H       -4.8880     3.6360     3.1620 H     1 <1>   0.0800 
 50 H        5.7220     4.7370     0.0750 H     1 <1>   0.1500 
 51 H       -5.8500     4.9780    -0.2320 H     1 <1>   0.1500 
 52 H       -6.8200     2.2820     2.9630 H     1 <1>   0.1500 
 53 H       -8.8340     1.6100     1.7660 H     1 <1>   0.1500 
 54 H       -8.1990     6.0940    -2.7110 H     1 <1>   0.0800 
 55 H       -7.7900     6.3310    -1.0230 H     1 <1>   0.0800 
 56 H      -10.0990     1.8180    -0.0780 H     1 <1>   0.4500 
 57 H      -10.3870     5.1100    -2.0420 H     1 <1>   0.0800 
 58 H      -10.2280     6.7560    -1.4770 H     1 <1>   0.0800 
 59 H      -10.0090     5.4350    -0.3590 H     1 <1>   0.0800 
@<TRIPOS>BOND
  1   1   2  2   
  2   2   3  am  
  3   2   4  1   
  4   3   5  1   
  5   3  29  1   
  6   4   6  1   
  7   4   7  1   
  8   4  30  1   
  9   5   8  1   
 10   5   9  1   
 11   5  31  1   
 12   6  10  1   
 13   6  32  1   
 14   6  33  1   
 15   7  11  1   
 16   7  34  1   
 17   7  35  1   
 18   8  12  ar  
 19   8  13  ar  
 20   9  36  1   
 21   9  37  1   
 22   9  38  1   
 23  10  14  1   
 24  10  39  1   
 25  10  40  1   
 26  11  14  1   
 27  11  41  1   
 28  11  42  1   
 29  12  15  ar  
 30  12  43  1   
 31  13  16  ar  
 32  13  44  1   
 33  14  17  1   
 34  14  45  1   
 35  15  18  ar  
 36  15  46  1   
 37  16  18  ar  
 38  16  47  1   
 39  17  19  1   
 40  17  48  1   
 41  17  49  1   
 42  18  50  1   
 43  19  20  ar  
 44  19  21  ar  
 45  20  22  ar  
 46  20  51  1   
 47  21  23  ar  
 48  21  52  1   
 49  22  24  1   
 50  22  25  ar  
 51  23  25  ar  
 52  23  53  1   
 53  24  26  1   
 54  25  27  1   
 55  26  28  1   
 56  26  54  1   
 57  26  55  1   
 58  27  56  1   
 59  28  57  1   
 60  28  58  1   
 61  28  59  1   
@<TRIPOS>SUBSTRUCTURE
  1 ****   6 GROUP 4 **** **** 0

# MOE 2024.06 (io_trps.svl 2023.06)
