@<TRIPOS>MOLECULE
NONAME
48 50 1 0 0 
SMALL
USER_CHARGES


@<TRIPOS>ATOM
  1 S        0.3330     0.2460     2.8540 S.3   1 <1>  -0.2860 
  2 C        1.2750    -1.1260     2.1550 C.2   1 <1>   0.2420 
  3 C       -0.3050     1.2190     1.3970 C.3   1 <1>   0.1310 
  4 N        2.4200    -1.4670     2.6290 N.2   1 <1>  -0.3380 
  5 N        0.8840    -1.8570     1.0990 N.pl3 1 <1>   0.3260 
  6 C        0.7810     1.4890     0.3640 C.2   1 <1>   0.5690 
  7 N        2.8470    -2.4730     1.8590 N.2   1 <1>  -0.3380 
  8 C       -0.3400    -1.8560     0.3840 C.ar  1 <1>  -0.0230 
  9 C        1.9360    -2.6890     0.9700 C.2   1 <1>   0.0060 
 10 O        0.4410     1.7400    -0.7670 O.2   1 <1>  -0.5700 
 11 N        2.0920     1.4220     0.7170 N.am  1 <1>  -0.7300 
 12 C       -0.3980    -1.3870    -0.9230 C.ar  1 <1>  -0.1500 
 13 C       -1.5040    -2.3200     0.9880 C.ar  1 <1>  -0.1500 
 14 C        2.0300    -3.7630    -0.0980 C.3   1 <1>  -0.0600 
 15 C        3.2390     1.5730    -0.1900 C.3   1 <1>   0.2200 
 16 C       -1.5970    -1.3770    -1.6110 C.ar  1 <1>  -0.1500 
 17 C       -2.7030    -2.3120     0.2970 C.ar  1 <1>  -0.1500 
 18 C        3.8080     0.1740    -0.4640 C.3   1 <1>  -0.1600 
 19 C        4.2190     2.5510     0.4670 C.3   1 <1>  -0.1600 
 20 C       -2.7500    -1.8400    -1.0030 C.ar  1 <1>  -0.1500 
 21 C        4.8000     0.1610    -1.6370 C.3   1 <1>  -0.1600 
 22 C        5.5380     2.7640    -0.2960 C.3   1 <1>  -0.1600 
 23 C        6.2560     0.4670    -1.2530 C.3   1 <1>  -0.1600 
 24 C        6.4770     1.5540    -0.1900 C.3   1 <1>  -0.1600 
 25 H       -0.6810     2.1480     1.7820 H     1 <1>   0.0800 
 26 H       -1.1120     0.6620     0.9600 H     1 <1>   0.0800 
 27 H        2.3410     1.1170     1.6630 H     1 <1>   0.3700 
 28 H        0.4890    -1.0140    -1.4070 H     1 <1>   0.1500 
 29 H       -1.4770    -2.6870     2.0000 H     1 <1>   0.1500 
 30 H        2.0450    -3.3140    -1.0740 H     1 <1>   0.0800 
 31 H        1.1900    -4.4300    -0.0280 H     1 <1>   0.0800 
 32 H        2.9340    -4.3310     0.0330 H     1 <1>   0.0800 
 33 H        2.8960     1.9980    -1.1200 H     1 <1>   0.0800 
 34 H       -1.6340    -1.0030    -2.6210 H     1 <1>   0.1500 
 35 H       -3.6010    -2.6730     0.7700 H     1 <1>   0.1500 
 36 H        2.9860    -0.4630    -0.7380 H     1 <1>   0.0800 
 37 H        4.2610    -0.2370     0.4220 H     1 <1>   0.0800 
 38 H        4.4430     2.2170     1.4650 H     1 <1>   0.0800 
 39 H        3.7250     3.5030     0.5450 H     1 <1>   0.0800 
 40 H       -3.6830    -1.8320    -1.5400 H     1 <1>   0.1500 
 41 H        4.4730     0.8590    -2.3880 H     1 <1>   0.0800 
 42 H        4.7800    -0.8140    -2.0920 H     1 <1>   0.0800 
 43 H        6.0360     3.6070     0.1500 H     1 <1>   0.0800 
 44 H        5.3490     3.0140    -1.3260 H     1 <1>   0.0800 
 45 H        6.7810     0.7490    -2.1500 H     1 <1>   0.0800 
 46 H        6.7150    -0.4390    -0.8960 H     1 <1>   0.0800 
 47 H        6.3890     1.1160     0.7900 H     1 <1>   0.0800 
 48 H        7.4930     1.8980    -0.2820 H     1 <1>   0.0800 
@<TRIPOS>BOND
  1   1   2  1   
  2   1   3  1   
  3   2   4  2   
  4   2   5  1   
  5   3   6  1   
  6   3  25  1   
  7   3  26  1   
  8   4   7  1   
  9   5   8  1   
 10   5   9  1   
 11   6  10  2   
 12   6  11  am  
 13   7   9  2   
 14   8  12  ar  
 15   8  13  ar  
 16   9  14  1   
 17  11  15  1   
 18  11  27  1   
 19  12  16  ar  
 20  12  28  1   
 21  13  17  ar  
 22  13  29  1   
 23  14  30  1   
 24  14  31  1   
 25  14  32  1   
 26  15  18  1   
 27  15  19  1   
 28  15  33  1   
 29  16  20  ar  
 30  16  34  1   
 31  17  20  ar  
 32  17  35  1   
 33  18  21  1   
 34  18  36  1   
 35  18  37  1   
 36  19  22  1   
 37  19  38  1   
 38  19  39  1   
 39  20  40  1   
 40  21  23  1   
 41  21  41  1   
 42  21  42  1   
 43  22  24  1   
 44  22  43  1   
 45  22  44  1   
 46  23  24  1   
 47  23  45  1   
 48  23  46  1   
 49  24  47  1   
 50  24  48  1   
@<TRIPOS>SUBSTRUCTURE
  1 ****   5 GROUP 4 **** **** 0

# MOE 2024.06 (io_trps.svl 2023.06)
