@<TRIPOS>MOLECULE
NONAME
40 41 1 0 0 
SMALL
USER_CHARGES


@<TRIPOS>ATOM
  1 O        0.0740    -3.6130     1.8060 O.2   1 <1>  -0.5700 
  2 C        0.1170    -2.9090     0.8320 C.2   1 <1>   0.6590 
  3 O       -0.7770    -1.9600     0.5980 O.3   1 <1>  -0.4300 
  4 C        1.2250    -3.0400    -0.2110 C.3   1 <1>  -0.0190 
  5 C       -1.8460    -1.7230     1.4850 C.3   1 <1>   0.1200 
  6 C        1.7900    -4.4730    -0.2890 C.3   1 <1>  -0.1600 
  7 C        2.3620    -2.0420     0.0750 C.3   1 <1>  -0.1600 
  8 C       -2.6740    -0.5690     0.9310 C.3   1 <1>  -0.2400 
  9 C        2.9460    -4.5800    -1.2810 C.3   1 <1>   0.3430 
 10 C        3.5130    -2.1840    -0.9190 C.3   1 <1>   0.3430 
 11 N        3.9990    -3.5930    -0.9220 N.4   1 <1>  -0.9590 
 12 C        5.2250    -3.7480    -1.7520 C.3   1 <1>   0.5230 
 13 C        6.3460    -2.9830    -1.0790 C.2   1 <1>  -0.0400 
 14 O        6.5520    -3.1920     0.2080 O.3   1 <1>  -0.2800 
 15 C        7.2160    -2.0670    -1.5560 C.2   1 <1>  -0.1500 
 16 C        7.5560    -2.4250     0.5810 C.2   1 <1>  -0.0400 
 17 C        8.0120    -1.7020    -0.4630 C.2   1 <1>  -0.1500 
 18 C        8.0170    -2.4710     2.0220 C.3   1 <1>  -0.0600 
 19 H        0.7880    -2.7980    -1.1650 H     1 <1>   0.0800 
 20 H       -1.4410    -1.4780     2.4530 H     1 <1>   0.0800 
 21 H       -2.4350    -2.6220     1.5590 H     1 <1>   0.0800 
 22 H        1.0070    -5.1490    -0.5860 H     1 <1>   0.0800 
 23 H        2.1320    -4.7910     0.6820 H     1 <1>   0.0800 
 24 H        2.7360    -2.1880     1.0750 H     1 <1>   0.0800 
 25 H        1.9770    -1.0380     0.0220 H     1 <1>   0.0800 
 26 H       -2.0730     0.3200     0.8560 H     1 <1>   0.0800 
 27 H       -3.5000    -0.3670     1.5890 H     1 <1>   0.0800 
 28 H       -3.0660    -0.8230    -0.0380 H     1 <1>   0.0800 
 29 H        2.5850    -4.3850    -2.2780 H     1 <1>   0.0800 
 30 H        3.3490    -5.5800    -1.2530 H     1 <1>   0.0800 
 31 H        4.3130    -1.5170    -0.6340 H     1 <1>   0.0800 
 32 H        3.1760    -1.9100    -1.9050 H     1 <1>   0.0800 
 33 H        4.3250    -3.7890     0.0380 H     1 <1>   0.4500 
 34 H        5.0640    -3.3780    -2.7510 H     1 <1>   0.0800 
 35 H        5.5030    -4.7880    -1.8060 H     1 <1>   0.0800 
 36 H        7.3230    -1.6670    -2.5500 H     1 <1>   0.1500 
 37 H        8.8180    -0.9890    -0.4870 H     1 <1>   0.1500 
 38 H        8.3350    -3.4670     2.2720 H     1 <1>   0.0800 
 39 H        7.2120    -2.1870     2.6750 H     1 <1>   0.0800 
 40 H        8.8400    -1.7960     2.1710 H     1 <1>   0.0800 
@<TRIPOS>BOND
  1   1   2  2   
  2   2   3  1   
  3   2   4  1   
  4   3   5  1   
  5   4   6  1   
  6   4   7  1   
  7   4  19  1   
  8   5   8  1   
  9   5  20  1   
 10   5  21  1   
 11   6   9  1   
 12   6  22  1   
 13   6  23  1   
 14   7  10  1   
 15   7  24  1   
 16   7  25  1   
 17   8  26  1   
 18   8  27  1   
 19   8  28  1   
 20   9  11  1   
 21   9  29  1   
 22   9  30  1   
 23  10  11  1   
 24  10  31  1   
 25  10  32  1   
 26  11  12  1   
 27  11  33  1   
 28  12  13  1   
 29  12  34  1   
 30  12  35  1   
 31  13  14  1   
 32  13  15  2   
 33  14  16  1   
 34  15  17  1   
 35  15  36  1   
 36  16  17  2   
 37  16  18  1   
 38  17  37  1   
 39  18  38  1   
 40  18  39  1   
 41  18  40  1   
@<TRIPOS>SUBSTRUCTURE
  1 ****  10 GROUP 4 **** **** 0

# MOE 2024.06 (io_trps.svl 2023.06)
