@<TRIPOS>MOLECULE
NONAME
38 39 1 0 0 
SMALL
USER_CHARGES


@<TRIPOS>ATOM
  1 CL       0.1680     0.0340    -0.1960 Cl    1 <1>  -0.1770 
  2 C        1.7260     0.8290    -0.1370 C.ar  1 <1>   0.1770 
  3 C        1.8100     2.2090     0.0010 C.ar  1 <1>  -0.1440 
  4 C        2.8540     0.0350    -0.2310 C.ar  1 <1>  -0.1500 
  5 C        3.0780     2.7780     0.0410 C.ar  1 <1>  -0.1500 
  6 C        0.5190     3.0270     0.1000 C.3   1 <1>  -0.0160 
  7 C        4.1090     0.6160    -0.1890 C.ar  1 <1>  -0.1500 
  8 C        4.2220     1.9970    -0.0520 C.ar  1 <1>   0.0830 
  9 C        0.7040     4.5420     0.2500 C.3   1 <1>  -0.2400 
 10 O        5.4090     2.6540    -0.0020 O.3   1 <1>  -0.3620 
 11 C        6.6330     1.9690    -0.0950 C.3   1 <1>   0.1200 
 12 C        7.7420     3.0200    -0.0040 C.3   1 <1>   0.3430 
 13 N        9.0980     2.4070    -0.1110 N.4   1 <1>  -0.9060 
 14 C       10.2030     3.3840     0.0170 C.3   1 <1>   0.5230 
 15 C       11.4780     2.5770     0.1140 C.2   1 <1>  -0.0400 
 16 O       11.5210     1.5930     0.9930 O.3   1 <1>  -0.2800 
 17 C       12.6440     2.6590    -0.5650 C.2   1 <1>  -0.1500 
 18 C       12.7110     1.0310     0.9020 C.2   1 <1>  -0.0100 
 19 C       13.4540     1.6420    -0.0450 C.2   1 <1>  -0.1500 
 20 H        2.7420    -1.0300    -0.3370 H     1 <1>   0.1500 
 21 H        3.2060     3.8390     0.1470 H     1 <1>   0.1500 
 22 H       -0.0470     2.6710     0.9440 H     1 <1>   0.0800 
 23 H       -0.0700     2.8440    -0.7820 H     1 <1>   0.0800 
 24 H        4.9680    -0.0230    -0.2640 H     1 <1>   0.1500 
 25 H        1.2520     4.7670     1.1480 H     1 <1>   0.0800 
 26 H       -0.2570     5.0210     0.3100 H     1 <1>   0.0800 
 27 H        1.2280     4.9430    -0.6000 H     1 <1>   0.0800 
 28 H        6.6580     1.4580    -1.0410 H     1 <1>   0.0800 
 29 H        6.6890     1.2730     0.7250 H     1 <1>   0.0800 
 30 H        7.6490     3.5340     0.9390 H     1 <1>   0.0800 
 31 H        7.6020     3.7350    -0.7990 H     1 <1>   0.0800 
 32 H        9.2250     1.9020    -0.9960 H     1 <1>   0.4500 
 33 H        9.2650     1.7150     0.6350 H     1 <1>   0.4500 
 34 H       10.0850     3.9660     0.9170 H     1 <1>   0.0800 
 35 H       10.2380     4.0460    -0.8330 H     1 <1>   0.0800 
 36 H       12.9450     3.3390    -1.3460 H     1 <1>   0.1500 
 37 H       12.9530     0.2020     1.5470 H     1 <1>   0.1500 
 38 H       14.4610     1.4210    -0.3560 H     1 <1>   0.1500 
@<TRIPOS>BOND
  1   1   2  1   
  2   2   3  ar  
  3   2   4  ar  
  4   3   5  ar  
  5   3   6  1   
  6   4   7  ar  
  7   4  20  1   
  8   5   8  ar  
  9   5  21  1   
 10   6   9  1   
 11   6  22  1   
 12   6  23  1   
 13   7   8  ar  
 14   7  24  1   
 15   8  10  1   
 16   9  25  1   
 17   9  26  1   
 18   9  27  1   
 19  10  11  1   
 20  11  12  1   
 21  11  28  1   
 22  11  29  1   
 23  12  13  1   
 24  12  30  1   
 25  12  31  1   
 26  13  14  1   
 27  13  32  1   
 28  13  33  1   
 29  14  15  1   
 30  14  34  1   
 31  14  35  1   
 32  15  16  1   
 33  15  17  2   
 34  16  18  1   
 35  17  19  1   
 36  17  36  1   
 37  18  19  2   
 38  18  37  1   
 39  19  38  1   
@<TRIPOS>SUBSTRUCTURE
  1 ****  11 GROUP 4 **** **** 0

# MOE 2024.06 (io_trps.svl 2023.06)
