@<TRIPOS>MOLECULE
NONAME
48 50 1 0 0 
SMALL
USER_CHARGES


@<TRIPOS>ATOM
  1 BR      -0.3470     1.0900    -2.0320 Br    1 <1>  -0.1110 
  2 C       -1.9510     0.2600    -1.3690 C.ar  1 <1>   0.1110 
  3 C       -2.7990     0.9920    -0.5650 C.ar  1 <1>  -0.1500 
  4 C       -2.2180    -1.0490    -1.7130 C.ar  1 <1>  -0.1500 
  5 C       -3.9500     0.3870    -0.0930 C.ar  1 <1>  -0.1500 
  6 C       -3.3730    -1.6430    -1.2340 C.ar  1 <1>  -0.1500 
  7 C       -4.2560    -0.9360    -0.4150 C.ar  1 <1>  -0.1430 
  8 C       -5.5490    -1.5580     0.1350 C.3   1 <1>   0.4240 
  9 O       -5.5810    -1.2880     1.4840 O.3   1 <1>  -0.6800 
 10 C       -5.6540    -3.0810     0.0060 C.3   1 <1>  -0.1600 
 11 C       -6.7880    -0.9090    -0.4840 C.3   1 <1>  -0.1600 
 12 C       -6.9440    -3.5930     0.6440 C.3   1 <1>   0.3430 
 13 C       -8.0660    -1.4490     0.1500 C.3   1 <1>   0.3430 
 14 N       -8.1270    -2.9330     0.0110 N.4   1 <1>  -0.9590 
 15 C       -9.3990    -3.4600     0.5760 C.3   1 <1>   0.4860 
 16 C       -9.5270    -4.9280     0.2140 C.ar  1 <1>  -0.1430 
 17 C       -9.8360    -5.3100    -1.0830 C.ar  1 <1>  -0.1500 
 18 C       -9.3360    -5.9090     1.1750 C.ar  1 <1>  -0.1500 
 19 C       -9.9390    -6.6490    -1.4090 C.ar  1 <1>  -0.1500 
 20 C       -9.4420    -7.2470     0.8390 C.ar  1 <1>  -0.1500 
 21 C       -9.7430    -7.6560    -0.4620 C.ar  1 <1>   0.0860 
 22 C       -9.8530    -9.0580    -0.8290 C.2   1 <1>   0.6340 
 23 O      -10.0830    -9.4280    -1.9610 O.2   1 <1>  -0.5700 
 24 O       -9.6870    -9.9740     0.1300 O.3   1 <1>  -0.4300 
 25 C       -9.7780   -11.3600    -0.1400 C.3   1 <1>   0.0400 
 26 H       -2.5610     2.0120    -0.3170 H     1 <1>   0.1500 
 27 H       -1.5320    -1.5880    -2.3430 H     1 <1>   0.1500 
 28 H       -4.6100     0.9660     0.5330 H     1 <1>   0.1500 
 29 H       -3.5550    -2.6630    -1.5190 H     1 <1>   0.1500 
 30 H       -4.6600    -1.1240     1.7780 H     1 <1>   0.4000 
 31 H       -4.8100    -3.5430     0.4860 H     1 <1>   0.0800 
 32 H       -5.6430    -3.3700    -1.0280 H     1 <1>   0.0800 
 33 H       -6.8000    -1.0860    -1.5440 H     1 <1>   0.0800 
 34 H       -6.7490     0.1560    -0.3420 H     1 <1>   0.0800 
 35 H       -6.9270    -3.3750     1.7000 H     1 <1>   0.0800 
 36 H       -7.0040    -4.6630     0.5190 H     1 <1>   0.0800 
 37 H       -8.9220    -0.9940    -0.3230 H     1 <1>   0.0800 
 38 H       -8.0750    -1.1820     1.1960 H     1 <1>   0.0800 
 39 H       -8.1240    -3.1800    -0.9860 H     1 <1>   0.4500 
 40 H      -10.2390    -2.9220     0.1670 H     1 <1>   0.0800 
 41 H       -9.4080    -3.3410     1.6480 H     1 <1>   0.0800 
 42 H      -10.0070    -4.5760    -1.8540 H     1 <1>   0.1500 
 43 H       -9.1070    -5.6480     2.1950 H     1 <1>   0.1500 
 44 H      -10.1800    -6.9310    -2.4220 H     1 <1>   0.1500 
 45 H       -9.2910    -7.9920     1.6020 H     1 <1>   0.1500 
 46 H       -9.6120   -11.8980     0.7760 H     1 <1>   0.0800 
 47 H       -9.0300   -11.6230    -0.8670 H     1 <1>   0.0800 
 48 H      -10.7600   -11.5750    -0.5240 H     1 <1>   0.0800 
@<TRIPOS>BOND
  1   1   2  1   
  2   2   3  ar  
  3   2   4  ar  
  4   3   5  ar  
  5   3  26  1   
  6   4   6  ar  
  7   4  27  1   
  8   5   7  ar  
  9   5  28  1   
 10   6   7  ar  
 11   6  29  1   
 12   7   8  1   
 13   8   9  1   
 14   8  10  1   
 15   8  11  1   
 16   9  30  1   
 17  10  12  1   
 18  10  31  1   
 19  10  32  1   
 20  11  13  1   
 21  11  33  1   
 22  11  34  1   
 23  12  14  1   
 24  12  35  1   
 25  12  36  1   
 26  13  14  1   
 27  13  37  1   
 28  13  38  1   
 29  14  15  1   
 30  14  39  1   
 31  15  16  1   
 32  15  40  1   
 33  15  41  1   
 34  16  17  ar  
 35  16  18  ar  
 36  17  19  ar  
 37  17  42  1   
 38  18  20  ar  
 39  18  43  1   
 40  19  21  ar  
 41  19  44  1   
 42  20  21  ar  
 43  20  45  1   
 44  21  22  1   
 45  22  23  2   
 46  22  24  1   
 47  24  25  1   
 48  25  46  1   
 49  25  47  1   
 50  25  48  1   
@<TRIPOS>SUBSTRUCTURE
  1 ****  12 GROUP 4 **** **** 0

# MOE 2024.06 (io_trps.svl 2023.06)
