@<TRIPOS>MOLECULE
NONAME
45 45 1 0 0 
SMALL
USER_CHARGES


@<TRIPOS>ATOM
  1 O       -6.9380    -3.0480    -0.6860 O.3   1 <1>  -0.3630 
  2 C       -5.7880    -3.4890    -0.1220 C.ar  1 <1>   0.0830 
  3 C       -6.8820    -1.8200    -1.3810 C.3   1 <1>   0.0400 
  4 C       -5.1330    -2.8110     0.9110 C.ar  1 <1>   0.0830 
  5 C       -5.2590    -4.6690    -0.6120 C.ar  1 <1>  -0.1500 
  6 O       -5.6100    -1.6730     1.4740 O.3   1 <1>  -0.3630 
  7 C       -3.9370    -3.3000     1.4040 C.ar  1 <1>  -0.1500 
  8 C       -4.0620    -5.1680    -0.1070 C.ar  1 <1>   0.0830 
  9 C       -6.8310    -1.7810     2.1760 C.3   1 <1>   0.0400 
 10 C       -3.3960    -4.4730     0.9010 C.ar  1 <1>  -0.1440 
 11 O       -3.4870    -6.3160    -0.5670 O.3   1 <1>  -0.3630 
 12 C       -2.0890    -4.9950     1.4460 C.3   1 <1>   0.4860 
 13 C       -4.2630    -7.2440    -1.3060 C.3   1 <1>   0.0400 
 14 N       -1.1480    -5.0090     0.3010 N.4   1 <1>  -0.9060 
 15 C        0.1690    -5.6620     0.5950 C.3   1 <1>   0.3430 
 16 C        1.0970    -5.7550    -0.6520 C.3   1 <1>   0.3430 
 17 N        2.4470    -6.3810    -0.3920 N.4   1 <1>  -0.9590 
 18 C        3.3190    -6.2490    -1.6090 C.3   1 <1>   0.2630 
 19 C        2.3780    -7.8340    -0.0080 C.3   1 <1>   0.2630 
 20 H       -7.8320    -1.6610    -1.8580 H     1 <1>   0.0800 
 21 H       -6.1040    -1.8740    -2.1220 H     1 <1>   0.0800 
 22 H       -6.6840    -1.0230    -0.6880 H     1 <1>   0.0800 
 23 H       -5.8010    -5.1670    -1.3950 H     1 <1>   0.1500 
 24 H       -3.4540    -2.7440     2.1900 H     1 <1>   0.1500 
 25 H       -7.0290    -0.8380     2.6520 H     1 <1>   0.0800 
 26 H       -6.7420    -2.5560     2.9160 H     1 <1>   0.0800 
 27 H       -7.6220    -2.0130     1.4870 H     1 <1>   0.0800 
 28 H       -2.2370    -5.9920     1.8310 H     1 <1>   0.0800 
 29 H       -1.7280    -4.3570     2.2360 H     1 <1>   0.0800 
 30 H       -3.6870    -8.1410    -1.4440 H     1 <1>   0.0800 
 31 H       -4.5060    -6.8190    -2.2650 H     1 <1>   0.0800 
 32 H       -5.1600    -7.4720    -0.7560 H     1 <1>   0.0800 
 33 H       -1.0750    -4.0360    -0.0280 H     1 <1>   0.4500 
 34 H       -1.6940    -5.5120    -0.4240 H     1 <1>   0.4500 
 35 H       -0.0120    -6.6580     0.9660 H     1 <1>   0.0800 
 36 H        0.6740    -5.1000     1.3640 H     1 <1>   0.0800 
 37 H        1.2510    -4.7570    -1.0310 H     1 <1>   0.0800 
 38 H        0.5940    -6.3240    -1.4170 H     1 <1>   0.0800 
 39 H        2.9390    -5.8740     0.3660 H     1 <1>   0.4500 
 40 H        2.8860    -6.7740    -2.4450 H     1 <1>   0.0800 
 41 H        4.2970    -6.6630    -1.4170 H     1 <1>   0.0800 
 42 H        3.4390    -5.2110    -1.8790 H     1 <1>   0.0800 
 43 H        1.9020    -8.4090    -0.7870 H     1 <1>   0.0800 
 44 H        1.8250    -7.9650     0.9080 H     1 <1>   0.0800 
 45 H        3.3720    -8.2280     0.1410 H     1 <1>   0.0800 
@<TRIPOS>BOND
  1   1   2  1   
  2   1   3  1   
  3   2   4  ar  
  4   2   5  ar  
  5   3  20  1   
  6   3  21  1   
  7   3  22  1   
  8   4   6  1   
  9   4   7  ar  
 10   5   8  ar  
 11   5  23  1   
 12   6   9  1   
 13   7  10  ar  
 14   7  24  1   
 15   8  10  ar  
 16   8  11  1   
 17   9  25  1   
 18   9  26  1   
 19   9  27  1   
 20  10  12  1   
 21  11  13  1   
 22  12  14  1   
 23  12  28  1   
 24  12  29  1   
 25  13  30  1   
 26  13  31  1   
 27  13  32  1   
 28  14  15  1   
 29  14  33  1   
 30  14  34  1   
 31  15  16  1   
 32  15  35  1   
 33  15  36  1   
 34  16  17  1   
 35  16  37  1   
 36  16  38  1   
 37  17  18  1   
 38  17  19  1   
 39  17  39  1   
 40  18  40  1   
 41  18  41  1   
 42  18  42  1   
 43  19  43  1   
 44  19  44  1   
 45  19  45  1   
@<TRIPOS>SUBSTRUCTURE
  1 ****  10 GROUP 4 **** **** 0

# MOE 2024.06 (io_trps.svl 2023.06)
