@<TRIPOS>MOLECULE
NONAME
42 43 1 0 0 
SMALL
USER_CHARGES


@<TRIPOS>ATOM
  1 O        0.6800    -2.5300     2.2270 O.2   1 <1>  -0.5700 
  2 C       -0.0500    -2.1950     1.3250 C.2   1 <1>   0.5690 
  3 N        0.3710    -1.3830     0.3200 N.am  1 <1>  -0.7300 
  4 C       -1.4860    -2.7040     1.3210 C.3   1 <1>   0.1810 
  5 C        1.7140    -0.8060     0.1710 C.3   1 <1>   0.2200 
  6 O       -2.2070    -2.2200     0.1950 O.3   1 <1>  -0.3630 
  7 C        1.6010     0.7210     0.1910 C.3   1 <1>  -0.1600 
  8 C        2.3220    -1.3030    -1.1440 C.3   1 <1>  -0.1600 
  9 C       -3.5100    -2.5490    -0.0120 C.ar  1 <1>   0.0820 
 10 C        2.9630     1.3820    -0.0710 C.3   1 <1>  -0.1600 
 11 C        3.6850    -0.6460    -1.4080 C.3   1 <1>  -0.1600 
 12 C       -4.1340    -2.0290    -1.1430 C.ar  1 <1>  -0.1440 
 13 C       -4.2290    -3.3720     0.8510 C.ar  1 <1>  -0.1500 
 14 C        3.5770     0.8850    -1.3860 C.3   1 <1>  -0.1600 
 15 C       -5.4610    -2.3370    -1.3950 C.ar  1 <1>  -0.1500 
 16 C       -3.3740    -1.1250    -2.1040 C.3   1 <1>  -0.0970 
 17 C       -5.5530    -3.6720     0.5860 C.ar  1 <1>  -0.1500 
 18 C       -6.1760    -3.1580    -0.5380 C.ar  1 <1>  -0.1440 
 19 C       -7.6290    -3.4840    -0.8300 C.3   1 <1>  -0.0970 
 20 H       -0.3060    -1.1440    -0.4080 H     1 <1>   0.3700 
 21 H       -1.9820    -2.3680     2.2130 H     1 <1>   0.0800 
 22 H       -1.4790    -3.7780     1.2840 H     1 <1>   0.0800 
 23 H        2.3370    -1.1250     0.9920 H     1 <1>   0.0800 
 24 H        1.2320     1.0360     1.1510 H     1 <1>   0.0800 
 25 H        0.9060     1.0410    -0.5650 H     1 <1>   0.0800 
 26 H        1.6590    -1.0720    -1.9580 H     1 <1>   0.0800 
 27 H        2.4460    -2.3710    -1.0950 H     1 <1>   0.0800 
 28 H        3.6310     1.1530     0.7430 H     1 <1>   0.0800 
 29 H        2.8440     2.4510    -0.1080 H     1 <1>   0.0800 
 30 H        4.0620    -0.9690    -2.3630 H     1 <1>   0.0800 
 31 H        4.3850    -0.9640    -0.6540 H     1 <1>   0.0800 
 32 H       -3.7830    -3.7910     1.7320 H     1 <1>   0.1500 
 33 H        4.5550     1.3160    -1.5130 H     1 <1>   0.0800 
 34 H        2.9650     1.2100    -2.2110 H     1 <1>   0.0800 
 35 H       -5.9470    -1.9360    -2.2670 H     1 <1>   0.1500 
 36 H       -3.0270    -0.2510    -1.5830 H     1 <1>   0.0800 
 37 H       -4.0000    -0.8120    -2.9190 H     1 <1>   0.0800 
 38 H       -2.5270    -1.6510    -2.5040 H     1 <1>   0.0800 
 39 H       -6.0990    -4.3080     1.2610 H     1 <1>   0.1500 
 40 H       -7.7890    -3.5630    -1.8900 H     1 <1>   0.0800 
 41 H       -8.2610    -2.7060    -0.4400 H     1 <1>   0.0800 
 42 H       -7.9070    -4.4180    -0.3750 H     1 <1>   0.0800 
@<TRIPOS>BOND
  1   1   2  2   
  2   2   3  am  
  3   2   4  1   
  4   3   5  1   
  5   3  20  1   
  6   4   6  1   
  7   4  21  1   
  8   4  22  1   
  9   5   7  1   
 10   5   8  1   
 11   5  23  1   
 12   6   9  1   
 13   7  10  1   
 14   7  24  1   
 15   7  25  1   
 16   8  11  1   
 17   8  26  1   
 18   8  27  1   
 19   9  12  ar  
 20   9  13  ar  
 21  10  14  1   
 22  10  28  1   
 23  10  29  1   
 24  11  14  1   
 25  11  30  1   
 26  11  31  1   
 27  12  15  ar  
 28  12  16  1   
 29  13  17  ar  
 30  13  32  1   
 31  14  33  1   
 32  14  34  1   
 33  15  18  ar  
 34  15  35  1   
 35  16  36  1   
 36  16  37  1   
 37  16  38  1   
 38  17  18  ar  
 39  17  39  1   
 40  18  19  1   
 41  19  40  1   
 42  19  41  1   
 43  19  42  1   
@<TRIPOS>SUBSTRUCTURE
  1 ****   6 GROUP 4 **** **** 0

# MOE 2024.06 (io_trps.svl 2023.06)
