@<TRIPOS>MOLECULE
NONAME
46 49 1 0 0 
SMALL
USER_CHARGES


@<TRIPOS>ATOM
  1 O       -0.6600    -0.2020     0.6390 O.2   1 <1>  -0.5700 
  2 C       -1.0980     0.8770     0.3140 C.2   1 <1>   0.5690 
  3 N       -0.2930     1.9330    -0.0120 N.am  1 <1>  -0.5470 
  4 C       -2.6250     1.1050     0.2520 C.3   1 <1>   0.0610 
  5 C        1.1030     2.1210    -0.0780 C.ar  1 <1>   0.1170 
  6 C       -3.0430     2.2410     1.2220 C.3   1 <1>  -0.1600 
  7 C       -3.0540     1.5040    -1.1840 C.3   1 <1>  -0.1600 
  8 C       -3.4160    -0.1720     0.6460 C.3   1 <1>  -0.1600 
  9 C        1.5750     3.3600    -0.5270 C.ar  1 <1>   0.0820 
 10 C        2.0260     1.1460     0.2830 C.ar  1 <1>  -0.1500 
 11 C       -4.5610     2.4950     1.1560 C.3   1 <1>  -0.0800 
 12 C       -4.5720     1.7570    -1.2580 C.3   1 <1>  -0.0800 
 13 C       -4.9350     0.0690     0.5800 C.3   1 <1>  -0.0800 
 14 O        0.6360     4.2990    -0.8620 O.3   1 <1>  -0.3630 
 15 C        2.9420     3.5960    -0.6150 C.ar  1 <1>  -0.1500 
 16 C        3.3840     1.3900     0.1940 C.ar  1 <1>  -0.1500 
 17 C       -4.9450     2.8890    -0.2830 C.3   1 <1>  -0.1600 
 18 C       -5.3080     1.2080     1.5470 C.3   1 <1>  -0.1600 
 19 C       -5.3190     0.4730    -0.8550 C.3   1 <1>  -0.1600 
 20 C        1.0150     5.6020    -1.2490 C.3   1 <1>   0.0400 
 21 C        3.8530     2.6120    -0.2610 C.ar  1 <1>   0.1000 
 22 N        5.2150     2.8460    -0.3610 N.pl3 1 <1>  -0.9000 
 23 H       -0.7880     2.7820    -0.2860 H     1 <1>   0.3700 
 24 H       -2.5260     3.1520     0.9780 H     1 <1>   0.0800 
 25 H       -2.7660     1.9730     2.2270 H     1 <1>   0.0800 
 26 H       -2.7860     0.7190    -1.8700 H     1 <1>   0.0800 
 27 H       -2.5380     2.3950    -1.4970 H     1 <1>   0.0800 
 28 H       -3.1430    -0.4720     1.6430 H     1 <1>   0.0800 
 29 H       -3.1510    -0.9790    -0.0140 H     1 <1>   0.0800 
 30 H        1.6930     0.1890     0.6390 H     1 <1>   0.1500 
 31 H       -4.8270     3.2880     1.8340 H     1 <1>   0.0800 
 32 H       -4.8470     2.0350    -2.2610 H     1 <1>   0.0800 
 33 H       -5.4580    -0.8300     0.8580 H     1 <1>   0.0800 
 34 H        3.3300     4.5360    -0.9530 H     1 <1>   0.1500 
 35 H        4.0820     0.6260     0.4830 H     1 <1>   0.1500 
 36 H       -4.4370     3.7950    -0.5630 H     1 <1>   0.0800 
 37 H       -6.0030     3.0790    -0.3360 H     1 <1>   0.0800 
 38 H       -6.3700     1.3780     1.5150 H     1 <1>   0.0800 
 39 H       -5.0520     0.9280     2.5540 H     1 <1>   0.0800 
 40 H       -5.0720    -0.3230    -1.5360 H     1 <1>   0.0800 
 41 H       -6.3820     0.6350    -0.9150 H     1 <1>   0.0800 
 42 H        1.5790     6.0530    -0.4510 H     1 <1>   0.0800 
 43 H        0.1210     6.1710    -1.4310 H     1 <1>   0.0800 
 44 H        1.6000     5.5430    -2.1500 H     1 <1>   0.0800 
 45 H        5.7970     2.0040    -0.3920 H     1 <1>   0.4000 
 46 H        5.4940     3.5110    -1.0870 H     1 <1>   0.4000 
@<TRIPOS>BOND
  1   1   2  2   
  2   2   3  am  
  3   2   4  1   
  4   3   5  1   
  5   3  23  1   
  6   4   6  1   
  7   4   7  1   
  8   4   8  1   
  9   5   9  ar  
 10   5  10  ar  
 11   6  11  1   
 12   6  24  1   
 13   6  25  1   
 14   7  12  1   
 15   7  26  1   
 16   7  27  1   
 17   8  13  1   
 18   8  28  1   
 19   8  29  1   
 20   9  14  1   
 21   9  15  ar  
 22  10  16  ar  
 23  10  30  1   
 24  11  17  1   
 25  11  18  1   
 26  11  31  1   
 27  12  17  1   
 28  12  19  1   
 29  12  32  1   
 30  13  18  1   
 31  13  19  1   
 32  13  33  1   
 33  14  20  1   
 34  15  21  ar  
 35  15  34  1   
 36  16  21  ar  
 37  16  35  1   
 38  17  36  1   
 39  17  37  1   
 40  18  38  1   
 41  18  39  1   
 42  19  40  1   
 43  19  41  1   
 44  20  42  1   
 45  20  43  1   
 46  20  44  1   
 47  21  22  1   
 48  22  45  1   
 49  22  46  1   
@<TRIPOS>SUBSTRUCTURE
  1 ****   3 GROUP 4 **** **** 0

# MOE 2024.06 (io_trps.svl 2023.06)
