@<TRIPOS>MOLECULE
NONAME
37 39 1 0 0 
SMALL
USER_CHARGES


@<TRIPOS>ATOM
  1 S       -0.2930     0.5600    -0.8220 S.3   1 <1>  -0.0800 
  2 C        0.6580    -0.7180    -0.0520 C.2   1 <1>   0.4420 
  3 C       -1.7590    -0.2970    -0.4050 C.ar  1 <1>   0.0400 
  4 N       -0.0370    -1.6620     0.4510 N.2   1 <1>  -0.5650 
  5 N        2.0310    -0.6800    -0.0060 N.am  1 <1>  -0.4940 
  6 C       -1.3980    -1.4490     0.2660 C.ar  1 <1>   0.2270 
  7 C       -3.0670     0.0590    -0.6700 C.ar  1 <1>  -0.1500 
  8 C        2.9330     0.2340    -0.4840 C.2   1 <1>   0.5690 
  9 C       -2.4110    -2.2940     0.6970 C.ar  1 <1>  -0.1500 
 10 C       -4.0690    -0.7940    -0.2330 C.ar  1 <1>  -0.1440 
 11 O        2.6220     1.2290    -1.0900 O.2   1 <1>  -0.5700 
 12 C        4.4370     0.0100    -0.2400 C.3   1 <1>   0.4040 
 13 C       -3.7340    -1.9640     0.4470 C.ar  1 <1>  -0.1500 
 14 C       -5.5300    -0.4680    -0.4880 C.3   1 <1>  -0.0960 
 15 N        5.2660     1.2640    -0.4080 N.4   1 <1>  -0.9590 
 16 C        6.7320     1.0620    -0.4590 C.3   1 <1>   0.3430 
 17 C        5.0100     2.2950     0.6260 C.3   1 <1>   0.3430 
 18 C        7.3110     2.4420    -0.1750 C.3   1 <1>  -0.1600 
 19 C        6.1950     3.2420     0.5060 C.3   1 <1>  -0.1600 
 20 H        2.3810    -1.5070     0.4730 H     1 <1>   0.3700 
 21 H       -3.2850     0.9700    -1.1970 H     1 <1>   0.1500 
 22 H       -2.1520    -3.1960     1.2210 H     1 <1>   0.1500 
 23 H        4.7740    -0.7320    -0.9440 H     1 <1>   0.0800 
 24 H        4.5760    -0.3820     0.7530 H     1 <1>   0.0800 
 25 H       -4.5140    -2.6240     0.7840 H     1 <1>   0.1500 
 26 H       -5.6290     0.4610    -1.0200 H     1 <1>   0.0800 
 27 H       -6.0550    -0.3850     0.4470 H     1 <1>   0.0800 
 28 H       -5.9820    -1.2480    -1.0730 H     1 <1>   0.0800 
 29 H        4.9590     1.6950    -1.2970 H     1 <1>   0.4500 
 30 H        7.0530     0.6850    -1.4180 H     1 <1>   0.0800 
 31 H        7.0370     0.3790     0.3180 H     1 <1>   0.0800 
 32 H        5.0060     1.8450     1.6060 H     1 <1>   0.0800 
 33 H        4.0720     2.8030     0.4580 H     1 <1>   0.0800 
 34 H        7.5990     2.9140    -1.0990 H     1 <1>   0.0800 
 35 H        8.1830     2.3610     0.4510 H     1 <1>   0.0800 
 36 H        6.4920     3.6000     1.4770 H     1 <1>   0.0800 
 37 H        5.9190     4.0900    -0.0980 H     1 <1>   0.0800 
@<TRIPOS>BOND
  1   1   2  1   
  2   1   3  1   
  3   2   4  2   
  4   2   5  1   
  5   3   6  ar  
  6   3   7  ar  
  7   4   6  1   
  8   5   8  am  
  9   5  20  1   
 10   6   9  ar  
 11   7  10  ar  
 12   7  21  1   
 13   8  11  2   
 14   8  12  1   
 15   9  13  ar  
 16   9  22  1   
 17  10  13  ar  
 18  10  14  1   
 19  12  15  1   
 20  12  23  1   
 21  12  24  1   
 22  13  25  1   
 23  14  26  1   
 24  14  27  1   
 25  14  28  1   
 26  15  16  1   
 27  15  17  1   
 28  15  29  1   
 29  16  18  1   
 30  16  30  1   
 31  16  31  1   
 32  17  19  1   
 33  17  32  1   
 34  17  33  1   
 35  18  19  1   
 36  18  34  1   
 37  18  35  1   
 38  19  36  1   
 39  19  37  1   
@<TRIPOS>SUBSTRUCTURE
  1 ****   2 GROUP 4 **** **** 0

# MOE 2024.06 (io_trps.svl 2023.06)
