@<TRIPOS>MOLECULE
NONAME
43 44 1 0 0 
SMALL
USER_CHARGES


@<TRIPOS>ATOM
  1 F       -1.8520    -0.3030     1.6900 F     1 <1>  -0.3400 
  2 C       -2.6900     0.3600     0.9110 C.3   1 <1>   1.1640 
  3 F       -3.7780     0.6020     1.6400 F     1 <1>  -0.3400 
  4 F       -3.0870    -0.4850    -0.0330 F     1 <1>  -0.3400 
  5 C       -2.1420     1.6700     0.3130 C.ar  1 <1>  -0.1440 
  6 C       -2.8590     2.4160    -0.6340 C.ar  1 <1>  -0.1440 
  7 C       -0.8980     2.1380     0.7270 C.ar  1 <1>  -0.1500 
  8 C       -2.3100     3.5840    -1.1490 C.ar  1 <1>  -0.1500 
  9 C       -4.2350     2.0070    -1.1540 C.3   1 <1>   0.4870 
 10 C       -0.3680     3.3060     0.2150 C.ar  1 <1>  -0.1500 
 11 C       -1.0730     4.0290    -0.7250 C.ar  1 <1>  -0.1500 
 12 N       -5.2830     2.2840    -0.1120 N.4   1 <1>  -0.9590 
 13 C       -6.6190     1.6580    -0.4010 C.3   1 <1>   0.4230 
 14 C       -5.3490     3.7710     0.1230 C.3   1 <1>   0.2630 
 15 C       -7.5960     1.9440     0.7520 C.3   1 <1>  -0.1600 
 16 C       -6.4800     0.1370    -0.5880 C.3   1 <1>  -0.1600 
 17 C       -8.9340     1.2260     0.5710 C.3   1 <1>   0.3430 
 18 C       -7.8350    -0.5540    -0.7490 C.3   1 <1>   0.3430 
 19 N       -8.7080    -0.2360     0.4130 N.4   1 <1>  -0.9590 
 20 C      -10.0200    -0.9550     0.2880 C.3   1 <1>   0.2630 
 21 H       -0.3130     1.5980     1.4570 H     1 <1>   0.1500 
 22 H       -2.8300     4.1670    -1.8910 H     1 <1>   0.1500 
 23 H       -4.2090     0.9620    -1.4080 H     1 <1>   0.0800 
 24 H       -4.4580     2.5580    -2.0540 H     1 <1>   0.0800 
 25 H        0.5980     3.6530     0.5460 H     1 <1>   0.1500 
 26 H       -0.6520     4.9360    -1.1280 H     1 <1>   0.1500 
 27 H       -4.9270     1.8690     0.7640 H     1 <1>   0.4500 
 28 H       -7.0200     2.0840    -1.3080 H     1 <1>   0.0800 
 29 H       -5.7240     4.2770    -0.7520 H     1 <1>   0.0800 
 30 H       -4.3690     4.1610     0.3490 H     1 <1>   0.0800 
 31 H       -5.9900     4.0000     0.9580 H     1 <1>   0.0800 
 32 H       -7.8140     2.9960     0.8030 H     1 <1>   0.0800 
 33 H       -7.1670     1.6440     1.6920 H     1 <1>   0.0800 
 34 H       -5.9720    -0.3030     0.2520 H     1 <1>   0.0800 
 35 H       -5.9170    -0.0840    -1.4760 H     1 <1>   0.0800 
 36 H       -9.4430     1.6120    -0.2980 H     1 <1>   0.0800 
 37 H       -9.5600     1.4090     1.4320 H     1 <1>   0.0800 
 38 H       -7.6890    -1.6220    -0.8170 H     1 <1>   0.0800 
 39 H       -8.3080    -0.2250    -1.6610 H     1 <1>   0.0800 
 40 H       -8.2570    -0.5940     1.2710 H     1 <1>   0.4500 
 41 H      -10.5500    -0.6280    -0.5920 H     1 <1>   0.0800 
 42 H      -10.6380    -0.7620     1.1510 H     1 <1>   0.0800 
 43 H       -9.8610    -2.0190     0.2170 H     1 <1>   0.0800 
@<TRIPOS>BOND
  1   1   2  1   
  2   2   3  1   
  3   2   4  1   
  4   2   5  1   
  5   5   6  ar  
  6   5   7  ar  
  7   6   8  ar  
  8   6   9  1   
  9   7  10  ar  
 10   7  21  1   
 11   8  11  ar  
 12   8  22  1   
 13   9  12  1   
 14   9  23  1   
 15   9  24  1   
 16  10  11  ar  
 17  10  25  1   
 18  11  26  1   
 19  12  13  1   
 20  12  14  1   
 21  12  27  1   
 22  13  15  1   
 23  13  16  1   
 24  13  28  1   
 25  14  29  1   
 26  14  30  1   
 27  14  31  1   
 28  15  17  1   
 29  15  32  1   
 30  15  33  1   
 31  16  18  1   
 32  16  34  1   
 33  16  35  1   
 34  17  19  1   
 35  17  36  1   
 36  17  37  1   
 37  18  19  1   
 38  18  38  1   
 39  18  39  1   
 40  19  20  1   
 41  19  40  1   
 42  20  41  1   
 43  20  42  1   
 44  20  43  1   
@<TRIPOS>SUBSTRUCTURE
  1 ****  12 GROUP 4 **** **** 0

# MOE 2024.06 (io_trps.svl 2023.06)
