@<TRIPOS>MOLECULE
NONAME
52 54 1 0 0 
SMALL
USER_CHARGES


@<TRIPOS>ATOM
  1 F        0.6740    -0.9400     0.3820 F     1 <1>  -0.1900 
  2 C        1.8210    -1.5670     0.4410 C.ar  1 <1>   0.1900 
  3 C        2.9390    -0.9620    -0.0990 C.ar  1 <1>  -0.1500 
  4 C        1.8720    -2.8100     1.0400 C.ar  1 <1>  -0.1500 
  5 C        4.1500    -1.6310    -0.0370 C.ar  1 <1>  -0.1500 
  6 C        3.0890    -3.4660     1.0960 C.ar  1 <1>  -0.1500 
  7 C        4.2380    -2.8890     0.5600 C.ar  1 <1>   0.1000 
  8 N        5.4430    -3.5850     0.6240 N.pl3 1 <1>  -0.8380 
  9 C        5.5930    -4.8240    -0.1950 C.3   1 <1>   0.2090 
 10 C        6.7030    -2.8940     1.0370 C.3   1 <1>   0.2090 
 11 C        6.5820    -4.6100    -1.3610 C.3   1 <1>   0.3430 
 12 C        7.6800    -2.7360    -0.1490 C.3   1 <1>   0.3430 
 13 N        7.8950    -4.0250    -0.9070 N.4   1 <1>  -0.9590 
 14 C        8.8450    -3.8500    -2.0370 C.3   1 <1>   0.4860 
 15 C       10.1910    -3.4500    -1.4690 C.ar  1 <1>  -0.1430 
 16 C       10.6330    -2.1410    -1.5680 C.ar  1 <1>  -0.1500 
 17 C       10.9900    -4.3850    -0.8310 C.ar  1 <1>  -0.1500 
 18 C       11.8540    -1.7560    -1.0370 C.ar  1 <1>   0.0830 
 19 C       12.2140    -4.0270    -0.2920 C.ar  1 <1>   0.0830 
 20 O       12.1460    -0.4340    -1.1840 O.3   1 <1>  -0.3630 
 21 C       12.6750    -2.7100    -0.4200 C.ar  1 <1>   0.0830 
 22 O       12.8860    -5.0340     0.3300 O.3   1 <1>  -0.3630 
 23 C       12.8880     0.2590    -0.2020 C.3   1 <1>   0.0400 
 24 O       13.9200    -2.3750     0.0100 O.3   1 <1>  -0.3630 
 25 C       13.5930    -4.7820     1.5270 C.3   1 <1>   0.0400 
 26 C       14.9470    -2.5920    -0.9310 C.3   1 <1>   0.0400 
 27 H        2.8550     0.0080    -0.5550 H     1 <1>   0.1500 
 28 H        0.9800    -3.2470     1.4530 H     1 <1>   0.1500 
 29 H        5.0220    -1.1710    -0.4570 H     1 <1>   0.1500 
 30 H        3.1570    -4.4300     1.5660 H     1 <1>   0.1500 
 31 H        4.6350    -5.1130    -0.5940 H     1 <1>   0.0800 
 32 H        5.9380    -5.6250     0.4360 H     1 <1>   0.0800 
 33 H        7.1740    -3.4650     1.8180 H     1 <1>   0.0800 
 34 H        6.4700    -1.9250     1.4450 H     1 <1>   0.0800 
 35 H        6.1180    -3.9450    -2.0700 H     1 <1>   0.0800 
 36 H        6.7490    -5.5540    -1.8530 H     1 <1>   0.0800 
 37 H        8.6210    -2.3680     0.2270 H     1 <1>   0.0800 
 38 H        7.2790    -1.9900    -0.8150 H     1 <1>   0.0800 
 39 H        8.3320    -4.6820    -0.2480 H     1 <1>   0.4500 
 40 H        8.4890    -3.0900    -2.7130 H     1 <1>   0.0800 
 41 H        8.9510    -4.7730    -2.5830 H     1 <1>   0.0800 
 42 H       10.0420    -1.3880    -2.0600 H     1 <1>   0.1500 
 43 H       10.6850    -5.4130    -0.7390 H     1 <1>   0.1500 
 44 H       12.6740     1.3080    -0.2980 H     1 <1>   0.0800 
 45 H       13.9350     0.0890    -0.3690 H     1 <1>   0.0800 
 46 H       12.5980    -0.0880     0.7740 H     1 <1>   0.0800 
 47 H       13.6790    -5.7080     2.0670 H     1 <1>   0.0800 
 48 H       14.5730    -4.4150     1.2850 H     1 <1>   0.0800 
 49 H       13.0530    -4.0610     2.1150 H     1 <1>   0.0800 
 50 H       15.8800    -2.2930    -0.4880 H     1 <1>   0.0800 
 51 H       14.9760    -3.6380    -1.1820 H     1 <1>   0.0800 
 52 H       14.7480    -2.0010    -1.8080 H     1 <1>   0.0800 
@<TRIPOS>BOND
  1   1   2  1   
  2   2   3  ar  
  3   2   4  ar  
  4   3   5  ar  
  5   3  27  1   
  6   4   6  ar  
  7   4  28  1   
  8   5   7  ar  
  9   5  29  1   
 10   6   7  ar  
 11   6  30  1   
 12   7   8  1   
 13   8   9  1   
 14   8  10  1   
 15   9  11  1   
 16   9  31  1   
 17   9  32  1   
 18  10  12  1   
 19  10  33  1   
 20  10  34  1   
 21  11  13  1   
 22  11  35  1   
 23  11  36  1   
 24  12  13  1   
 25  12  37  1   
 26  12  38  1   
 27  13  14  1   
 28  13  39  1   
 29  14  15  1   
 30  14  40  1   
 31  14  41  1   
 32  15  16  ar  
 33  15  17  ar  
 34  16  18  ar  
 35  16  42  1   
 36  17  19  ar  
 37  17  43  1   
 38  18  20  1   
 39  18  21  ar  
 40  19  21  ar  
 41  19  22  1   
 42  20  23  1   
 43  21  24  1   
 44  22  25  1   
 45  23  44  1   
 46  23  45  1   
 47  23  46  1   
 48  24  26  1   
 49  25  47  1   
 50  25  48  1   
 51  25  49  1   
 52  26  50  1   
 53  26  51  1   
 54  26  52  1   
@<TRIPOS>SUBSTRUCTURE
  1 ****  12 GROUP 4 **** **** 0

# MOE 2024.06 (io_trps.svl 2023.06)
