@<TRIPOS>MOLECULE
NONAME
39 40 1 0 0 
SMALL
USER_CHARGES


@<TRIPOS>ATOM
  1 CL      -1.5890    -1.4840     1.2530 Cl    1 <1>  -0.1770 
  2 C       -0.5200    -2.2300     0.0910 C.ar  1 <1>   0.1770 
  3 C       -0.6800    -2.0120    -1.2670 C.ar  1 <1>   0.1770 
  4 C        0.4980    -3.0440     0.5560 C.ar  1 <1>  -0.1500 
  5 CL      -1.9600    -0.9860    -1.8680 Cl    1 <1>  -0.1770 
  6 C        0.1810    -2.6080    -2.1710 C.ar  1 <1>  -0.1500 
  7 C        1.3720    -3.6420    -0.3440 C.ar  1 <1>  -0.1440 
  8 C        1.2050    -3.4220    -1.7080 C.ar  1 <1>  -0.1500 
  9 C        2.4930    -4.5360     0.1610 C.3   1 <1>   0.4870 
 10 N        3.7820    -3.7950     0.0980 N.4   1 <1>  -0.9590 
 11 C        4.9730    -4.6510     0.4270 C.3   1 <1>   0.3430 
 12 C        3.7940    -2.5230     0.9090 C.3   1 <1>   0.3430 
 13 C        6.3050    -3.8840     0.2320 C.3   1 <1>   0.1960 
 14 C        5.1880    -1.8460     0.9300 C.3   1 <1>   0.1960 
 15 N        6.1230    -2.4410    -0.0530 N.am  1 <1>  -0.8490 
 16 S        7.6310    -1.6560    -0.0790 S.o2  1 <1>   1.3330 
 17 O        7.8690    -1.2290     1.2800 O.2   1 <1>  -0.6500 
 18 O        8.5470    -2.5660    -0.7240 O.2   1 <1>  -0.6500 
 19 C        7.3650    -0.2330    -1.1490 C.3   1 <1>  -0.0550 
 20 C        8.6070     0.6560    -1.3380 C.3   1 <1>  -0.2400 
 21 H        0.5830    -3.1980     1.6180 H     1 <1>   0.1500 
 22 H        0.0430    -2.4350    -3.2250 H     1 <1>   0.1500 
 23 H        1.8600    -3.8840    -2.4290 H     1 <1>   0.1500 
 24 H        2.5450    -5.4200    -0.4540 H     1 <1>   0.0800 
 25 H        2.2890    -4.8410     1.1740 H     1 <1>   0.0800 
 26 H        3.9300    -3.4830    -0.8730 H     1 <1>   0.4500 
 27 H        4.9860    -5.5290    -0.1980 H     1 <1>   0.0800 
 28 H        4.9120    -4.9820     1.4500 H     1 <1>   0.0800 
 29 H        3.4940    -2.7270     1.9230 H     1 <1>   0.0800 
 30 H        3.0810    -1.8280     0.4960 H     1 <1>   0.0800 
 31 H        6.8410    -4.3410    -0.5840 H     1 <1>   0.0800 
 32 H        6.9130    -4.0100     1.1140 H     1 <1>   0.0800 
 33 H        5.5970    -1.9390     1.9240 H     1 <1>   0.0800 
 34 H        5.0680    -0.7940     0.7350 H     1 <1>   0.0800 
 35 H        6.5770     0.3710    -0.7450 H     1 <1>   0.0800 
 36 H        7.0480    -0.5810    -2.1140 H     1 <1>   0.0800 
 37 H        8.9370     1.0420    -0.3880 H     1 <1>   0.0800 
 38 H        8.3800     1.4820    -1.9880 H     1 <1>   0.0800 
 39 H        9.4090     0.0850    -1.7730 H     1 <1>   0.0800 
@<TRIPOS>BOND
  1   1   2  1   
  2   2   3  ar  
  3   2   4  ar  
  4   3   5  1   
  5   3   6  ar  
  6   4   7  ar  
  7   4  21  1   
  8   6   8  ar  
  9   6  22  1   
 10   7   8  ar  
 11   7   9  1   
 12   8  23  1   
 13   9  10  1   
 14   9  24  1   
 15   9  25  1   
 16  10  11  1   
 17  10  12  1   
 18  10  26  1   
 19  11  13  1   
 20  11  27  1   
 21  11  28  1   
 22  12  14  1   
 23  12  29  1   
 24  12  30  1   
 25  13  15  1   
 26  13  31  1   
 27  13  32  1   
 28  14  15  1   
 29  14  33  1   
 30  14  34  1   
 31  15  16  am  
 32  16  17  2   
 33  16  18  2   
 34  16  19  1   
 35  19  20  1   
 36  19  35  1   
 37  19  36  1   
 38  20  37  1   
 39  20  38  1   
 40  20  39  1   
@<TRIPOS>SUBSTRUCTURE
  1 ****  12 GROUP 4 **** **** 0

# MOE 2024.06 (io_trps.svl 2023.06)
