@<TRIPOS>MOLECULE
NONAME
36 38 1 0 0 
SMALL
USER_CHARGES


@<TRIPOS>ATOM
  1 S       -0.1510    -0.4920     0.5740 S.o2  1 <1>   1.5010 
  2 O       -0.3780    -1.2070     1.8090 O.2   1 <1>  -0.6500 
  3 O       -0.1830    -1.1910    -0.6900 O.2   1 <1>  -0.6500 
  4 N       -1.3890     0.6190     0.4290 N.am  1 <1>  -0.9140 
  5 C        1.3130     0.5380     0.7010 C.2   1 <1>  -0.0630 
  6 C       -2.6740     0.0170     0.7000 C.3   1 <1>   0.3390 
  7 C        1.9670     0.8140     1.8940 C.2   1 <1>   0.1390 
  8 C        2.0240     1.2320    -0.2240 C.2   1 <1>  -0.3020 
  9 C       -3.7430     0.9200     0.1150 C.ar  1 <1>  -0.1430 
 10 N        2.9910     1.5970     1.7370 N.2   1 <1>  -0.7070 
 11 N        3.0260     1.8590     0.4200 N.pl3 1 <1>   0.3140 
 12 C       -4.0520     2.1230     0.7440 C.ar  1 <1>  -0.1500 
 13 C       -4.4130     0.5520    -1.0530 C.ar  1 <1>  -0.1500 
 14 C        4.0590     2.7300    -0.1780 C.3   1 <1>   0.0960 
 15 C       -5.0300     2.9210     0.1850 C.ar  1 <1>   0.0830 
 16 C       -5.3930     1.3700    -1.6020 C.ar  1 <1>  -0.1500 
 17 C        3.5000     4.1260    -0.4770 C.3   1 <1>  -0.2400 
 18 O       -5.4830     4.1030     0.6150 O.3   1 <1>  -0.3630 
 19 C       -5.6820     2.5550    -0.9560 C.ar  1 <1>   0.0830 
 20 C       -6.4890     4.5150    -0.3080 C.3   1 <1>   0.4000 
 21 O       -6.5770     3.4890    -1.2950 O.3   1 <1>  -0.3630 
 22 H       -1.4020     0.8520    -0.5610 H     1 <1>   0.4200 
 23 H       -2.8110    -0.0880     1.7640 H     1 <1>   0.0800 
 24 H       -2.7380    -0.9610     0.2490 H     1 <1>   0.0800 
 25 H        1.6620     0.4220     2.8510 H     1 <1>   0.1500 
 26 H        1.8680     1.3080    -1.2840 H     1 <1>   0.1500 
 27 H       -3.5480     2.4370     1.6410 H     1 <1>   0.1500 
 28 H       -4.1750    -0.3760    -1.5450 H     1 <1>   0.1500 
 29 H        4.4150     2.2680    -1.0800 H     1 <1>   0.0800 
 30 H        4.8770     2.8030     0.5150 H     1 <1>   0.0800 
 31 H       -5.9190     1.1000    -2.5000 H     1 <1>   0.1500 
 32 H        2.6910     4.0670    -1.1840 H     1 <1>   0.0800 
 33 H        4.2730     4.7470    -0.8920 H     1 <1>   0.0800 
 34 H        3.1460     4.5830     0.4310 H     1 <1>   0.0800 
 35 H       -6.1970     5.4390    -0.7730 H     1 <1>   0.0800 
 36 H       -7.4320     4.6050     0.2020 H     1 <1>   0.0800 
@<TRIPOS>BOND
  1   1   2  2   
  2   1   3  2   
  3   1   4  am  
  4   1   5  1   
  5   4   6  1   
  6   4  22  1   
  7   5   7  1   
  8   5   8  2   
  9   6   9  1   
 10   6  23  1   
 11   6  24  1   
 12   7  10  2   
 13   7  25  1   
 14   8  11  1   
 15   8  26  1   
 16   9  12  ar  
 17   9  13  ar  
 18  10  11  1   
 19  11  14  1   
 20  12  15  ar  
 21  12  27  1   
 22  13  16  ar  
 23  13  28  1   
 24  14  17  1   
 25  14  29  1   
 26  14  30  1   
 27  15  18  1   
 28  15  19  ar  
 29  16  19  ar  
 30  16  31  1   
 31  17  32  1   
 32  17  33  1   
 33  17  34  1   
 34  18  20  1   
 35  19  21  1   
 36  20  21  1   
 37  20  35  1   
 38  20  36  1   
@<TRIPOS>SUBSTRUCTURE
  1 ****   4 GROUP 4 **** **** 0

# MOE 2024.06 (io_trps.svl 2023.06)
