@<TRIPOS>MOLECULE
NONAME
51 53 1 0 0 
SMALL
USER_CHARGES


@<TRIPOS>ATOM
  1 BR      -0.6100     0.5620    -1.7570 Br    1 <1>  -0.1110 
  2 C        0.7040    -0.7460    -1.2370 C.ar  1 <1>   0.1110 
  3 C        0.4870    -2.0710    -1.5620 C.ar  1 <1>  -0.1500 
  4 C        1.8270    -0.3280    -0.5520 C.ar  1 <1>  -0.1500 
  5 C        1.4270    -3.0190    -1.1880 C.ar  1 <1>  -0.1440 
  6 C        2.7630    -1.2740    -0.1760 C.ar  1 <1>  -0.1500 
  7 C        2.5690    -2.6220    -0.4880 C.ar  1 <1>   0.0830 
  8 C        1.1840    -4.4770    -1.5540 C.3   1 <1>   0.2540 
  9 O        3.4550    -3.5880    -0.1260 O.3   1 <1>  -0.3630 
 10 N        0.1340    -5.0580    -0.6910 N.3   1 <1>  -0.8100 
 11 C        4.7450    -3.2610     0.3470 C.3   1 <1>   0.0400 
 12 C       -0.2260    -6.4260    -1.1310 C.3   1 <1>   0.1100 
 13 C        0.5510    -5.0650     0.7360 C.3   1 <1>   0.1100 
 14 C       -1.3370    -7.0500    -0.2500 C.3   1 <1>   0.3430 
 15 C       -0.5010    -5.7230     1.6590 C.3   1 <1>   0.3430 
 16 N       -1.7110    -6.1330     0.8790 N.4   1 <1>  -0.9590 
 17 C       -2.8460    -6.6110     1.7070 C.3   1 <1>   0.4860 
 18 C       -4.0400    -6.8550     0.8050 C.ar  1 <1>  -0.1430 
 19 C       -4.7360    -5.7870     0.2530 C.ar  1 <1>  -0.1500 
 20 C       -4.4390    -8.1520     0.5140 C.ar  1 <1>  -0.1500 
 21 C       -5.8100    -6.0120    -0.5900 C.ar  1 <1>  -0.1500 
 22 C       -5.5120    -8.3750    -0.3290 C.ar  1 <1>  -0.1500 
 23 C       -6.2020    -7.3130    -0.8880 C.ar  1 <1>   0.0830 
 24 O       -7.2370    -7.6220    -1.7060 O.3   1 <1>  -0.3630 
 25 C       -8.0470    -6.6220    -2.2820 C.3   1 <1>   0.0400 
 26 H       -0.4020    -2.3530    -2.0960 H     1 <1>   0.1500 
 27 H        1.9610     0.7140    -0.3190 H     1 <1>   0.1500 
 28 H        3.6320    -0.9440     0.3610 H     1 <1>   0.1500 
 29 H        2.0910    -5.0520    -1.4740 H     1 <1>   0.0800 
 30 H        0.8630    -4.5190    -2.5810 H     1 <1>   0.0800 
 31 H        5.3010    -4.1740     0.4630 H     1 <1>   0.0800 
 32 H        4.6560    -2.7670     1.2980 H     1 <1>   0.0800 
 33 H        5.2320    -2.6270    -0.3730 H     1 <1>   0.0800 
 34 H        0.6440    -7.0610    -1.1020 H     1 <1>   0.0800 
 35 H       -0.5710    -6.3960    -2.1510 H     1 <1>   0.0800 
 36 H        0.7030    -4.0530     1.0710 H     1 <1>   0.0800 
 37 H        1.4920    -5.5790     0.8430 H     1 <1>   0.0800 
 38 H       -0.9980    -7.9970     0.1350 H     1 <1>   0.0800 
 39 H       -2.2000    -7.2390    -0.8690 H     1 <1>   0.0800 
 40 H       -0.7760    -5.0190     2.4280 H     1 <1>   0.0800 
 41 H       -0.0620    -6.5820     2.1400 H     1 <1>   0.0800 
 42 H       -1.9970    -5.2730     0.3870 H     1 <1>   0.4500 
 43 H       -3.1030    -5.8710     2.4470 H     1 <1>   0.0800 
 44 H       -2.5780    -7.5240     2.2140 H     1 <1>   0.0800 
 45 H       -4.4540    -4.7710     0.4720 H     1 <1>   0.1500 
 46 H       -3.9270    -9.0010     0.9350 H     1 <1>   0.1500 
 47 H       -6.3310    -5.1690    -1.0040 H     1 <1>   0.1500 
 48 H       -5.8290    -9.3770    -0.5610 H     1 <1>   0.1500 
 49 H       -8.8100    -7.1060    -2.8650 H     1 <1>   0.0800 
 50 H       -7.4400    -6.0030    -2.9190 H     1 <1>   0.0800 
 51 H       -8.5010    -6.0430    -1.4970 H     1 <1>   0.0800 
@<TRIPOS>BOND
  1   1   2  1   
  2   2   3  ar  
  3   2   4  ar  
  4   3   5  ar  
  5   3  26  1   
  6   4   6  ar  
  7   4  27  1   
  8   5   7  ar  
  9   5   8  1   
 10   6   7  ar  
 11   6  28  1   
 12   7   9  1   
 13   8  10  1   
 14   8  29  1   
 15   8  30  1   
 16   9  11  1   
 17  10  12  1   
 18  10  13  1   
 19  11  31  1   
 20  11  32  1   
 21  11  33  1   
 22  12  14  1   
 23  12  34  1   
 24  12  35  1   
 25  13  15  1   
 26  13  36  1   
 27  13  37  1   
 28  14  16  1   
 29  14  38  1   
 30  14  39  1   
 31  15  16  1   
 32  15  40  1   
 33  15  41  1   
 34  16  17  1   
 35  16  42  1   
 36  17  18  1   
 37  17  43  1   
 38  17  44  1   
 39  18  19  ar  
 40  18  20  ar  
 41  19  21  ar  
 42  19  45  1   
 43  20  22  ar  
 44  20  46  1   
 45  21  23  ar  
 46  21  47  1   
 47  22  23  ar  
 48  22  48  1   
 49  23  24  1   
 50  24  25  1   
 51  25  49  1   
 52  25  50  1   
 53  25  51  1   
@<TRIPOS>SUBSTRUCTURE
  1 ****  10 GROUP 4 **** **** 0

# MOE 2024.06 (io_trps.svl 2023.06)
