@<TRIPOS>MOLECULE
NONAME
55 57 1 0 0 
SMALL
USER_CHARGES


@<TRIPOS>ATOM
  1 O       -1.0400     1.8100    -2.0080 O.2   1 <1>  -0.5700 
  2 C       -0.7180     2.3160    -0.9540 C.2   1 <1>   0.7800 
  3 O        0.4320     1.9310    -0.4100 O.3   1 <1>  -0.4300 
  4 N       -1.5020     3.2340    -0.3030 N.am  1 <1>  -0.6600 
  5 C        1.4540     2.8770    -0.2090 C.3   1 <1>   0.1200 
  6 C       -2.7340     3.7700    -0.9470 C.3   1 <1>   0.1400 
  7 C       -1.5420     3.3340     1.1850 C.3   1 <1>   0.1400 
  8 C        2.5730     2.1990     0.5750 C.3   1 <1>  -0.2400 
  9 C       -3.9750     3.0190    -0.4430 C.3   1 <1>   0.1400 
 10 C       -2.7640     2.5900     1.7430 C.3   1 <1>   0.1400 
 11 N       -4.0370     2.9850     1.0570 N.am  1 <1>  -0.6600 
 12 C       -5.2250     3.0800     1.7530 C.2   1 <1>   0.5440 
 13 O       -5.1890     3.2540     2.9560 O.2   1 <1>  -0.5700 
 14 C       -6.4980     2.8960     1.0940 C.ar  1 <1>   0.0860 
 15 C       -6.8630     1.6250     0.6280 C.ar  1 <1>   0.1170 
 16 C       -7.3730     3.9620     0.8910 C.ar  1 <1>  -0.1500 
 17 N       -6.0270     0.5320     0.8750 N.am  1 <1>  -0.5470 
 18 C       -8.0550     1.4650    -0.0680 C.ar  1 <1>  -0.1500 
 19 C       -8.5630     3.7870     0.2120 C.ar  1 <1>  -0.1500 
 20 C       -5.3400    -0.1940    -0.0650 C.2   1 <1>   0.5440 
 21 C       -8.9020     2.5350    -0.2760 C.ar  1 <1>  -0.1500 
 22 O       -5.8040    -0.3270    -1.1800 O.2   1 <1>  -0.5700 
 23 C       -4.0240    -0.6880     0.2760 C.ar  1 <1>   0.0860 
 24 C       -2.9730    -0.5930    -0.6370 C.ar  1 <1>  -0.1500 
 25 C       -3.7320    -1.2120     1.5380 C.ar  1 <1>  -0.1500 
 26 C       -1.6830    -0.9520    -0.2990 C.ar  1 <1>  -0.1500 
 27 C       -2.4430    -1.5770     1.8810 C.ar  1 <1>  -0.1500 
 28 C       -1.4060    -1.4370     0.9750 C.ar  1 <1>   0.0820 
 29 O       -0.1680    -1.7800     1.3950 O.3   1 <1>  -0.3620 
 30 C        0.9650    -1.5830     0.5770 C.3   1 <1>   0.0400 
 31 H        1.0620     3.7200     0.3320 H     1 <1>   0.0800 
 32 H        1.8040     3.2020    -1.1750 H     1 <1>   0.0800 
 33 H       -2.6670     3.6730    -2.0180 H     1 <1>   0.0800 
 34 H       -2.8300     4.8160    -0.7160 H     1 <1>   0.0800 
 35 H       -1.5950     4.3700     1.4720 H     1 <1>   0.0800 
 36 H       -0.6540     2.9120     1.6200 H     1 <1>   0.0800 
 37 H        2.2040     1.8540     1.5250 H     1 <1>   0.0800 
 38 H        3.3700     2.8990     0.7500 H     1 <1>   0.0800 
 39 H        2.9650     1.3680     0.0170 H     1 <1>   0.0800 
 40 H       -3.9450     2.0150    -0.8250 H     1 <1>   0.0800 
 41 H       -4.8540     3.4950    -0.8430 H     1 <1>   0.0800 
 42 H       -2.8330     2.7800     2.8000 H     1 <1>   0.0800 
 43 H       -2.6110     1.5330     1.6110 H     1 <1>   0.0800 
 44 H       -7.1070     4.9330     1.2710 H     1 <1>   0.1500 
 45 H       -5.5390     0.5910     1.7700 H     1 <1>   0.3700 
 46 H       -8.3110     0.4890    -0.4450 H     1 <1>   0.1500 
 47 H       -9.2290     4.6200     0.0590 H     1 <1>   0.1500 
 48 H       -9.8230     2.3970    -0.8140 H     1 <1>   0.1500 
 49 H       -3.1700    -0.2130    -1.6260 H     1 <1>   0.1500 
 50 H       -4.5190    -1.3340     2.2600 H     1 <1>   0.1500 
 51 H       -0.9100    -0.8380    -1.0380 H     1 <1>   0.1500 
 52 H       -2.2280    -1.9730     2.8580 H     1 <1>   0.1500 
 53 H        1.8350    -1.8840     1.1310 H     1 <1>   0.0800 
 54 H        1.0350    -0.5410     0.3210 H     1 <1>   0.0800 
 55 H        0.8660    -2.1880    -0.3070 H     1 <1>   0.0800 
@<TRIPOS>BOND
  1   1   2  2   
  2   2   3  1   
  3   2   4  am  
  4   3   5  1   
  5   4   6  1   
  6   4   7  1   
  7   5   8  1   
  8   5  31  1   
  9   5  32  1   
 10   6   9  1   
 11   6  33  1   
 12   6  34  1   
 13   7  10  1   
 14   7  35  1   
 15   7  36  1   
 16   8  37  1   
 17   8  38  1   
 18   8  39  1   
 19   9  11  1   
 20   9  40  1   
 21   9  41  1   
 22  10  11  1   
 23  10  42  1   
 24  10  43  1   
 25  11  12  am  
 26  12  13  2   
 27  12  14  1   
 28  14  15  ar  
 29  14  16  ar  
 30  15  17  1   
 31  15  18  ar  
 32  16  19  ar  
 33  16  44  1   
 34  17  20  am  
 35  17  45  1   
 36  18  21  ar  
 37  18  46  1   
 38  19  21  ar  
 39  19  47  1   
 40  20  22  2   
 41  20  23  1   
 42  21  48  1   
 43  23  24  ar  
 44  23  25  ar  
 45  24  26  ar  
 46  24  49  1   
 47  25  27  ar  
 48  25  50  1   
 49  26  28  ar  
 50  26  51  1   
 51  27  28  ar  
 52  27  52  1   
 53  28  29  1   
 54  29  30  1   
 55  30  53  1   
 56  30  54  1   
 57  30  55  1   
@<TRIPOS>SUBSTRUCTURE
  1 ****  11 GROUP 4 **** **** 0

# MOE 2024.06 (io_trps.svl 2023.06)
