@<TRIPOS>MOLECULE
NONAME
29 30 1 0 0 
SMALL
USER_CHARGES


@<TRIPOS>ATOM
  1 CL      -0.0090    -0.0430    -0.7890 Cl    1 <1>  -0.1770 
  2 C        1.4980    -0.8460    -0.4140 C.ar  1 <1>   0.1770 
  3 C        1.4860    -2.0180     0.3110 C.ar  1 <1>  -0.1500 
  4 C        2.6820    -0.2900    -0.8530 C.ar  1 <1>  -0.1500 
  5 C        2.6730    -2.6880     0.6300 C.ar  1 <1>  -0.1790 
  6 C        3.8670    -0.9310    -0.5520 C.ar  1 <1>  -0.1500 
  7 C        3.8800    -2.1200     0.1760 C.ar  1 <1>   0.1170 
  8 C        2.6050    -3.9260     1.4020 C.2   1 <1>   0.9790 
  9 N        5.0810    -2.7660     0.4780 N.am  1 <1>  -0.5470 
 10 O        3.6330    -4.5100     1.8080 O.co2 1 <1>  -0.9000 
 11 O        1.5070    -4.4360     1.6780 O.co2 1 <1>  -0.9000 
 12 C        6.3600    -2.7190    -0.0010 C.2   1 <1>   0.5690 
 13 O        6.7150    -1.9510    -0.8700 O.2   1 <1>  -0.5700 
 14 C        7.3540    -3.7490     0.5760 C.3   1 <1>   0.2610 
 15 O        8.4760    -3.1360     1.1630 O.3   1 <1>  -0.5600 
 16 C        7.9220    -4.7040    -0.4840 C.3   1 <1>  -0.1600 
 17 C        9.5170    -3.0920     0.2480 C.3   1 <1>   0.1200 
 18 C        9.4140    -4.4070    -0.5060 C.3   1 <1>  -0.1600 
 19 H        0.5450    -2.4250     0.6390 H     1 <1>   0.1500 
 20 H        2.6730     0.6250    -1.4150 H     1 <1>   0.1500 
 21 H        4.7920    -0.4990    -0.8850 H     1 <1>   0.1500 
 22 H        4.8950    -3.5450     1.1410 H     1 <1>   0.3700 
 23 H        6.8630    -4.3100     1.3520 H     1 <1>   0.0800 
 24 H        7.4740    -4.5060    -1.4430 H     1 <1>   0.0800 
 25 H        7.7250    -5.7260    -0.2160 H     1 <1>   0.0800 
 26 H       10.4490    -2.9810     0.7740 H     1 <1>   0.0800 
 27 H        9.3510    -2.2510    -0.4050 H     1 <1>   0.0800 
 28 H        9.8050    -4.3220    -1.5050 H     1 <1>   0.0800 
 29 H        9.9570    -5.1660     0.0290 H     1 <1>   0.0800 
@<TRIPOS>BOND
  1   1   2  1   
  2   2   3  ar  
  3   2   4  ar  
  4   3   5  ar  
  5   3  19  1   
  6   4   6  ar  
  7   4  20  1   
  8   5   7  ar  
  9   5   8  1   
 10   6   7  ar  
 11   6  21  1   
 12   7   9  1   
 13   8  10  ar  
 14   8  11  ar  
 15   9  12  am  
 16   9  22  1   
 17  12  13  2   
 18  12  14  1   
 19  14  15  1   
 20  14  16  1   
 21  14  23  1   
 22  15  17  1   
 23  16  18  1   
 24  16  24  1   
 25  16  25  1   
 26  17  18  1   
 27  17  26  1   
 28  17  27  1   
 29  18  28  1   
 30  18  29  1   
@<TRIPOS>SUBSTRUCTURE
  1 ****   9 GROUP 4 **** **** 0

# MOE 2024.06 (io_trps.svl 2023.06)
