@<TRIPOS>MOLECULE
NONAME
47 48 1 0 0 
SMALL
USER_CHARGES


@<TRIPOS>ATOM
  1 F        3.3370    -4.3370    -2.6980 F     1 <1>  -0.3400 
  2 C        2.4630    -3.7620    -1.8800 C.3   1 <1>   1.1640 
  3 F        1.8040    -4.7530    -1.2890 F     1 <1>  -0.3400 
  4 F        1.5840    -3.1390    -2.6530 F     1 <1>  -0.3400 
  5 C        3.1210    -2.8050    -0.8740 C.ar  1 <1>  -0.1440 
  6 C        4.3590    -2.2240    -1.1340 C.ar  1 <1>  -0.1500 
  7 C        2.4800    -2.4930     0.3210 C.ar  1 <1>  -0.1500 
  8 C        4.9620    -1.3560    -0.2320 C.ar  1 <1>   0.1170 
  9 C        3.0650    -1.6280     1.2280 C.ar  1 <1>  -0.1500 
 10 N        6.2050    -0.7990    -0.5630 N.am  1 <1>  -0.5470 
 11 C        4.2960    -1.0640     0.9530 C.ar  1 <1>  -0.1500 
 12 C        7.2060    -0.3060     0.2350 C.2   1 <1>   0.5690 
 13 O        7.1680    -0.3590     1.4400 O.2   1 <1>  -0.5700 
 14 C        8.4100     0.2950    -0.4610 C.3   1 <1>   0.0420 
 15 C        9.1590    -0.8960    -1.0060 C.2   1 <1>   0.6590 
 16 C        9.2740     1.2710     0.3880 C.3   1 <1>  -0.0800 
 17 O        8.9380    -1.2850    -2.1260 O.2   1 <1>  -0.5700 
 18 O       10.0320    -1.4940    -0.2030 O.3   1 <1>  -0.4300 
 19 C        8.4510     2.4970     0.8420 C.3   1 <1>  -0.1600 
 20 C       10.5210     1.7440    -0.3920 C.3   1 <1>  -0.1600 
 21 C       10.7980    -2.6120    -0.5930 C.3   1 <1>   0.1200 
 22 C        9.2980     3.4780     1.6630 C.3   1 <1>  -0.1600 
 23 C       11.3670     2.7260     0.4290 C.3   1 <1>  -0.1600 
 24 C       12.0600    -2.1200    -1.2980 C.3   1 <1>  -0.2400 
 25 C       10.5360     3.9310     0.8820 C.3   1 <1>  -0.1600 
 26 H        4.8740    -2.4490    -2.0520 H     1 <1>   0.1500 
 27 H        1.5180    -2.9220     0.5540 H     1 <1>   0.1500 
 28 H        2.5640    -1.3930     2.1510 H     1 <1>   0.1500 
 29 H        6.4460    -0.8650    -1.5540 H     1 <1>   0.3700 
 30 H        4.7350    -0.3910     1.6670 H     1 <1>   0.1500 
 31 H        8.0460     0.8500    -1.3050 H     1 <1>   0.0800 
 32 H        9.6080     0.7470     1.2700 H     1 <1>   0.0800 
 33 H        7.6180     2.1850     1.4460 H     1 <1>   0.0800 
 34 H        8.0590     3.0100    -0.0190 H     1 <1>   0.0800 
 35 H       10.2150     2.2250    -1.3060 H     1 <1>   0.0800 
 36 H       11.1420     0.9060    -0.6530 H     1 <1>   0.0800 
 37 H       10.2060    -3.2430    -1.2340 H     1 <1>   0.0800 
 38 H       11.0530    -3.1570     0.2990 H     1 <1>   0.0800 
 39 H        9.6070     3.0000     2.5770 H     1 <1>   0.0800 
 40 H        8.7030     4.3360     1.9250 H     1 <1>   0.0800 
 41 H       12.2000     3.0660    -0.1620 H     1 <1>   0.0800 
 42 H       11.7600     2.2200     1.2940 H     1 <1>   0.0800 
 43 H       11.8020    -1.5870    -2.1960 H     1 <1>   0.0800 
 44 H       12.6730    -2.9610    -1.5690 H     1 <1>   0.0800 
 45 H       12.6260    -1.4800    -0.6450 H     1 <1>   0.0800 
 46 H       11.1380     4.5730     1.5020 H     1 <1>   0.0800 
 47 H       10.2280     4.4990     0.0210 H     1 <1>   0.0800 
@<TRIPOS>BOND
  1   1   2  1   
  2   2   3  1   
  3   2   4  1   
  4   2   5  1   
  5   5   6  ar  
  6   5   7  ar  
  7   6   8  ar  
  8   6  26  1   
  9   7   9  ar  
 10   7  27  1   
 11   8  10  1   
 12   8  11  ar  
 13   9  11  ar  
 14   9  28  1   
 15  10  12  am  
 16  10  29  1   
 17  11  30  1   
 18  12  13  2   
 19  12  14  1   
 20  14  15  1   
 21  14  16  1   
 22  14  31  1   
 23  15  17  2   
 24  15  18  1   
 25  16  19  1   
 26  16  20  1   
 27  16  32  1   
 28  18  21  1   
 29  19  22  1   
 30  19  33  1   
 31  19  34  1   
 32  20  23  1   
 33  20  35  1   
 34  20  36  1   
 35  21  24  1   
 36  21  37  1   
 37  21  38  1   
 38  22  25  1   
 39  22  39  1   
 40  22  40  1   
 41  23  25  1   
 42  23  41  1   
 43  23  42  1   
 44  24  43  1   
 45  24  44  1   
 46  24  45  1   
 47  25  46  1   
 48  25  47  1   
@<TRIPOS>SUBSTRUCTURE
  1 ****  10 GROUP 4 **** **** 0

# MOE 2024.06 (io_trps.svl 2023.06)
