@<TRIPOS>MOLECULE
NONAME
55 58 1 0 0 
SMALL
USER_CHARGES


@<TRIPOS>ATOM
  1 O        2.6290     0.5000     0.4400 O.co2 1 <1>  -0.9000 
  2 C        2.1670     1.5210     0.9620 C.2   1 <1>   0.9060 
  3 O        2.0550     1.6190     2.1870 O.co2 1 <1>  -0.9000 
  4 C        1.4930     2.5440     0.0620 C.3   1 <1>  -0.1860 
  5 C       -0.0660     2.9180     0.5690 C.3   1 <1>  -0.0190 
  6 C        2.3090     3.9480    -0.1490 C.3   1 <1>  -0.0800 
  7 C       -1.1570     2.2090    -0.2480 C.2   1 <1>   0.5690 
  8 C       -0.1830     4.5540     0.6250 C.3   1 <1>  -0.0800 
  9 C        1.0610     4.2540     0.2300 C.3   1 <1>  -0.1600 
 10 C        2.1910     5.5750    -0.0510 C.3   1 <1>  -0.1600 
 11 O       -1.9020     2.8790    -0.9250 O.2   1 <1>  -0.5700 
 12 N       -1.2960     0.8370    -0.2210 N.am  1 <1>  -0.6600 
 13 C        0.6170     5.9530     0.3590 C.3   1 <1>  -0.1600 
 14 C       -0.3990    -0.0700     0.5720 C.3   1 <1>   0.1400 
 15 C       -2.1700     0.1550    -1.2220 C.3   1 <1>   0.1400 
 16 C       -1.1020    -1.3300     1.0840 C.3   1 <1>   0.3430 
 17 C       -2.8530    -1.0940    -0.6370 C.3   1 <1>   0.3430 
 18 N       -1.8640    -2.0300    -0.0050 N.4   1 <1>  -0.9590 
 19 C       -2.4930    -3.2770     0.4710 C.3   1 <1>   0.4810 
 20 C       -1.4030    -4.3160     0.5460 C.2   1 <1>  -0.2880 
 21 C       -1.3050    -5.3850    -0.2640 C.2   1 <1>  -0.1780 
 22 C       -0.2820    -6.4060    -0.2500 C.ar  1 <1>   0.0280 
 23 C       -0.5220    -7.6410    -0.8490 C.ar  1 <1>  -0.1500 
 24 C        0.9640    -6.2050     0.3420 C.ar  1 <1>  -0.1500 
 25 C        0.4380    -8.6360    -0.8540 C.ar  1 <1>  -0.1500 
 26 C        1.9270    -7.1970     0.3410 C.ar  1 <1>  -0.1500 
 27 C        1.6660    -8.4160    -0.2570 C.ar  1 <1>  -0.1500 
 28 H        1.4150     2.0610    -0.9000 H     1 <1>   0.0800 
 29 H       -0.1920     2.5720     1.5820 H     1 <1>   0.0800 
 30 H        2.5890     3.8440    -1.1870 H     1 <1>   0.0800 
 31 H       -0.4420     4.6860     1.6660 H     1 <1>   0.0800 
 32 H        1.4180     4.2200     1.3520 H     1 <1>   0.0800 
 33 H        0.7010     4.2660    -0.8890 H     1 <1>   0.0800 
 34 H        2.8710     5.9440     0.7020 H     1 <1>   0.0800 
 35 H        2.4570     6.0390    -0.9870 H     1 <1>   0.0800 
 36 H        0.1440     6.5000    -0.4420 H     1 <1>   0.0800 
 37 H        0.6000     6.5800     1.2370 H     1 <1>   0.0800 
 38 H        0.4340    -0.3630    -0.0410 H     1 <1>   0.0800 
 39 H       -0.0220     0.4350     1.4390 H     1 <1>   0.0800 
 40 H       -2.9330     0.8310    -1.5710 H     1 <1>   0.0800 
 41 H       -1.5720    -0.1220    -2.0730 H     1 <1>   0.0800 
 42 H       -1.7730    -1.0440     1.8770 H     1 <1>   0.0800 
 43 H       -0.3560    -1.9850     1.5020 H     1 <1>   0.0800 
 44 H       -3.3850    -1.5990    -1.4270 H     1 <1>   0.0800 
 45 H       -3.5720    -0.7730     0.0980 H     1 <1>   0.0800 
 46 H       -1.1700    -2.3000    -0.7180 H     1 <1>   0.4500 
 47 H       -2.9580    -3.1330     1.4330 H     1 <1>   0.0800 
 48 H       -3.2420    -3.6020    -0.2320 H     1 <1>   0.0800 
 49 H       -0.6930    -4.1270     1.3330 H     1 <1>   0.1500 
 50 H       -2.0480    -5.5510    -1.0260 H     1 <1>   0.1500 
 51 H       -1.4710    -7.8320    -1.3150 H     1 <1>   0.1500 
 52 H        1.1970    -5.2650     0.8050 H     1 <1>   0.1500 
 53 H        0.2310    -9.5840    -1.3210 H     1 <1>   0.1500 
 54 H        2.8840    -7.0220     0.8030 H     1 <1>   0.1500 
 55 H        2.4150    -9.1900    -0.2590 H     1 <1>   0.1500 
@<TRIPOS>BOND
  1   1   2  ar  
  2   2   3  ar  
  3   2   4  1   
  4   4   5  1   
  5   4   6  1   
  6   4  28  1   
  7   5   7  1   
  8   5   8  1   
  9   5  29  1   
 10   6   9  1   
 11   6  10  1   
 12   6  30  1   
 13   7  11  2   
 14   7  12  am  
 15   8   9  1   
 16   8  13  1   
 17   8  31  1   
 18   9  32  1   
 19   9  33  1   
 20  10  13  1   
 21  10  34  1   
 22  10  35  1   
 23  12  14  1   
 24  12  15  1   
 25  13  36  1   
 26  13  37  1   
 27  14  16  1   
 28  14  38  1   
 29  14  39  1   
 30  15  17  1   
 31  15  40  1   
 32  15  41  1   
 33  16  18  1   
 34  16  42  1   
 35  16  43  1   
 36  17  18  1   
 37  17  44  1   
 38  17  45  1   
 39  18  19  1   
 40  18  46  1   
 41  19  20  1   
 42  19  47  1   
 43  19  48  1   
 44  20  21  2   
 45  20  49  1   
 46  21  22  1   
 47  21  50  1   
 48  22  23  ar  
 49  22  24  ar  
 50  23  25  ar  
 51  23  51  1   
 52  24  26  ar  
 53  24  52  1   
 54  25  27  ar  
 55  25  53  1   
 56  26  27  ar  
 57  26  54  1   
 58  27  55  1   
@<TRIPOS>SUBSTRUCTURE
  1 ****  14 GROUP 4 **** **** 0

# MOE 2024.06 (io_trps.svl 2023.06)
