@<TRIPOS>MOLECULE
NONAME
29 31 1 0 0 
SMALL
USER_CHARGES


@<TRIPOS>ATOM
  1 S       -0.0100    -0.0390    -0.5760 S.3   1 <1>  -0.0800 
  2 C       -1.0030     1.3080     0.0130 C.ar  1 <1>   0.2970 
  3 C        1.4230     0.9880    -0.6050 C.2   1 <1>  -0.1400 
  4 N       -2.2980     1.1940     0.2650 N.ar  1 <1>  -0.2570 
  5 C       -0.2430     2.4300     0.1620 C.ar  1 <1>   0.0000 
  6 C        1.1300     2.2250    -0.1930 C.2   1 <1>  -0.1810 
  7 C        2.7870     0.4930    -1.0320 C.3   1 <1>   0.3000 
  8 N       -2.8980     2.2870     0.7040 N.ar  1 <1>   0.0000 
  9 C       -0.9470     3.5430     0.6360 C.ar  1 <1>   0.1390 
 10 C        2.2170     3.2730    -0.1390 C.3   1 <1>   0.0210 
 11 O        3.6730     1.5860    -1.1530 O.3   1 <1>  -0.5600 
 12 N       -2.2690     3.4290     0.8920 N.ar  1 <1>  -0.3100 
 13 O       -0.3780     4.6350     0.8300 O.3   1 <1>  -0.8290 
 14 C        3.6230     2.6100    -0.1780 C.3   1 <1>   0.2800 
 15 C        4.0040     2.0360     1.2130 C.3   1 <1>  -0.1600 
 16 C        4.6560     3.6480    -0.6320 C.3   1 <1>  -0.2400 
 17 C        5.3370     1.2680     1.2820 C.3   1 <1>  -0.2400 
 18 H        2.7300     0.0120    -1.9910 H     1 <1>   0.0800 
 19 H        3.1830    -0.1950    -0.3080 H     1 <1>   0.0800 
 20 H        2.1090     3.8580     0.7570 H     1 <1>   0.0800 
 21 H        2.0820     3.9390    -0.9710 H     1 <1>   0.0800 
 22 H        3.2120     1.3940     1.5580 H     1 <1>   0.0800 
 23 H        4.0480     2.8520     1.9130 H     1 <1>   0.0800 
 24 H        4.7170     4.4470     0.0850 H     1 <1>   0.0800 
 25 H        4.3670     4.0640    -1.5800 H     1 <1>   0.0800 
 26 H        5.6260     3.2010    -0.7390 H     1 <1>   0.0800 
 27 H        5.3550     0.4690     0.5640 H     1 <1>   0.0800 
 28 H        5.4620     0.8470     2.2640 H     1 <1>   0.0800 
 29 H        6.1670     1.9230     1.0900 H     1 <1>   0.0800 
@<TRIPOS>BOND
  1   1   2  1   
  2   1   3  1   
  3   2   4  ar  
  4   2   5  ar  
  5   3   6  2   
  6   3   7  1   
  7   4   8  ar  
  8   5   6  1   
  9   5   9  ar  
 10   6  10  1   
 11   7  11  1   
 12   7  18  1   
 13   7  19  1   
 14   8  12  ar  
 15   9  12  ar  
 16   9  13  1   
 17  10  14  1   
 18  10  20  1   
 19  10  21  1   
 20  11  14  1   
 21  14  15  1   
 22  14  16  1   
 23  15  17  1   
 24  15  22  1   
 25  15  23  1   
 26  16  24  1   
 27  16  25  1   
 28  16  26  1   
 29  17  27  1   
 30  17  28  1   
 31  17  29  1   
@<TRIPOS>SUBSTRUCTURE
  1 ****   6 GROUP 4 **** **** 0

# MOE 2024.06 (io_trps.svl 2023.06)
