@<TRIPOS>MOLECULE
NONAME
38 39 1 0 0 
SMALL
USER_CHARGES


@<TRIPOS>ATOM
  1 F        0.8680    -0.6880    -0.0800 F     1 <1>  -0.1900 
  2 C        1.8810     0.1350    -0.0900 C.ar  1 <1>   0.1900 
  3 C        1.9170     1.1600     0.8360 C.ar  1 <1>  -0.1500 
  4 C        2.8810    -0.0490    -1.0250 C.ar  1 <1>  -0.1500 
  5 C        2.9930     2.0310     0.8210 C.ar  1 <1>  -0.1500 
  6 C        3.9520     0.8290    -1.0300 C.ar  1 <1>  -0.1500 
  7 C        4.0120     1.8720    -0.1130 C.ar  1 <1>  -0.1430 
  8 C        5.1920     2.8300    -0.1370 C.3   1 <1>   0.3530 
  9 N        6.4210     2.0880     0.2060 N.pl3 1 <1>  -0.8690 
 10 C        7.6100     2.1260    -0.4430 C.2   1 <1>  -0.0500 
 11 C        8.7430     1.4050    -0.1230 C.2   1 <1>   0.0290 
 12 C        9.9160     1.5600    -0.9310 C.2   1 <1>   0.4950 
 13 C        8.7980     0.4970     0.9900 C.2   1 <1>   0.4950 
 14 O        9.9770     2.3130    -1.8750 O.2   1 <1>  -0.5700 
 15 C       11.1890     0.7830    -0.6410 C.3   1 <1>  -0.0990 
 16 O        7.8850     0.2930     1.7590 O.2   1 <1>  -0.5700 
 17 C       10.0650    -0.2850     1.2990 C.3   1 <1>  -0.0990 
 18 C       10.9300    -0.5560     0.0600 C.3   1 <1>   0.0000 
 19 C       10.2210    -1.5390    -0.8900 C.3   1 <1>  -0.2400 
 20 C       12.2660    -1.1790     0.4910 C.3   1 <1>  -0.2400 
 21 H        1.1210     1.2680     1.5500 H     1 <1>   0.1500 
 22 H        2.8220    -0.8610    -1.7270 H     1 <1>   0.1500 
 23 H        3.0350     2.8320     1.5390 H     1 <1>   0.1500 
 24 H        4.7470     0.7000    -1.7440 H     1 <1>   0.1500 
 25 H        5.0480     3.6230     0.5770 H     1 <1>   0.0800 
 26 H        5.2900     3.2660    -1.1170 H     1 <1>   0.0800 
 27 H        6.3120     1.4520     1.0190 H     1 <1>   0.4000 
 28 H        7.6560     2.7910    -1.2930 H     1 <1>   0.1500 
 29 H       11.7090     0.6110    -1.5670 H     1 <1>   0.0800 
 30 H       11.8180     1.4050    -0.0310 H     1 <1>   0.0800 
 31 H       10.6250     0.2770     2.0250 H     1 <1>   0.0800 
 32 H        9.7930    -1.2190     1.7580 H     1 <1>   0.0800 
 33 H       10.8300    -1.7300    -1.7570 H     1 <1>   0.0800 
 34 H        9.2720    -1.1620    -1.2290 H     1 <1>   0.0800 
 35 H       10.0450    -2.4790    -0.3960 H     1 <1>   0.0800 
 36 H       12.7990    -0.5250     1.1600 H     1 <1>   0.0800 
 37 H       12.8910    -1.3650    -0.3650 H     1 <1>   0.0800 
 38 H       12.1020    -2.1150     0.9970 H     1 <1>   0.0800 
@<TRIPOS>BOND
  1   1   2  1   
  2   2   3  ar  
  3   2   4  ar  
  4   3   5  ar  
  5   3  21  1   
  6   4   6  ar  
  7   4  22  1   
  8   5   7  ar  
  9   5  23  1   
 10   6   7  ar  
 11   6  24  1   
 12   7   8  1   
 13   8   9  1   
 14   8  25  1   
 15   8  26  1   
 16   9  10  1   
 17   9  27  1   
 18  10  11  2   
 19  10  28  1   
 20  11  12  1   
 21  11  13  1   
 22  12  14  2   
 23  12  15  1   
 24  13  16  2   
 25  13  17  1   
 26  15  18  1   
 27  15  29  1   
 28  15  30  1   
 29  17  18  1   
 30  17  31  1   
 31  17  32  1   
 32  18  19  1   
 33  18  20  1   
 34  19  33  1   
 35  19  34  1   
 36  19  35  1   
 37  20  36  1   
 38  20  37  1   
 39  20  38  1   
@<TRIPOS>SUBSTRUCTURE
  1 ****   9 GROUP 4 **** **** 0

# MOE 2024.06 (io_trps.svl 2023.06)
