@<TRIPOS>MOLECULE
NONAME
37 38 1 0 0 
SMALL
USER_CHARGES


@<TRIPOS>ATOM
  1 CL       0.7040    -0.6820     1.9040 Cl    1 <1>  -0.1770 
  2 C       -0.2560    -1.9330     1.1490 C.ar  1 <1>   0.1770 
  3 C        0.2020    -2.6540     0.0420 C.ar  1 <1>   0.0860 
  4 C       -1.4990    -2.1650     1.7040 C.ar  1 <1>  -0.1500 
  5 C        1.5060    -2.4740    -0.5740 C.2   1 <1>   0.5440 
  6 C       -0.6760    -3.6060    -0.4850 C.ar  1 <1>  -0.1500 
  7 C       -2.3300    -3.1260     1.1580 C.ar  1 <1>  -0.1500 
  8 O        1.6420    -2.6760    -1.7640 O.2   1 <1>  -0.5700 
  9 N        2.6100    -2.1230     0.1490 N.am  1 <1>  -0.7300 
 10 C       -1.9340    -3.8610     0.0470 C.ar  1 <1>  -0.0090 
 11 C        3.9690    -1.9490    -0.3970 C.3   1 <1>   0.1400 
 12 S       -3.0210    -5.1370    -0.6540 S.o2  1 <1>   1.4470 
 13 C        4.9750    -2.3900     0.6590 C.3   1 <1>  -0.2400 
 14 O       -4.3990    -4.7440    -0.4540 O.2   1 <1>  -0.6500 
 15 O       -2.5730    -5.5140    -1.9770 O.2   1 <1>  -0.6500 
 16 N       -2.7420    -6.4620     0.3630 N.am  1 <1>  -0.8490 
 17 C       -3.7560    -7.4930     0.2340 C.3   1 <1>   0.1960 
 18 C       -1.4730    -7.1410     0.1530 C.3   1 <1>   0.1960 
 19 C       -3.1430    -8.7230     0.8960 C.3   1 <1>  -0.1600 
 20 C       -1.6350    -8.4680     0.8820 C.3   1 <1>  -0.1600 
 21 H       -1.8180    -1.5940     2.5590 H     1 <1>   0.1500 
 22 H       -0.3590    -4.1690    -1.3490 H     1 <1>   0.1500 
 23 H       -3.2990    -3.3100     1.5940 H     1 <1>   0.1500 
 24 H        2.4900    -1.8170     1.1170 H     1 <1>   0.3700 
 25 H        4.1220    -0.9130    -0.6510 H     1 <1>   0.0800 
 26 H        4.0860    -2.5420    -1.2900 H     1 <1>   0.0800 
 27 H        4.8860    -1.7830     1.5430 H     1 <1>   0.0800 
 28 H        5.9720    -2.2820     0.2720 H     1 <1>   0.0800 
 29 H        4.8190    -3.4240     0.9110 H     1 <1>   0.0800 
 30 H       -3.9430    -7.6940    -0.8100 H     1 <1>   0.0800 
 31 H       -4.6740    -7.1920     0.7110 H     1 <1>   0.0800 
 32 H       -0.6510    -6.5650     0.5440 H     1 <1>   0.0800 
 33 H       -1.3150    -7.3290    -0.8980 H     1 <1>   0.0800 
 34 H       -3.4080    -9.6140     0.3550 H     1 <1>   0.0800 
 35 H       -3.5000    -8.8070     1.9070 H     1 <1>   0.0800 
 36 H       -1.2660    -8.3730     1.8880 H     1 <1>   0.0800 
 37 H       -1.0950    -9.2520     0.3810 H     1 <1>   0.0800 
@<TRIPOS>BOND
  1   1   2  1   
  2   2   3  ar  
  3   2   4  ar  
  4   3   5  1   
  5   3   6  ar  
  6   4   7  ar  
  7   4  21  1   
  8   5   8  2   
  9   5   9  am  
 10   6  10  ar  
 11   6  22  1   
 12   7  10  ar  
 13   7  23  1   
 14   9  11  1   
 15   9  24  1   
 16  10  12  1   
 17  11  13  1   
 18  11  25  1   
 19  11  26  1   
 20  12  14  2   
 21  12  15  2   
 22  12  16  am  
 23  13  27  1   
 24  13  28  1   
 25  13  29  1   
 26  16  17  1   
 27  16  18  1   
 28  17  19  1   
 29  17  30  1   
 30  17  31  1   
 31  18  20  1   
 32  18  32  1   
 33  18  33  1   
 34  19  20  1   
 35  19  34  1   
 36  19  35  1   
 37  20  36  1   
 38  20  37  1   
@<TRIPOS>SUBSTRUCTURE
  1 ****   6 GROUP 4 **** **** 0

# MOE 2024.06 (io_trps.svl 2023.06)
