@<TRIPOS>MOLECULE
NONAME
42 43 1 0 0 
SMALL
USER_CHARGES


@<TRIPOS>ATOM
  1 O        2.4920    -0.1850    -1.8090 O.3   1 <1>  -0.3630 
  2 C        2.2680    -0.0220    -0.4780 C.ar  1 <1>   0.0830 
  3 C        2.7030     0.9420    -2.6370 C.3   1 <1>   0.0400 
  4 C        1.5280    -0.9960     0.1940 C.ar  1 <1>  -0.1440 
  5 C        2.7740     1.0720     0.2190 C.ar  1 <1>  -0.1500 
  6 C        1.3110    -0.8520     1.5590 C.ar  1 <1>  -0.1500 
  7 C        0.9630    -2.2140    -0.5470 C.3   1 <1>   0.2070 
  8 C        2.5480     1.1990     1.5760 C.ar  1 <1>  -0.1500 
  9 C        1.8170     0.2370     2.2460 C.ar  1 <1>  -0.1500 
 10 C       -0.4400    -2.5860    -0.0480 C.ar  1 <1>  -0.1440 
 11 C        1.9700    -3.3760    -0.4820 C.3   1 <1>  -0.1600 
 12 C       -1.4990    -1.7830    -0.4490 C.ar  1 <1>  -0.1500 
 13 C       -0.7080    -3.6710     0.7820 C.ar  1 <1>  -0.1500 
 14 C        3.3000    -2.9730    -1.1150 C.3   1 <1>   0.3430 
 15 C       -2.7920    -2.0600    -0.0450 C.ar  1 <1>  -0.1500 
 16 C       -2.0020    -3.9500     1.1890 C.ar  1 <1>  -0.1500 
 17 N        4.2510    -4.1050    -1.0420 N.4   1 <1>  -0.8530 
 18 C       -3.0560    -3.1430     0.7740 C.ar  1 <1>   0.0830 
 19 O       -4.3500    -3.3470     1.1240 O.3   1 <1>  -0.3620 
 20 C       -4.7250    -4.4170     1.9640 C.3   1 <1>   0.0400 
 21 H        2.6340     0.6270    -3.6630 H     1 <1>   0.0800 
 22 H        3.6820     1.3440    -2.4460 H     1 <1>   0.0800 
 23 H        1.9430     1.6760    -2.4310 H     1 <1>   0.0800 
 24 H        3.3510     1.8310    -0.2750 H     1 <1>   0.1500 
 25 H        0.7360    -1.5820     2.1040 H     1 <1>   0.1500 
 26 H        0.8340    -1.9590    -1.5850 H     1 <1>   0.0800 
 27 H        2.9390     2.0470     2.1130 H     1 <1>   0.1500 
 28 H        1.6350     0.3380     3.3030 H     1 <1>   0.1500 
 29 H        1.5530    -4.2190    -1.0030 H     1 <1>   0.0800 
 30 H        2.1340    -3.6330     0.5490 H     1 <1>   0.0800 
 31 H       -1.3240    -0.9290    -1.0800 H     1 <1>   0.1500 
 32 H        0.0740    -4.3170     1.1330 H     1 <1>   0.1500 
 33 H        3.7050    -2.1200    -0.5910 H     1 <1>   0.0800 
 34 H        3.1390    -2.6850    -2.1430 H     1 <1>   0.0800 
 35 H       -3.6080    -1.4340    -0.3600 H     1 <1>   0.1500 
 36 H       -2.1720    -4.7950     1.8280 H     1 <1>   0.1500 
 37 H        4.4250    -4.3640    -0.0640 H     1 <1>   0.4500 
 38 H        5.1500    -3.8480    -1.4660 H     1 <1>   0.4500 
 39 H        3.8850    -4.9260    -1.5360 H     1 <1>   0.4500 
 40 H       -5.7900    -4.3740     2.1030 H     1 <1>   0.0800 
 41 H       -4.2280    -4.3070     2.9110 H     1 <1>   0.0800 
 42 H       -4.4550    -5.3440     1.4900 H     1 <1>   0.0800 
@<TRIPOS>BOND
  1   1   2  1   
  2   1   3  1   
  3   2   4  ar  
  4   2   5  ar  
  5   3  21  1   
  6   3  22  1   
  7   3  23  1   
  8   4   6  ar  
  9   4   7  1   
 10   5   8  ar  
 11   5  24  1   
 12   6   9  ar  
 13   6  25  1   
 14   7  10  1   
 15   7  11  1   
 16   7  26  1   
 17   8   9  ar  
 18   8  27  1   
 19   9  28  1   
 20  10  12  ar  
 21  10  13  ar  
 22  11  14  1   
 23  11  29  1   
 24  11  30  1   
 25  12  15  ar  
 26  12  31  1   
 27  13  16  ar  
 28  13  32  1   
 29  14  17  1   
 30  14  33  1   
 31  14  34  1   
 32  15  18  ar  
 33  15  35  1   
 34  16  18  ar  
 35  16  36  1   
 36  17  37  1   
 37  17  38  1   
 38  17  39  1   
 39  18  19  1   
 40  19  20  1   
 41  20  40  1   
 42  20  41  1   
 43  20  42  1   
@<TRIPOS>SUBSTRUCTURE
  1 ****   7 GROUP 4 **** **** 0

# MOE 2024.06 (io_trps.svl 2023.06)
