@<TRIPOS>MOLECULE
NONAME
48 50 1 0 0 
SMALL
USER_CHARGES


@<TRIPOS>ATOM
  1 O        0.9810     1.1560     2.1810 O.2   1 <1>  -0.5700 
  2 C        1.4880     2.0420     1.5390 C.2   1 <1>   0.5690 
  3 N        0.8590     2.8750     0.6820 N.am  1 <1>  -0.6600 
  4 C        2.9550     2.3550     1.6110 C.3   1 <1>  -0.0990 
  5 C       -0.5810     2.7980     0.3360 C.3   1 <1>   0.2200 
  6 C        1.7880     3.8440     0.0660 C.3   1 <1>   0.1400 
  7 C        3.0520     3.7390     0.9380 C.3   1 <1>  -0.0190 
  8 C       -0.7670     2.6060    -1.1750 C.3   1 <1>  -0.1600 
  9 C       -1.3160     4.0480     0.8350 C.3   1 <1>  -0.1600 
 10 C        4.3460     3.9840     0.1710 C.2   1 <1>   0.5690 
 11 C       -2.2570     2.5430    -1.5400 C.3   1 <1>  -0.1600 
 12 C       -2.8080     3.9900     0.4700 C.3   1 <1>  -0.1600 
 13 O        4.2880     4.5040    -0.9150 O.2   1 <1>  -0.5700 
 14 N        5.5240     3.6320     0.7770 N.am  1 <1>  -0.5470 
 15 C       -3.0030     3.7880    -1.0390 C.3   1 <1>  -0.1600 
 16 C        6.8470     3.7100     0.3280 C.ar  1 <1>   0.1170 
 17 C        7.8770     3.6780     1.2620 C.ar  1 <1>  -0.1500 
 18 C        7.2010     3.8040    -1.0140 C.ar  1 <1>  -0.1500 
 19 C        9.2010     3.7430     0.8740 C.ar  1 <1>  -0.1500 
 20 C        8.5250     3.8700    -1.3990 C.ar  1 <1>  -0.1500 
 21 C        9.5700     3.8430    -0.4720 C.ar  1 <1>   0.0860 
 22 C       10.9460     3.9150    -0.9180 C.2   1 <1>   0.4230 
 23 O       11.2640     3.9520    -2.0800 O.2   1 <1>  -0.5700 
 24 C       12.0810     3.9480     0.0880 C.3   1 <1>  -0.1790 
 25 H        3.4860     1.6040     1.0530 H     1 <1>   0.0800 
 26 H        3.2890     2.3720     2.6310 H     1 <1>   0.0800 
 27 H       -1.0040     1.9410     0.8360 H     1 <1>   0.0800 
 28 H        1.3890     4.8430     0.0780 H     1 <1>   0.0800 
 29 H        1.9870     3.5430    -0.9490 H     1 <1>   0.0800 
 30 H        2.9740     4.4950     1.6970 H     1 <1>   0.0800 
 31 H       -0.2860     1.6920    -1.4780 H     1 <1>   0.0800 
 32 H       -0.3170     3.4240    -1.7070 H     1 <1>   0.0800 
 33 H       -0.8870     4.9270     0.3900 H     1 <1>   0.0800 
 34 H       -1.2130     4.1170     1.9030 H     1 <1>   0.0800 
 35 H       -2.6950     1.6640    -1.0990 H     1 <1>   0.0800 
 36 H       -2.3640     2.4640    -2.6090 H     1 <1>   0.0800 
 37 H       -3.2910     4.9000     0.7790 H     1 <1>   0.0800 
 38 H       -3.2710     3.1750     1.0010 H     1 <1>   0.0800 
 39 H        5.4250     3.2840     1.7280 H     1 <1>   0.3700 
 40 H       -4.0530     3.6900    -1.2560 H     1 <1>   0.0800 
 41 H       -2.6400     4.6560    -1.5640 H     1 <1>   0.0800 
 42 H        7.6390     3.6040     2.3080 H     1 <1>   0.1500 
 43 H        6.4390     3.8230    -1.7720 H     1 <1>   0.1500 
 44 H        9.9570     3.7160     1.6380 H     1 <1>   0.1500 
 45 H        8.7630     3.9440    -2.4480 H     1 <1>   0.1500 
 46 H       12.0960     3.0360     0.6560 H     1 <1>   0.0800 
 47 H       11.9660     4.7870     0.7470 H     1 <1>   0.0800 
 48 H       13.0210     4.0440    -0.4260 H     1 <1>   0.0800 
@<TRIPOS>BOND
  1   1   2  2   
  2   2   3  am  
  3   2   4  1   
  4   3   5  1   
  5   3   6  1   
  6   4   7  1   
  7   4  25  1   
  8   4  26  1   
  9   5   8  1   
 10   5   9  1   
 11   5  27  1   
 12   6   7  1   
 13   6  28  1   
 14   6  29  1   
 15   7  10  1   
 16   7  30  1   
 17   8  11  1   
 18   8  31  1   
 19   8  32  1   
 20   9  12  1   
 21   9  33  1   
 22   9  34  1   
 23  10  13  2   
 24  10  14  am  
 25  11  15  1   
 26  11  35  1   
 27  11  36  1   
 28  12  15  1   
 29  12  37  1   
 30  12  38  1   
 31  14  16  1   
 32  14  39  1   
 33  15  40  1   
 34  15  41  1   
 35  16  17  ar  
 36  16  18  ar  
 37  17  19  ar  
 38  17  42  1   
 39  18  20  ar  
 40  18  43  1   
 41  19  21  ar  
 42  19  44  1   
 43  20  21  ar  
 44  20  45  1   
 45  21  22  1   
 46  22  23  2   
 47  22  24  1   
 48  24  46  1   
 49  24  47  1   
 50  24  48  1   
@<TRIPOS>SUBSTRUCTURE
  1 ****  10 GROUP 4 **** **** 0

# MOE 2024.06 (io_trps.svl 2023.06)
