@<TRIPOS>MOLECULE
NONAME
45 46 1 0 0 
SMALL
USER_CHARGES


@<TRIPOS>ATOM
  1 O       -0.4240    -1.7090     1.2160 O.2   1 <1>  -0.5700 
  2 C       -1.0610    -2.1290     0.2670 C.2   1 <1>   0.5440 
  3 N       -0.3520    -2.7950    -0.7080 N.am  1 <1>  -0.6600 
  4 C       -2.5050    -1.9880     0.2100 C.ar  1 <1>   0.0860 
  5 C        1.0810    -2.4420    -0.9210 C.3   1 <1>   0.1400 
  6 C       -0.6490    -4.2330    -0.9620 C.3   1 <1>   0.1400 
  7 C       -3.2590    -1.7830     1.3680 C.ar  1 <1>  -0.1500 
  8 C       -3.2080    -2.0520    -0.9950 C.ar  1 <1>  -0.1500 
  9 C        1.9720    -3.3140    -0.0180 C.3   1 <1>   0.3430 
 10 C        0.2640    -5.1240    -0.0910 C.3   1 <1>   0.3430 
 11 C       -4.6350    -1.6720     1.3280 C.ar  1 <1>  -0.1500 
 12 C       -4.5840    -1.9430    -1.0370 C.ar  1 <1>  -0.1500 
 13 N        1.7310    -4.7880    -0.2430 N.4   1 <1>  -0.9590 
 14 C       -5.3260    -1.7600     0.1250 C.ar  1 <1>   0.1170 
 15 C        2.5840    -5.5860     0.6760 C.3   1 <1>   0.3430 
 16 N       -6.7190    -1.6460     0.1290 N.am  1 <1>  -0.5470 
 17 C        2.6310    -7.0360     0.2080 C.3   1 <1>  -0.2400 
 18 C       -7.6530    -2.1100    -0.7560 C.2   1 <1>   0.5690 
 19 O       -7.3840    -2.7640    -1.7330 O.2   1 <1>  -0.5700 
 20 C       -9.1090    -1.7850    -0.4750 C.3   1 <1>  -0.0990 
 21 C       -9.6530    -2.5040     0.7710 C.3   1 <1>  -0.2400 
 22 H        1.2370    -1.4030    -0.6790 H     1 <1>   0.0800 
 23 H        1.3420    -2.5810    -1.9550 H     1 <1>   0.0800 
 24 H       -0.4990    -4.4540    -2.0050 H     1 <1>   0.0800 
 25 H       -1.6780    -4.4460    -0.7260 H     1 <1>   0.0800 
 26 H       -2.7500    -1.7080     2.3140 H     1 <1>   0.1500 
 27 H       -2.6700    -2.1820    -1.9170 H     1 <1>   0.1500 
 28 H        1.7540    -3.0610     1.0070 H     1 <1>   0.0800 
 29 H        3.0060    -3.0760    -0.2050 H     1 <1>   0.0800 
 30 H        0.0940    -6.1560    -0.3500 H     1 <1>   0.0800 
 31 H       -0.0260    -4.9930     0.9390 H     1 <1>   0.0800 
 32 H       -5.1790    -1.5190     2.2420 H     1 <1>   0.1500 
 33 H       -5.0870    -1.9960    -1.9870 H     1 <1>   0.1500 
 34 H        2.0120    -5.0070    -1.2070 H     1 <1>   0.4500 
 35 H        2.2000    -5.5320     1.6830 H     1 <1>   0.0800 
 36 H        3.5870    -5.1890     0.6770 H     1 <1>   0.0800 
 37 H       -7.1120    -1.1900     0.9500 H     1 <1>   0.3700 
 38 H        1.6680    -7.5080     0.2820 H     1 <1>   0.0800 
 39 H        3.3090    -7.5850     0.8380 H     1 <1>   0.0800 
 40 H        2.9940    -7.1020    -0.8030 H     1 <1>   0.0800 
 41 H       -9.6930    -2.0760    -1.3310 H     1 <1>   0.0800 
 42 H       -9.2120    -0.7220    -0.3590 H     1 <1>   0.0800 
 43 H       -9.5570    -3.5700     0.6510 H     1 <1>   0.0800 
 44 H      -10.6940    -2.2690     0.9060 H     1 <1>   0.0800 
 45 H       -9.1170    -2.2060     1.6540 H     1 <1>   0.0800 
@<TRIPOS>BOND
  1   1   2  2   
  2   2   3  am  
  3   2   4  1   
  4   3   5  1   
  5   3   6  1   
  6   4   7  ar  
  7   4   8  ar  
  8   5   9  1   
  9   5  22  1   
 10   5  23  1   
 11   6  10  1   
 12   6  24  1   
 13   6  25  1   
 14   7  11  ar  
 15   7  26  1   
 16   8  12  ar  
 17   8  27  1   
 18   9  13  1   
 19   9  28  1   
 20   9  29  1   
 21  10  13  1   
 22  10  30  1   
 23  10  31  1   
 24  11  14  ar  
 25  11  32  1   
 26  12  14  ar  
 27  12  33  1   
 28  13  15  1   
 29  13  34  1   
 30  14  16  1   
 31  15  17  1   
 32  15  35  1   
 33  15  36  1   
 34  16  18  am  
 35  16  37  1   
 36  17  38  1   
 37  17  39  1   
 38  17  40  1   
 39  18  19  2   
 40  18  20  1   
 41  20  21  1   
 42  20  41  1   
 43  20  42  1   
 44  21  43  1   
 45  21  44  1   
 46  21  45  1   
@<TRIPOS>SUBSTRUCTURE
  1 ****   4 GROUP 4 **** **** 0

# MOE 2024.06 (io_trps.svl 2023.06)
