@<TRIPOS>MOLECULE
NONAME
43 47 1 0 0 
SMALL
USER_CHARGES


@<TRIPOS>ATOM
  1 O       -0.2380     1.4770    -2.4040 O.2   1 <1>  -0.5700 
  2 C        0.1880     1.9520    -1.3870 C.2   1 <1>   0.5690 
  3 N       -0.4770     2.8280    -0.5610 N.am  1 <1>  -0.4200 
  4 C        1.5780     1.7990    -0.8360 C.3   1 <1>  -0.0190 
  5 C        0.2300     3.0280     0.5990 C.2   1 <1>   0.5690 
  6 C       -1.8130     3.4020    -0.8330 C.3   1 <1>   0.1400 
  7 C        2.7290     0.7750    -1.0210 C.3   1 <1>   0.2070 
  8 C        1.2820     1.9580     0.6660 C.3   1 <1>  -0.0190 
  9 O       -0.0040     3.8780     1.4160 O.2   1 <1>  -0.5700 
 10 C       -1.7450     4.9400    -0.8270 C.3   1 <1>   0.3430 
 11 C        2.7150    -0.2890     0.0910 C.ar  1 <1>  -0.1440 
 12 C        3.9250     1.6570    -0.6210 C.ar  1 <1>  -0.1440 
 13 C        2.5960     1.7530     1.4640 C.3   1 <1>   0.2070 
 14 N       -3.0860     5.5640    -1.0370 N.4   1 <1>  -0.8530 
 15 C        2.7090     0.2210     1.3900 C.ar  1 <1>  -0.1440 
 16 C        2.7450    -1.6560    -0.1180 C.ar  1 <1>  -0.1500 
 17 C        3.8210     2.2160     0.6550 C.ar  1 <1>  -0.1440 
 18 C        5.0100     1.9530    -1.4260 C.ar  1 <1>  -0.1500 
 19 C        2.7490    -0.6350     2.4770 C.ar  1 <1>  -0.1500 
 20 C        2.7770    -2.5110     0.9720 C.ar  1 <1>  -0.1500 
 21 C        4.7960     3.0820     1.1140 C.ar  1 <1>  -0.1500 
 22 C        5.9860     2.8180    -0.9590 C.ar  1 <1>  -0.1500 
 23 C        2.7830    -2.0030     2.2620 C.ar  1 <1>  -0.1500 
 24 C        5.8780     3.3820     0.3020 C.ar  1 <1>  -0.1500 
 25 H        2.0000     2.7270    -1.1900 H     1 <1>   0.0800 
 26 H       -2.4870     3.0590    -0.0670 H     1 <1>   0.0800 
 27 H       -2.1590     3.0490    -1.7900 H     1 <1>   0.0800 
 28 H        2.8100     0.3840    -2.0190 H     1 <1>   0.0800 
 29 H        0.6620     1.1280     0.9700 H     1 <1>   0.0800 
 30 H       -1.0720     5.2610    -1.6060 H     1 <1>   0.0800 
 31 H       -1.3460     5.2690     0.1200 H     1 <1>   0.0800 
 32 H        2.5570     2.1230     2.4740 H     1 <1>   0.0800 
 33 H       -3.5000     5.2880    -1.9360 H     1 <1>   0.4500 
 34 H       -3.0070     6.5890    -1.0340 H     1 <1>   0.4500 
 35 H       -3.7380     5.3080    -0.2850 H     1 <1>   0.4500 
 36 H        2.7530    -2.0570    -1.1160 H     1 <1>   0.1500 
 37 H        5.0980     1.5220    -2.4080 H     1 <1>   0.1500 
 38 H        2.7490    -0.2480     3.4810 H     1 <1>   0.1500 
 39 H        2.8020    -3.5750     0.8160 H     1 <1>   0.1500 
 40 H        4.7250     3.5150     2.0970 H     1 <1>   0.1500 
 41 H        6.8340     3.0530    -1.5790 H     1 <1>   0.1500 
 42 H        2.8140    -2.6760     3.1010 H     1 <1>   0.1500 
 43 H        6.6420     4.0530     0.6550 H     1 <1>   0.1500 
@<TRIPOS>BOND
  1   1   2  2   
  2   2   3  am  
  3   2   4  1   
  4   3   5  am  
  5   3   6  1   
  6   4   7  1   
  7   4   8  1   
  8   4  25  1   
  9   5   8  1   
 10   5   9  2   
 11   6  10  1   
 12   6  26  1   
 13   6  27  1   
 14   7  11  1   
 15   7  12  1   
 16   7  28  1   
 17   8  13  1   
 18   8  29  1   
 19  10  14  1   
 20  10  30  1   
 21  10  31  1   
 22  11  15  ar  
 23  11  16  ar  
 24  12  17  ar  
 25  12  18  ar  
 26  13  15  1   
 27  13  17  1   
 28  13  32  1   
 29  14  33  1   
 30  14  34  1   
 31  14  35  1   
 32  15  19  ar  
 33  16  20  ar  
 34  16  36  1   
 35  17  21  ar  
 36  18  22  ar  
 37  18  37  1   
 38  19  23  ar  
 39  19  38  1   
 40  20  23  ar  
 41  20  39  1   
 42  21  24  ar  
 43  21  40  1   
 44  22  24  ar  
 45  22  41  1   
 46  23  42  1   
 47  24  43  1   
@<TRIPOS>SUBSTRUCTURE
  1 ****   8 GROUP 4 **** **** 0

# MOE 2024.06 (io_trps.svl 2023.06)
