@<TRIPOS>MOLECULE
NONAME
58 60 1 0 0 
SMALL
USER_CHARGES


@<TRIPOS>ATOM
  1 O       -0.1170     0.0180    -0.7860 O.2   1 <1>  -0.5700 
  2 C        0.1460    -0.9970    -0.1850 C.2   1 <1>   0.5690 
  3 N        1.1870    -1.0680     0.6930 N.am  1 <1>  -0.7300 
  4 C       -0.7320    -2.2460    -0.4260 C.3   1 <1>   0.0610 
  5 C        2.1470    -0.0330     1.0830 C.3   1 <1>   0.3000 
  6 C       -0.2780    -3.4710     0.4100 C.3   1 <1>  -0.1600 
  7 C       -2.2020    -1.9360    -0.0540 C.3   1 <1>  -0.1600 
  8 C       -0.6780    -2.6460    -1.9200 C.3   1 <1>  -0.1600 
  9 C        2.9440     0.4210    -0.1400 C.3   1 <1>  -0.2400 
 10 C        3.0880    -0.6780     2.0980 C.3   1 <1>  -0.2400 
 11 C        1.4100     1.1360     1.7370 C.3   1 <1>  -0.2400 
 12 C       -1.1660    -4.7180     0.1600 C.3   1 <1>   0.0610 
 13 C       -3.1080    -3.1510    -0.3240 C.3   1 <1>  -0.0800 
 14 C       -1.5770    -3.8640    -2.1990 C.3   1 <1>  -0.0800 
 15 C       -0.6950    -5.9240     1.0030 C.2   1 <1>   0.5690 
 16 C       -2.6250    -4.3430     0.5200 C.3   1 <1>  -0.1600 
 17 C       -1.0980    -5.0550    -1.3500 C.3   1 <1>  -0.1600 
 18 C       -3.0280    -3.5190    -1.8160 C.3   1 <1>  -0.1600 
 19 O        0.2590    -5.8060     1.7370 O.2   1 <1>  -0.5700 
 20 N       -1.3830    -7.0960     0.8870 N.am  1 <1>  -0.7300 
 21 C       -1.1540    -8.3760     1.5620 C.3   1 <1>   0.3000 
 22 C       -1.3040    -8.1980     3.0720 C.3   1 <1>  -0.2400 
 23 C       -2.2270    -9.3330     1.0490 C.3   1 <1>  -0.2400 
 24 C        0.2300    -8.9130     1.1950 C.3   1 <1>  -0.2400 
 25 H        1.3480    -1.9570     1.1630 H     1 <1>   0.3700 
 26 H        0.7410    -3.7170     0.1650 H     1 <1>   0.0800 
 27 H       -0.3150    -3.2260     1.4580 H     1 <1>   0.0800 
 28 H       -2.5500    -1.0960    -0.6300 H     1 <1>   0.0800 
 29 H       -2.2620    -1.6590     0.9840 H     1 <1>   0.0800 
 30 H        0.3370    -2.8700    -2.1990 H     1 <1>   0.0800 
 31 H       -1.0020    -1.8170    -2.5270 H     1 <1>   0.0800 
 32 H        3.4180    -0.4190    -0.6130 H     1 <1>   0.0800 
 33 H        3.7020     1.1240     0.1520 H     1 <1>   0.0800 
 34 H        2.3000     0.9050    -0.8520 H     1 <1>   0.0800 
 35 H        3.6060    -1.5120     1.6580 H     1 <1>   0.0800 
 36 H        2.5420    -1.0160     2.9600 H     1 <1>   0.0800 
 37 H        3.8220     0.0360     2.4260 H     1 <1>   0.0800 
 38 H        0.7650     1.6210     1.0280 H     1 <1>   0.0800 
 39 H        2.1140     1.8640     2.0960 H     1 <1>   0.0800 
 40 H        0.8200     0.7920     2.5670 H     1 <1>   0.0800 
 41 H       -4.1240    -2.9080    -0.0640 H     1 <1>   0.0800 
 42 H       -1.5280    -4.1180    -3.2440 H     1 <1>   0.0800 
 43 H       -2.6850    -4.0950     1.5660 H     1 <1>   0.0800 
 44 H       -3.2780    -5.1800     0.3500 H     1 <1>   0.0800 
 45 H       -1.7110    -5.9100    -1.5690 H     1 <1>   0.0800 
 46 H       -0.0860    -5.3060    -1.6180 H     1 <1>   0.0800 
 47 H       -3.3730    -2.6920    -2.4130 H     1 <1>   0.0800 
 48 H       -3.6700    -4.3570    -2.0220 H     1 <1>   0.0800 
 49 H       -2.1750    -7.1180     0.2490 H     1 <1>   0.3700 
 50 H       -2.2640    -7.7780     3.3090 H     1 <1>   0.0800 
 51 H       -0.5360    -7.5520     3.4560 H     1 <1>   0.0800 
 52 H       -1.2140    -9.1480     3.5680 H     1 <1>   0.0800 
 53 H       -2.1110   -10.2970     1.5110 H     1 <1>   0.0800 
 54 H       -2.1440    -9.4620    -0.0160 H     1 <1>   0.0800 
 55 H       -3.2090    -8.9660     1.2880 H     1 <1>   0.0800 
 56 H        0.3740    -9.8870     1.6230 H     1 <1>   0.0800 
 57 H        1.0000    -8.2670     1.5760 H     1 <1>   0.0800 
 58 H        0.3350    -8.9880     0.1280 H     1 <1>   0.0800 
@<TRIPOS>BOND
  1   1   2  2   
  2   2   3  am  
  3   2   4  1   
  4   3   5  1   
  5   3  25  1   
  6   4   6  1   
  7   4   7  1   
  8   4   8  1   
  9   5   9  1   
 10   5  10  1   
 11   5  11  1   
 12   6  12  1   
 13   6  26  1   
 14   6  27  1   
 15   7  13  1   
 16   7  28  1   
 17   7  29  1   
 18   8  14  1   
 19   8  30  1   
 20   8  31  1   
 21   9  32  1   
 22   9  33  1   
 23   9  34  1   
 24  10  35  1   
 25  10  36  1   
 26  10  37  1   
 27  11  38  1   
 28  11  39  1   
 29  11  40  1   
 30  12  15  1   
 31  12  16  1   
 32  12  17  1   
 33  13  16  1   
 34  13  18  1   
 35  13  41  1   
 36  14  17  1   
 37  14  18  1   
 38  14  42  1   
 39  15  19  2   
 40  15  20  am  
 41  16  43  1   
 42  16  44  1   
 43  17  45  1   
 44  17  46  1   
 45  18  47  1   
 46  18  48  1   
 47  20  21  1   
 48  20  49  1   
 49  21  22  1   
 50  21  23  1   
 51  21  24  1   
 52  22  50  1   
 53  22  51  1   
 54  22  52  1   
 55  23  53  1   
 56  23  54  1   
 57  23  55  1   
 58  24  56  1   
 59  24  57  1   
 60  24  58  1   
@<TRIPOS>SUBSTRUCTURE
  1 ****   6 GROUP 4 **** **** 0

# MOE 2024.06 (io_trps.svl 2023.06)
