@<TRIPOS>MOLECULE
NONAME
41 42 1 0 0 
SMALL
USER_CHARGES


@<TRIPOS>ATOM
  1 BR       0.1940    -0.1620     0.1100 Br    1 <1>  -0.1110 
  2 C        1.1190     1.5320     0.0160 C.ar  1 <1>   0.1110 
  3 C        0.3980     2.7130     0.1080 C.ar  1 <1>   0.0830 
  4 C        2.4870     1.4930    -0.1470 C.ar  1 <1>  -0.1500 
  5 O       -0.9550     2.6030     0.2590 O.3   1 <1>  -0.3630 
  6 C        1.1180     3.9170     0.0460 C.ar  1 <1>   0.0830 
  7 C        3.2160     2.6780    -0.2280 C.ar  1 <1>   0.0540 
  8 C       -1.8360     3.5530    -0.2990 C.3   1 <1>   0.0400 
  9 O        0.4570     5.1040     0.1740 O.3   1 <1>  -0.3630 
 10 C        2.5010     3.8750    -0.1280 C.ar  1 <1>  -0.1500 
 11 C        4.6590     2.6600    -0.4070 C.2   1 <1>   0.4620 
 12 C        1.1310     6.3290     0.3500 C.3   1 <1>   0.1200 
 13 N        5.3890     1.6070    -0.5130 N.2   1 <1>  -0.4100 
 14 N        5.3910     3.7760    -0.4800 N.2   1 <1>  -0.5650 
 15 C        0.0830     7.4090     0.5980 C.3   1 <1>  -0.2400 
 16 O        6.6180     1.9870    -0.6620 O.3   1 <1>  -0.0190 
 17 C        6.5530     3.2920    -0.6320 C.2   1 <1>   0.2980 
 18 C        7.8340     4.0890    -0.7750 C.3   1 <1>   0.0200 
 19 C        8.7370     3.9180     0.4550 C.3   1 <1>  -0.0990 
 20 C       10.0310     4.6820     0.2840 C.2   1 <1>   0.5690 
 21 O        9.9800     5.8760     0.1310 O.2   1 <1>  -0.5700 
 22 N       11.2030     3.9970     0.3010 N.am  1 <1>  -0.7300 
 23 C       12.5470     4.6100     0.1480 C.3   1 <1>   0.0600 
 24 H        2.9840     0.5410    -0.2140 H     1 <1>   0.1500 
 25 H       -2.8050     3.0970    -0.3900 H     1 <1>   0.0800 
 26 H       -1.4720     3.8450    -1.2680 H     1 <1>   0.0800 
 27 H       -1.8950     4.4010     0.3600 H     1 <1>   0.0800 
 28 H        3.0630     4.7860    -0.1910 H     1 <1>   0.1500 
 29 H        1.6920     6.5440    -0.5430 H     1 <1>   0.0800 
 30 H        1.7900     6.2380     1.1970 H     1 <1>   0.0800 
 31 H       -0.5790     7.4820    -0.2460 H     1 <1>   0.0800 
 32 H        0.5650     8.3590     0.7390 H     1 <1>   0.0800 
 33 H       -0.4840     7.1770     1.4820 H     1 <1>   0.0800 
 34 H        7.5870     5.1300    -0.8970 H     1 <1>   0.0800 
 35 H        8.3510     3.7650    -1.6600 H     1 <1>   0.0800 
 36 H        8.9470     2.8770     0.6140 H     1 <1>   0.0800 
 37 H        8.2320     4.2970     1.3250 H     1 <1>   0.0800 
 38 H       11.1940     2.9860     0.4490 H     1 <1>   0.3700 
 39 H       12.4610     5.6740     0.0030 H     1 <1>   0.0800 
 40 H       13.0470     4.1840    -0.7050 H     1 <1>   0.0800 
 41 H       13.1340     4.4280     1.0320 H     1 <1>   0.0800 
@<TRIPOS>BOND
  1   1   2  1   
  2   2   3  ar  
  3   2   4  ar  
  4   3   5  1   
  5   3   6  ar  
  6   4   7  ar  
  7   4  24  1   
  8   5   8  1   
  9   6   9  1   
 10   6  10  ar  
 11   7  10  ar  
 12   7  11  1   
 13   8  25  1   
 14   8  26  1   
 15   8  27  1   
 16   9  12  1   
 17  10  28  1   
 18  11  13  2   
 19  11  14  1   
 20  12  15  1   
 21  12  29  1   
 22  12  30  1   
 23  13  16  1   
 24  14  17  2   
 25  15  31  1   
 26  15  32  1   
 27  15  33  1   
 28  16  17  1   
 29  17  18  1   
 30  18  19  1   
 31  18  34  1   
 32  18  35  1   
 33  19  20  1   
 34  19  36  1   
 35  19  37  1   
 36  20  21  2   
 37  20  22  am  
 38  22  23  1   
 39  22  38  1   
 40  23  39  1   
 41  23  40  1   
 42  23  41  1   
@<TRIPOS>SUBSTRUCTURE
  1 ****  11 GROUP 4 **** **** 0

# MOE 2024.06 (io_trps.svl 2023.06)
