@<TRIPOS>MOLECULE
NONAME
49 50 1 0 0 
SMALL
USER_CHARGES


@<TRIPOS>ATOM
  1 O        0.5390     1.3310    -1.0160 O.2   1 <1>  -0.5700 
  2 C        1.7170     1.2910    -0.7260 C.2   1 <1>   0.7060 
  3 O        2.2990     0.1500    -0.3770 O.3   1 <1>  -0.4300 
  4 C        2.6430     2.3440    -0.6970 C.2   1 <1>  -0.1360 
  5 C        3.6710     0.3700    -0.0780 C.3   1 <1>   0.4180 
  6 C        3.8450     1.8780    -0.3210 C.2   1 <1>  -0.0380 
  7 C        3.8950     0.0000     1.4010 C.3   1 <1>  -0.1600 
  8 C        4.5040    -0.4880    -1.0560 C.3   1 <1>  -0.1600 
  9 N        5.0680     2.5080    -0.1520 N.pl3 1 <1>  -0.8690 
 10 C        4.0800    -1.5130     1.5790 C.3   1 <1>  -0.1600 
 11 C        5.7210    -1.1420    -0.3820 C.3   1 <1>  -0.1600 
 12 C        5.4800     3.9150    -0.3200 C.3   1 <1>   0.3690 
 13 C        5.3050    -2.0350     0.8030 C.3   1 <1>  -0.1600 
 14 C        6.9950     3.9230     0.0230 C.3   1 <1>  -0.1600 
 15 C        4.6360     4.7620     0.6310 C.3   1 <1>  -0.2400 
 16 C        5.2160     4.2860    -1.7840 C.3   1 <1>  -0.2400 
 17 C        7.8300     5.2140     0.2790 C.3   1 <1>   0.0000 
 18 C        9.3150     4.8110     0.2370 C.3   1 <1>  -0.2400 
 19 C        7.6230     6.3080    -0.7760 C.3   1 <1>  -0.2400 
 20 C        7.5730     5.8070     1.6760 C.3   1 <1>  -0.2400 
 21 H        2.3500     3.3400    -0.9550 H     1 <1>   0.1500 
 22 H        3.0670     0.3530     1.9910 H     1 <1>   0.0800 
 23 H        4.7780     0.4960     1.7610 H     1 <1>   0.0800 
 24 H        4.8360     0.1220    -1.8780 H     1 <1>   0.0800 
 25 H        3.8840    -1.2710    -1.4570 H     1 <1>   0.0800 
 26 H        5.8670     1.9300     0.1280 H     1 <1>   0.4000 
 27 H        3.1950    -2.0100     1.2180 H     1 <1>   0.0800 
 28 H        4.1830    -1.7540     2.6240 H     1 <1>   0.0800 
 29 H        6.3790    -0.3670    -0.0280 H     1 <1>   0.0800 
 30 H        6.2690    -1.7270    -1.1000 H     1 <1>   0.0800 
 31 H        5.0820    -3.0240     0.4410 H     1 <1>   0.0800 
 32 H        6.1430    -2.1230     1.4730 H     1 <1>   0.0800 
 33 H        7.4760     3.3890    -0.7770 H     1 <1>   0.0800 
 34 H        7.1210     3.3170     0.9030 H     1 <1>   0.0800 
 35 H        3.5890     4.6170     0.4560 H     1 <1>   0.0800 
 36 H        4.8400     5.8040     0.4830 H     1 <1>   0.0800 
 37 H        4.8530     4.5010     1.6500 H     1 <1>   0.0800 
 38 H        4.1830     4.1510    -2.0340 H     1 <1>   0.0800 
 39 H        5.8090     3.6720    -2.4360 H     1 <1>   0.0800 
 40 H        5.4520     5.3120    -1.9750 H     1 <1>   0.0800 
 41 H        9.5790     4.4260    -0.7320 H     1 <1>   0.0800 
 42 H        9.5240     4.0530     0.9720 H     1 <1>   0.0800 
 43 H        9.9480     5.6570     0.4400 H     1 <1>   0.0800 
 44 H        7.7730     5.9130    -1.7650 H     1 <1>   0.0800 
 45 H        8.3240     7.1110    -0.6280 H     1 <1>   0.0800 
 46 H        6.6370     6.7280    -0.7100 H     1 <1>   0.0800 
 47 H        7.6790     5.0520     2.4350 H     1 <1>   0.0800 
 48 H        6.5940     6.2360     1.7580 H     1 <1>   0.0800 
 49 H        8.2800     6.5900     1.8860 H     1 <1>   0.0800 
@<TRIPOS>BOND
  1   1   2  2   
  2   2   3  1   
  3   2   4  1   
  4   3   5  1   
  5   4   6  2   
  6   4  21  1   
  7   5   6  1   
  8   5   7  1   
  9   5   8  1   
 10   6   9  1   
 11   7  10  1   
 12   7  22  1   
 13   7  23  1   
 14   8  11  1   
 15   8  24  1   
 16   8  25  1   
 17   9  12  1   
 18   9  26  1   
 19  10  13  1   
 20  10  27  1   
 21  10  28  1   
 22  11  13  1   
 23  11  29  1   
 24  11  30  1   
 25  12  14  1   
 26  12  15  1   
 27  12  16  1   
 28  13  31  1   
 29  13  32  1   
 30  14  17  1   
 31  14  33  1   
 32  14  34  1   
 33  15  35  1   
 34  15  36  1   
 35  15  37  1   
 36  16  38  1   
 37  16  39  1   
 38  16  40  1   
 39  17  18  1   
 40  17  19  1   
 41  17  20  1   
 42  18  41  1   
 43  18  42  1   
 44  18  43  1   
 45  19  44  1   
 46  19  45  1   
 47  19  46  1   
 48  20  47  1   
 49  20  48  1   
 50  20  49  1   
@<TRIPOS>SUBSTRUCTURE
  1 ****   9 GROUP 4 **** **** 0

# MOE 2024.06 (io_trps.svl 2023.06)
