@<TRIPOS>MOLECULE
NONAME
37 38 1 0 0 
SMALL
USER_CHARGES


@<TRIPOS>ATOM
  1 CL      -2.3320     0.9150     3.3360 Cl    1 <1>  -0.1770 
  2 C       -2.6880     1.4030     1.7020 C.ar  1 <1>   0.1770 
  3 C       -3.6770     0.7350     1.0050 C.ar  1 <1>  -0.1500 
  4 C       -1.9860     2.4470     1.1320 C.ar  1 <1>  -0.1500 
  5 C       -3.9850     1.1250    -0.2920 C.ar  1 <1>  -0.1440 
  6 C       -2.2800     2.8260    -0.1660 C.ar  1 <1>  -0.1500 
  7 C       -3.2720     2.1670    -0.8750 C.ar  1 <1>  -0.1500 
  8 C       -5.0890     0.4240    -1.0600 C.3   1 <1>   0.4870 
  9 N       -6.3980     0.8320    -0.4560 N.4   1 <1>  -0.9590 
 10 C       -7.5030    -0.0790    -0.9350 C.3   1 <1>   0.3430 
 11 C       -6.6710     2.2680    -0.7590 C.3   1 <1>   0.3430 
 12 C       -8.8650     0.0310    -0.1830 C.3   1 <1>   0.3430 
 13 C       -7.4290     2.9580     0.3760 C.3   1 <1>  -0.1600 
 14 N       -9.3940     1.4270     0.0710 N.4   1 <1>  -0.9590 
 15 C       -8.5650     2.1870     1.0520 C.3   1 <1>   0.3430 
 16 C      -10.7980     1.3290     0.6000 C.3   1 <1>   0.2630 
 17 H       -4.1770    -0.0810     1.4950 H     1 <1>   0.1500 
 18 H       -1.2190     2.9490     1.6960 H     1 <1>   0.1500 
 19 H       -1.7300     3.6340    -0.6230 H     1 <1>   0.1500 
 20 H       -3.4710     2.4820    -1.8870 H     1 <1>   0.1500 
 21 H       -4.9490    -0.6420    -0.9760 H     1 <1>   0.0800 
 22 H       -5.0470     0.6930    -2.1040 H     1 <1>   0.0800 
 23 H       -6.2380     0.7370     0.5570 H     1 <1>   0.4500 
 24 H       -7.1730    -1.1030    -0.8570 H     1 <1>   0.0800 
 25 H       -7.6810     0.1070    -1.9820 H     1 <1>   0.0800 
 26 H       -7.2330     2.3440    -1.6760 H     1 <1>   0.0800 
 27 H       -5.7440     2.8010    -0.9080 H     1 <1>   0.0800 
 28 H       -8.7680    -0.4800     0.7610 H     1 <1>   0.0800 
 29 H       -9.5950    -0.5200    -0.7540 H     1 <1>   0.0800 
 30 H       -7.8240     3.8840    -0.0040 H     1 <1>   0.0800 
 31 H       -6.7190     3.2360     1.1370 H     1 <1>   0.0800 
 32 H       -9.4610     1.9630    -0.8090 H     1 <1>   0.4500 
 33 H       -9.1830     2.8980     1.5800 H     1 <1>   0.0800 
 34 H       -8.1620     1.5080     1.7860 H     1 <1>   0.0800 
 35 H      -10.8160     0.7930     1.5360 H     1 <1>   0.0800 
 36 H      -11.4330     0.8130    -0.1030 H     1 <1>   0.0800 
 37 H      -11.2090     2.3130     0.7640 H     1 <1>   0.0800 
@<TRIPOS>BOND
  1   1   2  1   
  2   2   3  ar  
  3   2   4  ar  
  4   3   5  ar  
  5   3  17  1   
  6   4   6  ar  
  7   4  18  1   
  8   5   7  ar  
  9   5   8  1   
 10   6   7  ar  
 11   6  19  1   
 12   7  20  1   
 13   8   9  1   
 14   8  21  1   
 15   8  22  1   
 16   9  10  1   
 17   9  11  1   
 18   9  23  1   
 19  10  12  1   
 20  10  24  1   
 21  10  25  1   
 22  11  13  1   
 23  11  26  1   
 24  11  27  1   
 25  12  14  1   
 26  12  28  1   
 27  12  29  1   
 28  13  15  1   
 29  13  30  1   
 30  13  31  1   
 31  14  15  1   
 32  14  16  1   
 33  14  32  1   
 34  15  33  1   
 35  15  34  1   
 36  16  35  1   
 37  16  36  1   
 38  16  37  1   
@<TRIPOS>SUBSTRUCTURE
  1 ****   9 GROUP 4 **** **** 0

# MOE 2024.06 (io_trps.svl 2023.06)
