@<TRIPOS>MOLECULE
NONAME
51 53 1 0 0 
SMALL
USER_CHARGES


@<TRIPOS>ATOM
  1 O       -7.3120    -0.5670     0.3710 O.3   1 <1>  -0.3630 
  2 C       -8.3480     0.2990     0.5040 C.ar  1 <1>   0.0830 
  3 C       -7.5260    -1.7030    -0.4590 C.3   1 <1>   0.2000 
  4 C       -9.6380    -0.0550     0.1040 C.ar  1 <1>   0.0830 
  5 C       -8.1100     1.5530     1.0400 C.ar  1 <1>  -0.1500 
  6 C       -8.9220    -2.2870    -0.1930 C.3   1 <1>   0.1200 
  7 C       -6.4040    -2.7200    -0.2100 C.3   1 <1>   0.1200 
  8 O       -9.9060    -1.2910    -0.3900 O.3   1 <1>  -0.3630 
  9 C      -10.6710     0.8590     0.2160 C.ar  1 <1>  -0.1500 
 10 C       -9.1490     2.4630     1.1570 C.ar  1 <1>  -0.1500 
 11 O       -5.1760    -2.0810    -0.3930 O.3   1 <1>  -0.5600 
 12 C      -10.4250     2.1180     0.7410 C.ar  1 <1>  -0.1500 
 13 C       -4.0490    -2.7900     0.0080 C.3   1 <1>   0.1200 
 14 C       -2.8870    -1.7900     0.0400 C.3   1 <1>   0.2000 
 15 O       -1.7420    -2.3980     0.5390 O.3   1 <1>  -0.6800 
 16 C       -3.2160    -0.5430     0.8920 C.3   1 <1>   0.3430 
 17 N       -3.2720     0.7250     0.0920 N.4   1 <1>  -0.9590 
 18 C       -3.2460     1.9280     0.9660 C.3   1 <1>   0.3430 
 19 C       -4.4690     0.7410    -0.8150 C.3   1 <1>   0.3430 
 20 C       -2.9610     3.1770     0.1090 C.3   1 <1>  -0.0800 
 21 C       -4.8100     2.1580    -1.3020 C.3   1 <1>  -0.1600 
 22 C       -3.5920     3.0940    -1.2990 C.3   1 <1>  -0.1600 
 23 C       -1.4520     3.4400    -0.0030 C.3   1 <1>  -0.2400 
 24 H       -7.4790    -1.3750    -1.4830 H     1 <1>   0.0800 
 25 H       -7.1220     1.8160     1.3660 H     1 <1>   0.1500 
 26 H       -9.0020    -2.6380     0.8210 H     1 <1>   0.0800 
 27 H       -9.1370    -3.0970    -0.8670 H     1 <1>   0.0800 
 28 H       -6.4720    -3.5410    -0.9030 H     1 <1>   0.0800 
 29 H       -6.4670    -3.0920     0.7990 H     1 <1>   0.0800 
 30 H      -11.6590     0.5820    -0.1030 H     1 <1>   0.1500 
 31 H       -8.9690     3.4400     1.5720 H     1 <1>   0.1500 
 32 H      -11.2300     2.8270     0.8290 H     1 <1>   0.1500 
 33 H       -3.8650    -3.5760    -0.7060 H     1 <1>   0.0800 
 34 H       -4.2260    -3.1990     0.9880 H     1 <1>   0.0800 
 35 H       -2.6550    -1.4950    -0.9680 H     1 <1>   0.0800 
 36 H       -1.9270    -2.9820     1.3030 H     1 <1>   0.4000 
 37 H       -2.4590    -0.4490     1.6530 H     1 <1>   0.0800 
 38 H       -4.1660    -0.6910     1.3790 H     1 <1>   0.0800 
 39 H       -2.4300     0.7790    -0.4970 H     1 <1>   0.4500 
 40 H       -2.4870     1.8310     1.7250 H     1 <1>   0.0800 
 41 H       -4.2020     2.0340     1.4520 H     1 <1>   0.0800 
 42 H       -5.3250     0.3390    -0.2990 H     1 <1>   0.0800 
 43 H       -4.2780     0.1050    -1.6640 H     1 <1>   0.0800 
 44 H       -3.3980     4.0150     0.6280 H     1 <1>   0.0800 
 45 H       -5.5770     2.5670    -0.6670 H     1 <1>   0.0800 
 46 H       -5.2280     2.0970    -2.2920 H     1 <1>   0.0800 
 47 H       -2.8750     2.7180    -2.0090 H     1 <1>   0.0800 
 48 H       -3.8810     4.0790    -1.6270 H     1 <1>   0.0800 
 49 H       -0.9470     2.6270    -0.4950 H     1 <1>   0.0800 
 50 H       -1.0170     3.5720     0.9730 H     1 <1>   0.0800 
 51 H       -1.2740     4.3390    -0.5680 H     1 <1>   0.0800 
@<TRIPOS>BOND
  1   1   2  1   
  2   1   3  1   
  3   2   4  ar  
  4   2   5  ar  
  5   3   6  1   
  6   3   7  1   
  7   3  24  1   
  8   4   8  1   
  9   4   9  ar  
 10   5  10  ar  
 11   5  25  1   
 12   6   8  1   
 13   6  26  1   
 14   6  27  1   
 15   7  11  1   
 16   7  28  1   
 17   7  29  1   
 18   9  12  ar  
 19   9  30  1   
 20  10  12  ar  
 21  10  31  1   
 22  11  13  1   
 23  12  32  1   
 24  13  14  1   
 25  13  33  1   
 26  13  34  1   
 27  14  15  1   
 28  14  16  1   
 29  14  35  1   
 30  15  36  1   
 31  16  17  1   
 32  16  37  1   
 33  16  38  1   
 34  17  18  1   
 35  17  19  1   
 36  17  39  1   
 37  18  20  1   
 38  18  40  1   
 39  18  41  1   
 40  19  21  1   
 41  19  42  1   
 42  19  43  1   
 43  20  22  1   
 44  20  23  1   
 45  20  44  1   
 46  21  22  1   
 47  21  45  1   
 48  21  46  1   
 49  22  47  1   
 50  22  48  1   
 51  23  49  1   
 52  23  50  1   
 53  23  51  1   
@<TRIPOS>SUBSTRUCTURE
  1 ****   1 GROUP 4 **** **** 0

# MOE 2024.06 (io_trps.svl 2023.06)
