@<TRIPOS>MOLECULE
NONAME
40 42 1 0 0 
SMALL
USER_CHARGES


@<TRIPOS>ATOM
  1 O       -0.8790    -0.2740    -1.4040 O.2   1 <1>  -0.5700 
  2 C       -1.7680     0.2640    -0.7900 C.2   1 <1>   0.5690 
  3 N       -3.0160    -0.2430    -0.9180 N.am  1 <1>  -0.7300 
  4 C       -1.4540     1.4750     0.0820 C.3   1 <1>  -0.0990 
  5 C       -4.3640     0.1550    -0.4680 C.3   1 <1>   0.3000 
  6 C       -0.0350     2.0620    -0.0780 C.3   1 <1>  -0.0990 
  7 C       -5.3020    -1.0190    -0.8100 C.3   1 <1>  -0.1600 
  8 C       -4.8420     1.4020    -1.2350 C.3   1 <1>  -0.1600 
  9 C       -4.4340     0.4110     1.0510 C.3   1 <1>  -0.1600 
 10 C        1.0270     1.2630     0.6530 C.2   1 <1>   0.5690 
 11 C       -6.7530    -0.6920    -0.4090 C.3   1 <1>  -0.0800 
 12 C       -6.2860     1.7530    -0.8240 C.3   1 <1>  -0.0800 
 13 C       -5.8790     0.7530     1.4640 C.3   1 <1>  -0.0800 
 14 O        1.5210     1.7040     1.6570 O.2   1 <1>  -0.5700 
 15 N        1.4020     0.0690     0.1740 N.am  1 <1>  -0.8000 
 16 C       -7.2110     0.5700    -1.1650 C.3   1 <1>  -0.1600 
 17 C       -6.8060    -0.4240     1.1060 C.3   1 <1>  -0.1600 
 18 C       -6.3370     2.0090     0.6950 C.3   1 <1>  -0.1600 
 19 H       -3.0490    -1.0500    -1.5400 H     1 <1>   0.3700 
 20 H       -1.5890     1.2000     1.1120 H     1 <1>   0.0800 
 21 H       -2.1560     2.2490    -0.1540 H     1 <1>   0.0800 
 22 H       -0.0250     3.0580     0.3250 H     1 <1>   0.0800 
 23 H        0.2260     2.1320    -1.1190 H     1 <1>   0.0800 
 24 H       -4.9830    -1.9040    -0.2870 H     1 <1>   0.0800 
 25 H       -5.2680    -1.2210    -1.8660 H     1 <1>   0.0800 
 26 H       -4.8050     1.2160    -2.2940 H     1 <1>   0.0800 
 27 H       -4.2080     2.2410    -1.0220 H     1 <1>   0.0800 
 28 H       -3.8140     1.2400     1.3270 H     1 <1>   0.0800 
 29 H       -4.0990    -0.4600     1.5860 H     1 <1>   0.0800 
 30 H       -7.3970    -1.5190    -0.6550 H     1 <1>   0.0800 
 31 H       -6.6120     2.6330    -1.3530 H     1 <1>   0.0800 
 32 H       -5.9220     0.9390     2.5240 H     1 <1>   0.0800 
 33 H        2.0880    -0.4990     0.6670 H     1 <1>   0.3700 
 34 H        0.8850    -0.3730    -0.5990 H     1 <1>   0.3700 
 35 H       -8.2240     0.8090    -0.8920 H     1 <1>   0.0800 
 36 H       -7.1950     0.3870    -2.2260 H     1 <1>   0.0800 
 37 H       -6.5010    -1.3040     1.6440 H     1 <1>   0.0800 
 38 H       -7.8150    -0.1950     1.4000 H     1 <1>   0.0800 
 39 H       -5.7050     2.8430     0.9470 H     1 <1>   0.0800 
 40 H       -7.3410     2.2650     0.9860 H     1 <1>   0.0800 
@<TRIPOS>BOND
  1   1   2  2   
  2   2   3  am  
  3   2   4  1   
  4   3   5  1   
  5   3  19  1   
  6   4   6  1   
  7   4  20  1   
  8   4  21  1   
  9   5   7  1   
 10   5   8  1   
 11   5   9  1   
 12   6  10  1   
 13   6  22  1   
 14   6  23  1   
 15   7  11  1   
 16   7  24  1   
 17   7  25  1   
 18   8  12  1   
 19   8  26  1   
 20   8  27  1   
 21   9  13  1   
 22   9  28  1   
 23   9  29  1   
 24  10  14  2   
 25  10  15  am  
 26  11  16  1   
 27  11  17  1   
 28  11  30  1   
 29  12  16  1   
 30  12  18  1   
 31  12  31  1   
 32  13  17  1   
 33  13  18  1   
 34  13  32  1   
 35  15  33  1   
 36  15  34  1   
 37  16  35  1   
 38  16  36  1   
 39  17  37  1   
 40  17  38  1   
 41  18  39  1   
 42  18  40  1   
@<TRIPOS>SUBSTRUCTURE
  1 ****   5 GROUP 4 **** **** 0

# MOE 2024.06 (io_trps.svl 2023.06)
