@<TRIPOS>MOLECULE
NONAME
42 42 1 0 0 
SMALL
USER_CHARGES


@<TRIPOS>ATOM
  1 O       -2.3430     0.9430     0.2640 O.3   1 <1>  -0.3630 
  2 C       -1.3200     1.6910    -0.2510 C.ar  1 <1>   0.0830 
  3 C       -2.1650    -0.4110     0.6310 C.3   1 <1>   0.0400 
  4 C        0.0360     1.5310     0.0850 C.ar  1 <1>   0.0830 
  5 C       -1.6920     2.6810    -1.1590 C.ar  1 <1>  -0.1440 
  6 O        0.3980     0.6080     1.0230 O.3   1 <1>  -0.3620 
  7 C        0.9860     2.3420    -0.5300 C.ar  1 <1>  -0.1500 
  8 C       -0.7280     3.4790    -1.7560 C.ar  1 <1>  -0.1500 
  9 C       -3.1540     2.9020    -1.5030 C.3   1 <1>   0.4860 
 10 C        1.7380     0.4210     1.4260 C.3   1 <1>   0.0400 
 11 C        0.6060     3.3050    -1.4450 C.ar  1 <1>  -0.1500 
 12 N       -3.9070     3.2140    -0.2630 N.4   1 <1>  -0.9590 
 13 C       -5.3680     3.1610    -0.4540 C.3   1 <1>   0.4810 
 14 C       -3.4240     4.4490     0.4040 C.3   1 <1>   0.3430 
 15 C       -5.8320     1.7990     0.0280 C.2   1 <1>  -0.2760 
 16 C       -3.8230     4.4210     1.8750 C.3   1 <1>  -0.2400 
 17 C       -6.3640     1.6080     1.2400 C.2   1 <1>  -0.3000 
 18 C       -5.6770     0.6520    -0.9650 C.3   1 <1>  -0.1020 
 19 H       -1.7290    -0.4520     1.6140 H     1 <1>   0.0800 
 20 H       -1.5240    -0.8920    -0.0870 H     1 <1>   0.0800 
 21 H       -3.1270    -0.8900     0.6460 H     1 <1>   0.0800 
 22 H        2.0330     2.2450    -0.3130 H     1 <1>   0.1500 
 23 H       -0.9990     4.2400    -2.4690 H     1 <1>   0.1500 
 24 H       -3.5410     2.0050    -1.9560 H     1 <1>   0.0800 
 25 H       -3.2490     3.7100    -2.2090 H     1 <1>   0.0800 
 26 H        2.1110     1.3400     1.8430 H     1 <1>   0.0800 
 27 H        2.3220     0.1170     0.5750 H     1 <1>   0.0800 
 28 H        1.7580    -0.3510     2.1740 H     1 <1>   0.0800 
 29 H        1.3550     3.9230    -1.9140 H     1 <1>   0.1500 
 30 H       -3.6780     2.4220     0.3640 H     1 <1>   0.4500 
 31 H       -5.6410     3.3230    -1.4840 H     1 <1>   0.0800 
 32 H       -5.8410     3.9190     0.1480 H     1 <1>   0.0800 
 33 H       -3.8300     5.3230    -0.0800 H     1 <1>   0.0800 
 34 H       -2.3480     4.4990     0.3460 H     1 <1>   0.0800 
 35 H       -4.8900     4.4570     1.9980 H     1 <1>   0.0800 
 36 H       -3.4060     5.2810     2.3690 H     1 <1>   0.0800 
 37 H       -3.4310     3.5410     2.3540 H     1 <1>   0.0800 
 38 H       -6.5080     2.3780     1.9800 H     1 <1>   0.1500 
 39 H       -6.7090     0.6540     1.6050 H     1 <1>   0.1500 
 40 H       -4.6420     0.4370    -1.1550 H     1 <1>   0.0800 
 41 H       -6.1650     0.8880    -1.8950 H     1 <1>   0.0800 
 42 H       -6.1290    -0.2440    -0.5750 H     1 <1>   0.0800 
@<TRIPOS>BOND
  1   1   2  1   
  2   1   3  1   
  3   2   4  ar  
  4   2   5  ar  
  5   3  19  1   
  6   3  20  1   
  7   3  21  1   
  8   4   6  1   
  9   4   7  ar  
 10   5   8  ar  
 11   5   9  1   
 12   6  10  1   
 13   7  11  ar  
 14   7  22  1   
 15   8  11  ar  
 16   8  23  1   
 17   9  12  1   
 18   9  24  1   
 19   9  25  1   
 20  10  26  1   
 21  10  27  1   
 22  10  28  1   
 23  11  29  1   
 24  12  13  1   
 25  12  14  1   
 26  12  30  1   
 27  13  15  1   
 28  13  31  1   
 29  13  32  1   
 30  14  16  1   
 31  14  33  1   
 32  14  34  1   
 33  15  17  2   
 34  15  18  1   
 35  16  35  1   
 36  16  36  1   
 37  16  37  1   
 38  17  38  1   
 39  17  39  1   
 40  18  40  1   
 41  18  41  1   
 42  18  42  1   
@<TRIPOS>SUBSTRUCTURE
  1 ****   2 GROUP 4 **** **** 0

# MOE 2024.06 (io_trps.svl 2023.06)
