@<TRIPOS>MOLECULE
NONAME
47 49 1 0 0 
SMALL
USER_CHARGES


@<TRIPOS>ATOM
  1 O        0.2450    -0.6470     0.2800 O.2   1 <1>  -0.5700 
  2 C        0.0430    -1.7560    -0.1790 C.2   1 <1>   0.5440 
  3 N        1.1130    -2.4760    -0.6740 N.am  1 <1>  -0.6600 
  4 C       -1.3070    -2.2880    -0.1710 C.ar  1 <1>   0.0860 
  5 C        2.4210    -1.8250    -0.9570 C.3   1 <1>   0.1400 
  6 C        1.1480    -3.9620    -0.7260 C.3   1 <1>   0.1400 
  7 C       -2.0950    -2.2190     0.9780 C.ar  1 <1>  -0.1500 
  8 C       -1.8720    -2.8760    -1.3040 C.ar  1 <1>  -0.1500 
  9 C        3.4530    -2.3010     0.0670 C.3   1 <1>  -0.1600 
 10 C        2.1670    -4.4760     0.2950 C.3   1 <1>  -0.1600 
 11 C       -3.3800    -2.7290     1.0080 C.ar  1 <1>  -0.1500 
 12 C       -3.1550    -3.3890    -1.2830 C.ar  1 <1>  -0.1500 
 13 C        3.5560    -3.8400     0.0880 C.3   1 <1>  -0.0190 
 14 C       -3.9190    -3.3250    -0.1290 C.ar  1 <1>   0.0820 
 15 C        4.5560    -4.3310     1.1300 C.2   1 <1>   0.5690 
 16 O       -5.1600    -3.8530    -0.1900 O.3   1 <1>  -0.3630 
 17 O        5.4730    -5.0350     0.7930 O.2   1 <1>  -0.5700 
 18 N        4.4140    -3.9870     2.4240 N.am  1 <1>  -0.8000 
 19 C       -6.0450    -3.8030     0.9090 C.3   1 <1>   0.2630 
 20 C       -7.3450    -4.4950     0.5320 C.ar  1 <1>  -0.1440 
 21 C       -7.3400    -5.8330     0.1690 C.ar  1 <1>  -0.1500 
 22 C       -8.5470    -3.8020     0.5530 C.ar  1 <1>  -0.1500 
 23 C       -8.5210    -6.4740    -0.1640 C.ar  1 <1>  -0.1500 
 24 C       -9.7290    -4.4420     0.2200 C.ar  1 <1>  -0.1500 
 25 C       -9.7170    -5.7780    -0.1380 C.ar  1 <1>  -0.1500 
 26 H        2.3300    -0.7520    -0.9130 H     1 <1>   0.0800 
 27 H        2.7370    -2.0880    -1.9510 H     1 <1>   0.0800 
 28 H        1.4280    -4.2740    -1.7180 H     1 <1>   0.0800 
 29 H        0.1820    -4.3800    -0.5010 H     1 <1>   0.0800 
 30 H       -1.6830    -1.7520     1.8550 H     1 <1>   0.1500 
 31 H       -1.2940    -2.9230    -2.2100 H     1 <1>   0.1500 
 32 H        3.1630    -1.9290     1.0330 H     1 <1>   0.0800 
 33 H        4.4120    -1.8780    -0.1740 H     1 <1>   0.0800 
 34 H        2.2480    -5.5450     0.2070 H     1 <1>   0.0800 
 35 H        1.8040    -4.2550     1.2830 H     1 <1>   0.0800 
 36 H       -3.9420    -2.6520     1.9200 H     1 <1>   0.1500 
 37 H       -3.5790    -3.8410    -2.1620 H     1 <1>   0.1500 
 38 H        3.9230    -4.1560    -0.8730 H     1 <1>   0.0800 
 39 H        5.0930    -4.3220     3.1080 H     1 <1>   0.3700 
 40 H        3.6680    -3.3830     2.7690 H     1 <1>   0.3700 
 41 H       -6.2160    -2.7700     1.1550 H     1 <1>   0.0800 
 42 H       -5.5850    -4.3100     1.7380 H     1 <1>   0.0800 
 43 H       -6.4120    -6.3780     0.1410 H     1 <1>   0.1500 
 44 H       -8.5710    -2.7620     0.8270 H     1 <1>   0.1500 
 45 H       -8.5080    -7.5120    -0.4450 H     1 <1>   0.1500 
 46 H      -10.6580    -3.8990     0.2380 H     1 <1>   0.1500 
 47 H      -10.6350    -6.2750    -0.3970 H     1 <1>   0.1500 
@<TRIPOS>BOND
  1   1   2  2   
  2   2   3  am  
  3   2   4  1   
  4   3   5  1   
  5   3   6  1   
  6   4   7  ar  
  7   4   8  ar  
  8   5   9  1   
  9   5  26  1   
 10   5  27  1   
 11   6  10  1   
 12   6  28  1   
 13   6  29  1   
 14   7  11  ar  
 15   7  30  1   
 16   8  12  ar  
 17   8  31  1   
 18   9  13  1   
 19   9  32  1   
 20   9  33  1   
 21  10  13  1   
 22  10  34  1   
 23  10  35  1   
 24  11  14  ar  
 25  11  36  1   
 26  12  14  ar  
 27  12  37  1   
 28  13  15  1   
 29  13  38  1   
 30  14  16  1   
 31  15  17  2   
 32  15  18  am  
 33  16  19  1   
 34  18  39  1   
 35  18  40  1   
 36  19  20  1   
 37  19  41  1   
 38  19  42  1   
 39  20  21  ar  
 40  20  22  ar  
 41  21  23  ar  
 42  21  43  1   
 43  22  24  ar  
 44  22  44  1   
 45  23  25  ar  
 46  23  45  1   
 47  24  25  ar  
 48  24  46  1   
 49  25  47  1   
@<TRIPOS>SUBSTRUCTURE
  1 ****   4 GROUP 4 **** **** 0

# MOE 2024.06 (io_trps.svl 2023.06)
