@<TRIPOS>MOLECULE
NONAME
40 41 1 0 0 
SMALL
USER_CHARGES


@<TRIPOS>ATOM
  1 O       -0.0960     1.0120    -0.8270 O.2   1 <1>  -0.5700 
  2 C       -0.8900     1.5650    -0.0930 C.2   1 <1>   0.5440 
  3 N       -0.4170     2.4630     0.8230 N.am  1 <1>  -0.7300 
  4 C       -2.3100     1.2770    -0.1800 C.ar  1 <1>   0.0860 
  5 C        1.0200     2.8150     1.0110 C.3   1 <1>   0.1400 
  6 C       -3.2730     2.2520     0.0840 C.ar  1 <1>  -0.1500 
  7 C       -2.7590     0.0050    -0.5360 C.ar  1 <1>  -0.1500 
  8 C        1.5870     3.5990    -0.1820 C.3   1 <1>   0.2000 
  9 C       -4.6320     1.9660     0.0110 C.ar  1 <1>   0.0830 
 10 C       -4.1080    -0.2910    -0.6100 C.ar  1 <1>  -0.1500 
 11 O        2.8300     4.1200     0.1590 O.3   1 <1>  -0.5600 
 12 C        0.7810     4.8250    -0.5960 C.3   1 <1>  -0.1600 
 13 O       -5.6170     2.8680     0.2570 O.3   1 <1>  -0.3630 
 14 C       -5.0410     0.6890    -0.3340 C.ar  1 <1>  -0.1500 
 15 C        3.1610     5.1530    -0.7110 C.3   1 <1>   0.1200 
 16 C        1.8360     5.7540    -1.1780 C.3   1 <1>  -0.1600 
 17 C       -5.3840     4.2420     0.4750 C.3   1 <1>   0.2000 
 18 C       -6.6440     4.8100     1.1220 C.3   1 <1>  -0.2400 
 19 C       -5.1030     4.9200    -0.8680 C.3   1 <1>  -0.2400 
 20 H       -1.0530     2.8220     1.5360 H     1 <1>   0.3700 
 21 H        1.5900     1.9100     1.1330 H     1 <1>   0.0800 
 22 H        1.1210     3.4100     1.9020 H     1 <1>   0.0800 
 23 H       -2.9380     3.2370     0.3380 H     1 <1>   0.1500 
 24 H       -2.0320    -0.7590    -0.7560 H     1 <1>   0.1500 
 25 H        1.7310     2.9410    -1.0230 H     1 <1>   0.0800 
 26 H       -4.4300    -1.2810    -0.8840 H     1 <1>   0.1500 
 27 H        0.3290     5.2740     0.2710 H     1 <1>   0.0800 
 28 H        0.0160     4.5680    -1.3060 H     1 <1>   0.0800 
 29 H       -6.0940     0.4720    -0.3870 H     1 <1>   0.1500 
 30 H        3.7110     4.7320    -1.5360 H     1 <1>   0.0800 
 31 H        3.7710     5.8650    -0.1840 H     1 <1>   0.0800 
 32 H        1.7190     6.7590    -0.8150 H     1 <1>   0.0800 
 33 H        1.8000     5.7610    -2.2530 H     1 <1>   0.0800 
 34 H       -4.5590     4.3530     1.1570 H     1 <1>   0.0800 
 35 H       -7.4900     4.6790     0.4720 H     1 <1>   0.0800 
 36 H       -6.5180     5.8590     1.3170 H     1 <1>   0.0800 
 37 H       -6.8330     4.3110     2.0560 H     1 <1>   0.0800 
 38 H       -5.9350     4.7800    -1.5350 H     1 <1>   0.0800 
 39 H       -4.2170     4.5170    -1.3230 H     1 <1>   0.0800 
 40 H       -4.9560     5.9750    -0.7220 H     1 <1>   0.0800 
@<TRIPOS>BOND
  1   1   2  2   
  2   2   3  am  
  3   2   4  1   
  4   3   5  1   
  5   3  20  1   
  6   4   6  ar  
  7   4   7  ar  
  8   5   8  1   
  9   5  21  1   
 10   5  22  1   
 11   6   9  ar  
 12   6  23  1   
 13   7  10  ar  
 14   7  24  1   
 15   8  11  1   
 16   8  12  1   
 17   8  25  1   
 18   9  13  1   
 19   9  14  ar  
 20  10  14  ar  
 21  10  26  1   
 22  11  15  1   
 23  12  16  1   
 24  12  27  1   
 25  12  28  1   
 26  13  17  1   
 27  14  29  1   
 28  15  16  1   
 29  15  30  1   
 30  15  31  1   
 31  16  32  1   
 32  16  33  1   
 33  17  18  1   
 34  17  19  1   
 35  17  34  1   
 36  18  35  1   
 37  18  36  1   
 38  18  37  1   
 39  19  38  1   
 40  19  39  1   
 41  19  40  1   
@<TRIPOS>SUBSTRUCTURE
  1 ****   6 GROUP 4 **** **** 0

# MOE 2024.06 (io_trps.svl 2023.06)
