@<TRIPOS>MOLECULE
NONAME
48 49 1 0 0 
SMALL
USER_CHARGES


@<TRIPOS>ATOM
  1 O        9.9510    -5.8910     1.4350 O.3   1 <1>  -0.5600 
  2 C        9.5420    -5.1870     0.2940 C.3   1 <1>   0.1200 
  3 C       10.3590    -7.2080     1.1770 C.3   1 <1>   0.1200 
  4 C        8.3420    -5.8910    -0.3830 C.3   1 <1>   0.3430 
  5 C        9.2350    -8.0100     0.4790 C.3   1 <1>   0.3430 
  6 N        7.9880    -7.1760     0.3270 N.4   1 <1>  -0.9590 
  7 C        6.8530    -7.9420    -0.2570 C.3   1 <1>   0.3430 
  8 C        5.5220    -7.2090    -0.0290 C.3   1 <1>  -0.1600 
  9 C        4.3320    -8.0540    -0.5020 C.3   1 <1>   0.3430 
 10 N        3.0630    -7.3270    -0.2430 N.4   1 <1>  -0.9060 
 11 C        1.8490    -8.0680    -0.6600 C.3   1 <1>   0.4860 
 12 C        0.6800    -7.1770    -0.3150 C.ar  1 <1>  -0.1430 
 13 C        0.0990    -7.2450     0.9440 C.ar  1 <1>  -0.1500 
 14 C        0.1850    -6.2760    -1.2480 C.ar  1 <1>  -0.1500 
 15 C       -0.9570    -6.4120     1.2660 C.ar  1 <1>  -0.1500 
 16 C       -0.8730    -5.4430    -0.9240 C.ar  1 <1>  -0.1500 
 17 C       -1.4480    -5.5070     0.3410 C.ar  1 <1>   0.0820 
 18 O       -2.4830    -4.7300     0.7430 O.3   1 <1>  -0.3630 
 19 C       -3.1090    -3.8190    -0.1310 C.3   1 <1>   0.1200 
 20 C       -4.2450    -3.1410     0.6290 C.3   1 <1>  -0.2400 
 21 H       10.3760    -5.1100    -0.3830 H     1 <1>   0.0800 
 22 H        9.2680    -4.1920     0.6020 H     1 <1>   0.0800 
 23 H       10.6100    -7.6630     2.1200 H     1 <1>   0.0800 
 24 H       11.2480    -7.1840     0.5700 H     1 <1>   0.0800 
 25 H        8.5910    -6.0910    -1.4120 H     1 <1>   0.0800 
 26 H        7.5010    -5.2180    -0.3760 H     1 <1>   0.0800 
 27 H        9.0270    -8.8930     1.0610 H     1 <1>   0.0800 
 28 H        9.5860    -8.3330    -0.4880 H     1 <1>   0.0800 
 29 H        7.7790    -6.8830     1.2970 H     1 <1>   0.4500 
 30 H        6.8050    -8.9110     0.2170 H     1 <1>   0.0800 
 31 H        7.0210    -8.0950    -1.3120 H     1 <1>   0.0800 
 32 H        5.5290    -6.2800    -0.5720 H     1 <1>   0.0800 
 33 H        5.4120    -7.0090     1.0230 H     1 <1>   0.0800 
 34 H        4.3220    -8.9960     0.0250 H     1 <1>   0.0800 
 35 H        4.4240    -8.2570    -1.5580 H     1 <1>   0.0800 
 36 H        3.0280    -6.4200    -0.7250 H     1 <1>   0.4500 
 37 H        2.9380    -7.1080     0.7550 H     1 <1>   0.4500 
 38 H        1.7670    -9.0030    -0.1290 H     1 <1>   0.0800 
 39 H        1.8630    -8.2640    -1.7200 H     1 <1>   0.0800 
 40 H        0.4460    -7.9420     1.6880 H     1 <1>   0.1500 
 41 H        0.6050    -6.2090    -2.2380 H     1 <1>   0.1500 
 42 H       -1.4160    -6.4570     2.2380 H     1 <1>   0.1500 
 43 H       -1.2390    -4.7550    -1.6630 H     1 <1>   0.1500 
 44 H       -3.4910    -4.3650    -0.9770 H     1 <1>   0.0800 
 45 H       -2.3800    -3.0940    -0.4500 H     1 <1>   0.0800 
 46 H       -4.9590    -3.8750     0.9570 H     1 <1>   0.0800 
 47 H       -4.7440    -2.4380    -0.0120 H     1 <1>   0.0800 
 48 H       -3.8550    -2.6130     1.4810 H     1 <1>   0.0800 
@<TRIPOS>BOND
  1   1   2  1   
  2   1   3  1   
  3   2   4  1   
  4   2  21  1   
  5   2  22  1   
  6   3   5  1   
  7   3  23  1   
  8   3  24  1   
  9   4   6  1   
 10   4  25  1   
 11   4  26  1   
 12   5   6  1   
 13   5  27  1   
 14   5  28  1   
 15   6   7  1   
 16   6  29  1   
 17   7   8  1   
 18   7  30  1   
 19   7  31  1   
 20   8   9  1   
 21   8  32  1   
 22   8  33  1   
 23   9  10  1   
 24   9  34  1   
 25   9  35  1   
 26  10  11  1   
 27  10  36  1   
 28  10  37  1   
 29  11  12  1   
 30  11  38  1   
 31  11  39  1   
 32  12  13  ar  
 33  12  14  ar  
 34  13  15  ar  
 35  13  40  1   
 36  14  16  ar  
 37  14  41  1   
 38  15  17  ar  
 39  15  42  1   
 40  16  17  ar  
 41  16  43  1   
 42  17  18  1   
 43  18  19  1   
 44  19  20  1   
 45  19  44  1   
 46  19  45  1   
 47  20  46  1   
 48  20  47  1   
 49  20  48  1   
@<TRIPOS>SUBSTRUCTURE
  1 ****  10 GROUP 4 **** **** 0

# MOE 2024.06 (io_trps.svl 2023.06)
