@<TRIPOS>MOLECULE
NONAME
35 36 1 0 0 
SMALL
USER_CHARGES


@<TRIPOS>ATOM
  1 P       -0.0730     0.0640    -0.6030 P.3   1 <1>   1.2420 
  2 O       -0.4070     0.8500    -1.7960 O.2   1 <1>  -0.7000 
  3 O        1.3140     0.5450     0.0530 O.3   1 <1>  -0.5510 
  4 O        0.2240    -1.4720    -0.9680 O.3   1 <1>  -0.5510 
  5 C       -1.3640     0.0490     0.6640 C.3   1 <1>   0.4850 
  6 C        1.4560     1.8320     0.5370 C.3   1 <1>   0.1200 
  7 C        1.2380    -1.7760    -1.8550 C.3   1 <1>   0.1200 
  8 O       -1.8250     1.3180     1.1030 O.3   1 <1>  -0.6800 
  9 C       -0.9190    -0.8160     1.8490 C.2   1 <1>   0.5690 
 10 C       -2.6240    -0.7160     0.2510 C.ar  1 <1>  -0.1440 
 11 C        2.8870     1.9780     1.0380 C.3   1 <1>  -0.2400 
 12 C        1.2630    -3.2900    -2.0270 C.3   1 <1>  -0.2400 
 13 O        0.0440    -0.6320     2.5550 O.2   1 <1>  -0.5700 
 14 N       -1.7880    -1.8430     2.0260 N.am  1 <1>  -0.5470 
 15 C       -2.8030    -1.7980     1.0910 C.ar  1 <1>   0.1170 
 16 C       -3.5110    -0.4740    -0.7840 C.ar  1 <1>  -0.1500 
 17 C       -3.8780    -2.6560     0.9260 C.ar  1 <1>  -0.1500 
 18 C       -4.5890    -1.3300    -0.9540 C.ar  1 <1>  -0.1500 
 19 C       -4.7720    -2.4130    -0.1030 C.ar  1 <1>  -0.1500 
 20 H        0.7580     1.9820     1.3440 H     1 <1>   0.0800 
 21 H        1.2540     2.5270    -0.2620 H     1 <1>   0.0800 
 22 H        2.1710    -1.4200    -1.4500 H     1 <1>   0.0800 
 23 H        1.0350    -1.2840    -2.7930 H     1 <1>   0.0800 
 24 H       -2.3530     1.7260     0.3890 H     1 <1>   0.4000 
 25 H        3.0740     1.2700     1.8260 H     1 <1>   0.0800 
 26 H        3.0380     2.9690     1.4240 H     1 <1>   0.0800 
 27 H        3.5810     1.8130     0.2330 H     1 <1>   0.0800 
 28 H        1.4550    -3.7660    -1.0830 H     1 <1>   0.0800 
 29 H        2.0420    -3.5640    -2.7150 H     1 <1>   0.0800 
 30 H        0.3220    -3.6330    -2.4190 H     1 <1>   0.0800 
 31 H       -1.6820    -2.5230     2.7800 H     1 <1>   0.3700 
 32 H       -3.3720     0.3580    -1.4550 H     1 <1>   0.1500 
 33 H       -4.0100    -3.4930     1.5870 H     1 <1>   0.1500 
 34 H       -5.2890    -1.1560    -1.7540 H     1 <1>   0.1500 
 35 H       -5.6140    -3.0690    -0.2480 H     1 <1>   0.1500 
@<TRIPOS>BOND
  1   1   2  2   
  2   1   3  1   
  3   1   4  1   
  4   1   5  1   
  5   3   6  1   
  6   4   7  1   
  7   5   8  1   
  8   5   9  1   
  9   5  10  1   
 10   6  11  1   
 11   6  20  1   
 12   6  21  1   
 13   7  12  1   
 14   7  22  1   
 15   7  23  1   
 16   8  24  1   
 17   9  13  2   
 18   9  14  am  
 19  10  15  ar  
 20  10  16  ar  
 21  11  25  1   
 22  11  26  1   
 23  11  27  1   
 24  12  28  1   
 25  12  29  1   
 26  12  30  1   
 27  14  15  1   
 28  14  31  1   
 29  15  17  ar  
 30  16  18  ar  
 31  16  32  1   
 32  17  19  ar  
 33  17  33  1   
 34  18  19  ar  
 35  18  34  1   
 36  19  35  1   
@<TRIPOS>SUBSTRUCTURE
  1 ****   5 GROUP 4 **** **** 0

# MOE 2024.06 (io_trps.svl 2023.06)
