@<TRIPOS>MOLECULE
NONAME
37 37 1 0 0 
SMALL
USER_CHARGES


@<TRIPOS>ATOM
  1 CL      -1.0730     0.4010    -2.0530 Cl    1 <1>  -0.1770 
  2 C       -0.5610     1.7850    -1.1090 C.ar  1 <1>   0.1770 
  3 C       -1.4400     2.3410    -0.1810 C.ar  1 <1>   0.1170 
  4 C        0.7070     2.2840    -1.3110 C.ar  1 <1>  -0.1500 
  5 N       -2.7210     1.8000     0.0030 N.am  1 <1>  -0.5470 
  6 C       -0.9760     3.4230     0.5550 C.ar  1 <1>  -0.1500 
  7 C        1.1810     3.3770    -0.5820 C.ar  1 <1>   0.0860 
  8 C       -3.9390     2.3600     0.2340 C.2   1 <1>   0.5690 
  9 C        0.2920     3.9430     0.3490 C.ar  1 <1>   0.0830 
 10 C        2.5320     3.8540    -0.8060 C.2   1 <1>   0.5440 
 11 O       -4.8970     1.6510     0.3900 O.2   1 <1>  -0.5700 
 12 C       -4.1350     3.8570     0.2680 C.3   1 <1>  -0.1790 
 13 O        0.6380     5.0120     1.0940 O.3   1 <1>  -0.3620 
 14 O        3.0780     3.6760    -1.8770 O.2   1 <1>  -0.5700 
 15 N        3.2380     4.4870     0.1770 N.am  1 <1>  -0.7300 
 16 C        0.4510     6.2810     0.5020 C.3   1 <1>   0.0400 
 17 C        4.6070     5.0480     0.0380 C.3   1 <1>   0.1400 
 18 C        5.6490     3.9310     0.0790 C.3   1 <1>   0.1200 
 19 O        6.9150     4.5100     0.1510 O.3   1 <1>  -0.5600 
 20 C        7.9540     3.5870     0.1140 C.3   1 <1>   0.0400 
 21 H        1.3450     1.8180    -2.0430 H     1 <1>   0.1500 
 22 H       -2.8020     0.7940    -0.1660 H     1 <1>   0.3700 
 23 H       -1.5960     3.8680     1.3090 H     1 <1>   0.1500 
 24 H       -3.4990     4.3370    -0.4510 H     1 <1>   0.0800 
 25 H       -3.9230     4.2280     1.2520 H     1 <1>   0.0800 
 26 H       -5.1560     4.0870     0.0270 H     1 <1>   0.0800 
 27 H        2.7460     4.6980     1.0510 H     1 <1>   0.3700 
 28 H        0.7540     7.0320     1.2100 H     1 <1>   0.0800 
 29 H       -0.5890     6.4040     0.2580 H     1 <1>   0.0800 
 30 H        1.0550     6.3500    -0.3860 H     1 <1>   0.0800 
 31 H        4.7880     5.7390     0.8410 H     1 <1>   0.0800 
 32 H        4.6850     5.5700    -0.9010 H     1 <1>   0.0800 
 33 H        5.5850     3.3360    -0.8160 H     1 <1>   0.0800 
 34 H        5.5060     3.3160     0.9510 H     1 <1>   0.0800 
 35 H        8.8820     4.1260     0.1800 H     1 <1>   0.0800 
 36 H        7.9150     3.0450    -0.8150 H     1 <1>   0.0800 
 37 H        7.8640     2.9150     0.9500 H     1 <1>   0.0800 
@<TRIPOS>BOND
  1   1   2  1   
  2   2   3  ar  
  3   2   4  ar  
  4   3   5  1   
  5   3   6  ar  
  6   4   7  ar  
  7   4  21  1   
  8   5   8  am  
  9   5  22  1   
 10   6   9  ar  
 11   6  23  1   
 12   7   9  ar  
 13   7  10  1   
 14   8  11  2   
 15   8  12  1   
 16   9  13  1   
 17  10  14  2   
 18  10  15  am  
 19  12  24  1   
 20  12  25  1   
 21  12  26  1   
 22  13  16  1   
 23  15  17  1   
 24  15  27  1   
 25  16  28  1   
 26  16  29  1   
 27  16  30  1   
 28  17  18  1   
 29  17  31  1   
 30  17  32  1   
 31  18  19  1   
 32  18  33  1   
 33  18  34  1   
 34  19  20  1   
 35  20  35  1   
 36  20  36  1   
 37  20  37  1   
@<TRIPOS>SUBSTRUCTURE
  1 ****   7 GROUP 4 **** **** 0

# MOE 2024.06 (io_trps.svl 2023.06)
