@<TRIPOS>MOLECULE
NONAME
53 55 1 0 0 
SMALL
USER_CHARGES


@<TRIPOS>ATOM
  1 O        1.6230     1.3830    -2.3840 O.2   1 <1>  -0.5700 
  2 C        1.6520     1.5220    -1.1830 C.2   1 <1>   0.5690 
  3 N        2.4690     0.7530    -0.4190 N.am  1 <1>  -0.7300 
  4 C        0.7590     2.5720    -0.4870 C.3   1 <1>   0.0610 
  5 C        3.3270    -0.3150    -0.9200 C.3   1 <1>   0.2810 
  6 C       -0.2070     1.8830     0.5110 C.3   1 <1>  -0.1600 
  7 C       -0.0960     3.3690    -1.5070 C.3   1 <1>  -0.1600 
  8 C        1.6320     3.5860     0.2980 C.3   1 <1>  -0.1600 
  9 C        3.5120    -1.4440     0.1270 C.2   1 <1>   0.5690 
 10 C        4.6690     0.3060    -1.3210 C.3   1 <1>  -0.2400 
 11 C       -1.0900     2.9200     1.2310 C.3   1 <1>  -0.0800 
 12 C       -0.9810     4.4120    -0.7990 C.3   1 <1>  -0.0800 
 13 C        0.7550     4.6290     1.0170 C.3   1 <1>  -0.0800 
 14 O        3.4240    -1.1840     1.3260 O.2   1 <1>  -0.5700 
 15 N        3.7810    -2.7030    -0.3240 N.am  1 <1>  -0.7300 
 16 C       -1.9170     3.6920     0.1870 C.3   1 <1>  -0.1600 
 17 C       -0.1890     3.9070     1.9960 C.3   1 <1>  -0.1600 
 18 C       -0.0820     5.3930    -0.0250 C.3   1 <1>  -0.1600 
 19 C        4.0430    -3.9410     0.4280 C.3   1 <1>   0.3000 
 20 C        4.2040    -5.0830    -0.6050 C.3   1 <1>   0.1200 
 21 C        5.3310    -3.7630     1.2390 C.3   1 <1>  -0.2400 
 22 C        2.8600    -4.2540     1.3490 C.3   1 <1>  -0.2400 
 23 O        5.0580    -4.7190    -1.6500 O.3   1 <1>  -0.6800 
 24 H        2.4300     0.8360     0.5850 H     1 <1>   0.3700 
 25 H        2.8690    -0.7560    -1.8070 H     1 <1>   0.0800 
 26 H        0.3500     1.3270     1.2440 H     1 <1>   0.0800 
 27 H       -0.8300     1.1830    -0.0190 H     1 <1>   0.0800 
 28 H       -0.7180     2.6900    -2.0650 H     1 <1>   0.0800 
 29 H        0.5490     3.8640    -2.2120 H     1 <1>   0.0800 
 30 H        2.3010     4.0840    -0.3820 H     1 <1>   0.0800 
 31 H        2.2340     3.0720     1.0260 H     1 <1>   0.0800 
 32 H        5.1390     0.7590    -0.4480 H     1 <1>   0.0800 
 33 H        4.5050     1.0690    -2.0820 H     1 <1>   0.0800 
 34 H        5.3250    -0.4650    -1.7250 H     1 <1>   0.0800 
 35 H       -1.7500     2.4200     1.9200 H     1 <1>   0.0800 
 36 H       -1.5630     4.9500    -1.5280 H     1 <1>   0.0800 
 37 H        1.3810     5.3190     1.5570 H     1 <1>   0.0800 
 38 H        3.9250    -2.8590    -1.3270 H     1 <1>   0.3700 
 39 H       -2.5470     4.4110     0.6820 H     1 <1>   0.0800 
 40 H       -2.5570     3.0120    -0.3480 H     1 <1>   0.0800 
 41 H       -0.7980     4.6280     2.5120 H     1 <1>   0.0800 
 42 H        0.3870     3.3780     2.7360 H     1 <1>   0.0800 
 43 H       -0.6890     6.1330     0.4670 H     1 <1>   0.0800 
 44 H        0.5690     5.9080    -0.7100 H     1 <1>   0.0800 
 45 H        3.2490    -5.3230    -1.0390 H     1 <1>   0.0800 
 46 H        4.5960    -5.9700    -0.1370 H     1 <1>   0.0800 
 47 H        5.5830    -4.6790     1.7420 H     1 <1>   0.0800 
 48 H        5.2010    -3.0010     1.9870 H     1 <1>   0.0800 
 49 H        6.1490    -3.4830     0.6010 H     1 <1>   0.0800 
 50 H        3.0070    -5.2020     1.8330 H     1 <1>   0.0800 
 51 H        1.9450    -4.2950     0.7850 H     1 <1>   0.0800 
 52 H        2.7610    -3.5060     2.1140 H     1 <1>   0.0800 
 53 H        5.9630    -4.5650    -1.3110 H     1 <1>   0.4000 
@<TRIPOS>BOND
  1   1   2  2   
  2   2   3  am  
  3   2   4  1   
  4   3   5  1   
  5   3  24  1   
  6   4   6  1   
  7   4   7  1   
  8   4   8  1   
  9   5   9  1   
 10   5  10  1   
 11   5  25  1   
 12   6  11  1   
 13   6  26  1   
 14   6  27  1   
 15   7  12  1   
 16   7  28  1   
 17   7  29  1   
 18   8  13  1   
 19   8  30  1   
 20   8  31  1   
 21   9  14  2   
 22   9  15  am  
 23  10  32  1   
 24  10  33  1   
 25  10  34  1   
 26  11  16  1   
 27  11  17  1   
 28  11  35  1   
 29  12  16  1   
 30  12  18  1   
 31  12  36  1   
 32  13  17  1   
 33  13  18  1   
 34  13  37  1   
 35  15  19  1   
 36  15  38  1   
 37  16  39  1   
 38  16  40  1   
 39  17  41  1   
 40  17  42  1   
 41  18  43  1   
 42  18  44  1   
 43  19  20  1   
 44  19  21  1   
 45  19  22  1   
 46  20  23  1   
 47  20  45  1   
 48  20  46  1   
 49  21  47  1   
 50  21  48  1   
 51  21  49  1   
 52  22  50  1   
 53  22  51  1   
 54  22  52  1   
 55  23  53  1   
@<TRIPOS>SUBSTRUCTURE
  1 ****   3 GROUP 4 **** **** 0

# MOE 2024.06 (io_trps.svl 2023.06)
