@<TRIPOS>MOLECULE
NONAME
35 37 1 0 0 
SMALL
USER_CHARGES


@<TRIPOS>ATOM
  1 S       -0.2030     0.0410    -0.3120 S.3   1 <1>  -0.3320 
  2 C       -1.9750    -0.2100    -0.2610 C.ar  1 <1>   0.7220 
  3 C        0.5510    -1.6020     0.0630 C.3   1 <1>   0.1500 
  4 N       -2.7060     0.8920    -0.5590 N.ar  1 <1>  -0.3100 
  5 N       -2.4070    -1.4080     0.0560 N.ar  1 <1>  -0.5670 
  6 C        1.9520    -1.3360     0.6120 C.3   1 <1>  -0.2400 
  7 C        0.5880    -2.4100    -1.2350 C.3   1 <1>  -0.2400 
  8 N       -4.0070     0.8300    -0.5530 N.ar  1 <1>  -0.2560 
  9 C       -3.7390    -1.4490     0.0550 C.ar  1 <1>   0.1050 
 10 C       -4.5350    -0.3590    -0.2420 C.ar  1 <1>   0.2560 
 11 N       -4.5350    -2.5210     0.3340 N.pl3 1 <1>   0.0330 
 12 C       -5.8860    -0.7890    -0.1390 C.ar  1 <1>   0.0000 
 13 C       -5.8550    -2.1340     0.2190 C.ar  1 <1>  -0.1520 
 14 C       -7.1110    -0.1480    -0.3210 C.ar  1 <1>  -0.1500 
 15 C       -7.0340    -2.8580     0.4020 C.ar  1 <1>  -0.1440 
 16 C       -8.2820    -0.8540    -0.1430 C.ar  1 <1>  -0.1430 
 17 C       -8.2360    -2.2040     0.2170 C.ar  1 <1>  -0.1500 
 18 C       -6.9870    -4.3240     0.7930 C.3   1 <1>  -0.0970 
 19 C       -9.6310    -0.1850    -0.3330 C.3   1 <1>  -0.0970 
 20 H       -0.0580    -2.0830     0.8090 H     1 <1>   0.0800 
 21 H        2.5460    -0.8100    -0.1140 H     1 <1>   0.0800 
 22 H        2.4380    -2.2640     0.8510 H     1 <1>   0.0800 
 23 H        1.8890    -0.7420     1.5060 H     1 <1>   0.0800 
 24 H        1.1600    -1.8910    -1.9830 H     1 <1>   0.0800 
 25 H       -0.4090    -2.5640    -1.6050 H     1 <1>   0.0800 
 26 H        1.0380    -3.3700    -1.0590 H     1 <1>   0.0800 
 27 H       -4.1960    -3.4520     0.5850 H     1 <1>   0.2700 
 28 H       -7.1150     0.8920    -0.5980 H     1 <1>   0.1500 
 29 H       -9.1620    -2.7350     0.3500 H     1 <1>   0.1500 
 30 H       -6.4810    -4.4380     1.7340 H     1 <1>   0.0800 
 31 H       -6.4670    -4.8890     0.0400 H     1 <1>   0.0800 
 32 H       -7.9810    -4.7240     0.8910 H     1 <1>   0.0800 
 33 H       -9.5130     0.8480    -0.6070 H     1 <1>   0.0800 
 34 H      -10.1960    -0.2350     0.5810 H     1 <1>   0.0800 
 35 H      -10.1810    -0.6850    -1.1100 H     1 <1>   0.0800 
@<TRIPOS>BOND
  1   1   2  1   
  2   1   3  1   
  3   2   4  ar  
  4   2   5  ar  
  5   3   6  1   
  6   3   7  1   
  7   3  20  1   
  8   4   8  ar  
  9   5   9  ar  
 10   6  21  1   
 11   6  22  1   
 12   6  23  1   
 13   7  24  1   
 14   7  25  1   
 15   7  26  1   
 16   8  10  ar  
 17   9  10  ar  
 18   9  11  1   
 19  10  12  1   
 20  11  13  1   
 21  11  27  1   
 22  12  13  ar  
 23  12  14  ar  
 24  13  15  ar  
 25  14  16  ar  
 26  14  28  1   
 27  15  17  ar  
 28  15  18  1   
 29  16  17  ar  
 30  16  19  1   
 31  17  29  1   
 32  18  30  1   
 33  18  31  1   
 34  18  32  1   
 35  19  33  1   
 36  19  34  1   
 37  19  35  1   
@<TRIPOS>SUBSTRUCTURE
  1 ****   9 GROUP 4 **** **** 0

# MOE 2024.06 (io_trps.svl 2023.06)
