@<TRIPOS>MOLECULE
NONAME
34 35 1 0 0 
SMALL
USER_CHARGES


@<TRIPOS>ATOM
  1 CL      -3.6860    -2.2290     2.3420 Cl    1 <1>  -0.1770 
  2 C       -3.9040    -0.9660     1.1580 C.ar  1 <1>   0.1770 
  3 C       -4.6930     0.1230     1.4730 C.ar  1 <1>  -0.1500 
  4 C       -3.2830    -1.0830    -0.0710 C.ar  1 <1>  -0.1500 
  5 C       -4.8630     1.1290     0.5250 C.ar  1 <1>   0.0830 
  6 C       -3.4520    -0.0810    -1.0120 C.ar  1 <1>  -0.1500 
  7 O       -5.6210     2.2380     0.7210 O.3   1 <1>  -0.3630 
  8 C       -4.2390     1.0180    -0.7100 C.ar  1 <1>  -0.1500 
  9 C       -6.2890     2.4990     1.9530 C.3   1 <1>   0.2610 
 10 C       -7.5030     1.5770     2.1180 C.2   1 <1>   0.5690 
 11 C       -6.7020     3.9820     1.9660 C.3   1 <1>  -0.1600 
 12 O       -7.9090     1.3580     3.2310 O.2   1 <1>  -0.5700 
 13 N       -8.0540     1.0370     0.9890 N.am  1 <1>  -0.4940 
 14 C       -5.5090     4.9430     1.8390 C.3   1 <1>  -0.2400 
 15 C       -9.1480     0.2120     0.8430 C.2   1 <1>   0.4420 
 16 S       -9.4680    -0.3740    -0.7560 S.3   1 <1>  -0.0800 
 17 N      -10.0040    -0.2140     1.6980 N.2   1 <1>  -0.3380 
 18 C      -10.8290    -1.2110    -0.0950 C.2   1 <1>   0.1980 
 19 N      -10.9620    -1.0270     1.1540 N.2   1 <1>  -0.3380 
 20 C      -11.6830    -2.0360    -1.0300 C.3   1 <1>  -0.0600 
 21 H       -5.1490     0.1520     2.4450 H     1 <1>   0.1500 
 22 H       -2.6750    -1.9450    -0.2850 H     1 <1>   0.1500 
 23 H       -2.9730    -0.1560    -1.9730 H     1 <1>   0.1500 
 24 H       -4.3700     1.8010    -1.4360 H     1 <1>   0.1500 
 25 H       -5.5950     2.3250     2.7560 H     1 <1>   0.0800 
 26 H       -7.2100     4.1840     2.8940 H     1 <1>   0.0800 
 27 H       -7.4020     4.1640     1.1700 H     1 <1>   0.0800 
 28 H       -7.5390     1.2430     0.1350 H     1 <1>   0.3700 
 29 H       -4.8050     4.7770     2.6360 H     1 <1>   0.0800 
 30 H       -5.8510     5.9620     1.8930 H     1 <1>   0.0800 
 31 H       -5.0060     4.8030     0.8980 H     1 <1>   0.0800 
 32 H      -11.0870    -2.8090    -1.4820 H     1 <1>   0.0800 
 33 H      -12.0950    -1.4090    -1.7990 H     1 <1>   0.0800 
 34 H      -12.4870    -2.4910    -0.4810 H     1 <1>   0.0800 
@<TRIPOS>BOND
  1   1   2  1   
  2   2   3  ar  
  3   2   4  ar  
  4   3   5  ar  
  5   3  21  1   
  6   4   6  ar  
  7   4  22  1   
  8   5   7  1   
  9   5   8  ar  
 10   6   8  ar  
 11   6  23  1   
 12   7   9  1   
 13   8  24  1   
 14   9  10  1   
 15   9  11  1   
 16   9  25  1   
 17  10  12  2   
 18  10  13  am  
 19  11  14  1   
 20  11  26  1   
 21  11  27  1   
 22  13  15  1   
 23  13  28  1   
 24  14  29  1   
 25  14  30  1   
 26  14  31  1   
 27  15  16  1   
 28  15  17  2   
 29  16  18  1   
 30  17  19  1   
 31  18  19  2   
 32  18  20  1   
 33  20  32  1   
 34  20  33  1   
 35  20  34  1   
@<TRIPOS>SUBSTRUCTURE
  1 ****  13 GROUP 4 **** **** 0

# MOE 2024.06 (io_trps.svl 2023.06)
