@<TRIPOS>MOLECULE
NONAME
42 43 1 0 0 
SMALL
USER_CHARGES


@<TRIPOS>ATOM
  1 S       -0.4500    -1.1350     1.9280 S.o2  1 <1>   1.3330 
  2 O       -1.6880    -1.5000     2.5770 O.2   1 <1>  -0.6500 
  3 O        0.7930    -1.2140     2.6550 O.2   1 <1>  -0.6500 
  4 N       -0.3060    -2.1040     0.5080 N.am  1 <1>  -0.6930 
  5 C       -0.6030     0.5050     1.2530 C.3   1 <1>  -0.1350 
  6 C        0.9320    -2.4170    -0.0430 C.ar  1 <1>   0.1990 
  7 C       -1.5410    -2.6530    -0.0920 C.3   1 <1>   0.3390 
  8 C        1.6080    -3.5910     0.2940 C.ar  1 <1>  -0.1440 
  9 C        1.5100    -1.5440    -0.9580 C.ar  1 <1>  -0.1500 
 10 C       -2.1870    -1.6380    -1.0370 C.ar  1 <1>  -0.1440 
 11 C        2.8260    -3.8730    -0.3020 C.ar  1 <1>  -0.1500 
 12 C        1.0370    -4.5610     1.3210 C.3   1 <1>  -0.0970 
 13 C        2.7260    -1.8260    -1.5530 C.ar  1 <1>  -0.1430 
 14 C       -3.3550    -0.9330    -0.7400 C.ar  1 <1>  -0.1430 
 15 C       -1.5670    -1.4280    -2.2620 C.ar  1 <1>  -0.1500 
 16 C        3.3820    -2.9990    -1.2210 C.ar  1 <1>  -0.1500 
 17 C        3.3450    -0.8680    -2.5540 C.3   1 <1>  -0.0970 
 18 C       -3.8490    -0.0180    -1.6580 C.ar  1 <1>  -0.1500 
 19 C       -4.1390    -1.1130     0.5550 C.3   1 <1>  -0.0970 
 20 C       -2.0700    -0.5180    -3.1720 C.ar  1 <1>  -0.1500 
 21 C       -3.2130     0.1930    -2.8670 C.ar  1 <1>  -0.1500 
 22 H       -1.4490     0.5640     0.5970 H     1 <1>   0.0800 
 23 H        0.2790     0.7590     0.7010 H     1 <1>   0.0800 
 24 H       -0.7300     1.2170     2.0440 H     1 <1>   0.0800 
 25 H       -2.2130    -2.9670     0.6840 H     1 <1>   0.0800 
 26 H       -1.2870    -3.5320    -0.6580 H     1 <1>   0.0800 
 27 H        0.9900    -0.6370    -1.2040 H     1 <1>   0.1500 
 28 H        3.3570    -4.7740    -0.0520 H     1 <1>   0.1500 
 29 H        0.8660    -4.0460     2.2500 H     1 <1>   0.0800 
 30 H        1.7160    -5.3730     1.5070 H     1 <1>   0.0800 
 31 H        0.1060    -4.9660     0.9720 H     1 <1>   0.0800 
 32 H       -0.6800    -1.9810    -2.5170 H     1 <1>   0.1500 
 33 H        4.3300    -3.2340    -1.6720 H     1 <1>   0.1500 
 34 H        2.6300    -0.1300    -2.8720 H     1 <1>   0.0800 
 35 H        3.6850    -1.4080    -3.4200 H     1 <1>   0.0800 
 36 H        4.1830    -0.3660    -2.1050 H     1 <1>   0.0800 
 37 H       -4.7430     0.5390    -1.4390 H     1 <1>   0.1500 
 38 H       -4.1740    -2.1430     0.8560 H     1 <1>   0.0800 
 39 H       -5.1540    -0.7830     0.4300 H     1 <1>   0.0800 
 40 H       -3.6970    -0.5300     1.3410 H     1 <1>   0.0800 
 41 H       -1.5740    -0.3660    -4.1150 H     1 <1>   0.1500 
 42 H       -3.6100     0.9050    -3.5690 H     1 <1>   0.1500 
@<TRIPOS>BOND
  1   1   2  2   
  2   1   3  2   
  3   1   4  am  
  4   1   5  1   
  5   4   6  1   
  6   4   7  1   
  7   5  22  1   
  8   5  23  1   
  9   5  24  1   
 10   6   8  ar  
 11   6   9  ar  
 12   7  10  1   
 13   7  25  1   
 14   7  26  1   
 15   8  11  ar  
 16   8  12  1   
 17   9  13  ar  
 18   9  27  1   
 19  10  14  ar  
 20  10  15  ar  
 21  11  16  ar  
 22  11  28  1   
 23  12  29  1   
 24  12  30  1   
 25  12  31  1   
 26  13  16  ar  
 27  13  17  1   
 28  14  18  ar  
 29  14  19  1   
 30  15  20  ar  
 31  15  32  1   
 32  16  33  1   
 33  17  34  1   
 34  17  35  1   
 35  17  36  1   
 36  18  21  ar  
 37  18  37  1   
 38  19  38  1   
 39  19  39  1   
 40  19  40  1   
 41  20  21  ar  
 42  20  41  1   
 43  21  42  1   
@<TRIPOS>SUBSTRUCTURE
  1 ****   4 GROUP 4 **** **** 0

# MOE 2024.06 (io_trps.svl 2023.06)
