@<TRIPOS>MOLECULE
NONAME
43 44 1 0 0 
SMALL
USER_CHARGES


@<TRIPOS>ATOM
  1 O       -0.2280    -0.4610     0.9650 O.2   1 <1>  -0.5700 
  2 C       -0.8190    -1.3440     0.3760 C.2   1 <1>   0.6340 
  3 O       -0.1180    -2.3820    -0.0950 O.3   1 <1>  -0.4300 
  4 C       -2.2490    -1.3300     0.1550 C.ar  1 <1>   0.0860 
  5 C        1.2830    -2.4750     0.0780 C.3   1 <1>   0.0400 
  6 C       -3.0440    -0.3020     0.6700 C.ar  1 <1>  -0.1500 
  7 C       -2.9040    -2.3280    -0.5720 C.ar  1 <1>  -0.1500 
  8 C       -4.4110    -0.2570     0.4710 C.ar  1 <1>   0.1170 
  9 C       -4.2690    -2.2950    -0.7800 C.ar  1 <1>  -0.1500 
 10 N       -5.1730     0.7760     1.0370 N.am  1 <1>  -0.5470 
 11 C       -5.0460    -1.2650    -0.2740 C.ar  1 <1>   0.1000 
 12 C       -5.3110     2.0480     0.6000 C.2   1 <1>   0.5690 
 13 N       -6.4190    -1.2580    -0.5350 N.pl3 1 <1>  -0.8380 
 14 O       -6.3510     2.6270     0.7940 O.2   1 <1>  -0.5700 
 15 C       -4.2110     2.7210    -0.1840 C.3   1 <1>  -0.1790 
 16 C       -7.3360    -2.2490     0.0990 C.3   1 <1>   0.2090 
 17 C       -7.0430    -0.1870    -1.3710 C.3   1 <1>   0.2090 
 18 C       -8.5190    -1.5400     0.7970 C.3   1 <1>   0.3430 
 19 C       -8.2300     0.4770    -0.6380 C.3   1 <1>   0.3430 
 20 N       -9.2140    -0.5290    -0.0860 N.4   1 <1>  -0.9590 
 21 C      -10.3100     0.1700     0.6500 C.3   1 <1>   0.2630 
 22 H        1.6240    -3.3860    -0.3800 H     1 <1>   0.0800 
 23 H        1.5030    -2.4840     1.1320 H     1 <1>   0.0800 
 24 H        1.7480    -1.6260    -0.3910 H     1 <1>   0.0800 
 25 H       -2.5730     0.4740     1.2480 H     1 <1>   0.1500 
 26 H       -2.3320    -3.1430    -0.9840 H     1 <1>   0.1500 
 27 H       -4.7410    -3.0740    -1.3520 H     1 <1>   0.1500 
 28 H       -5.9660     0.4570     1.5850 H     1 <1>   0.3700 
 29 H       -3.9910     2.1580    -1.0710 H     1 <1>   0.0800 
 30 H       -3.3260     2.7900     0.4210 H     1 <1>   0.0800 
 31 H       -4.5150     3.7120    -0.4650 H     1 <1>   0.0800 
 32 H       -6.7910    -2.8340     0.8210 H     1 <1>   0.0800 
 33 H       -7.7070    -2.9200    -0.6560 H     1 <1>   0.0800 
 34 H       -7.3850    -0.6170    -2.2960 H     1 <1>   0.0800 
 35 H       -6.3080     0.5610    -1.6140 H     1 <1>   0.0800 
 36 H       -8.1360    -1.0420     1.6730 H     1 <1>   0.0800 
 37 H       -9.2250    -2.2840     1.1270 H     1 <1>   0.0800 
 38 H       -8.7280     1.1490    -1.3160 H     1 <1>   0.0800 
 39 H       -7.8380     1.0680     0.1720 H     1 <1>   0.0800 
 40 H       -9.6160    -1.0360    -0.8870 H     1 <1>   0.4500 
 41 H       -9.9070     0.7220     1.4850 H     1 <1>   0.0800 
 42 H      -11.0280    -0.5430     1.0210 H     1 <1>   0.0800 
 43 H      -10.8190     0.8610    -0.0030 H     1 <1>   0.0800 
@<TRIPOS>BOND
  1   1   2  2   
  2   2   3  1   
  3   2   4  1   
  4   3   5  1   
  5   4   6  ar  
  6   4   7  ar  
  7   5  22  1   
  8   5  23  1   
  9   5  24  1   
 10   6   8  ar  
 11   6  25  1   
 12   7   9  ar  
 13   7  26  1   
 14   8  10  1   
 15   8  11  ar  
 16   9  11  ar  
 17   9  27  1   
 18  10  12  am  
 19  10  28  1   
 20  11  13  1   
 21  12  14  2   
 22  12  15  1   
 23  13  16  1   
 24  13  17  1   
 25  15  29  1   
 26  15  30  1   
 27  15  31  1   
 28  16  18  1   
 29  16  32  1   
 30  16  33  1   
 31  17  19  1   
 32  17  34  1   
 33  17  35  1   
 34  18  20  1   
 35  18  36  1   
 36  18  37  1   
 37  19  20  1   
 38  19  38  1   
 39  19  39  1   
 40  20  21  1   
 41  20  40  1   
 42  21  41  1   
 43  21  42  1   
 44  21  43  1   
@<TRIPOS>SUBSTRUCTURE
  1 ****   8 GROUP 4 **** **** 0

# MOE 2024.06 (io_trps.svl 2023.06)
