@<TRIPOS>MOLECULE
NONAME
34 34 1 0 0 
SMALL
USER_CHARGES


@<TRIPOS>ATOM
  1 O        0.5340    -0.3870    -1.1450 O.2   1 <1>  -0.5700 
  2 C        0.7260    -1.0820    -0.1670 C.2   1 <1>   0.6900 
  3 N       -0.2430    -1.8850     0.3560 N.am  1 <1>  -0.5470 
  4 N        1.9360    -1.0880     0.4450 N.am  1 <1>  -0.7300 
  5 C       -1.6000    -2.0150     0.0220 C.ar  1 <1>   0.1170 
  6 C        3.1040    -0.3050    -0.0080 C.3   1 <1>   0.1400 
  7 C       -2.2470    -3.2160     0.2880 C.ar  1 <1>  -0.1500 
  8 C       -2.3360    -0.9830    -0.5520 C.ar  1 <1>  -0.1500 
  9 C        4.3720    -1.1320     0.2050 C.3   1 <1>  -0.1600 
 10 C       -3.5870    -3.3820    -0.0100 C.ar  1 <1>  -0.1500 
 11 C       -3.6750    -1.1500    -0.8530 C.ar  1 <1>  -0.1500 
 12 C        5.6190    -0.3630    -0.2480 C.3   1 <1>  -0.2400 
 13 C       -4.3190    -2.3490    -0.5790 C.ar  1 <1>   0.1170 
 14 N       -5.6730    -2.5370    -0.8770 N.am  1 <1>  -0.5470 
 15 C       -6.7610    -1.8090    -0.5210 C.2   1 <1>   0.5690 
 16 O       -7.8520    -2.1310    -0.9120 O.2   1 <1>  -0.5700 
 17 C       -6.6330    -0.6020     0.3790 C.3   1 <1>  -0.1790 
 18 H        0.1100    -2.5740     1.0090 H     1 <1>   0.3700 
 19 H        2.0280    -1.5170     1.3620 H     1 <1>   0.3700 
 20 H        3.1560     0.6120     0.5550 H     1 <1>   0.0800 
 21 H        2.9970    -0.0580    -1.0520 H     1 <1>   0.0800 
 22 H       -1.6990    -4.0290     0.7280 H     1 <1>   0.1500 
 23 H       -1.8610    -0.0430    -0.7680 H     1 <1>   0.1500 
 24 H        4.2980    -2.0440    -0.3620 H     1 <1>   0.0800 
 25 H        4.4730    -1.3780     1.2470 H     1 <1>   0.0800 
 26 H       -4.0720    -4.3180     0.2030 H     1 <1>   0.1500 
 27 H       -4.2200    -0.3440    -1.3110 H     1 <1>   0.1500 
 28 H        5.5510    -0.1210    -1.2950 H     1 <1>   0.0800 
 29 H        6.4980    -0.9640    -0.0950 H     1 <1>   0.0800 
 30 H        5.7260     0.5490     0.3120 H     1 <1>   0.0800 
 31 H       -5.9120    -3.3690    -1.4160 H     1 <1>   0.3700 
 32 H       -5.9100    -0.7880     1.1510 H     1 <1>   0.0800 
 33 H       -7.5820    -0.3940     0.8360 H     1 <1>   0.0800 
 34 H       -6.3320     0.2500    -0.2000 H     1 <1>   0.0800 
@<TRIPOS>BOND
  1   1   2  2   
  2   2   3  am  
  3   2   4  am  
  4   3   5  1   
  5   3  18  1   
  6   4   6  1   
  7   4  19  1   
  8   5   7  ar  
  9   5   8  ar  
 10   6   9  1   
 11   6  20  1   
 12   6  21  1   
 13   7  10  ar  
 14   7  22  1   
 15   8  11  ar  
 16   8  23  1   
 17   9  12  1   
 18   9  24  1   
 19   9  25  1   
 20  10  13  ar  
 21  10  26  1   
 22  11  13  ar  
 23  11  27  1   
 24  12  28  1   
 25  12  29  1   
 26  12  30  1   
 27  13  14  1   
 28  14  15  am  
 29  14  31  1   
 30  15  16  2   
 31  15  17  1   
 32  17  32  1   
 33  17  33  1   
 34  17  34  1   
@<TRIPOS>SUBSTRUCTURE
  1 ****   5 GROUP 4 **** **** 0

# MOE 2024.06 (io_trps.svl 2023.06)
