@<TRIPOS>MOLECULE
NONAME
48 49 1 0 0 
SMALL
USER_CHARGES


@<TRIPOS>ATOM
  1 O       -1.8830    -0.7610     0.1300 O.2   1 <1>  -0.5700 
  2 C       -1.1550    -1.7200    -0.0120 C.2   1 <1>   0.7800 
  3 O       -0.0780    -1.8140     0.7600 O.3   1 <1>  -0.4300 
  4 N       -1.4440    -2.7260    -0.9020 N.am  1 <1>  -0.6600 
  5 C        1.1920    -1.9980     0.1810 C.3   1 <1>   0.1200 
  6 C       -1.2930    -4.1460    -0.5140 C.3   1 <1>   0.1400 
  7 C       -2.4010    -2.4820    -2.0050 C.3   1 <1>   0.1400 
  8 C        2.2000    -2.1830     1.3100 C.3   1 <1>  -0.2400 
  9 C       -2.6530    -4.6490    -0.0220 C.3   1 <1>  -0.1600 
 10 C       -3.7860    -2.9430    -1.5520 C.3   1 <1>  -0.1600 
 11 C       -3.7490    -4.4000    -1.0730 C.3   1 <1>   0.4230 
 12 N       -5.0930    -4.7890    -0.5640 N.4   1 <1>  -0.9590 
 13 C       -5.5640    -4.0970     0.6860 C.3   1 <1>   0.3430 
 14 C       -5.3000    -6.2710    -0.4410 C.3   1 <1>   0.3430 
 15 C       -7.0590    -4.4020     0.9520 C.3   1 <1>   0.1100 
 16 C       -6.7610    -6.6020    -0.0450 C.3   1 <1>   0.1100 
 17 N       -7.6220    -5.3950    -0.0030 N.3   1 <1>  -0.8100 
 18 C       -9.0160    -5.7590     0.3340 C.3   1 <1>   0.1100 
 19 C       -9.9940    -4.6160     0.0360 C.3   1 <1>   0.1200 
 20 O      -11.2810    -5.0320     0.3360 O.3   1 <1>  -0.6800 
 21 H        1.4250    -1.1210    -0.4000 H     1 <1>   0.0800 
 22 H        1.1750    -2.8620    -0.4600 H     1 <1>   0.0800 
 23 H       -0.5640    -4.2480     0.2730 H     1 <1>   0.0800 
 24 H       -0.9550    -4.7160    -1.3630 H     1 <1>   0.0800 
 25 H       -2.0830    -3.0220    -2.8810 H     1 <1>   0.0800 
 26 H       -2.4230    -1.4310    -2.2500 H     1 <1>   0.0800 
 27 H        2.2050    -1.3150     1.9450 H     1 <1>   0.0800 
 28 H        3.1850    -2.3130     0.9010 H     1 <1>   0.0800 
 29 H        1.9530    -3.0520     1.8930 H     1 <1>   0.0800 
 30 H       -2.8750    -4.1330     0.8940 H     1 <1>   0.0800 
 31 H       -2.5700    -5.6990     0.1880 H     1 <1>   0.0800 
 32 H       -4.4690    -2.8430    -2.3750 H     1 <1>   0.0800 
 33 H       -4.1010    -2.2820    -0.7650 H     1 <1>   0.0800 
 34 H       -3.5190    -5.0090    -1.9320 H     1 <1>   0.0800 
 35 H       -5.8050    -4.5140    -1.2580 H     1 <1>   0.4500 
 36 H       -5.4390    -3.0310     0.5990 H     1 <1>   0.0800 
 37 H       -4.9810    -4.4260     1.5300 H     1 <1>   0.0800 
 38 H       -4.6330    -6.6790     0.2990 H     1 <1>   0.0800 
 39 H       -5.0800    -6.7480    -1.3810 H     1 <1>   0.0800 
 40 H       -7.6070    -3.4790     0.8770 H     1 <1>   0.0800 
 41 H       -7.1680    -4.7590     1.9630 H     1 <1>   0.0800 
 42 H       -6.7640    -7.0850     0.9180 H     1 <1>   0.0800 
 43 H       -7.1590    -7.3040    -0.7580 H     1 <1>   0.0800 
 44 H       -9.0860    -6.0310     1.3740 H     1 <1>   0.0800 
 45 H       -9.3100    -6.6080    -0.2610 H     1 <1>   0.0800 
 46 H       -9.9610    -4.3370    -1.0030 H     1 <1>   0.0800 
 47 H       -9.7860    -3.7590     0.6520 H     1 <1>   0.0800 
 48 H      -11.6080    -5.6750    -0.3240 H     1 <1>   0.4000 
@<TRIPOS>BOND
  1   1   2  2   
  2   2   3  1   
  3   2   4  am  
  4   3   5  1   
  5   4   6  1   
  6   4   7  1   
  7   5   8  1   
  8   5  21  1   
  9   5  22  1   
 10   6   9  1   
 11   6  23  1   
 12   6  24  1   
 13   7  10  1   
 14   7  25  1   
 15   7  26  1   
 16   8  27  1   
 17   8  28  1   
 18   8  29  1   
 19   9  11  1   
 20   9  30  1   
 21   9  31  1   
 22  10  11  1   
 23  10  32  1   
 24  10  33  1   
 25  11  12  1   
 26  11  34  1   
 27  12  13  1   
 28  12  14  1   
 29  12  35  1   
 30  13  15  1   
 31  13  36  1   
 32  13  37  1   
 33  14  16  1   
 34  14  38  1   
 35  14  39  1   
 36  15  17  1   
 37  15  40  1   
 38  15  41  1   
 39  16  17  1   
 40  16  42  1   
 41  16  43  1   
 42  17  18  1   
 43  18  19  1   
 44  18  44  1   
 45  18  45  1   
 46  19  20  1   
 47  19  46  1   
 48  19  47  1   
 49  20  48  1   
@<TRIPOS>SUBSTRUCTURE
  1 ****  11 GROUP 4 **** **** 0

# MOE 2024.06 (io_trps.svl 2023.06)
