@<TRIPOS>MOLECULE
NONAME
38 38 1 0 0 
SMALL
USER_CHARGES


@<TRIPOS>ATOM
  1 O        5.3860    -4.3570    -0.0120 O.3   1 <1>  -0.3630 
  2 C        6.7400    -4.2300     0.0000 C.ar  1 <1>   0.0830 
  3 C        4.7640    -5.6150     0.0190 C.3   1 <1>   0.1200 
  4 C        7.2660    -2.9420    -0.0320 C.ar  1 <1>  -0.1440 
  5 C        7.6030    -5.3230     0.0420 C.ar  1 <1>  -0.1500 
  6 C        3.2560    -5.3650    -0.0050 C.3   1 <1>   0.3430 
  7 C        8.6400    -2.7630    -0.0200 C.ar  1 <1>  -0.1500 
  8 C        6.3530    -1.7240    -0.0790 C.3   1 <1>  -0.0960 
  9 C        8.9720    -5.1290     0.0530 C.ar  1 <1>  -0.1500 
 10 N        2.4780    -6.6420     0.0260 N.4   1 <1>  -0.9060 
 11 C        9.4980    -3.8490     0.0230 C.ar  1 <1>  -0.1430 
 12 C        1.0070    -6.3760     0.0020 C.3   1 <1>   0.3430 
 13 C       11.0010    -3.6350     0.0340 C.3   1 <1>  -0.0970 
 14 C        0.1900    -7.6710     0.0320 C.3   1 <1>   0.1200 
 15 O       -1.1440    -7.3010     0.0060 O.3   1 <1>  -0.5600 
 16 C       -2.0430    -8.3670     0.0280 C.3   1 <1>   0.0400 
 17 H        5.0630    -6.1100     0.9270 H     1 <1>   0.0800 
 18 H        5.0830    -6.1640    -0.8490 H     1 <1>   0.0800 
 19 H        7.2420    -6.3320     0.0660 H     1 <1>   0.1500 
 20 H        3.0130    -4.8150    -0.9000 H     1 <1>   0.0800 
 21 H        2.9940    -4.7610     0.8490 H     1 <1>   0.0800 
 22 H        9.0510    -1.7690    -0.0460 H     1 <1>   0.1500 
 23 H        5.7400    -1.7620    -0.9610 H     1 <1>   0.0800 
 24 H        6.9230    -0.8130    -0.0990 H     1 <1>   0.0800 
 25 H        5.7190    -1.7100     0.7880 H     1 <1>   0.0800 
 26 H        9.6320    -5.9790     0.0840 H     1 <1>   0.1500 
 27 H        2.7140    -7.1700     0.8760 H     1 <1>   0.4500 
 28 H        2.7330    -7.2220    -0.7850 H     1 <1>   0.4500 
 29 H        0.7500    -5.8320    -0.8930 H     1 <1>   0.0800 
 30 H        0.7310    -5.7780     0.8550 H     1 <1>   0.0800 
 31 H       11.2470    -2.7410     0.5780 H     1 <1>   0.0800 
 32 H       11.3610    -3.5380    -0.9740 H     1 <1>   0.0800 
 33 H       11.4990    -4.4640     0.5030 H     1 <1>   0.0800 
 34 H        0.3700    -8.2230     0.9390 H     1 <1>   0.0800 
 35 H        0.3900    -8.2780    -0.8340 H     1 <1>   0.0800 
 36 H       -3.0410    -7.9650     0.0040 H     1 <1>   0.0800 
 37 H       -1.9060    -8.9340     0.9330 H     1 <1>   0.0800 
 38 H       -1.8860    -8.9880    -0.8370 H     1 <1>   0.0800 
@<TRIPOS>BOND
  1   1   2  1   
  2   1   3  1   
  3   2   4  ar  
  4   2   5  ar  
  5   3   6  1   
  6   3  17  1   
  7   3  18  1   
  8   4   7  ar  
  9   4   8  1   
 10   5   9  ar  
 11   5  19  1   
 12   6  10  1   
 13   6  20  1   
 14   6  21  1   
 15   7  11  ar  
 16   7  22  1   
 17   8  23  1   
 18   8  24  1   
 19   8  25  1   
 20   9  11  ar  
 21   9  26  1   
 22  10  12  1   
 23  10  27  1   
 24  10  28  1   
 25  11  13  1   
 26  12  14  1   
 27  12  29  1   
 28  12  30  1   
 29  13  31  1   
 30  13  32  1   
 31  13  33  1   
 32  14  15  1   
 33  14  34  1   
 34  14  35  1   
 35  15  16  1   
 36  16  36  1   
 37  16  37  1   
 38  16  38  1   
@<TRIPOS>SUBSTRUCTURE
  1 ****   3 GROUP 4 **** **** 0

# MOE 2024.06 (io_trps.svl 2023.06)
