@<TRIPOS>MOLECULE
NONAME
35 36 1 0 0 
SMALL
USER_CHARGES


@<TRIPOS>ATOM
  1 O       -0.3580    -2.8880     2.3510 O.2   1 <1>  -0.5700 
  2 C        0.1590    -2.2400     1.4730 C.2   1 <1>   0.5690 
  3 N       -0.5550    -1.7020     0.4550 N.am  1 <1>  -0.7300 
  4 C        1.6650    -2.0280     1.5070 C.3   1 <1>   0.0440 
  5 C       -1.9990    -1.8350     0.2230 C.3   1 <1>   0.2200 
  6 C        2.1940    -1.3040     0.2640 C.ar  1 <1>  -0.1440 
  7 C       -2.2110    -2.5740    -1.0920 C.3   1 <1>  -0.1600 
  8 C       -2.5710    -0.4520    -0.0590 C.3   1 <1>  -0.1600 
  9 C        2.4170    -1.9680    -0.9400 C.ar  1 <1>  -0.1440 
 10 C        2.4320     0.0600     0.3460 C.ar  1 <1>  -0.1500 
 11 C       -2.0020    -1.5250    -2.1910 C.3   1 <1>  -0.1600 
 12 C       -2.2520    -0.1620    -1.5310 C.3   1 <1>  -0.1600 
 13 C        2.8750    -1.2540    -2.0370 C.ar  1 <1>  -0.1500 
 14 C        2.1690    -3.4630    -1.0940 C.3   1 <1>  -0.0970 
 15 C        2.8880     0.7650    -0.7530 C.ar  1 <1>  -0.1500 
 16 C        3.1090     0.1060    -1.9480 C.ar  1 <1>  -0.1500 
 17 H       -0.0460    -1.1980    -0.2760 H     1 <1>   0.3700 
 18 H        2.1430    -2.9830     1.6130 H     1 <1>   0.0800 
 19 H        1.8970    -1.4620     2.3890 H     1 <1>   0.0800 
 20 H       -2.4770    -2.3230     1.0570 H     1 <1>   0.0800 
 21 H       -3.2280    -2.9210    -1.1260 H     1 <1>   0.0800 
 22 H       -1.5540    -3.4200    -1.1920 H     1 <1>   0.0800 
 23 H       -2.1760     0.2950     0.6080 H     1 <1>   0.0800 
 24 H       -3.6390    -0.4940     0.0660 H     1 <1>   0.0800 
 25 H        2.2610     0.5880     1.2680 H     1 <1>   0.1500 
 26 H       -2.6710    -1.6940    -3.0170 H     1 <1>   0.0800 
 27 H       -0.9880    -1.5710    -2.5500 H     1 <1>   0.0800 
 28 H       -1.3630     0.4410    -1.6020 H     1 <1>   0.0800 
 29 H       -3.0660     0.3610    -2.0040 H     1 <1>   0.0800 
 30 H        3.0540    -1.7520    -2.9740 H     1 <1>   0.1500 
 31 H        1.1600    -3.7070    -0.8160 H     1 <1>   0.0800 
 32 H        2.8480    -4.0150    -0.4700 H     1 <1>   0.0800 
 33 H        2.3190    -3.7760    -2.1110 H     1 <1>   0.0800 
 34 H        3.0700     1.8220    -0.6790 H     1 <1>   0.1500 
 35 H        3.4650     0.6500    -2.8050 H     1 <1>   0.1500 
@<TRIPOS>BOND
  1   1   2  2   
  2   2   3  am  
  3   2   4  1   
  4   3   5  1   
  5   3  17  1   
  6   4   6  1   
  7   4  18  1   
  8   4  19  1   
  9   5   7  1   
 10   5   8  1   
 11   5  20  1   
 12   6   9  ar  
 13   6  10  ar  
 14   7  11  1   
 15   7  21  1   
 16   7  22  1   
 17   8  12  1   
 18   8  23  1   
 19   8  24  1   
 20   9  13  ar  
 21   9  14  1   
 22  10  15  ar  
 23  10  25  1   
 24  11  12  1   
 25  11  26  1   
 26  11  27  1   
 27  12  28  1   
 28  12  29  1   
 29  13  16  ar  
 30  13  30  1   
 31  14  31  1   
 32  14  32  1   
 33  14  33  1   
 34  15  16  ar  
 35  15  34  1   
 36  16  35  1   
@<TRIPOS>SUBSTRUCTURE
  1 ****   3 GROUP 4 **** **** 0

# MOE 2024.06 (io_trps.svl 2023.06)
