@<TRIPOS>MOLECULE
NONAME
63 64 1 0 0 
SMALL
USER_CHARGES


@<TRIPOS>ATOM
  1 O       -6.3970    -5.9920     0.7940 O.3   1 <1>  -0.5600 
  2 C       -7.5470    -6.6900     1.1750 C.3   1 <1>   0.2000 
  3 C       -5.1940    -6.6790     0.9500 C.3   1 <1>   0.1200 
  4 C       -8.7140    -6.2140     0.2780 C.3   1 <1>  -0.0800 
  5 C       -7.8230    -6.4360     2.6740 C.3   1 <1>  -0.1600 
  6 C       -4.0470    -5.7330     0.5800 C.3   1 <1>   0.2000 
  7 C       -8.5170    -6.5550    -1.2260 C.3   1 <1>  -0.0800 
  8 C       -8.9920    -4.7020     0.4890 C.3   1 <1>  -0.1600 
  9 C       -8.8170    -5.2900     2.9560 C.3   1 <1>  -0.0800 
 10 O       -2.8440    -6.4240     0.7080 O.3   1 <1>  -0.6800 
 11 C       -4.0370    -4.4520     1.4550 C.3   1 <1>   0.1100 
 12 C       -9.7260    -6.1230    -2.0730 C.3   1 <1>  -0.2400 
 13 C       -8.2770    -8.0550    -1.4640 C.3   1 <1>  -0.2400 
 14 C       -8.6770    -4.1850     1.9050 C.3   1 <1>  -0.1600 
 15 C       -8.6160    -4.7330     4.3690 C.3   1 <1>  -0.2400 
 16 N       -3.2050    -3.3220     0.9610 N.3   1 <1>  -0.8100 
 17 C       -3.7420    -2.7190    -0.2730 C.3   1 <1>   0.1100 
 18 C       -1.7650    -3.6210     0.8550 C.3   1 <1>   0.1100 
 19 C       -2.9550    -1.4500    -0.6550 C.3   1 <1>   0.3430 
 20 C       -0.9670    -2.3550     0.4900 C.3   1 <1>   0.3430 
 21 N       -1.4770    -1.7230    -0.7780 N.4   1 <1>  -0.9590 
 22 C       -0.6880    -0.4890    -1.0950 C.3   1 <1>   0.3430 
 23 C       -0.9870     0.0720    -2.4930 C.3   1 <1>   0.1200 
 24 O       -0.1780     1.1780    -2.6830 O.3   1 <1>  -0.6800 
 25 H       -7.3770    -7.7420     1.0300 H     1 <1>   0.0800 
 26 H       -5.2030    -7.5280     0.2890 H     1 <1>   0.0800 
 27 H       -5.1070    -7.0000     1.9730 H     1 <1>   0.0800 
 28 H       -9.5860    -6.7490     0.6120 H     1 <1>   0.0800 
 29 H       -6.8920    -6.2470     3.1770 H     1 <1>   0.0800 
 30 H       -8.2350    -7.3330     3.0990 H     1 <1>   0.0800 
 31 H       -4.1600    -5.4740    -0.4570 H     1 <1>   0.0800 
 32 H       -7.6520    -6.0220    -1.5860 H     1 <1>   0.0800 
 33 H      -10.0290    -4.5120     0.2760 H     1 <1>   0.0800 
 34 H       -8.4070    -4.1260    -0.2070 H     1 <1>   0.0800 
 35 H       -9.8190    -5.6820     2.8910 H     1 <1>   0.0800 
 36 H       -2.7380    -6.7570     1.6200 H     1 <1>   0.4000 
 37 H       -3.7270    -4.7110     2.4520 H     1 <1>   0.0800 
 38 H       -5.0490    -4.0910     1.5400 H     1 <1>   0.0800 
 39 H      -10.6260    -6.5880    -1.7120 H     1 <1>   0.0800 
 40 H       -9.5850    -6.4060    -3.1010 H     1 <1>   0.0800 
 41 H       -9.8550    -5.0560    -2.0490 H     1 <1>   0.0800 
 42 H       -7.3370    -8.3660    -1.0470 H     1 <1>   0.0800 
 43 H       -8.2410    -8.2650    -2.5190 H     1 <1>   0.0800 
 44 H       -9.0670    -8.6400    -1.0280 H     1 <1>   0.0800 
 45 H       -9.3300    -3.3610     2.1370 H     1 <1>   0.0800 
 46 H       -7.6660    -3.8150     1.9260 H     1 <1>   0.0800 
 47 H       -7.6360    -4.2990     4.4700 H     1 <1>   0.0800 
 48 H       -8.7250    -5.5160     5.0980 H     1 <1>   0.0800 
 49 H       -9.3490    -3.9730     4.5770 H     1 <1>   0.0800 
 50 H       -4.7750    -2.4550    -0.1180 H     1 <1>   0.0800 
 51 H       -3.6990    -3.4260    -1.0830 H     1 <1>   0.0800 
 52 H       -1.5920    -4.3720     0.1040 H     1 <1>   0.0800 
 53 H       -1.4110    -4.0030     1.7980 H     1 <1>   0.0800 
 54 H       -3.1240    -0.7070     0.1070 H     1 <1>   0.0800 
 55 H       -3.3410    -1.0670    -1.5850 H     1 <1>   0.0800 
 56 H        0.0730    -2.6150     0.3800 H     1 <1>   0.0800 
 57 H       -1.0520    -1.6560     1.3050 H     1 <1>   0.0800 
 58 H       -1.3470    -2.4170    -1.5250 H     1 <1>   0.4500 
 59 H        0.3640    -0.7180    -1.0470 H     1 <1>   0.0800 
 60 H       -0.9000     0.2720    -0.3620 H     1 <1>   0.0800 
 61 H       -2.0100     0.3930    -2.5790 H     1 <1>   0.0800 
 62 H       -0.7500    -0.6480    -3.2580 H     1 <1>   0.0800 
 63 H       -0.3090     1.5800    -3.5690 H     1 <1>   0.4000 
@<TRIPOS>BOND
  1   1   2  1   
  2   1   3  1   
  3   2   4  1   
  4   2   5  1   
  5   2  25  1   
  6   3   6  1   
  7   3  26  1   
  8   3  27  1   
  9   4   7  1   
 10   4   8  1   
 11   4  28  1   
 12   5   9  1   
 13   5  29  1   
 14   5  30  1   
 15   6  10  1   
 16   6  11  1   
 17   6  31  1   
 18   7  12  1   
 19   7  13  1   
 20   7  32  1   
 21   8  14  1   
 22   8  33  1   
 23   8  34  1   
 24   9  14  1   
 25   9  15  1   
 26   9  35  1   
 27  10  36  1   
 28  11  16  1   
 29  11  37  1   
 30  11  38  1   
 31  12  39  1   
 32  12  40  1   
 33  12  41  1   
 34  13  42  1   
 35  13  43  1   
 36  13  44  1   
 37  14  45  1   
 38  14  46  1   
 39  15  47  1   
 40  15  48  1   
 41  15  49  1   
 42  16  17  1   
 43  16  18  1   
 44  17  19  1   
 45  17  50  1   
 46  17  51  1   
 47  18  20  1   
 48  18  52  1   
 49  18  53  1   
 50  19  21  1   
 51  19  54  1   
 52  19  55  1   
 53  20  21  1   
 54  20  56  1   
 55  20  57  1   
 56  21  22  1   
 57  21  58  1   
 58  22  23  1   
 59  22  59  1   
 60  22  60  1   
 61  23  24  1   
 62  23  61  1   
 63  23  62  1   
 64  24  63  1   
@<TRIPOS>SUBSTRUCTURE
  1 ****  11 GROUP 4 **** **** 0

# MOE 2024.06 (io_trps.svl 2023.06)
