@<TRIPOS>MOLECULE
NONAME
34 35 1 0 0 
SMALL
USER_CHARGES


@<TRIPOS>ATOM
  1 CL       0.1160    -0.3240     0.5440 Cl    1 <1>  -0.1770 
  2 C        1.8010    -0.7760     0.5330 C.ar  1 <1>   0.1770 
  3 C        2.3720    -1.2230    -0.6450 C.ar  1 <1>  -0.1500 
  4 C        2.5350    -0.6790     1.7020 C.ar  1 <1>  -0.1500 
  5 C        3.7110    -1.5830    -0.6590 C.ar  1 <1>  -0.1500 
  6 C        3.8730    -1.0380     1.6890 C.ar  1 <1>  -0.1500 
  7 C        4.4500    -1.4870     0.5120 C.ar  1 <1>   0.1020 
  8 S        6.1930    -1.9340     0.5850 S.3   1 <1>  -0.3320 
  9 C        6.6700    -2.4990    -1.1260 C.3   1 <1>   0.1310 
 10 C        8.1350    -2.9010    -1.1970 C.2   1 <1>   0.5690 
 11 O        8.6540    -2.9810    -2.2830 O.2   1 <1>  -0.5700 
 12 N        8.8250    -3.1560    -0.0550 N.am  1 <1>  -0.7300 
 13 C       10.2640    -3.5290     0.0110 C.3   1 <1>   0.1400 
 14 C       11.1700    -2.2980    -0.1290 C.3   1 <1>   0.2000 
 15 O       12.4830    -2.6600     0.1440 O.3   1 <1>  -0.5600 
 16 C       10.8900    -1.1720     0.8600 C.3   1 <1>  -0.1600 
 17 C       13.2330    -1.5290     0.4510 C.3   1 <1>   0.1200 
 18 C       12.2490    -0.5080     1.0200 C.3   1 <1>  -0.1600 
 19 H        1.7730    -1.2860    -1.5360 H     1 <1>   0.1500 
 20 H        2.0650    -0.3270     2.6030 H     1 <1>   0.1500 
 21 H        4.1480    -1.9280    -1.5760 H     1 <1>   0.1500 
 22 H        4.4660    -0.9720     2.5840 H     1 <1>   0.1500 
 23 H        6.4830    -1.6820    -1.7970 H     1 <1>   0.0800 
 24 H        6.0490    -3.3390    -1.3740 H     1 <1>   0.0800 
 25 H        8.3560    -2.9920     0.8410 H     1 <1>   0.3700 
 26 H       10.4870    -4.2160    -0.7870 H     1 <1>   0.0800 
 27 H       10.4590    -4.0140     0.9510 H     1 <1>   0.0800 
 28 H       11.1390    -1.9310    -1.1410 H     1 <1>   0.0800 
 29 H       10.5660    -1.5840     1.7990 H     1 <1>   0.0800 
 30 H       10.1390    -0.4980     0.4880 H     1 <1>   0.0800 
 31 H       13.6860    -1.1710    -0.4580 H     1 <1>   0.0800 
 32 H       13.9930    -1.8040     1.1610 H     1 <1>   0.0800 
 33 H       12.4650    -0.2960     2.0520 H     1 <1>   0.0800 
 34 H       12.3060     0.4050     0.4540 H     1 <1>   0.0800 
@<TRIPOS>BOND
  1   1   2  1   
  2   2   3  ar  
  3   2   4  ar  
  4   3   5  ar  
  5   3  19  1   
  6   4   6  ar  
  7   4  20  1   
  8   5   7  ar  
  9   5  21  1   
 10   6   7  ar  
 11   6  22  1   
 12   7   8  1   
 13   8   9  1   
 14   9  10  1   
 15   9  23  1   
 16   9  24  1   
 17  10  11  2   
 18  10  12  am  
 19  12  13  1   
 20  12  25  1   
 21  13  14  1   
 22  13  26  1   
 23  13  27  1   
 24  14  15  1   
 25  14  16  1   
 26  14  28  1   
 27  15  17  1   
 28  16  18  1   
 29  16  29  1   
 30  16  30  1   
 31  17  18  1   
 32  17  31  1   
 33  17  32  1   
 34  18  33  1   
 35  18  34  1   
@<TRIPOS>SUBSTRUCTURE
  1 ****   8 GROUP 4 **** **** 0

# MOE 2024.06 (io_trps.svl 2023.06)
