@<TRIPOS>MOLECULE
NONAME
39 40 1 0 0 
SMALL
USER_CHARGES


@<TRIPOS>ATOM
  1 O        0.3000    -0.9920    -0.2920 O.3   1 <1>  -0.5600 
  2 C        0.5830    -2.2830     0.1780 C.3   1 <1>   0.1200 
  3 C        1.4020    -0.3540    -0.8800 C.3   1 <1>   0.1200 
  4 C        1.6890    -2.2470     1.2470 C.3   1 <1>   0.2090 
  5 C        2.5660    -0.2140     0.1190 C.3   1 <1>   0.2090 
  6 N        2.8980    -1.5410     0.7220 N.pl3 1 <1>  -0.8380 
  7 C        4.0950    -2.1760     0.4740 C.ar  1 <1>   0.7200 
  8 N        5.1390    -1.4130     0.2750 N.ar  1 <1>  -0.6200 
  9 N        4.0920    -3.4850     0.4530 N.ar  1 <1>  -0.6200 
 10 C        6.2360    -2.0780     0.0410 C.ar  1 <1>   0.7200 
 11 C        5.2590    -4.0060     0.2120 C.ar  1 <1>   0.7200 
 12 N        6.3750    -3.3690    -0.0070 N.ar  1 <1>  -0.6200 
 13 N        7.3710    -1.3800    -0.1720 N.pl3 1 <1>  -0.8690 
 14 N        5.2750    -5.3590     0.1850 N.pl3 1 <1>  -0.8690 
 15 C        7.5930    -0.0490     0.4040 C.3   1 <1>   0.3470 
 16 C        6.3320    -6.1580    -0.4540 C.3   1 <1>   0.2090 
 17 C        9.0600     0.3340     0.2730 C.2   1 <1>  -0.2880 
 18 C        5.9850    -7.6310    -0.2910 C.3   1 <1>  -0.2400 
 19 C       10.0220    -0.2900    -0.4190 C.2   1 <1>  -0.3000 
 20 H        0.8890    -2.8950    -0.6530 H     1 <1>   0.0800 
 21 H       -0.3220    -2.6870     0.5940 H     1 <1>   0.0800 
 22 H        1.0810     0.6170    -1.2110 H     1 <1>   0.0800 
 23 H        1.7140    -0.9260    -1.7360 H     1 <1>   0.0800 
 24 H        1.9240    -3.2500     1.5580 H     1 <1>   0.0800 
 25 H        1.3240    -1.7200     2.1110 H     1 <1>   0.0800 
 26 H        2.2840     0.4690     0.9010 H     1 <1>   0.0800 
 27 H        3.4140     0.2040    -0.3930 H     1 <1>   0.0800 
 28 H        8.2000    -1.9680    -0.1500 H     1 <1>   0.4000 
 29 H        4.3430    -5.7690     0.1960 H     1 <1>   0.4000 
 30 H        7.3140    -0.0650     1.4450 H     1 <1>   0.0800 
 31 H        6.9750     0.6700    -0.1060 H     1 <1>   0.0800 
 32 H        7.2780    -5.9430     0.0170 H     1 <1>   0.0800 
 33 H        6.3980    -5.8990    -1.4980 H     1 <1>   0.0800 
 34 H        9.2690     1.2310     0.8290 H     1 <1>   0.1500 
 35 H        5.9190    -7.8820     0.7530 H     1 <1>   0.0800 
 36 H        6.7560    -8.2330    -0.7380 H     1 <1>   0.0800 
 37 H        5.0530    -7.8530    -0.7780 H     1 <1>   0.0800 
 38 H       11.0430     0.0490    -0.4590 H     1 <1>   0.1500 
 39 H        9.8820    -1.1810    -1.0080 H     1 <1>   0.1500 
@<TRIPOS>BOND
  1   1   2  1   
  2   1   3  1   
  3   2   4  1   
  4   2  20  1   
  5   2  21  1   
  6   3   5  1   
  7   3  22  1   
  8   3  23  1   
  9   4   6  1   
 10   4  24  1   
 11   4  25  1   
 12   5   6  1   
 13   5  26  1   
 14   5  27  1   
 15   6   7  1   
 16   7   8  ar  
 17   7   9  ar  
 18   8  10  ar  
 19   9  11  ar  
 20  10  12  ar  
 21  10  13  1   
 22  11  12  ar  
 23  11  14  1   
 24  13  15  1   
 25  13  28  1   
 26  14  16  1   
 27  14  29  1   
 28  15  17  1   
 29  15  30  1   
 30  15  31  1   
 31  16  18  1   
 32  16  32  1   
 33  16  33  1   
 34  17  19  2   
 35  17  34  1   
 36  18  35  1   
 37  18  36  1   
 38  18  37  1   
 39  19  38  1   
 40  19  39  1   
@<TRIPOS>SUBSTRUCTURE
  1 ****   7 GROUP 4 **** **** 0

# MOE 2024.06 (io_trps.svl 2023.06)
