@<TRIPOS>MOLECULE
NONAME
40 42 1 0 0 
SMALL
USER_CHARGES


@<TRIPOS>ATOM
  1 CL      -1.2110    -2.7790     3.0080 Cl    1 <1>  -0.1770 
  2 C       -2.0850    -2.2970     1.5650 C.ar  1 <1>   0.1770 
  3 C       -1.5240    -2.4800     0.2940 C.ar  1 <1>   0.1000 
  4 C       -3.3370    -1.7360     1.7340 C.ar  1 <1>  -0.1500 
  5 N       -0.2620    -3.0410     0.0560 N.pl3 1 <1>  -0.8380 
  6 C       -2.2750    -2.0740    -0.8020 C.ar  1 <1>  -0.1500 
  7 C       -4.0640    -1.3410     0.6240 C.ar  1 <1>  -0.1500 
  8 C       -0.1260    -4.5000     0.3440 C.3   1 <1>   0.2090 
  9 C        0.9130    -2.2150     0.4700 C.3   1 <1>   0.2090 
 10 C       -3.5300    -1.5110    -0.6430 C.ar  1 <1>  -0.1500 
 11 C        1.1910    -5.0570    -0.2360 C.3   1 <1>   0.3430 
 12 C        2.2210    -2.7890    -0.1110 C.3   1 <1>   0.3430 
 13 N        2.3930    -4.2580     0.1990 N.4   1 <1>  -0.9590 
 14 C        3.6600    -4.7890    -0.3630 C.3   1 <1>   0.5230 
 15 C        4.8080    -4.0560     0.2950 C.2   1 <1>  -0.1400 
 16 S        4.9430    -4.2360     2.0390 S.3   1 <1>  -0.0800 
 17 C        5.7850    -3.2560    -0.1780 C.2   1 <1>  -0.1810 
 18 C        6.3510    -3.1960     2.0810 C.2   1 <1>  -0.1100 
 19 C        6.6610    -2.7680     0.8450 C.2   1 <1>  -0.1500 
 20 C        6.0320    -2.8490    -1.6210 C.3   1 <1>  -0.0590 
 21 H       -3.7390    -1.6100     2.7230 H     1 <1>   0.1500 
 22 H       -1.8680    -2.2020    -1.7880 H     1 <1>   0.1500 
 23 H       -5.0410    -0.9030     0.7440 H     1 <1>   0.1500 
 24 H       -0.9590    -5.0250    -0.0910 H     1 <1>   0.0800 
 25 H       -0.1500    -4.6690     1.4060 H     1 <1>   0.0800 
 26 H        0.9810    -2.1830     1.5430 H     1 <1>   0.0800 
 27 H        0.7790    -1.2060     0.1180 H     1 <1>   0.0800 
 28 H       -4.0950    -1.2040    -1.5070 H     1 <1>   0.1500 
 29 H        1.1140    -5.0370    -1.3100 H     1 <1>   0.0800 
 30 H        1.3010    -6.0840     0.0700 H     1 <1>   0.0800 
 31 H        3.0530    -2.2300     0.2860 H     1 <1>   0.0800 
 32 H        2.2040    -2.6450    -1.1780 H     1 <1>   0.0800 
 33 H        2.4830    -4.3330     1.2210 H     1 <1>   0.4500 
 34 H        3.6890    -4.6400    -1.4300 H     1 <1>   0.0800 
 35 H        3.7490    -5.8430    -0.1570 H     1 <1>   0.0800 
 36 H        6.8080    -3.0130     3.0390 H     1 <1>   0.1500 
 37 H        7.4880    -2.1190     0.6070 H     1 <1>   0.1500 
 38 H        5.3080    -3.2850    -2.2830 H     1 <1>   0.0800 
 39 H        7.0120    -3.1740    -1.9260 H     1 <1>   0.0800 
 40 H        5.9850    -1.7790    -1.7140 H     1 <1>   0.0800 
@<TRIPOS>BOND
  1   1   2  1   
  2   2   3  ar  
  3   2   4  ar  
  4   3   5  1   
  5   3   6  ar  
  6   4   7  ar  
  7   4  21  1   
  8   5   8  1   
  9   5   9  1   
 10   6  10  ar  
 11   6  22  1   
 12   7  10  ar  
 13   7  23  1   
 14   8  11  1   
 15   8  24  1   
 16   8  25  1   
 17   9  12  1   
 18   9  26  1   
 19   9  27  1   
 20  10  28  1   
 21  11  13  1   
 22  11  29  1   
 23  11  30  1   
 24  12  13  1   
 25  12  31  1   
 26  12  32  1   
 27  13  14  1   
 28  13  33  1   
 29  14  15  1   
 30  14  34  1   
 31  14  35  1   
 32  15  16  1   
 33  15  17  2   
 34  16  18  1   
 35  17  19  1   
 36  17  20  1   
 37  18  19  2   
 38  18  36  1   
 39  19  37  1   
 40  20  38  1   
 41  20  39  1   
 42  20  40  1   
@<TRIPOS>SUBSTRUCTURE
  1 ****   9 GROUP 4 **** **** 0

# MOE 2024.06 (io_trps.svl 2023.06)
