@<TRIPOS>MOLECULE
NONAME
56 58 1 0 0 
SMALL
USER_CHARGES


@<TRIPOS>ATOM
  1 O       -3.9670    -8.9900     1.5500 O.3   1 <1>  -0.3630 
  2 C       -2.8670    -9.7020     1.2210 C.ar  1 <1>   0.0830 
  3 C       -4.4360    -7.9750     0.6770 C.3   1 <1>   0.1200 
  4 C       -2.7900   -10.4160     0.0340 C.ar  1 <1>  -0.1500 
  5 C       -1.7930    -9.6870     2.0950 C.ar  1 <1>  -0.1500 
  6 C       -3.3230    -6.9350     0.4470 C.3   1 <1>   0.2000 
  7 C       -1.6120   -11.0610    -0.3010 C.ar  1 <1>  -0.1500 
  8 C       -0.6210   -10.3410     1.7590 C.ar  1 <1>  -0.1500 
  9 O       -3.8790    -5.6680     0.2950 O.3   1 <1>  -0.6800 
 10 C       -2.4850    -7.2580    -0.8150 C.3   1 <1>   0.3430 
 11 C       -0.5200   -11.0180     0.5530 C.ar  1 <1>  -0.1440 
 12 N       -1.0920    -6.6940    -0.8210 N.4   1 <1>  -0.9590 
 13 C        0.7740   -11.7290     0.1840 C.3   1 <1>  -0.0170 
 14 C       -0.1970    -7.4430     0.1330 C.3   1 <1>   0.3430 
 15 C       -1.0470    -5.2130    -0.5390 C.3   1 <1>   0.3430 
 16 C        1.7710   -10.7460    -0.4400 C.3   1 <1>  -0.1600 
 17 C        1.2510    -6.9200     0.1090 C.3   1 <1>   0.2090 
 18 C        0.3910    -4.6580    -0.5670 C.3   1 <1>   0.2090 
 19 C        3.0730   -11.4470    -0.8390 C.3   1 <1>  -0.2400 
 20 N        1.3140    -5.4400     0.3130 N.pl3 1 <1>  -0.8380 
 21 C        2.5970    -4.9400     0.3510 C.ar  1 <1>   0.4100 
 22 N        3.3010    -5.0550    -0.7670 N.ar  1 <1>  -0.6200 
 23 C        3.0830    -4.3570     1.5160 C.ar  1 <1>  -0.1500 
 24 C        4.5320    -4.5700    -0.7180 C.ar  1 <1>   0.1600 
 25 C        4.3630    -3.8580     1.5520 C.ar  1 <1>  -0.1500 
 26 C        5.1030    -3.9730     0.3920 C.ar  1 <1>  -0.1500 
 27 H       -5.2810    -7.5230     1.1650 H     1 <1>   0.0800 
 28 H       -4.7630    -8.4310    -0.2410 H     1 <1>   0.0800 
 29 H       -3.6420   -10.4770    -0.6190 H     1 <1>   0.1500 
 30 H       -1.8800    -9.1700     3.0340 H     1 <1>   0.1500 
 31 H       -2.6980    -6.9030     1.3230 H     1 <1>   0.0800 
 32 H       -1.5510   -11.6100    -1.2260 H     1 <1>   0.1500 
 33 H        0.2100   -10.3310     2.4450 H     1 <1>   0.1500 
 34 H       -4.4270    -5.4280     1.0740 H     1 <1>   0.4000 
 35 H       -3.0280    -6.8950    -1.6720 H     1 <1>   0.0800 
 36 H       -2.4100    -8.3240    -0.9170 H     1 <1>   0.0800 
 37 H       -0.6940    -6.8260    -1.7600 H     1 <1>   0.4500 
 38 H        0.5660   -12.5260    -0.5090 H     1 <1>   0.0800 
 39 H        1.2030   -12.1730     1.0660 H     1 <1>   0.0800 
 40 H       -0.1940    -8.4920    -0.1140 H     1 <1>   0.0800 
 41 H       -0.5730    -7.3450     1.1370 H     1 <1>   0.0800 
 42 H       -1.4620    -5.0170     0.4360 H     1 <1>   0.0800 
 43 H       -1.6480    -4.6830    -1.2600 H     1 <1>   0.0800 
 44 H        1.9970    -9.9680     0.2670 H     1 <1>   0.0800 
 45 H        1.3320   -10.2970    -1.3140 H     1 <1>   0.0800 
 46 H        1.7090    -7.1750    -0.8320 H     1 <1>   0.0800 
 47 H        1.8150    -7.4050     0.8870 H     1 <1>   0.0800 
 48 H        0.3800    -3.6320    -0.2390 H     1 <1>   0.0800 
 49 H        0.7620    -4.6710    -1.5780 H     1 <1>   0.0800 
 50 H        3.5430   -11.8910     0.0210 H     1 <1>   0.0800 
 51 H        3.7580   -10.7390    -1.2720 H     1 <1>   0.0800 
 52 H        2.8810   -12.2190    -1.5640 H     1 <1>   0.0800 
 53 H        2.4440    -4.3050     2.3770 H     1 <1>   0.1500 
 54 H        5.1220    -4.6520    -1.6150 H     1 <1>   0.1500 
 55 H        4.7710    -3.4000     2.4370 H     1 <1>   0.1500 
 56 H        6.1120    -3.6040     0.3510 H     1 <1>   0.1500 
@<TRIPOS>BOND
  1   1   2  1   
  2   1   3  1   
  3   2   4  ar  
  4   2   5  ar  
  5   3   6  1   
  6   3  27  1   
  7   3  28  1   
  8   4   7  ar  
  9   4  29  1   
 10   5   8  ar  
 11   5  30  1   
 12   6   9  1   
 13   6  10  1   
 14   6  31  1   
 15   7  11  ar  
 16   7  32  1   
 17   8  11  ar  
 18   8  33  1   
 19   9  34  1   
 20  10  12  1   
 21  10  35  1   
 22  10  36  1   
 23  11  13  1   
 24  12  14  1   
 25  12  15  1   
 26  12  37  1   
 27  13  16  1   
 28  13  38  1   
 29  13  39  1   
 30  14  17  1   
 31  14  40  1   
 32  14  41  1   
 33  15  18  1   
 34  15  42  1   
 35  15  43  1   
 36  16  19  1   
 37  16  44  1   
 38  16  45  1   
 39  17  20  1   
 40  17  46  1   
 41  17  47  1   
 42  18  20  1   
 43  18  48  1   
 44  18  49  1   
 45  19  50  1   
 46  19  51  1   
 47  19  52  1   
 48  20  21  1   
 49  21  22  ar  
 50  21  23  ar  
 51  22  24  ar  
 52  23  25  ar  
 53  23  53  1   
 54  24  26  ar  
 55  24  54  1   
 56  25  26  ar  
 57  25  55  1   
 58  26  56  1   
@<TRIPOS>SUBSTRUCTURE
  1 ****  14 GROUP 4 **** **** 0

# MOE 2024.06 (io_trps.svl 2023.06)
