@<TRIPOS>MOLECULE
NONAME
42 43 1 0 0 
SMALL
USER_CHARGES


@<TRIPOS>ATOM
  1 CL       1.8070     1.9350    -2.1590 Cl    1 <1>  -0.1770 
  2 C        0.6770     2.6970    -1.0670 C.ar  1 <1>   0.1770 
  3 C       -0.6320     2.8820    -1.4650 C.ar  1 <1>  -0.1500 
  4 C        1.1170     3.1010     0.1780 C.ar  1 <1>  -0.1500 
  5 C       -1.5400     3.4880    -0.6040 C.ar  1 <1>   0.1170 
  6 C        0.2260     3.7080     1.0460 C.ar  1 <1>  -0.1500 
  7 N       -2.8880     3.7100    -0.9400 N.am  1 <1>  -0.5470 
  8 C       -1.0990     3.9030     0.6610 C.ar  1 <1>   0.0830 
  9 C       -3.6610     3.3780    -2.0190 C.2   1 <1>   0.5690 
 10 O       -2.0230     4.4980     1.4760 O.3   1 <1>  -0.3620 
 11 O       -3.2490     2.7540    -2.9660 O.2   1 <1>  -0.5700 
 12 C       -5.1130     3.8260    -2.0410 C.3   1 <1>   0.1310 
 13 C       -1.6810     4.9480     2.7690 C.3   1 <1>   0.0400 
 14 S       -5.7680     4.1160    -0.3240 S.3   1 <1>  -0.2860 
 15 C       -7.4270     4.7290    -0.6380 C.2   1 <1>   0.2420 
 16 N       -7.8990     4.9170    -1.8170 N.2   1 <1>  -0.3380 
 17 N       -8.2840     5.0310     0.3370 N.pl3 1 <1>   0.0480 
 18 N       -9.1430     5.3710    -1.6380 N.2   1 <1>  -0.3380 
 19 C       -9.3580     5.4330    -0.3630 C.2   1 <1>   0.0060 
 20 C       -8.0830     4.9390     1.8000 C.3   1 <1>   0.0960 
 21 C      -10.6550     5.8990     0.2900 C.3   1 <1>   0.0200 
 22 C       -8.4720     3.5490     2.3140 C.3   1 <1>  -0.2400 
 23 C      -11.7670     6.2060    -0.7200 C.3   1 <1>  -0.2400 
 24 H       -0.9240     2.5520    -2.4430 H     1 <1>   0.1500 
 25 H        2.1430     2.9420     0.4580 H     1 <1>   0.1500 
 26 H        0.5850     4.0160     2.0090 H     1 <1>   0.1500 
 27 H       -3.3930     4.1840    -0.1850 H     1 <1>   0.3700 
 28 H       -5.7320     3.0740    -2.4930 H     1 <1>   0.0800 
 29 H       -5.2110     4.7490    -2.5820 H     1 <1>   0.0800 
 30 H       -2.5590     5.3760     3.2180 H     1 <1>   0.0800 
 31 H       -0.9120     5.6970     2.6870 H     1 <1>   0.0800 
 32 H       -1.3440     4.1110     3.3540 H     1 <1>   0.0800 
 33 H       -8.6790     5.6920     2.2840 H     1 <1>   0.0800 
 34 H       -7.0500     5.1370     2.0230 H     1 <1>   0.0800 
 35 H      -10.4550     6.7860     0.8650 H     1 <1>   0.0800 
 36 H      -11.0030     5.1350     0.9620 H     1 <1>   0.0800 
 37 H       -9.5070     3.3430     2.1050 H     1 <1>   0.0800 
 38 H       -8.3230     3.4990     3.3770 H     1 <1>   0.0800 
 39 H       -7.8600     2.7950     1.8500 H     1 <1>   0.0800 
 40 H      -11.4540     6.9880    -1.3900 H     1 <1>   0.0800 
 41 H      -12.6590     6.5230    -0.2100 H     1 <1>   0.0800 
 42 H      -11.9920     5.3290    -1.3010 H     1 <1>   0.0800 
@<TRIPOS>BOND
  1   1   2  1   
  2   2   3  ar  
  3   2   4  ar  
  4   3   5  ar  
  5   3  24  1   
  6   4   6  ar  
  7   4  25  1   
  8   5   7  1   
  9   5   8  ar  
 10   6   8  ar  
 11   6  26  1   
 12   7   9  am  
 13   7  27  1   
 14   8  10  1   
 15   9  11  2   
 16   9  12  1   
 17  10  13  1   
 18  12  14  1   
 19  12  28  1   
 20  12  29  1   
 21  13  30  1   
 22  13  31  1   
 23  13  32  1   
 24  14  15  1   
 25  15  16  2   
 26  15  17  1   
 27  16  18  1   
 28  17  19  1   
 29  17  20  1   
 30  18  19  2   
 31  19  21  1   
 32  20  22  1   
 33  20  33  1   
 34  20  34  1   
 35  21  23  1   
 36  21  35  1   
 37  21  36  1   
 38  22  37  1   
 39  22  38  1   
 40  22  39  1   
 41  23  40  1   
 42  23  41  1   
 43  23  42  1   
@<TRIPOS>SUBSTRUCTURE
  1 ****  14 GROUP 4 **** **** 0

# MOE 2024.06 (io_trps.svl 2023.06)
