@<TRIPOS>MOLECULE
NONAME
39 41 1 0 0 
SMALL
USER_CHARGES


@<TRIPOS>ATOM
  1 CL      -1.3210     0.6620    -1.9450 Cl    1 <1>  -0.1770 
  2 C       -2.3820     1.0910    -0.6300 C.ar  1 <1>   0.1770 
  3 C       -3.6690     0.5870    -0.6150 C.ar  1 <1>  -0.1500 
  4 C       -1.9250     1.9260     0.3700 C.ar  1 <1>  -0.1500 
  5 C       -4.5270     0.9300     0.4220 C.ar  1 <1>  -0.1440 
  6 C       -2.7750     2.2610     1.4090 C.ar  1 <1>  -0.1500 
  7 C       -4.0690     1.7640     1.4350 C.ar  1 <1>  -0.1500 
  8 C       -5.9500     0.4030     0.4480 C.3   1 <1>   0.4870 
  9 N       -6.7450     1.1270    -0.5770 N.4   1 <1>  -0.9590 
 10 C       -6.8390     2.6010    -0.2510 C.3   1 <1>   0.3430 
 11 C       -8.1230     0.5300    -0.7170 C.3   1 <1>   0.3430 
 12 C       -7.7140     3.3830    -1.2550 C.3   1 <1>   0.2090 
 13 C       -9.0100     1.2950    -1.7250 C.3   1 <1>   0.2090 
 14 N       -9.0580     2.7530    -1.4120 N.pl3 1 <1>  -0.8380 
 15 C       -9.9950     3.1240    -0.4710 C.ar  1 <1>   0.4100 
 16 N       -9.7830     2.6970     0.7700 N.ar  1 <1>  -0.6200 
 17 C      -11.0820     3.9030    -0.8500 C.ar  1 <1>  -0.1500 
 18 C      -10.6960     3.0650     1.6580 C.ar  1 <1>   0.1600 
 19 C      -12.0190     4.2750     0.0850 C.ar  1 <1>  -0.1500 
 20 C      -11.8090     3.8370     1.3770 C.ar  1 <1>  -0.1500 
 21 H       -3.9720    -0.0670    -1.4130 H     1 <1>   0.1500 
 22 H       -0.9170     2.3030     0.3350 H     1 <1>   0.1500 
 23 H       -2.4250     2.9070     2.1990 H     1 <1>   0.1500 
 24 H       -4.7090     2.0370     2.2580 H     1 <1>   0.1500 
 25 H       -6.3820     0.5520     1.4250 H     1 <1>   0.0800 
 26 H       -5.9420    -0.6530     0.2350 H     1 <1>   0.0800 
 27 H       -6.2530     1.0450    -1.4740 H     1 <1>   0.4500 
 28 H       -5.8540     3.0380    -0.2320 H     1 <1>   0.0800 
 29 H       -7.2740     2.7240     0.7270 H     1 <1>   0.0800 
 30 H       -8.6210     0.5540     0.2390 H     1 <1>   0.0800 
 31 H       -8.0510    -0.5000    -1.0260 H     1 <1>   0.0800 
 32 H       -7.2250     3.4280    -2.2130 H     1 <1>   0.0800 
 33 H       -7.8340     4.3940    -0.9030 H     1 <1>   0.0800 
 34 H      -10.0090     0.8920    -1.6910 H     1 <1>   0.0800 
 35 H       -8.6370     1.1570    -2.7250 H     1 <1>   0.0800 
 36 H      -11.1740     4.2040    -1.8760 H     1 <1>   0.1500 
 37 H      -10.5520     2.7340     2.6720 H     1 <1>   0.1500 
 38 H      -12.8730     4.8770    -0.1750 H     1 <1>   0.1500 
 39 H      -12.5040     4.0920     2.1570 H     1 <1>   0.1500 
@<TRIPOS>BOND
  1   1   2  1   
  2   2   3  ar  
  3   2   4  ar  
  4   3   5  ar  
  5   3  21  1   
  6   4   6  ar  
  7   4  22  1   
  8   5   7  ar  
  9   5   8  1   
 10   6   7  ar  
 11   6  23  1   
 12   7  24  1   
 13   8   9  1   
 14   8  25  1   
 15   8  26  1   
 16   9  10  1   
 17   9  11  1   
 18   9  27  1   
 19  10  12  1   
 20  10  28  1   
 21  10  29  1   
 22  11  13  1   
 23  11  30  1   
 24  11  31  1   
 25  12  14  1   
 26  12  32  1   
 27  12  33  1   
 28  13  14  1   
 29  13  34  1   
 30  13  35  1   
 31  14  15  1   
 32  15  16  ar  
 33  15  17  ar  
 34  16  18  ar  
 35  17  19  ar  
 36  17  36  1   
 37  18  20  ar  
 38  18  37  1   
 39  19  20  ar  
 40  19  38  1   
 41  20  39  1   
@<TRIPOS>SUBSTRUCTURE
  1 ****  10 GROUP 4 **** **** 0

# MOE 2024.06 (io_trps.svl 2023.06)
