@<TRIPOS>MOLECULE
NONAME
47 48 1 0 0 
SMALL
USER_CHARGES


@<TRIPOS>ATOM
  1 O       -0.4360    -0.7490    -2.7840 O.2   1 <1>  -0.5700 
  2 C       -0.1000    -1.3170    -1.7750 C.2   1 <1>   0.5690 
  3 N       -0.8370    -1.3320    -0.6240 N.am  1 <1>  -0.5470 
  4 C        1.2130    -2.0790    -1.7810 C.3   1 <1>  -0.0990 
  5 C       -2.0640    -0.7220    -0.3060 C.ar  1 <1>   0.1170 
  6 C        2.2310    -1.5130    -0.7760 C.3   1 <1>  -0.1600 
  7 C       -2.5350     0.4060    -0.9680 C.ar  1 <1>  -0.1500 
  8 C       -2.8250    -1.2630     0.7220 C.ar  1 <1>  -0.1500 
  9 C        3.5750    -2.2450    -0.8550 C.3   1 <1>  -0.0170 
 10 C       -3.7500     0.9880    -0.6240 C.ar  1 <1>   0.0820 
 11 C       -4.0410    -0.6950     1.0900 C.ar  1 <1>   0.0820 
 12 C        4.5300    -1.7030     0.1950 C.ar  1 <1>  -0.1430 
 13 O       -4.2470     2.0870    -1.2660 O.3   1 <1>  -0.3630 
 14 C       -4.5000     0.4340     0.4140 C.ar  1 <1>   0.0820 
 15 O       -4.8170    -1.2050     2.0910 O.3   1 <1>  -0.3630 
 16 C        4.6710    -2.3450     1.4160 C.ar  1 <1>  -0.1500 
 17 C        5.2680    -0.5570    -0.0580 C.ar  1 <1>  -0.1500 
 18 C       -3.5730     2.6660    -2.3610 C.3   1 <1>   0.0400 
 19 O       -5.6800     1.0070     0.7830 O.3   1 <1>  -0.3630 
 20 C       -4.3550    -2.2300     2.9410 C.3   1 <1>   0.0400 
 21 C        5.5380    -1.8470     2.3730 C.ar  1 <1>  -0.1500 
 22 C        6.1360    -0.0570     0.8980 C.ar  1 <1>  -0.1500 
 23 C       -6.8000     0.5750     0.0510 C.3   1 <1>   0.0400 
 24 C        6.2710    -0.7020     2.1140 C.ar  1 <1>  -0.1500 
 25 H       -0.4370    -1.8900     0.1270 H     1 <1>   0.3700 
 26 H        1.6260    -2.0280    -2.7730 H     1 <1>   0.0800 
 27 H        1.0120    -3.1120    -1.5650 H     1 <1>   0.0800 
 28 H        1.8460    -1.5960     0.2260 H     1 <1>   0.0800 
 29 H        2.3880    -0.4670    -0.9810 H     1 <1>   0.0800 
 30 H       -1.9360     0.8240    -1.7510 H     1 <1>   0.1500 
 31 H       -2.4570    -2.1340     1.2230 H     1 <1>   0.1500 
 32 H        4.0080    -2.1150    -1.8320 H     1 <1>   0.0800 
 33 H        3.4310    -3.3000    -0.7000 H     1 <1>   0.0800 
 34 H        4.1070    -3.2360     1.6290 H     1 <1>   0.1500 
 35 H        5.1690    -0.0470    -1.0010 H     1 <1>   0.1500 
 36 H       -4.1630     3.4900    -2.7180 H     1 <1>   0.0800 
 37 H       -3.4660     1.9280    -3.1370 H     1 <1>   0.0800 
 38 H       -2.6120     3.0200    -2.0320 H     1 <1>   0.0800 
 39 H       -5.1070    -2.4050     3.6890 H     1 <1>   0.0800 
 40 H       -3.4420    -1.9090     3.4110 H     1 <1>   0.0800 
 41 H       -4.2030    -3.1230     2.3620 H     1 <1>   0.0800 
 42 H        5.6440    -2.3500     3.3180 H     1 <1>   0.1500 
 43 H        6.7050     0.8330     0.6950 H     1 <1>   0.1500 
 44 H       -7.6660     1.0860     0.4310 H     1 <1>   0.0800 
 45 H       -6.9090    -0.4870     0.1820 H     1 <1>   0.0800 
 46 H       -6.6520     0.8170    -0.9860 H     1 <1>   0.0800 
 47 H        6.9460    -0.3150     2.8580 H     1 <1>   0.1500 
@<TRIPOS>BOND
  1   1   2  2   
  2   2   3  am  
  3   2   4  1   
  4   3   5  1   
  5   3  25  1   
  6   4   6  1   
  7   4  26  1   
  8   4  27  1   
  9   5   7  ar  
 10   5   8  ar  
 11   6   9  1   
 12   6  28  1   
 13   6  29  1   
 14   7  10  ar  
 15   7  30  1   
 16   8  11  ar  
 17   8  31  1   
 18   9  12  1   
 19   9  32  1   
 20   9  33  1   
 21  10  13  1   
 22  10  14  ar  
 23  11  14  ar  
 24  11  15  1   
 25  12  16  ar  
 26  12  17  ar  
 27  13  18  1   
 28  14  19  1   
 29  15  20  1   
 30  16  21  ar  
 31  16  34  1   
 32  17  22  ar  
 33  17  35  1   
 34  18  36  1   
 35  18  37  1   
 36  18  38  1   
 37  19  23  1   
 38  20  39  1   
 39  20  40  1   
 40  20  41  1   
 41  21  24  ar  
 42  21  42  1   
 43  22  24  ar  
 44  22  43  1   
 45  23  44  1   
 46  23  45  1   
 47  23  46  1   
 48  24  47  1   
@<TRIPOS>SUBSTRUCTURE
  1 ****   3 GROUP 4 **** **** 0

# MOE 2024.06 (io_trps.svl 2023.06)
