@<TRIPOS>MOLECULE
NONAME
31 32 1 0 0 
SMALL
USER_CHARGES


@<TRIPOS>ATOM
  1 BR      -0.3600     1.0110     0.6200 Br    1 <1>  -0.1110 
  2 C        1.5020     0.6440     0.3260 C.ar  1 <1>   0.1110 
  3 C        1.9440    -0.6630     0.3800 C.ar  1 <1>  -0.1500 
  4 C        2.3580     1.6960     0.0640 C.ar  1 <1>  -0.1500 
  5 C        3.2880    -0.9160     0.1700 C.ar  1 <1>  -0.1500 
  6 C        3.6990     1.4250    -0.1440 C.ar  1 <1>  -0.1500 
  7 C        4.1950     0.1170    -0.0870 C.ar  1 <1>   0.0860 
  8 C        5.6000    -0.1780    -0.2900 C.2   1 <1>   0.4690 
  9 O        5.8790    -1.0760    -1.0630 O.2   1 <1>  -0.5700 
 10 C        6.5880     0.5910     0.4100 C.2   1 <1>  -0.1360 
 11 C        7.9480     0.5910     0.5000 C.2   1 <1>  -0.0500 
 12 N        8.9080    -0.2370    -0.0400 N.pl3 1 <1>  -0.8380 
 13 C        8.6680    -1.6350    -0.5210 C.3   1 <1>   0.2090 
 14 C       10.3130     0.2300    -0.2400 C.3   1 <1>   0.2090 
 15 C        9.8170    -2.5880    -0.1350 C.3   1 <1>   0.1200 
 16 C       11.3320    -0.8400     0.1880 C.3   1 <1>   0.1200 
 17 O       11.0740    -2.0570    -0.4520 O.3   1 <1>  -0.5600 
 18 H        1.2510    -1.4610     0.5790 H     1 <1>   0.1500 
 19 H        1.9780     2.7020     0.0220 H     1 <1>   0.1500 
 20 H        3.6510    -1.9290     0.1990 H     1 <1>   0.1500 
 21 H        4.3690     2.2370    -0.3640 H     1 <1>   0.1500 
 22 H        6.1270     1.3600     0.9960 H     1 <1>   0.1500 
 23 H        8.3710     1.3860     1.0930 H     1 <1>   0.1500 
 24 H        7.7730    -2.0230    -0.0740 H     1 <1>   0.0800 
 25 H        8.5410    -1.6290    -1.5900 H     1 <1>   0.0800 
 26 H       10.4600     0.4530    -1.2820 H     1 <1>   0.0800 
 27 H       10.4840     1.1310     0.3200 H     1 <1>   0.0800 
 28 H        9.7110    -3.5200    -0.6600 H     1 <1>   0.0800 
 29 H        9.7880    -2.7850     0.9220 H     1 <1>   0.0800 
 30 H       11.2910    -0.9920     1.2520 H     1 <1>   0.0800 
 31 H       12.3260    -0.5320    -0.0810 H     1 <1>   0.0800 
@<TRIPOS>BOND
  1   1   2  1   
  2   2   3  ar  
  3   2   4  ar  
  4   3   5  ar  
  5   3  18  1   
  6   4   6  ar  
  7   4  19  1   
  8   5   7  ar  
  9   5  20  1   
 10   6   7  ar  
 11   6  21  1   
 12   7   8  1   
 13   8   9  2   
 14   8  10  1   
 15  10  11  2   
 16  10  22  1   
 17  11  12  1   
 18  11  23  1   
 19  12  13  1   
 20  12  14  1   
 21  13  15  1   
 22  13  24  1   
 23  13  25  1   
 24  14  16  1   
 25  14  26  1   
 26  14  27  1   
 27  15  17  1   
 28  15  28  1   
 29  15  29  1   
 30  16  17  1   
 31  16  30  1   
 32  16  31  1   
@<TRIPOS>SUBSTRUCTURE
  1 ****   8 GROUP 4 **** **** 0

# MOE 2024.06 (io_trps.svl 2023.06)
