@<TRIPOS>MOLECULE
NONAME
55 56 1 0 0 
SMALL
USER_CHARGES


@<TRIPOS>ATOM
  1 N       -0.0470     0.1910     0.1640 N.4   1 <1>  -0.9590 
  2 C        1.2250    -0.6210     0.0800 C.3   1 <1>   0.3430 
  3 C       -1.2000    -0.7160     0.4480 C.3   1 <1>   0.3430 
  4 C       -0.3310     1.0070    -1.0570 C.3   1 <1>   0.3430 
  5 C        2.5380     0.2130     0.0100 C.3   1 <1>   0.3430 
  6 C       -2.3360     0.0890     1.0700 C.3   1 <1>  -0.2400 
  7 C        0.1020     2.4460    -0.8060 C.3   1 <1>  -0.2400 
  8 N        3.8110    -0.6010     0.0580 N.4   1 <1>  -0.9590 
  9 C        4.9960     0.3000     0.2590 C.3   1 <1>   0.4230 
 10 C        3.9720    -1.5190    -1.1280 C.3   1 <1>   0.2630 
 11 C        5.3290     1.1450    -0.9840 C.3   1 <1>  -0.1600 
 12 C        6.2160    -0.5170     0.7080 C.3   1 <1>  -0.1600 
 13 C        6.5200     2.0750    -0.6990 C.3   1 <1>  -0.1600 
 14 C        7.4100     0.4070     0.9980 C.3   1 <1>  -0.1600 
 15 C        7.7520     1.2900    -0.2140 C.3   1 <1>   0.0630 
 16 C        8.9120     2.2310     0.1010 C.ar  1 <1>  -0.1440 
 17 C        8.8180     3.1910     1.1000 C.ar  1 <1>  -0.1500 
 18 C       10.0920     2.1320    -0.6230 C.ar  1 <1>  -0.1500 
 19 C        9.8820     4.0340     1.3700 C.ar  1 <1>  -0.1500 
 20 C       11.1570     2.9750    -0.3550 C.ar  1 <1>  -0.1500 
 21 C       11.0530     3.9270     0.6420 C.ar  1 <1>  -0.1500 
 22 H       -0.0160     0.8400     0.9660 H     1 <1>   0.4500 
 23 H        1.1720    -1.2570    -0.7880 H     1 <1>   0.0800 
 24 H        1.2810    -1.2530     0.9510 H     1 <1>   0.0800 
 25 H       -0.9050    -1.4840     1.1460 H     1 <1>   0.0800 
 26 H       -1.5370    -1.1960    -0.4580 H     1 <1>   0.0800 
 27 H       -1.3890     1.0030    -1.2690 H     1 <1>   0.0800 
 28 H        0.1780     0.6010    -1.9170 H     1 <1>   0.0800 
 29 H        2.5410     0.9010     0.8390 H     1 <1>   0.0800 
 30 H        2.5310     0.7900    -0.9000 H     1 <1>   0.0800 
 31 H       -2.0210     0.5580     1.9850 H     1 <1>   0.0800 
 32 H       -3.1470    -0.5770     1.3080 H     1 <1>   0.0800 
 33 H       -2.7180     0.8330     0.3940 H     1 <1>   0.0800 
 34 H       -0.4350     2.8640     0.0280 H     1 <1>   0.0800 
 35 H       -0.1390     3.0370    -1.6720 H     1 <1>   0.0800 
 36 H        1.1580     2.5330    -0.6380 H     1 <1>   0.0800 
 37 H        3.8060    -1.1930     0.9040 H     1 <1>   0.4500 
 38 H        4.7710     0.9850     1.0620 H     1 <1>   0.0800 
 39 H        3.9970    -0.9520    -2.0450 H     1 <1>   0.0800 
 40 H        3.1590    -2.2240    -1.1800 H     1 <1>   0.0800 
 41 H        4.8920    -2.0770    -1.0500 H     1 <1>   0.0800 
 42 H        4.4910     1.7540    -1.2690 H     1 <1>   0.0800 
 43 H        5.5970     0.5150    -1.8130 H     1 <1>   0.0800 
 44 H        6.5130    -1.2130    -0.0570 H     1 <1>   0.0800 
 45 H        5.9860    -1.0660     1.6040 H     1 <1>   0.0800 
 46 H        6.2400     2.8020     0.0440 H     1 <1>   0.0800 
 47 H        6.7820     2.6160    -1.5930 H     1 <1>   0.0800 
 48 H        8.2730    -0.1850     1.2540 H     1 <1>   0.0800 
 49 H        7.1850     1.0280     1.8480 H     1 <1>   0.0800 
 50 H        8.0590     0.6390    -1.0160 H     1 <1>   0.0800 
 51 H        7.9200     3.2940     1.6800 H     1 <1>   0.1500 
 52 H       10.1960     1.3990    -1.4030 H     1 <1>   0.1500 
 53 H        9.8000     4.7750     2.1460 H     1 <1>   0.1500 
 54 H       12.0670     2.8890    -0.9220 H     1 <1>   0.1500 
 55 H       11.8810     4.5820     0.8510 H     1 <1>   0.1500 
@<TRIPOS>BOND
  1   1   2  1   
  2   1   3  1   
  3   1   4  1   
  4   1  22  1   
  5   2   5  1   
  6   2  23  1   
  7   2  24  1   
  8   3   6  1   
  9   3  25  1   
 10   3  26  1   
 11   4   7  1   
 12   4  27  1   
 13   4  28  1   
 14   5   8  1   
 15   5  29  1   
 16   5  30  1   
 17   6  31  1   
 18   6  32  1   
 19   6  33  1   
 20   7  34  1   
 21   7  35  1   
 22   7  36  1   
 23   8   9  1   
 24   8  10  1   
 25   8  37  1   
 26   9  11  1   
 27   9  12  1   
 28   9  38  1   
 29  10  39  1   
 30  10  40  1   
 31  10  41  1   
 32  11  13  1   
 33  11  42  1   
 34  11  43  1   
 35  12  14  1   
 36  12  44  1   
 37  12  45  1   
 38  13  15  1   
 39  13  46  1   
 40  13  47  1   
 41  14  15  1   
 42  14  48  1   
 43  14  49  1   
 44  15  16  1   
 45  15  50  1   
 46  16  17  ar  
 47  16  18  ar  
 48  17  19  ar  
 49  17  51  1   
 50  18  20  ar  
 51  18  52  1   
 52  19  21  ar  
 53  19  53  1   
 54  20  21  ar  
 55  20  54  1   
 56  21  55  1   
@<TRIPOS>SUBSTRUCTURE
  1 ****   9 GROUP 4 **** **** 0

# MOE 2024.06 (io_trps.svl 2023.06)
