@<TRIPOS>MOLECULE
NONAME
48 51 1 0 0 
SMALL
USER_CHARGES


@<TRIPOS>ATOM
  1 S       -0.0200    -0.1650     1.2780 S.3   1 <1>  -0.0800 
  2 C        0.9740     0.8510     0.2380 C.2   1 <1>   0.1040 
  3 C       -1.4290     0.8340     0.9840 C.2   1 <1>  -0.1400 
  4 N        2.3030     0.5400    -0.0090 N.am  1 <1>  -0.4940 
  5 C        0.2440     1.8960    -0.2560 C.2   1 <1>  -0.0860 
  6 C       -1.1370     1.8500     0.1610 C.2   1 <1>  -0.1810 
  7 C       -2.7600     0.4830     1.6100 C.3   1 <1>   0.0200 
  8 C        3.2030    -0.2930     0.6210 C.2   1 <1>   0.5440 
  9 C        0.8150     2.9200    -1.0870 C.2   1 <1>   0.7160 
 10 C       -2.2150     2.8280    -0.2890 C.3   1 <1>   0.0210 
 11 C       -3.7400     1.6520     1.4020 C.3   1 <1>  -0.1600 
 12 O        2.9340    -0.7610     1.7090 O.2   1 <1>  -0.5700 
 13 C        4.4730    -0.6170    -0.0010 C.ar  1 <1>   0.0860 
 14 O        1.4990     2.6010    -2.0470 O.2   1 <1>  -0.5700 
 15 N        0.6740     4.2590    -0.7900 N.am  1 <1>  -0.6600 
 16 C       -3.6220     2.2610    -0.0110 C.3   1 <1>  -0.1600 
 17 C        5.1660     0.2410    -0.8590 C.ar  1 <1>   0.1900 
 18 C        5.0830    -1.8510     0.2440 C.ar  1 <1>  -0.1500 
 19 C        0.5490     4.7440     0.6180 C.3   1 <1>   0.1400 
 20 C        1.1350     5.3260    -1.7280 C.3   1 <1>   0.1400 
 21 F        4.6830     1.4240    -1.1270 F     1 <1>  -0.1900 
 22 C        6.3710    -0.0860    -1.4520 C.ar  1 <1>  -0.1500 
 23 C        6.2910    -2.1990    -0.3370 C.ar  1 <1>  -0.1500 
 24 C        1.8310     5.4790     1.0460 C.3   1 <1>   0.1200 
 25 C        2.3870     6.0210    -1.1710 C.3   1 <1>   0.1200 
 26 C        6.9380    -1.3200    -1.1890 C.ar  1 <1>  -0.1500 
 27 O        2.1520     6.4870     0.1290 O.3   1 <1>  -0.5600 
 28 H        2.6910     1.0370    -0.8190 H     1 <1>   0.3700 
 29 H       -2.6350     0.2860     2.6610 H     1 <1>   0.0800 
 30 H       -3.1390    -0.4060     1.1380 H     1 <1>   0.0800 
 31 H       -2.1130     3.0270    -1.3410 H     1 <1>   0.0800 
 32 H       -2.0940     3.7540     0.2430 H     1 <1>   0.0800 
 33 H       -3.5230     2.4180     2.1270 H     1 <1>   0.0800 
 34 H       -4.7450     1.3110     1.5740 H     1 <1>   0.0800 
 35 H       -3.8350     1.4940    -0.7360 H     1 <1>   0.0800 
 36 H       -4.3520     3.0420    -0.1350 H     1 <1>   0.0800 
 37 H        4.5960    -2.5470     0.9070 H     1 <1>   0.1500 
 38 H        0.3710     3.9270     1.2940 H     1 <1>   0.0800 
 39 H       -0.2850     5.4210     0.6880 H     1 <1>   0.0800 
 40 H        0.3510     6.0530    -1.8500 H     1 <1>   0.0800 
 41 H        1.3530     4.9140    -2.6980 H     1 <1>   0.0800 
 42 H        6.8570     0.6150    -2.1080 H     1 <1>   0.1500 
 43 H        6.7310    -3.1600    -0.1250 H     1 <1>   0.1500 
 44 H        2.6570     4.7920     1.1090 H     1 <1>   0.0800 
 45 H        1.6910     5.9410     2.0070 H     1 <1>   0.0800 
 46 H        2.6460     6.8670    -1.7820 H     1 <1>   0.0800 
 47 H        3.2200     5.3390    -1.1510 H     1 <1>   0.0800 
 48 H        7.8770    -1.5950    -1.6410 H     1 <1>   0.1500 
@<TRIPOS>BOND
  1   1   2  1   
  2   1   3  1   
  3   2   4  1   
  4   2   5  2   
  5   3   6  2   
  6   3   7  1   
  7   4   8  am  
  8   4  28  1   
  9   5   6  1   
 10   5   9  1   
 11   6  10  1   
 12   7  11  1   
 13   7  29  1   
 14   7  30  1   
 15   8  12  2   
 16   8  13  1   
 17   9  14  2   
 18   9  15  am  
 19  10  16  1   
 20  10  31  1   
 21  10  32  1   
 22  11  16  1   
 23  11  33  1   
 24  11  34  1   
 25  13  17  ar  
 26  13  18  ar  
 27  15  19  1   
 28  15  20  1   
 29  16  35  1   
 30  16  36  1   
 31  17  21  1   
 32  17  22  ar  
 33  18  23  ar  
 34  18  37  1   
 35  19  24  1   
 36  19  38  1   
 37  19  39  1   
 38  20  25  1   
 39  20  40  1   
 40  20  41  1   
 41  22  26  ar  
 42  22  42  1   
 43  23  26  ar  
 44  23  43  1   
 45  24  27  1   
 46  24  44  1   
 47  24  45  1   
 48  25  27  1   
 49  25  46  1   
 50  25  47  1   
 51  26  48  1   
@<TRIPOS>SUBSTRUCTURE
  1 ****   2 GROUP 4 **** **** 0

# MOE 2024.06 (io_trps.svl 2023.06)
