@<TRIPOS>MOLECULE
NONAME
44 46 1 0 0 
SMALL
USER_CHARGES


@<TRIPOS>ATOM
  1 CL      -0.2650    -0.0290     0.7590 Cl    1 <1>  -0.1770 
  2 C        0.4350     1.5330     0.4040 C.ar  1 <1>   0.1770 
  3 C       -0.3670     2.6040    -0.0070 C.ar  1 <1>   0.0530 
  4 C        1.8020     1.6540     0.5650 C.ar  1 <1>  -0.1500 
  5 C       -1.7960     2.5060    -0.1950 C.2   1 <1>   0.0870 
  6 C        0.2750     3.8230    -0.2400 C.ar  1 <1>  -0.1500 
  7 C        2.3960     2.8750     0.3180 C.ar  1 <1>   0.1770 
  8 O       -2.5680     3.5350     0.1340 O.3   1 <1>  -0.2800 
  9 C       -2.5870     1.5160    -0.6890 C.2   1 <1>  -0.1500 
 10 C        1.6430     3.9640    -0.0810 C.ar  1 <1>  -0.1500 
 11 CL       4.1190     3.0480     0.5150 Cl    1 <1>  -0.1770 
 12 C       -3.8230     3.2310    -0.1240 C.2   1 <1>  -0.0400 
 13 C       -3.9000     1.9860    -0.6410 C.2   1 <1>  -0.1500 
 14 C       -4.8890     4.2640     0.1850 C.3   1 <1>   0.2900 
 15 N       -6.2280     3.6690     0.0620 N.3   1 <1>  -0.9000 
 16 C       -7.2940     4.5920     0.4440 C.3   1 <1>   0.1100 
 17 C       -8.6530     3.9990     0.0350 C.3   1 <1>   0.3430 
 18 N       -9.7990     4.9280     0.3000 N.4   1 <1>  -0.9590 
 19 C      -11.1070     4.2010     0.1340 C.3   1 <1>   0.3430 
 20 C       -9.7690     6.1370    -0.6020 C.3   1 <1>   0.3430 
 21 C      -12.3100     5.1540     0.2740 C.3   1 <1>   0.1200 
 22 C      -11.0310     7.0050    -0.4330 C.3   1 <1>   0.1200 
 23 O      -12.1790     6.2280    -0.6110 O.3   1 <1>  -0.5600 
 24 H        2.3950     0.8150     0.8800 H     1 <1>   0.1500 
 25 H       -0.3110     4.6710    -0.5520 H     1 <1>   0.1500 
 26 H       -2.2910     0.5510    -1.0580 H     1 <1>   0.1500 
 27 H        2.1260     4.9070    -0.2660 H     1 <1>   0.1500 
 28 H       -4.7710     1.4440    -0.9630 H     1 <1>   0.1500 
 29 H       -4.7850     5.0910    -0.4970 H     1 <1>   0.0800 
 30 H       -4.7380     4.6230     1.1900 H     1 <1>   0.0800 
 31 H       -6.2220     2.8370     0.6710 H     1 <1>   0.3600 
 32 H       -7.1390     5.5250    -0.0710 H     1 <1>   0.0800 
 33 H       -7.2610     4.7610     1.5070 H     1 <1>   0.0800 
 34 H       -8.8000     3.0830     0.5840 H     1 <1>   0.0800 
 35 H       -8.6210     3.7580    -1.0150 H     1 <1>   0.0800 
 36 H       -9.7500     5.2540     1.2740 H     1 <1>   0.4500 
 37 H      -11.1890     3.4150     0.8680 H     1 <1>   0.0800 
 38 H      -11.1500     3.7470    -0.8420 H     1 <1>   0.0800 
 39 H       -9.7130     5.8210    -1.6310 H     1 <1>   0.0800 
 40 H       -8.8980     6.7360    -0.3930 H     1 <1>   0.0800 
 41 H      -12.3940     5.5360     1.2770 H     1 <1>   0.0800 
 42 H      -13.2220     4.6380     0.0270 H     1 <1>   0.0800 
 43 H      -11.0470     7.7850    -1.1740 H     1 <1>   0.0800 
 44 H      -11.0660     7.4600     0.5420 H     1 <1>   0.0800 
@<TRIPOS>BOND
  1   1   2  1   
  2   2   3  ar  
  3   2   4  ar  
  4   3   5  1   
  5   3   6  ar  
  6   4   7  ar  
  7   4  24  1   
  8   5   8  1   
  9   5   9  2   
 10   6  10  ar  
 11   6  25  1   
 12   7  10  ar  
 13   7  11  1   
 14   8  12  1   
 15   9  13  1   
 16   9  26  1   
 17  10  27  1   
 18  12  13  2   
 19  12  14  1   
 20  13  28  1   
 21  14  15  1   
 22  14  29  1   
 23  14  30  1   
 24  15  16  1   
 25  15  31  1   
 26  16  17  1   
 27  16  32  1   
 28  16  33  1   
 29  17  18  1   
 30  17  34  1   
 31  17  35  1   
 32  18  19  1   
 33  18  20  1   
 34  18  36  1   
 35  19  21  1   
 36  19  37  1   
 37  19  38  1   
 38  20  22  1   
 39  20  39  1   
 40  20  40  1   
 41  21  23  1   
 42  21  41  1   
 43  21  42  1   
 44  22  23  1   
 45  22  43  1   
 46  22  44  1   
@<TRIPOS>SUBSTRUCTURE
  1 ****  12 GROUP 4 **** **** 0

# MOE 2024.06 (io_trps.svl 2023.06)
