@<TRIPOS>MOLECULE
NONAME
48 50 1 0 0 
SMALL
USER_CHARGES


@<TRIPOS>ATOM
  1 S        1.0410     0.2050     0.6170 S.o2  1 <1>   1.3330 
  2 O        0.0950    -0.8590     0.8400 O.2   1 <1>  -0.6500 
  3 O        2.3190     0.1970     1.2940 O.2   1 <1>  -0.6500 
  4 N        0.2810     1.7090     1.0060 N.am  1 <1>  -0.6930 
  5 C        1.3170     0.3800    -1.1330 C.3   1 <1>  -0.1350 
  6 C       -1.0070     2.0270     0.5750 C.ar  1 <1>   0.1990 
  7 C        1.1260     2.7660     1.6460 C.3   1 <1>   0.2570 
  8 C       -1.2310     3.1140    -0.2640 C.ar  1 <1>  -0.1500 
  9 C       -2.1000     1.2660     0.9750 C.ar  1 <1>  -0.1500 
 10 C        2.1980     3.3650     0.7270 C.2   1 <1>   0.5690 
 11 C       -2.5080     3.4260    -0.6930 C.ar  1 <1>  -0.1500 
 12 C       -3.3800     1.5700     0.5470 C.ar  1 <1>  -0.1500 
 13 O        1.9730     4.4190     0.1820 O.2   1 <1>  -0.5700 
 14 N        3.3730     2.7060     0.5450 N.am  1 <1>  -0.7300 
 15 C       -3.5910     2.6580    -0.2950 C.ar  1 <1>   0.0830 
 16 C        4.5190     3.2010    -0.2420 C.3   1 <1>   0.2200 
 17 O       -4.8120     3.0310    -0.7650 O.3   1 <1>  -0.3630 
 18 C        4.8990     2.2760    -1.4170 C.3   1 <1>  -0.0800 
 19 C        5.8020     3.2310     0.6020 C.3   1 <1>  -0.1600 
 20 C       -5.9710     2.3050    -0.4190 C.3   1 <1>   0.0400 
 21 C        6.3450     2.6930    -1.6410 C.3   1 <1>  -0.1600 
 22 C        5.1010     0.8210    -0.9470 C.3   1 <1>  -0.1600 
 23 C        6.7860     2.3810    -0.2200 C.3   1 <1>  -0.0800 
 24 C        6.3760     0.9050    -0.0910 C.3   1 <1>  -0.1600 
 25 H        1.8220    -0.4850    -1.5140 H     1 <1>   0.0800 
 26 H        1.9160     1.2460    -1.3340 H     1 <1>   0.0800 
 27 H        0.3800     0.4850    -1.6440 H     1 <1>   0.0800 
 28 H        1.6070     2.3530     2.5140 H     1 <1>   0.0800 
 29 H        0.4910     3.5660     1.9830 H     1 <1>   0.0800 
 30 H       -0.4050     3.7210    -0.5880 H     1 <1>   0.1500 
 31 H       -1.9430     0.4260     1.6290 H     1 <1>   0.1500 
 32 H       -2.6750     4.2670    -1.3420 H     1 <1>   0.1500 
 33 H       -4.1930     0.9530     0.8790 H     1 <1>   0.1500 
 34 H        3.4980     1.7740     0.9640 H     1 <1>   0.3700 
 35 H        4.3120     4.1910    -0.6160 H     1 <1>   0.0800 
 36 H        4.2640     2.3900    -2.2780 H     1 <1>   0.0800 
 37 H        5.6610     2.8380     1.5940 H     1 <1>   0.0800 
 38 H        6.1620     4.2430     0.6710 H     1 <1>   0.0800 
 39 H       -6.8120     2.7710    -0.9000 H     1 <1>   0.0800 
 40 H       -6.0970     2.3370     0.6490 H     1 <1>   0.0800 
 41 H       -5.8650     1.2920    -0.7660 H     1 <1>   0.0800 
 42 H        6.4490     3.7370    -1.8900 H     1 <1>   0.0800 
 43 H        6.8480     2.0870    -2.3770 H     1 <1>   0.0800 
 44 H        5.2730     0.1830    -1.7970 H     1 <1>   0.0800 
 45 H        4.2700     0.4320    -0.3910 H     1 <1>   0.0800 
 46 H        7.8240     2.5700    -0.0030 H     1 <1>   0.0800 
 47 H        7.1400     0.2660    -0.4990 H     1 <1>   0.0800 
 48 H        6.1930     0.6260     0.9330 H     1 <1>   0.0800 
@<TRIPOS>BOND
  1   1   2  2   
  2   1   3  2   
  3   1   4  am  
  4   1   5  1   
  5   4   6  1   
  6   4   7  1   
  7   5  25  1   
  8   5  26  1   
  9   5  27  1   
 10   6   8  ar  
 11   6   9  ar  
 12   7  10  1   
 13   7  28  1   
 14   7  29  1   
 15   8  11  ar  
 16   8  30  1   
 17   9  12  ar  
 18   9  31  1   
 19  10  13  2   
 20  10  14  am  
 21  11  15  ar  
 22  11  32  1   
 23  12  15  ar  
 24  12  33  1   
 25  14  16  1   
 26  14  34  1   
 27  15  17  1   
 28  16  18  1   
 29  16  19  1   
 30  16  35  1   
 31  17  20  1   
 32  18  21  1   
 33  18  22  1   
 34  18  36  1   
 35  19  23  1   
 36  19  37  1   
 37  19  38  1   
 38  20  39  1   
 39  20  40  1   
 40  20  41  1   
 41  21  23  1   
 42  21  42  1   
 43  21  43  1   
 44  22  24  1   
 45  22  44  1   
 46  22  45  1   
 47  23  24  1   
 48  23  46  1   
 49  24  47  1   
 50  24  48  1   
@<TRIPOS>SUBSTRUCTURE
  1 ****   4 GROUP 4 **** **** 0

# MOE 2024.06 (io_trps.svl 2023.06)
