@<TRIPOS>MOLECULE
NONAME
51 53 1 0 0 
SMALL
USER_CHARGES


@<TRIPOS>ATOM
  1 S        2.2010    -3.8890    -0.6420 S.3   1 <1>  -0.3710 
  2 C        3.8050    -4.5010    -0.1210 C.2   1 <1>   0.6510 
  3 C        1.3050    -5.4440    -1.1310 C.3   1 <1>   0.0700 
  4 N        3.8940    -5.7700    -0.0980 N.2   1 <1>  -0.6210 
  5 N        4.7830    -3.5970     0.2280 N.am  1 <1>  -0.2370 
  6 C        0.9840    -6.2610     0.1330 C.3   1 <1>   0.3430 
  7 C        5.0490    -6.3340     0.3280 C.2   1 <1>   0.0210 
  8 C        5.9910    -4.1490     0.6560 C.2   1 <1>   0.6160 
  9 C        4.5850    -2.2060     0.1550 C.ar  1 <1>   0.1170 
 10 N        0.9770    -7.7380    -0.1250 N.4   1 <1>  -0.9590 
 11 O        5.0370    -7.5680     0.3500 O.3   1 <1>  -0.8500 
 12 C        6.1240    -5.5370     0.7070 C.2   1 <1>  -0.1240 
 13 O        6.9070    -3.3700     0.9840 O.2   1 <1>  -0.5700 
 14 C        4.2080    -1.4860     1.2830 C.ar  1 <1>  -0.1500 
 15 C        4.7590    -1.5280    -1.0460 C.ar  1 <1>  -0.1500 
 16 C        0.0740    -8.4660     0.8190 C.3   1 <1>   0.3430 
 17 C        2.3860    -8.2740     0.0300 C.3   1 <1>   0.3430 
 18 C        7.4240    -6.1860     1.1710 C.3   1 <1>  -0.0220 
 19 C        3.9980    -0.1210     1.2110 C.ar  1 <1>  -0.1500 
 20 C        4.5490    -0.1630    -1.1220 C.ar  1 <1>  -0.1500 
 21 C        0.1840    -9.9890     0.6280 C.3   1 <1>   0.1200 
 22 C        2.4560    -9.8110    -0.0170 C.3   1 <1>   0.1200 
 23 C        8.4020    -6.3340    -0.0010 C.3   1 <1>  -0.1600 
 24 C        4.1670     0.5420     0.0070 C.ar  1 <1>  -0.1500 
 25 O        1.5000   -10.4070     0.8270 O.3   1 <1>  -0.5600 
 26 C        9.7200    -6.9810     0.4400 C.3   1 <1>  -0.2400 
 27 H        1.9650    -5.9740    -1.7960 H     1 <1>   0.0800 
 28 H        0.4120    -5.1460    -1.6480 H     1 <1>   0.0800 
 29 H        0.0270    -5.9440     0.5090 H     1 <1>   0.0800 
 30 H        1.7220    -6.0460     0.8900 H     1 <1>   0.0800 
 31 H        0.6930    -7.9260    -1.0910 H     1 <1>   0.4500 
 32 H        4.0840    -2.0010     2.2190 H     1 <1>   0.1500 
 33 H        5.0600    -2.0750    -1.9210 H     1 <1>   0.1500 
 34 H       -0.9460    -8.1580     0.6630 H     1 <1>   0.0800 
 35 H        0.3460    -8.2300     1.8350 H     1 <1>   0.0800 
 36 H        2.8090    -7.9460     0.9670 H     1 <1>   0.0800 
 37 H        3.0270    -7.8790    -0.7410 H     1 <1>   0.0800 
 38 H        7.2080    -7.1570     1.5820 H     1 <1>   0.0800 
 39 H        7.8690    -5.5930     1.9500 H     1 <1>   0.0800 
 40 H        3.7050     0.4260     2.0900 H     1 <1>   0.1500 
 41 H        4.6850     0.3520    -2.0570 H     1 <1>   0.1500 
 42 H       -0.1290   -10.2850    -0.3580 H     1 <1>   0.0800 
 43 H       -0.4280   -10.4980     1.3520 H     1 <1>   0.0800 
 44 H        3.4330   -10.1260     0.3090 H     1 <1>   0.0800 
 45 H        2.3020   -10.1660    -1.0190 H     1 <1>   0.0800 
 46 H        8.6000    -5.3640    -0.4230 H     1 <1>   0.0800 
 47 H        7.9370    -6.9410    -0.7590 H     1 <1>   0.0800 
 48 H        4.0040     1.6050    -0.0510 H     1 <1>   0.1500 
 49 H       10.2000    -6.3770     1.1890 H     1 <1>   0.0800 
 50 H       10.3800    -7.0780    -0.4030 H     1 <1>   0.0800 
 51 H        9.5320    -7.9600     0.8460 H     1 <1>   0.0800 
@<TRIPOS>BOND
  1   1   2  1   
  2   1   3  1   
  3   2   4  2   
  4   2   5  1   
  5   3   6  1   
  6   3  27  1   
  7   3  28  1   
  8   4   7  1   
  9   5   8  am  
 10   5   9  1   
 11   6  10  1   
 12   6  29  1   
 13   6  30  1   
 14   7  11  1   
 15   7  12  2   
 16   8  12  1   
 17   8  13  2   
 18   9  14  ar  
 19   9  15  ar  
 20  10  16  1   
 21  10  17  1   
 22  10  31  1   
 23  12  18  1   
 24  14  19  ar  
 25  14  32  1   
 26  15  20  ar  
 27  15  33  1   
 28  16  21  1   
 29  16  34  1   
 30  16  35  1   
 31  17  22  1   
 32  17  36  1   
 33  17  37  1   
 34  18  23  1   
 35  18  38  1   
 36  18  39  1   
 37  19  24  ar  
 38  19  40  1   
 39  20  24  ar  
 40  20  41  1   
 41  21  25  1   
 42  21  42  1   
 43  21  43  1   
 44  22  25  1   
 45  22  44  1   
 46  22  45  1   
 47  23  26  1   
 48  23  46  1   
 49  23  47  1   
 50  24  48  1   
 51  26  49  1   
 52  26  50  1   
 53  26  51  1   
@<TRIPOS>SUBSTRUCTURE
  1 ****   4 GROUP 4 **** **** 0

# MOE 2024.06 (io_trps.svl 2023.06)
