@<TRIPOS>MOLECULE
NONAME
51 53 1 0 0 
SMALL
USER_CHARGES


@<TRIPOS>ATOM
  1 O        0.2700    -0.0490    -1.0410 O.2   1 <1>  -0.5700 
  2 C        0.7110    -1.0430    -0.5000 C.2   1 <1>   0.5440 
  3 N       -0.1520    -2.0350    -0.0930 N.am  1 <1>  -0.5470 
  4 C        2.1340    -1.1800    -0.2470 C.ar  1 <1>   0.0860 
  5 C       -1.5300    -2.1590    -0.3080 C.ar  1 <1>   0.1170 
  6 C        2.9340    -0.0610    -0.0270 C.ar  1 <1>  -0.1500 
  7 C        2.7590    -2.4270    -0.2090 C.ar  1 <1>  -0.1500 
  8 C       -2.3250    -2.7430     0.6700 C.ar  1 <1>  -0.1500 
  9 C       -2.1370    -1.7250    -1.4800 C.ar  1 <1>  -0.1500 
 10 C        4.2890    -0.1690     0.2350 C.ar  1 <1>   0.0830 
 11 C        4.1110    -2.5570     0.0540 C.ar  1 <1>   0.0830 
 12 C       -3.6920    -2.8650     0.4950 C.ar  1 <1>  -0.1500 
 13 C       -3.5010    -1.8440    -1.6630 C.ar  1 <1>  -0.1500 
 14 O        4.9610     0.9920     0.4390 O.3   1 <1>  -0.3620 
 15 C        4.8850    -1.4240     0.2800 C.ar  1 <1>  -0.1500 
 16 O        4.6020    -3.8210     0.0730 O.3   1 <1>  -0.3620 
 17 C       -4.2910    -2.4030    -0.6690 C.ar  1 <1>  -0.1440 
 18 C        6.3510     1.0120     0.6770 C.3   1 <1>   0.0400 
 19 C        5.9730    -4.0800     0.2830 C.3   1 <1>   0.0400 
 20 C       -5.7940    -2.4810    -0.8510 C.3   1 <1>   0.4860 
 21 N       -6.4250    -1.4230    -0.0170 N.4   1 <1>  -0.9590 
 22 C       -7.9250    -1.4600    -0.0240 C.3   1 <1>   0.3430 
 23 C       -5.9190    -0.0370    -0.3090 C.3   1 <1>   0.3430 
 24 C       -8.5270    -0.2890     0.7880 C.3   1 <1>   0.1200 
 25 C       -6.5610     1.0020     0.6400 C.3   1 <1>   0.1200 
 26 O       -7.5260     0.4130     1.4730 O.3   1 <1>  -0.5600 
 27 H        0.2590    -2.7250     0.5330 H     1 <1>   0.3700 
 28 H        2.4910     0.9190    -0.0610 H     1 <1>   0.1500 
 29 H        2.1950    -3.3210    -0.3980 H     1 <1>   0.1500 
 30 H       -1.8700    -3.0970     1.5780 H     1 <1>   0.1500 
 31 H       -1.5310    -1.2870    -2.2550 H     1 <1>   0.1500 
 32 H       -4.2770    -3.3190     1.2770 H     1 <1>   0.1500 
 33 H       -3.9300    -1.4920    -2.5860 H     1 <1>   0.1500 
 34 H        5.9310    -1.5170     0.4860 H     1 <1>   0.1500 
 35 H        6.6540     2.0370     0.7900 H     1 <1>   0.0800 
 36 H        6.8560     0.5730    -0.1650 H     1 <1>   0.0800 
 37 H        6.5590     0.4690     1.5810 H     1 <1>   0.0800 
 38 H        6.1230    -5.1430     0.2360 H     1 <1>   0.0800 
 39 H        6.2530    -3.7150     1.2550 H     1 <1>   0.0800 
 40 H        6.5420    -3.5970    -0.4910 H     1 <1>   0.0800 
 41 H       -6.1420    -3.4540    -0.5460 H     1 <1>   0.0800 
 42 H       -6.0440    -2.3370    -1.8890 H     1 <1>   0.0800 
 43 H       -6.1460    -1.5840     0.9610 H     1 <1>   0.4500 
 44 H       -8.2700    -2.3900     0.3980 H     1 <1>   0.0800 
 45 H       -8.2940    -1.4070    -1.0350 H     1 <1>   0.0800 
 46 H       -6.1430     0.2320    -1.3270 H     1 <1>   0.0800 
 47 H       -4.8480     0.0030    -0.1920 H     1 <1>   0.0800 
 48 H       -9.2270    -0.6620     1.5150 H     1 <1>   0.0800 
 49 H       -9.0480     0.3970     0.1420 H     1 <1>   0.0800 
 50 H       -7.0260     1.7950     0.0790 H     1 <1>   0.0800 
 51 H       -5.8070     1.4380     1.2730 H     1 <1>   0.0800 
@<TRIPOS>BOND
  1   1   2  2   
  2   2   3  am  
  3   2   4  1   
  4   3   5  1   
  5   3  27  1   
  6   4   6  ar  
  7   4   7  ar  
  8   5   8  ar  
  9   5   9  ar  
 10   6  10  ar  
 11   6  28  1   
 12   7  11  ar  
 13   7  29  1   
 14   8  12  ar  
 15   8  30  1   
 16   9  13  ar  
 17   9  31  1   
 18  10  14  1   
 19  10  15  ar  
 20  11  15  ar  
 21  11  16  1   
 22  12  17  ar  
 23  12  32  1   
 24  13  17  ar  
 25  13  33  1   
 26  14  18  1   
 27  15  34  1   
 28  16  19  1   
 29  17  20  1   
 30  18  35  1   
 31  18  36  1   
 32  18  37  1   
 33  19  38  1   
 34  19  39  1   
 35  19  40  1   
 36  20  21  1   
 37  20  41  1   
 38  20  42  1   
 39  21  22  1   
 40  21  23  1   
 41  21  43  1   
 42  22  24  1   
 43  22  44  1   
 44  22  45  1   
 45  23  25  1   
 46  23  46  1   
 47  23  47  1   
 48  24  26  1   
 49  24  48  1   
 50  24  49  1   
 51  25  26  1   
 52  25  50  1   
 53  25  51  1   
@<TRIPOS>SUBSTRUCTURE
  1 ****   3 GROUP 4 **** **** 0

# MOE 2024.06 (io_trps.svl 2023.06)
