@<TRIPOS>MOLECULE
NONAME
53 56 1 0 0 
SMALL
USER_CHARGES


@<TRIPOS>ATOM
  1 O        1.6440     0.7450     1.5580 O.3   1 <1>  -0.3630 
  2 C        2.2480     1.3800     0.5130 C.ar  1 <1>   0.0830 
  3 C        0.2440     0.7400     1.7250 C.3   1 <1>   0.0400 
  4 C        1.7310     2.4630    -0.2190 C.ar  1 <1>   0.0830 
  5 C        3.4930     0.8710     0.1870 C.ar  1 <1>  -0.1500 
  6 O        0.5210     3.0010     0.1140 O.3   1 <1>  -0.3630 
  7 C        2.4850     2.9810    -1.2700 C.ar  1 <1>  -0.1500 
  8 C        4.2430     1.4020    -0.8480 C.ar  1 <1>  -0.1430 
  9 C       -0.0140     4.1290    -0.5430 C.3   1 <1>   0.0400 
 10 C        3.7280     2.4570    -1.5810 C.ar  1 <1>  -0.1500 
 11 C        5.6160     0.8360    -1.1510 C.3   1 <1>  -0.0170 
 12 C        6.5960     1.3860    -0.1160 C.3   1 <1>   0.3430 
 13 N        7.9600     0.8340    -0.3340 N.4   1 <1>  -0.9060 
 14 C        8.9580     1.3130     0.6520 C.3   1 <1>   0.4230 
 15 C        9.2790     2.8120     0.4410 C.3   1 <1>  -0.0800 
 16 C       10.2530     0.4860     0.5010 C.3   1 <1>  -0.0800 
 17 C        9.9250     3.0490    -0.9450 C.3   1 <1>  -0.1600 
 18 C       10.2780     3.2540     1.5300 C.3   1 <1>  -0.1600 
 19 C       10.9020     0.7200    -0.8840 C.3   1 <1>  -0.1600 
 20 C       11.2490     0.9350     1.5900 C.3   1 <1>  -0.1600 
 21 C       11.2170     2.2170    -1.0700 C.3   1 <1>  -0.0800 
 22 C       11.5760     2.4310     1.4220 C.3   1 <1>  -0.0800 
 23 C       12.1990     2.6570     0.0320 C.3   1 <1>  -0.1600 
 24 H       -0.0090    -0.0410     2.4190 H     1 <1>   0.0800 
 25 H       -0.2230     0.5530     0.7740 H     1 <1>   0.0800 
 26 H       -0.0620     1.6910     2.1220 H     1 <1>   0.0800 
 27 H        3.8590     0.0420     0.7660 H     1 <1>   0.1500 
 28 H        2.1250     3.7990    -1.8630 H     1 <1>   0.1500 
 29 H       -0.9560     4.3670    -0.0830 H     1 <1>   0.0800 
 30 H       -0.1660     3.8890    -1.5810 H     1 <1>   0.0800 
 31 H        0.6650     4.9550    -0.4300 H     1 <1>   0.0800 
 32 H        4.2820     2.8840    -2.3990 H     1 <1>   0.1500 
 33 H        5.9170     1.1230    -2.1430 H     1 <1>   0.0800 
 34 H        5.5720    -0.2370    -1.0970 H     1 <1>   0.0800 
 35 H        6.2470     1.1250     0.8700 H     1 <1>   0.0800 
 36 H        6.6120     2.4610    -0.1900 H     1 <1>   0.0800 
 37 H        8.3130     1.0970    -1.2610 H     1 <1>   0.4500 
 38 H        7.9360    -0.1900    -0.2980 H     1 <1>   0.4500 
 39 H        8.5730     1.1720     1.6500 H     1 <1>   0.0800 
 40 H        8.3900     3.4100     0.5420 H     1 <1>   0.0800 
 41 H       10.0440    -0.5600     0.6420 H     1 <1>   0.0800 
 42 H        9.2470     2.8010    -1.7410 H     1 <1>   0.0800 
 43 H       10.1660     4.0930    -1.0550 H     1 <1>   0.0800 
 44 H        9.8460     3.1250     2.5080 H     1 <1>   0.0800 
 45 H       10.5060     4.3010     1.4160 H     1 <1>   0.0800 
 46 H       10.2660     0.3750    -1.6790 H     1 <1>   0.0800 
 47 H       11.8180     0.1550    -0.9510 H     1 <1>   0.0800 
 48 H       12.1570     0.3590     1.5180 H     1 <1>   0.0800 
 49 H       10.8370     0.7610     2.5700 H     1 <1>   0.0800 
 50 H       11.6670     2.3810    -2.0360 H     1 <1>   0.0800 
 51 H       12.2710     2.7420     2.1850 H     1 <1>   0.0800 
 52 H       12.4470     3.6980    -0.0920 H     1 <1>   0.0800 
 53 H       13.1170     2.0990    -0.0510 H     1 <1>   0.0800 
@<TRIPOS>BOND
  1   1   2  1   
  2   1   3  1   
  3   2   4  ar  
  4   2   5  ar  
  5   3  24  1   
  6   3  25  1   
  7   3  26  1   
  8   4   6  1   
  9   4   7  ar  
 10   5   8  ar  
 11   5  27  1   
 12   6   9  1   
 13   7  10  ar  
 14   7  28  1   
 15   8  10  ar  
 16   8  11  1   
 17   9  29  1   
 18   9  30  1   
 19   9  31  1   
 20  10  32  1   
 21  11  12  1   
 22  11  33  1   
 23  11  34  1   
 24  12  13  1   
 25  12  35  1   
 26  12  36  1   
 27  13  14  1   
 28  13  37  1   
 29  13  38  1   
 30  14  15  1   
 31  14  16  1   
 32  14  39  1   
 33  15  17  1   
 34  15  18  1   
 35  15  40  1   
 36  16  19  1   
 37  16  20  1   
 38  16  41  1   
 39  17  21  1   
 40  17  42  1   
 41  17  43  1   
 42  18  22  1   
 43  18  44  1   
 44  18  45  1   
 45  19  21  1   
 46  19  46  1   
 47  19  47  1   
 48  20  22  1   
 49  20  48  1   
 50  20  49  1   
 51  21  23  1   
 52  21  50  1   
 53  22  23  1   
 54  22  51  1   
 55  23  52  1   
 56  23  53  1   
@<TRIPOS>SUBSTRUCTURE
  1 ****  12 GROUP 4 **** **** 0

# MOE 2024.06 (io_trps.svl 2023.06)
