@<TRIPOS>MOLECULE
NONAME
48 51 1 0 0 
SMALL
USER_CHARGES


@<TRIPOS>ATOM
  1 S        0.8890     0.5070    -2.4240 S.3   1 <1>  -0.0800 
  2 C        0.7750    -0.6450    -1.0960 C.2   1 <1>   0.3250 
  3 C       -0.1320    -0.4980    -3.4010 C.2   1 <1>  -0.1100 
  4 N        0.0370    -1.6610    -1.3970 N.2   1 <1>  -0.5650 
  5 C        1.4760    -0.3750     0.1410 C.ar  1 <1>   0.0530 
  6 C       -0.4680    -1.5810    -2.6860 C.2   1 <1>   0.0460 
  7 C        1.7210    -1.4090     1.0480 C.ar  1 <1>  -0.1500 
  8 C        1.9300     0.8990     0.4930 C.ar  1 <1>  -0.1500 
  9 C       -1.3630    -2.7240    -3.1430 C.3   1 <1>   0.5240 
 10 C        2.3840    -1.1960     2.2440 C.ar  1 <1>  -0.1440 
 11 C        2.5920     1.1240     1.6850 C.ar  1 <1>  -0.1500 
 12 N       -2.3040    -3.0390    -2.0340 N.4   1 <1>  -0.9590 
 13 C        2.8190     0.0780     2.5610 C.ar  1 <1>  -0.1500 
 14 C        2.6380    -2.3410     3.2080 C.3   1 <1>  -0.0970 
 15 C       -2.9280    -4.4030    -2.1520 C.3   1 <1>   0.3430 
 16 C       -3.3330    -1.9550    -1.8340 C.3   1 <1>   0.3430 
 17 C       -3.9030    -4.7060    -0.9960 C.3   1 <1>   0.2090 
 18 C       -4.3030    -2.2710    -0.6780 C.3   1 <1>   0.2090 
 19 N       -4.9180    -3.6220    -0.8430 N.pl3 1 <1>  -0.8380 
 20 C       -5.9070    -3.9020     0.0740 C.ar  1 <1>   0.4100 
 21 N       -5.5130    -4.0470     1.3320 N.ar  1 <1>  -0.6200 
 22 C       -7.2290    -4.0160    -0.3420 C.ar  1 <1>  -0.1500 
 23 C       -6.4730    -4.3140     2.2030 C.ar  1 <1>   0.1600 
 24 C       -8.2150    -4.2940     0.5750 C.ar  1 <1>  -0.1500 
 25 C       -7.8140    -4.4460     1.8870 C.ar  1 <1>  -0.1500 
 26 H       -0.3590    -0.1580    -4.3960 H     1 <1>   0.1500 
 27 H        1.3850    -2.4000     0.8040 H     1 <1>   0.1500 
 28 H        1.7660     1.7350    -0.1620 H     1 <1>   0.1500 
 29 H       -0.7430    -3.5810    -3.3460 H     1 <1>   0.0800 
 30 H       -1.8970    -2.4570    -4.0400 H     1 <1>   0.0800 
 31 H        2.9320     2.1140     1.9360 H     1 <1>   0.1500 
 32 H       -1.6990    -3.0120    -1.1940 H     1 <1>   0.4500 
 33 H        3.3350     0.2610     3.4880 H     1 <1>   0.1500 
 34 H        1.9450    -2.2860     4.0280 H     1 <1>   0.0800 
 35 H        3.6390    -2.2830     3.5960 H     1 <1>   0.0800 
 36 H        2.5190    -3.2900     2.7170 H     1 <1>   0.0800 
 37 H       -2.1610    -5.1590    -2.1680 H     1 <1>   0.0800 
 38 H       -3.4800    -4.4690    -3.0750 H     1 <1>   0.0800 
 39 H       -3.9140    -1.8370    -2.7330 H     1 <1>   0.0800 
 40 H       -2.8410    -1.0180    -1.6290 H     1 <1>   0.0800 
 41 H       -3.3520    -4.8170    -0.0770 H     1 <1>   0.0800 
 42 H       -4.4080    -5.6380    -1.1880 H     1 <1>   0.0800 
 43 H       -5.0820    -1.5280    -0.6510 H     1 <1>   0.0800 
 44 H       -3.7760    -2.2260     0.2600 H     1 <1>   0.0800 
 45 H       -7.4620    -3.8840    -1.3800 H     1 <1>   0.1500 
 46 H       -6.1750    -4.4360     3.2310 H     1 <1>   0.1500 
 47 H       -9.2490    -4.3890     0.2880 H     1 <1>   0.1500 
 48 H       -8.5330    -4.6650     2.6550 H     1 <1>   0.1500 
@<TRIPOS>BOND
  1   1   2  1   
  2   1   3  1   
  3   2   4  2   
  4   2   5  1   
  5   3   6  2   
  6   3  26  1   
  7   4   6  1   
  8   5   7  ar  
  9   5   8  ar  
 10   6   9  1   
 11   7  10  ar  
 12   7  27  1   
 13   8  11  ar  
 14   8  28  1   
 15   9  12  1   
 16   9  29  1   
 17   9  30  1   
 18  10  13  ar  
 19  10  14  1   
 20  11  13  ar  
 21  11  31  1   
 22  12  15  1   
 23  12  16  1   
 24  12  32  1   
 25  13  33  1   
 26  14  34  1   
 27  14  35  1   
 28  14  36  1   
 29  15  17  1   
 30  15  37  1   
 31  15  38  1   
 32  16  18  1   
 33  16  39  1   
 34  16  40  1   
 35  17  19  1   
 36  17  41  1   
 37  17  42  1   
 38  18  19  1   
 39  18  43  1   
 40  18  44  1   
 41  19  20  1   
 42  20  21  ar  
 43  20  22  ar  
 44  21  23  ar  
 45  22  24  ar  
 46  22  45  1   
 47  23  25  ar  
 48  23  46  1   
 49  24  25  ar  
 50  24  47  1   
 51  25  48  1   
@<TRIPOS>SUBSTRUCTURE
  1 ****  12 GROUP 4 **** **** 0

# MOE 2024.06 (io_trps.svl 2023.06)
