@<TRIPOS>MOLECULE
NONAME
44 45 1 0 0 
SMALL
USER_CHARGES


@<TRIPOS>ATOM
  1 O        0.2990    -0.7600    -0.8390 O.3   1 <1>  -0.3630 
  2 C       -0.9150    -1.2820    -0.5320 C.ar  1 <1>   0.0830 
  3 C        1.4810    -1.2970    -0.2960 C.3   1 <1>   0.1200 
  4 C       -1.1050    -2.3620     0.3220 C.ar  1 <1>  -0.1500 
  5 C       -2.0180    -0.6860    -1.1140 C.ar  1 <1>  -0.1500 
  6 C        2.6600    -0.4890    -0.8400 C.3   1 <1>  -0.1600 
  7 C       -2.3830    -2.8290     0.5800 C.ar  1 <1>  -0.1500 
  8 C       -3.2920    -1.1580    -0.8520 C.ar  1 <1>  -0.1500 
  9 C        3.9940    -1.0160    -0.2960 C.3   1 <1>  -0.1600 
 10 C       -3.5030    -2.2380     0.0000 C.ar  1 <1>  -0.1430 
 11 C        5.1750    -0.2060    -0.8440 C.3   1 <1>   0.0960 
 12 C       -4.9450    -2.7280     0.2600 C.3   1 <1>   0.1440 
 13 N        6.4470    -0.7320    -0.3140 N.pl3 1 <1>   0.0480 
 14 C       -5.5890    -3.1600    -1.0660 C.3   1 <1>  -0.2400 
 15 C       -5.0140    -3.9270     1.2210 C.3   1 <1>  -0.2400 
 16 C       -5.7700    -1.5900     0.8810 C.3   1 <1>  -0.2400 
 17 C        7.2530    -1.6650    -0.8670 C.2   1 <1>   0.0360 
 18 C        7.0550    -0.3970     0.8380 C.2   1 <1>  -0.3020 
 19 N        8.3040    -1.9370    -0.1640 N.2   1 <1>  -0.5650 
 20 C        8.1810    -1.1380     0.9120 C.2   1 <1>   0.0770 
 21 H        1.5530    -2.3290    -0.5950 H     1 <1>   0.0800 
 22 H        1.4270    -1.2210     0.7760 H     1 <1>   0.0800 
 23 H       -0.2770    -2.8520     0.7940 H     1 <1>   0.1500 
 24 H       -1.8740     0.1490    -1.7740 H     1 <1>   0.1500 
 25 H        2.5340     0.5410    -0.5550 H     1 <1>   0.0800 
 26 H        2.6560    -0.5540    -1.9150 H     1 <1>   0.0800 
 27 H       -2.4760    -3.6660     1.2460 H     1 <1>   0.1500 
 28 H       -4.1220    -0.6670    -1.3240 H     1 <1>   0.1500 
 29 H        4.1120    -2.0490    -0.5770 H     1 <1>   0.0800 
 30 H        3.9910    -0.9530     0.7800 H     1 <1>   0.0800 
 31 H        5.0840     0.8270    -0.5580 H     1 <1>   0.0800 
 32 H        5.1990    -0.2620    -1.9180 H     1 <1>   0.0800 
 33 H       -4.9980    -3.9320    -1.5250 H     1 <1>   0.0800 
 34 H       -5.6550    -2.3360    -1.7510 H     1 <1>   0.0800 
 35 H       -6.5810    -3.5390    -0.9020 H     1 <1>   0.0800 
 36 H       -4.5990    -3.6680     2.1790 H     1 <1>   0.0800 
 37 H       -4.4730    -4.7650     0.8190 H     1 <1>   0.0800 
 38 H       -6.0340    -4.2320     1.3730 H     1 <1>   0.0800 
 39 H       -5.3070    -1.2570     1.7920 H     1 <1>   0.0800 
 40 H       -6.7680    -1.9210     1.1040 H     1 <1>   0.0800 
 41 H       -5.8380    -0.7520     0.2130 H     1 <1>   0.0800 
 42 H        7.0250    -2.1300    -1.8100 H     1 <1>   0.1500 
 43 H        6.6660     0.3310     1.5270 H     1 <1>   0.1500 
 44 H        8.9220    -1.1400     1.6940 H     1 <1>   0.1500 
@<TRIPOS>BOND
  1   1   2  1   
  2   1   3  1   
  3   2   4  ar  
  4   2   5  ar  
  5   3   6  1   
  6   3  21  1   
  7   3  22  1   
  8   4   7  ar  
  9   4  23  1   
 10   5   8  ar  
 11   5  24  1   
 12   6   9  1   
 13   6  25  1   
 14   6  26  1   
 15   7  10  ar  
 16   7  27  1   
 17   8  10  ar  
 18   8  28  1   
 19   9  11  1   
 20   9  29  1   
 21   9  30  1   
 22  10  12  1   
 23  11  13  1   
 24  11  31  1   
 25  11  32  1   
 26  12  14  1   
 27  12  15  1   
 28  12  16  1   
 29  13  17  1   
 30  13  18  1   
 31  14  33  1   
 32  14  34  1   
 33  14  35  1   
 34  15  36  1   
 35  15  37  1   
 36  15  38  1   
 37  16  39  1   
 38  16  40  1   
 39  16  41  1   
 40  17  19  2   
 41  17  42  1   
 42  18  20  2   
 43  18  43  1   
 44  19  20  1   
 45  20  44  1   
@<TRIPOS>SUBSTRUCTURE
  1 ****   3 GROUP 4 **** **** 0

# MOE 2024.06 (io_trps.svl 2023.06)
