@<TRIPOS>MOLECULE
NONAME
49 50 1 0 0 
SMALL
USER_CHARGES


@<TRIPOS>ATOM
  1 S        0.2780     0.0810    -0.9450 S.o2  1 <1>   1.3330 
  2 O        1.3470     0.4070    -1.8570 O.2   1 <1>  -0.6500 
  3 O       -1.1020     0.2780    -1.3160 O.2   1 <1>  -0.6500 
  4 N        0.4430    -1.5810    -0.4680 N.am  1 <1>  -0.6930 
  5 C        0.5580     0.9220     0.5980 C.3   1 <1>  -0.1350 
  6 C        1.6590    -2.1420    -0.1060 C.ar  1 <1>   0.1990 
  7 C       -0.8050    -2.3750    -0.3500 C.3   1 <1>   0.1160 
  8 C        2.7420    -2.1530    -0.9780 C.ar  1 <1>  -0.1500 
  9 C        1.8340    -2.7110     1.1510 C.ar  1 <1>  -0.1500 
 10 C        3.9540    -2.7010    -0.6070 C.ar  1 <1>  -0.1500 
 11 C        3.0450    -3.2620     1.5200 C.ar  1 <1>  -0.1500 
 12 C        4.1410    -3.2770     0.6540 C.ar  1 <1>   0.0860 
 13 C        5.4060    -3.8580     1.0580 C.2   1 <1>   0.5440 
 14 O        5.7040    -3.9310     2.2340 O.2   1 <1>  -0.5700 
 15 N        6.2710    -4.3460     0.1100 N.am  1 <1>  -0.5470 
 16 C        7.5660    -4.8530     0.2860 C.ar  1 <1>   0.1170 
 17 C        8.6430    -4.0040     0.5660 C.ar  1 <1>  -0.1430 
 18 C        7.7940    -6.2260     0.1390 C.ar  1 <1>  -0.1430 
 19 C        9.9190    -4.5310     0.6870 C.ar  1 <1>  -0.1500 
 20 C        8.4740    -2.4950     0.7380 C.3   1 <1>  -0.0170 
 21 C        9.0780    -6.7280     0.2630 C.ar  1 <1>  -0.1500 
 22 C        6.6630    -7.2090    -0.1470 C.3   1 <1>  -0.0170 
 23 C       10.1390    -5.8860     0.5350 C.ar  1 <1>  -0.1500 
 24 C        8.4070    -1.7880    -0.6180 C.3   1 <1>  -0.2400 
 25 C        6.4230    -7.3440    -1.6540 C.3   1 <1>  -0.2400 
 26 H        0.4700     1.9810     0.4590 H     1 <1>   0.0800 
 27 H        1.5420     0.7030     0.9640 H     1 <1>   0.0800 
 28 H       -0.1620     0.6080     1.3270 H     1 <1>   0.0800 
 29 H       -1.3360    -2.3530    -1.2870 H     1 <1>   0.0800 
 30 H       -1.4350    -1.9560     0.4150 H     1 <1>   0.0800 
 31 H       -0.5800    -3.3990    -0.1060 H     1 <1>   0.0800 
 32 H        2.6280    -1.7250    -1.9590 H     1 <1>   0.1500 
 33 H        1.0140    -2.7130     1.8450 H     1 <1>   0.1500 
 34 H        4.7700    -2.6680    -1.3070 H     1 <1>   0.1500 
 35 H        3.1590    -3.6910     2.5020 H     1 <1>   0.1500 
 36 H        5.8680    -4.5300    -0.8050 H     1 <1>   0.3700 
 37 H       10.7530    -3.8860     0.9000 H     1 <1>   0.1500 
 38 H        9.3030    -2.1010     1.2990 H     1 <1>   0.0800 
 39 H        7.5900    -2.2800     1.3100 H     1 <1>   0.0800 
 40 H        9.2620    -7.7820     0.1490 H     1 <1>   0.1500 
 41 H        5.7600    -6.8960     0.3460 H     1 <1>   0.0800 
 42 H        6.9160    -8.1740     0.2570 H     1 <1>   0.0800 
 43 H       11.1340    -6.2850     0.6310 H     1 <1>   0.1500 
 44 H        9.3030    -1.9840    -1.1800 H     1 <1>   0.0800 
 45 H        8.3100    -0.7270    -0.4770 H     1 <1>   0.0800 
 46 H        7.5630    -2.1410    -1.1820 H     1 <1>   0.0800 
 47 H        6.1580    -6.3940    -2.0800 H     1 <1>   0.0800 
 48 H        5.6270    -8.0420    -1.8400 H     1 <1>   0.0800 
 49 H        7.3150    -7.7000    -2.1380 H     1 <1>   0.0800 
@<TRIPOS>BOND
  1   1   2  2   
  2   1   3  2   
  3   1   4  am  
  4   1   5  1   
  5   4   6  1   
  6   4   7  1   
  7   5  26  1   
  8   5  27  1   
  9   5  28  1   
 10   6   8  ar  
 11   6   9  ar  
 12   7  29  1   
 13   7  30  1   
 14   7  31  1   
 15   8  10  ar  
 16   8  32  1   
 17   9  11  ar  
 18   9  33  1   
 19  10  12  ar  
 20  10  34  1   
 21  11  12  ar  
 22  11  35  1   
 23  12  13  1   
 24  13  14  2   
 25  13  15  am  
 26  15  16  1   
 27  15  36  1   
 28  16  17  ar  
 29  16  18  ar  
 30  17  19  ar  
 31  17  20  1   
 32  18  21  ar  
 33  18  22  1   
 34  19  23  ar  
 35  19  37  1   
 36  20  24  1   
 37  20  38  1   
 38  20  39  1   
 39  21  23  ar  
 40  21  40  1   
 41  22  25  1   
 42  22  41  1   
 43  22  42  1   
 44  23  43  1   
 45  24  44  1   
 46  24  45  1   
 47  24  46  1   
 48  25  47  1   
 49  25  48  1   
 50  25  49  1   
@<TRIPOS>SUBSTRUCTURE
  1 ****  12 GROUP 4 **** **** 0

# MOE 2024.06 (io_trps.svl 2023.06)
