@<TRIPOS>MOLECULE
NONAME
42 43 1 0 0 
SMALL
USER_CHARGES


@<TRIPOS>ATOM
  1 F       -1.6130     1.3930     1.8970 F     1 <1>  -0.1900 
  2 C       -2.0440     0.8020     0.8130 C.ar  1 <1>   0.1900 
  3 C       -2.4570     1.5700    -0.2650 C.ar  1 <1>  -0.1440 
  4 C       -2.0470    -0.5800     0.7890 C.ar  1 <1>  -0.1500 
  5 C       -2.8760     0.9080    -1.4100 C.ar  1 <1>  -0.1500 
  6 C       -2.4390     3.0880    -0.2100 C.3   1 <1>   0.2640 
  7 C       -2.4710    -1.2230    -0.3610 C.ar  1 <1>  -0.1500 
  8 C       -2.8810    -0.4780    -1.4560 C.ar  1 <1>  -0.1500 
  9 O       -1.0990     3.4850    -0.4100 O.3   1 <1>  -0.3620 
 10 C       -0.6800     4.6630     0.1210 C.ar  1 <1>   0.0830 
 11 C       -1.2540     5.8810    -0.2570 C.ar  1 <1>   0.0830 
 12 C        0.3720     4.6260     1.0330 C.ar  1 <1>  -0.1430 
 13 O       -2.2660     5.8670    -1.1700 O.3   1 <1>  -0.3630 
 14 C       -0.7620     7.0590     0.2970 C.ar  1 <1>  -0.1500 
 15 C        0.8490     5.8130     1.5690 C.ar  1 <1>  -0.1500 
 16 C        0.9840     3.3070     1.4720 C.3   1 <1>   0.4860 
 17 C       -2.8280     7.0610    -1.6730 C.3   1 <1>   0.0400 
 18 C        0.2840     7.0210     1.2020 C.ar  1 <1>  -0.1500 
 19 N        1.3670     2.5380     0.2720 N.4   1 <1>  -0.9060 
 20 C        1.6130     1.1100     0.5290 C.3   1 <1>   0.3430 
 21 C        1.7130     0.4030    -0.8140 C.3   1 <1>  -0.2400 
 22 H       -1.7320    -1.1420     1.6510 H     1 <1>   0.1500 
 23 H       -3.2020     1.4650    -2.2730 H     1 <1>   0.1500 
 24 H       -2.7770     3.4480     0.7470 H     1 <1>   0.0800 
 25 H       -3.0450     3.5140    -0.9900 H     1 <1>   0.0800 
 26 H       -2.4870    -2.3000    -0.4060 H     1 <1>   0.1500 
 27 H       -3.2120    -0.9820    -2.3490 H     1 <1>   0.1500 
 28 H       -1.1740     8.0160     0.0380 H     1 <1>   0.1500 
 29 H        1.6590     5.8160     2.2800 H     1 <1>   0.1500 
 30 H        0.2520     2.7600     2.0440 H     1 <1>   0.0800 
 31 H        1.8450     3.4830     2.0950 H     1 <1>   0.0800 
 32 H       -3.5760     6.7990    -2.4000 H     1 <1>   0.0800 
 33 H       -2.0530     7.6420    -2.1420 H     1 <1>   0.0800 
 34 H       -3.2820     7.6040    -0.8640 H     1 <1>   0.0800 
 35 H        0.6580     7.9400     1.6230 H     1 <1>   0.1500 
 36 H        2.1480     2.9940    -0.2100 H     1 <1>   0.4500 
 37 H        0.5510     2.6300    -0.3590 H     1 <1>   0.4500 
 38 H        0.7960     0.6890     1.0950 H     1 <1>   0.0800 
 39 H        2.5270     0.9800     1.0880 H     1 <1>   0.0800 
 40 H        0.7910     0.4970    -1.3620 H     1 <1>   0.0800 
 41 H        1.8940    -0.6450    -0.6510 H     1 <1>   0.0800 
 42 H        2.5260     0.7950    -1.3980 H     1 <1>   0.0800 
@<TRIPOS>BOND
  1   1   2  1   
  2   2   3  ar  
  3   2   4  ar  
  4   3   5  ar  
  5   3   6  1   
  6   4   7  ar  
  7   4  22  1   
  8   5   8  ar  
  9   5  23  1   
 10   6   9  1   
 11   6  24  1   
 12   6  25  1   
 13   7   8  ar  
 14   7  26  1   
 15   8  27  1   
 16   9  10  1   
 17  10  11  ar  
 18  10  12  ar  
 19  11  13  1   
 20  11  14  ar  
 21  12  15  ar  
 22  12  16  1   
 23  13  17  1   
 24  14  18  ar  
 25  14  28  1   
 26  15  18  ar  
 27  15  29  1   
 28  16  19  1   
 29  16  30  1   
 30  16  31  1   
 31  17  32  1   
 32  17  33  1   
 33  17  34  1   
 34  18  35  1   
 35  19  20  1   
 36  19  36  1   
 37  19  37  1   
 38  20  21  1   
 39  20  38  1   
 40  20  39  1   
 41  21  40  1   
 42  21  41  1   
 43  21  42  1   
@<TRIPOS>SUBSTRUCTURE
  1 ****   9 GROUP 4 **** **** 0

# MOE 2024.06 (io_trps.svl 2023.06)
