@<TRIPOS>MOLECULE
NONAME
44 45 1 0 0 
SMALL
USER_CHARGES


@<TRIPOS>ATOM
  1 CL       0.4320     0.1100     0.4370 Cl    1 <1>  -0.1770 
  2 C        0.2640     1.8440     0.2760 C.ar  1 <1>   0.1770 
  3 C        1.4070     2.6320     0.1760 C.ar  1 <1>   0.1170 
  4 C       -1.0020     2.3930     0.2560 C.ar  1 <1>  -0.1500 
  5 N        2.6760     2.0170     0.2040 N.am  1 <1>  -0.5470 
  6 C        1.2320     4.0070     0.0710 C.ar  1 <1>  -0.1500 
  7 C       -1.1440     3.7650     0.1420 C.ar  1 <1>  -0.1500 
  8 C        3.8650     2.4410    -0.3320 C.2   1 <1>   0.5690 
  9 C       -0.0300     4.6070     0.0510 C.ar  1 <1>   0.0860 
 10 O        3.9730     3.4510    -0.9840 O.2   1 <1>  -0.5700 
 11 C        5.1470     1.6180    -0.1100 C.3   1 <1>   0.4040 
 12 C       -0.1620     6.0490    -0.0540 C.2   1 <1>   0.6340 
 13 N        6.4110     2.4270    -0.2950 N.4   1 <1>  -0.9590 
 14 O        0.7860     6.8060    -0.0120 O.2   1 <1>  -0.5700 
 15 O       -1.3890     6.5600    -0.1980 O.3   1 <1>  -0.4300 
 16 C        7.6230     1.5800    -0.4730 C.3   1 <1>   0.3430 
 17 C        6.5750     3.4550     0.7770 C.3   1 <1>   0.3430 
 18 C       -1.6080     7.9520    -0.3100 C.3   1 <1>   0.0400 
 19 C        8.8200     2.4620    -0.8250 C.3   1 <1>  -0.1600 
 20 C        7.7600     4.3600     0.4420 C.3   1 <1>  -0.1600 
 21 C        9.0500     3.5550     0.2290 C.3   1 <1>  -0.0800 
 22 C       10.1980     4.4790    -0.1930 C.3   1 <1>  -0.2400 
 23 H       -1.8650     1.7550     0.3300 H     1 <1>   0.1500 
 24 H        2.6380     1.0690     0.5890 H     1 <1>   0.3700 
 25 H        2.0920     4.6500     0.0050 H     1 <1>   0.1500 
 26 H       -2.1340     4.1890     0.1270 H     1 <1>   0.1500 
 27 H        5.1370     0.8090    -0.8200 H     1 <1>   0.0800 
 28 H        5.1270     1.1970     0.8800 H     1 <1>   0.0800 
 29 H        6.2600     2.9710    -1.1630 H     1 <1>   0.4500 
 30 H        7.4630     0.8640    -1.2640 H     1 <1>   0.0800 
 31 H        7.8300     1.0410     0.4380 H     1 <1>   0.0800 
 32 H        6.7470     2.9730     1.7260 H     1 <1>   0.0800 
 33 H        5.6830     4.0560     0.8540 H     1 <1>   0.0800 
 34 H       -2.6640     8.1250    -0.4160 H     1 <1>   0.0800 
 35 H       -1.0830     8.3180    -1.1750 H     1 <1>   0.0800 
 36 H       -1.2390     8.4350     0.5790 H     1 <1>   0.0800 
 37 H        8.6610     2.9070    -1.7920 H     1 <1>   0.0800 
 38 H        9.6990     1.8440    -0.8960 H     1 <1>   0.0800 
 39 H        7.9020     5.0580     1.2500 H     1 <1>   0.0800 
 40 H        7.5270     4.9330    -0.4390 H     1 <1>   0.0800 
 41 H        9.3240     3.0860     1.1610 H     1 <1>   0.0800 
 42 H        9.9730     4.9750    -1.1220 H     1 <1>   0.0800 
 43 H       11.1060     3.9160    -0.3190 H     1 <1>   0.0800 
 44 H       10.3730     5.2280     0.5590 H     1 <1>   0.0800 
@<TRIPOS>BOND
  1   1   2  1   
  2   2   3  ar  
  3   2   4  ar  
  4   3   5  1   
  5   3   6  ar  
  6   4   7  ar  
  7   4  23  1   
  8   5   8  am  
  9   5  24  1   
 10   6   9  ar  
 11   6  25  1   
 12   7   9  ar  
 13   7  26  1   
 14   8  10  2   
 15   8  11  1   
 16   9  12  1   
 17  11  13  1   
 18  11  27  1   
 19  11  28  1   
 20  12  14  2   
 21  12  15  1   
 22  13  16  1   
 23  13  17  1   
 24  13  29  1   
 25  15  18  1   
 26  16  19  1   
 27  16  30  1   
 28  16  31  1   
 29  17  20  1   
 30  17  32  1   
 31  17  33  1   
 32  18  34  1   
 33  18  35  1   
 34  18  36  1   
 35  19  21  1   
 36  19  37  1   
 37  19  38  1   
 38  20  21  1   
 39  20  39  1   
 40  20  40  1   
 41  21  22  1   
 42  21  41  1   
 43  22  42  1   
 44  22  43  1   
 45  22  44  1   
@<TRIPOS>SUBSTRUCTURE
  1 ****  10 GROUP 4 **** **** 0

# MOE 2024.06 (io_trps.svl 2023.06)
