@<TRIPOS>MOLECULE
NONAME
41 43 1 0 0 
SMALL
USER_CHARGES


@<TRIPOS>ATOM
  1 O        0.0760     0.4160    -0.0040 O.co2 1 <1>  -0.9000 
  2 C       -0.4660     1.4010    -0.5200 C.2   1 <1>   0.9060 
  3 O       -0.4460     1.5930    -1.7360 O.co2 1 <1>  -0.9000 
  4 C       -1.2290     2.3330     0.4100 C.3   1 <1>  -0.1860 
  5 C       -2.8060     1.8590     0.8110 C.3   1 <1>  -0.0190 
  6 C       -1.3020     3.8680    -0.1710 C.3   1 <1>  -0.0800 
  7 C       -3.3200     0.4380     0.4990 C.2   1 <1>   0.5690 
  8 C       -3.8080     3.0460     0.2710 C.3   1 <1>  -0.0800 
  9 C       -2.5520     3.4640     0.0730 C.3   1 <1>  -0.1600 
 10 C       -2.3170     5.0530    -0.6590 C.3   1 <1>  -0.1600 
 11 O       -4.5190     0.2700     0.4930 O.2   1 <1>  -0.5700 
 12 N       -2.4480    -0.5990     0.3240 N.am  1 <1>  -0.5470 
 13 C       -3.8720     4.5860    -0.2670 C.3   1 <1>  -0.1600 
 14 C       -2.6360    -1.9610     0.0580 C.ar  1 <1>   0.1170 
 15 C       -1.5780    -2.6610    -0.5070 C.ar  1 <1>  -0.1500 
 16 C       -3.8090    -2.6520     0.3400 C.ar  1 <1>  -0.1500 
 17 C       -1.6860    -4.0110    -0.7860 C.ar  1 <1>  -0.1500 
 18 C       -3.9200    -4.0030     0.0610 C.ar  1 <1>  -0.1500 
 19 C       -2.8590    -4.6930    -0.5050 C.ar  1 <1>  -0.1440 
 20 C       -2.9800    -6.1760    -0.8130 C.3   1 <1>  -0.0170 
 21 C       -2.5150    -7.0110     0.3820 C.3   1 <1>  -0.2400 
 22 H       -0.6500     2.3380     1.3180 H     1 <1>   0.0800 
 23 H       -2.8520     1.8840     1.8900 H     1 <1>   0.0800 
 24 H       -0.7150     4.3930     0.5700 H     1 <1>   0.0800 
 25 H       -4.3550     2.5410    -0.5160 H     1 <1>   0.0800 
 26 H       -2.5970     3.0100    -1.0120 H     1 <1>   0.0800 
 27 H       -2.4900     3.9110     1.1580 H     1 <1>   0.0800 
 28 H       -2.2270     5.1860    -1.7270 H     1 <1>   0.0800 
 29 H       -2.0710     5.9930    -0.1910 H     1 <1>   0.0800 
 30 H       -1.4520    -0.3150     0.2510 H     1 <1>   0.3700 
 31 H       -4.2740     5.2310     0.5000 H     1 <1>   0.0800 
 32 H       -4.5160     4.6650    -1.1290 H     1 <1>   0.0800 
 33 H       -0.6660    -2.1310    -0.7290 H     1 <1>   0.1500 
 34 H       -4.6380    -2.1340     0.7820 H     1 <1>   0.1500 
 35 H       -0.8490    -4.5250    -1.2240 H     1 <1>   0.1500 
 36 H       -4.8380    -4.5140     0.2890 H     1 <1>   0.1500 
 37 H       -2.3820    -6.4150    -1.6760 H     1 <1>   0.0800 
 38 H       -4.0020    -6.4160    -1.0470 H     1 <1>   0.0800 
 39 H       -1.4900    -6.7850     0.6140 H     1 <1>   0.0800 
 40 H       -2.5990    -8.0600     0.1580 H     1 <1>   0.0800 
 41 H       -3.1190    -6.7900     1.2440 H     1 <1>   0.0800 
@<TRIPOS>BOND
  1   1   2  ar  
  2   2   3  ar  
  3   2   4  1   
  4   4   5  1   
  5   4   6  1   
  6   4  22  1   
  7   5   7  1   
  8   5   8  1   
  9   5  23  1   
 10   6   9  1   
 11   6  10  1   
 12   6  24  1   
 13   7  11  2   
 14   7  12  am  
 15   8   9  1   
 16   8  13  1   
 17   8  25  1   
 18   9  26  1   
 19   9  27  1   
 20  10  13  1   
 21  10  28  1   
 22  10  29  1   
 23  12  14  1   
 24  12  30  1   
 25  13  31  1   
 26  13  32  1   
 27  14  15  ar  
 28  14  16  ar  
 29  15  17  ar  
 30  15  33  1   
 31  16  18  ar  
 32  16  34  1   
 33  17  19  ar  
 34  17  35  1   
 35  18  19  ar  
 36  18  36  1   
 37  19  20  1   
 38  20  21  1   
 39  20  37  1   
 40  20  38  1   
 41  21  39  1   
 42  21  40  1   
 43  21  41  1   
@<TRIPOS>SUBSTRUCTURE
  1 ****  12 GROUP 4 **** **** 0

# MOE 2024.06 (io_trps.svl 2023.06)
