@<TRIPOS>MOLECULE
NONAME
58 61 1 0 0 
SMALL
USER_CHARGES


@<TRIPOS>ATOM
  1 S        0.3290    -1.1610    -0.3890 S.3   1 <1>  -0.3710 
  2 C       -1.3680    -1.7180    -0.3680 C.2   1 <1>   0.6510 
  3 C        0.1960     0.6780    -0.1050 C.3   1 <1>   0.1310 
  4 N       -2.2550    -0.8170    -0.1700 N.2   1 <1>  -0.6210 
  5 N       -1.6120    -3.0480    -0.5610 N.am  1 <1>  -0.4200 
  6 C        1.5590     1.3560    -0.0940 C.2   1 <1>   0.5690 
  7 C       -3.5690    -1.1970    -0.0930 C.2   1 <1>   0.1430 
  8 C       -2.9260    -3.4590    -0.5450 C.2   1 <1>   0.6160 
  9 C       -0.5240    -4.0430    -0.8100 C.3   1 <1>   0.1400 
 10 O        1.6180     2.5580    -0.0930 O.2   1 <1>  -0.5700 
 11 N        2.6950     0.6310    -0.0820 N.am  1 <1>  -0.8000 
 12 C       -4.5400    -0.1300     0.0570 C.ar  1 <1>   0.0280 
 13 C       -3.9350    -2.5150    -0.1790 C.2   1 <1>  -0.1240 
 14 O       -3.1730    -4.6040    -0.9010 O.2   1 <1>  -0.5700 
 15 C       -0.0390    -4.6320     0.5190 C.3   1 <1>  -0.1600 
 16 C       -5.8100    -0.4280     0.5370 C.ar  1 <1>  -0.1430 
 17 C       -4.2750     1.1960    -0.2910 C.ar  1 <1>  -0.1500 
 18 C       -5.4190    -2.9250     0.0530 C.3   1 <1>   0.1380 
 19 C        1.0800    -5.6570     0.2950 C.3   1 <1>  -0.1600 
 20 C       -6.7810     0.5520     0.6550 C.ar  1 <1>  -0.1500 
 21 C       -6.0950    -1.8550     0.9580 C.3   1 <1>  -0.0170 
 22 C       -5.2390     2.1800    -0.1720 C.ar  1 <1>  -0.1500 
 23 C       -6.1090    -2.9940    -1.3300 C.3   1 <1>  -0.1600 
 24 C       -5.6070    -4.2880     0.7850 C.3   1 <1>  -0.1600 
 25 C        1.5580    -6.2480     1.6240 C.3   1 <1>  -0.2400 
 26 C       -6.4980     1.8580     0.3000 C.ar  1 <1>  -0.1500 
 27 C       -7.5670    -3.4880    -1.2880 C.3   1 <1>  -0.1600 
 28 C       -7.0720    -4.7560     0.8610 C.3   1 <1>  -0.1600 
 29 C       -7.6910    -4.8220    -0.5410 C.3   1 <1>  -0.1600 
 30 H       -0.2970     0.8230     0.8380 H     1 <1>   0.0800 
 31 H       -0.4090     1.0800    -0.8970 H     1 <1>   0.0800 
 32 H        0.2940    -3.5860    -1.3370 H     1 <1>   0.0800 
 33 H       -0.8880    -4.8360    -1.4410 H     1 <1>   0.0800 
 34 H        3.6010     1.1000    -0.0800 H     1 <1>   0.3700 
 35 H        2.6930    -0.3900    -0.1100 H     1 <1>   0.3700 
 36 H       -0.8660    -5.1140     1.0120 H     1 <1>   0.0800 
 37 H        0.3260    -3.8410     1.1520 H     1 <1>   0.0800 
 38 H       -3.3030     1.4610    -0.6660 H     1 <1>   0.1500 
 39 H        1.9110    -5.1870    -0.2020 H     1 <1>   0.0800 
 40 H        0.7200    -6.4540    -0.3350 H     1 <1>   0.0800 
 41 H       -7.7600     0.3080     1.0280 H     1 <1>   0.1500 
 42 H       -7.1560    -1.9970     1.0050 H     1 <1>   0.0800 
 43 H       -5.7210    -1.9620     1.9610 H     1 <1>   0.0800 
 44 H       -5.0100     3.1950    -0.4480 H     1 <1>   0.1500 
 45 H       -5.5490    -3.6690    -1.9550 H     1 <1>   0.0800 
 46 H       -6.0780    -2.0270    -1.8000 H     1 <1>   0.0800 
 47 H       -5.1900    -4.2370     1.7750 H     1 <1>   0.0800 
 48 H       -5.0950    -5.0750     0.2720 H     1 <1>   0.0800 
 49 H        1.9430    -5.4740     2.2650 H     1 <1>   0.0800 
 50 H        2.3400    -6.9660     1.4480 H     1 <1>   0.0800 
 51 H        0.7470    -6.7450     2.1290 H     1 <1>   0.0800 
 52 H       -7.2520     2.6200     0.3920 H     1 <1>   0.1500 
 53 H       -7.9230    -3.6140    -2.2960 H     1 <1>   0.0800 
 54 H       -8.1950    -2.7510    -0.8210 H     1 <1>   0.0800 
 55 H       -7.6530    -4.1050     1.4890 H     1 <1>   0.0800 
 56 H       -7.1050    -5.7360     1.3050 H     1 <1>   0.0800 
 57 H       -7.1890    -5.5880    -1.1090 H     1 <1>   0.0800 
 58 H       -8.7290    -5.0990    -0.4660 H     1 <1>   0.0800 
@<TRIPOS>BOND
  1   1   2  1   
  2   1   3  1   
  3   2   4  2   
  4   2   5  1   
  5   3   6  1   
  6   3  30  1   
  7   3  31  1   
  8   4   7  1   
  9   5   8  am  
 10   5   9  1   
 11   6  10  2   
 12   6  11  am  
 13   7  12  1   
 14   7  13  2   
 15   8  13  1   
 16   8  14  2   
 17   9  15  1   
 18   9  32  1   
 19   9  33  1   
 20  11  34  1   
 21  11  35  1   
 22  12  16  ar  
 23  12  17  ar  
 24  13  18  1   
 25  15  19  1   
 26  15  36  1   
 27  15  37  1   
 28  16  20  ar  
 29  16  21  1   
 30  17  22  ar  
 31  17  38  1   
 32  18  21  1   
 33  18  23  1   
 34  18  24  1   
 35  19  25  1   
 36  19  39  1   
 37  19  40  1   
 38  20  26  ar  
 39  20  41  1   
 40  21  42  1   
 41  21  43  1   
 42  22  26  ar  
 43  22  44  1   
 44  23  27  1   
 45  23  45  1   
 46  23  46  1   
 47  24  28  1   
 48  24  47  1   
 49  24  48  1   
 50  25  49  1   
 51  25  50  1   
 52  25  51  1   
 53  26  52  1   
 54  27  29  1   
 55  27  53  1   
 56  27  54  1   
 57  28  29  1   
 58  28  55  1   
 59  28  56  1   
 60  29  57  1   
 61  29  58  1   
@<TRIPOS>SUBSTRUCTURE
  1 ****   7 GROUP 4 **** **** 0

# MOE 2024.06 (io_trps.svl 2023.06)
