@<TRIPOS>MOLECULE
NONAME
37 38 1 0 0 
SMALL
USER_CHARGES


@<TRIPOS>ATOM
  1 BR      -0.7450     0.2520     2.9490 Br    1 <1>  -0.1110 
  2 C       -2.0450    -0.6460     1.8520 C.ar  1 <1>   0.1110 
  3 C       -1.9800    -0.4920     0.4820 C.ar  1 <1>  -0.1500 
  4 C       -3.0090    -1.4240     2.4630 C.ar  1 <1>  -0.1500 
  5 C       -2.9190    -1.1390    -0.3040 C.ar  1 <1>  -0.1500 
  6 C       -3.9430    -2.0670     1.6690 C.ar  1 <1>  -0.1500 
  7 C       -3.9050    -1.9230     0.2850 C.ar  1 <1>  -0.1430 
  8 C       -4.9390    -2.6170    -0.5830 C.3   1 <1>   0.4870 
  9 N       -6.2480    -1.9340    -0.4180 N.4   1 <1>  -0.9590 
 10 C       -7.3870    -2.6140    -1.1150 C.3   1 <1>   0.3430 
 11 C       -6.2230    -0.4680    -0.7380 C.3   1 <1>   0.3430 
 12 C       -8.7330    -1.9130    -0.8050 C.3   1 <1>   0.1100 
 13 C       -7.5840     0.1960    -0.4140 C.3   1 <1>   0.1100 
 14 N       -8.5780    -0.7660     0.1270 N.3   1 <1>  -0.8100 
 15 C       -9.8650    -0.0850     0.3940 C.3   1 <1>   0.1100 
 16 C      -10.7760    -0.9190     1.3030 C.3   1 <1>   0.1200 
 17 O      -11.9450    -0.2150     1.5410 O.3   1 <1>  -0.6800 
 18 H       -1.2080     0.1190     0.0450 H     1 <1>   0.1500 
 19 H       -3.0210    -1.5220     3.5350 H     1 <1>   0.1500 
 20 H       -2.8650    -1.0240    -1.3740 H     1 <1>   0.1500 
 21 H       -4.6920    -2.6780     2.1440 H     1 <1>   0.1500 
 22 H       -5.0200    -3.6500    -0.2830 H     1 <1>   0.0800 
 23 H       -4.6310    -2.5850    -1.6150 H     1 <1>   0.0800 
 24 H       -6.5080    -1.9480     0.5790 H     1 <1>   0.4500 
 25 H       -7.4510    -3.6420    -0.7970 H     1 <1>   0.0800 
 26 H       -7.2250    -2.6100    -2.1800 H     1 <1>   0.0800 
 27 H       -5.9950    -0.3200    -1.7810 H     1 <1>   0.0800 
 28 H       -5.4550     0.0220    -0.1620 H     1 <1>   0.0800 
 29 H       -9.4020    -2.6410    -0.3780 H     1 <1>   0.0800 
 30 H       -9.1750    -1.5770    -1.7280 H     1 <1>   0.0800 
 31 H       -7.9700     0.6590    -1.3070 H     1 <1>   0.0800 
 32 H       -7.4190     0.9790     0.3070 H     1 <1>   0.0800 
 33 H      -10.3730     0.1210    -0.5340 H     1 <1>   0.0800 
 34 H       -9.6700     0.8490     0.8910 H     1 <1>   0.0800 
 35 H      -10.3020    -1.1200     2.2490 H     1 <1>   0.0800 
 36 H      -11.0530    -1.8440     0.8300 H     1 <1>   0.0800 
 37 H      -11.7870     0.5380     2.1430 H     1 <1>   0.4000 
@<TRIPOS>BOND
  1   1   2  1   
  2   2   3  ar  
  3   2   4  ar  
  4   3   5  ar  
  5   3  18  1   
  6   4   6  ar  
  7   4  19  1   
  8   5   7  ar  
  9   5  20  1   
 10   6   7  ar  
 11   6  21  1   
 12   7   8  1   
 13   8   9  1   
 14   8  22  1   
 15   8  23  1   
 16   9  10  1   
 17   9  11  1   
 18   9  24  1   
 19  10  12  1   
 20  10  25  1   
 21  10  26  1   
 22  11  13  1   
 23  11  27  1   
 24  11  28  1   
 25  12  14  1   
 26  12  29  1   
 27  12  30  1   
 28  13  14  1   
 29  13  31  1   
 30  13  32  1   
 31  14  15  1   
 32  15  16  1   
 33  15  33  1   
 34  15  34  1   
 35  16  17  1   
 36  16  35  1   
 37  16  36  1   
 38  17  37  1   
@<TRIPOS>SUBSTRUCTURE
  1 ****   9 GROUP 4 **** **** 0

# MOE 2024.06 (io_trps.svl 2023.06)
