@<TRIPOS>MOLECULE
NONAME
40 41 1 0 0 
SMALL
USER_CHARGES


@<TRIPOS>ATOM
  1 O        0.8900     0.0150    -0.5210 O.2   1 <1>  -0.5700 
  2 C        1.9880    -0.4950    -0.3680 C.2   1 <1>   0.7060 
  3 O        3.0810     0.2320    -0.3920 O.3   1 <1>  -0.3000 
  4 C        2.3680    -1.8400    -0.1490 C.2   1 <1>   0.1850 
  5 C        4.1020    -0.6130    -0.1970 C.2   1 <1>   0.5140 
  6 N        3.7430    -1.8360    -0.0490 N.2   1 <1>  -0.6210 
  7 C        1.5230    -2.9210    -0.0570 C.2   1 <1>  -0.0500 
  8 C        5.4480    -0.0780    -0.1750 C.ar  1 <1>   0.0860 
  9 N        1.7970    -4.2500     0.1520 N.pl3 1 <1>  -0.8380 
 10 C        6.5490    -0.9090     0.0240 C.ar  1 <1>  -0.1500 
 11 C        5.7130     1.2810    -0.3490 C.ar  1 <1>  -0.1500 
 12 C        0.7160    -5.2690     0.2180 C.3   1 <1>   0.1290 
 13 C        3.1800    -4.7700     0.3280 C.3   1 <1>   0.1290 
 14 C        7.8380    -0.4120     0.0480 C.ar  1 <1>  -0.1500 
 15 C        7.0030     1.7790    -0.3260 C.ar  1 <1>  -0.1500 
 16 C        8.0960     0.9430    -0.1270 C.ar  1 <1>  -0.1430 
 17 C        9.5540     1.4510    -0.0930 C.3   1 <1>   0.1440 
 18 C       10.3620     0.7670    -1.2060 C.3   1 <1>  -0.2400 
 19 C        9.6710     2.9710    -0.3010 C.3   1 <1>  -0.2400 
 20 C       10.1810     1.1210     1.2700 C.3   1 <1>  -0.2400 
 21 H        0.4740    -2.6920    -0.1660 H     1 <1>   0.1500 
 22 H        6.3900    -1.9650     0.1630 H     1 <1>   0.1500 
 23 H        4.8990     1.9670    -0.5070 H     1 <1>   0.1500 
 24 H        0.8600    -6.0020    -0.5560 H     1 <1>   0.0800 
 25 H       -0.2460    -4.8060     0.0820 H     1 <1>   0.0800 
 26 H        0.7340    -5.7550     1.1780 H     1 <1>   0.0800 
 27 H        3.1720    -5.8350     0.4790 H     1 <1>   0.0800 
 28 H        3.6360    -4.2990     1.1810 H     1 <1>   0.0800 
 29 H        3.7630    -4.5450    -0.5490 H     1 <1>   0.0800 
 30 H        8.6480    -1.1020     0.2050 H     1 <1>   0.1500 
 31 H        7.1280     2.8370    -0.4680 H     1 <1>   0.1500 
 32 H       11.3720     1.1360    -1.2220 H     1 <1>   0.0800 
 33 H        9.9110     0.9640    -2.1620 H     1 <1>   0.0800 
 34 H       10.3990    -0.2970    -1.0630 H     1 <1>   0.0800 
 35 H       10.7010     3.2780    -0.2700 H     1 <1>   0.0800 
 36 H        9.1430     3.5000     0.4720 H     1 <1>   0.0800 
 37 H        9.2690     3.2530    -1.2580 H     1 <1>   0.0800 
 38 H        9.6020     1.5670     2.0590 H     1 <1>   0.0800 
 39 H       11.1860     1.5000     1.3280 H     1 <1>   0.0800 
 40 H       10.2170     0.0600     1.4360 H     1 <1>   0.0800 
@<TRIPOS>BOND
  1   1   2  2   
  2   2   3  1   
  3   2   4  1   
  4   3   5  1   
  5   4   6  1   
  6   4   7  2   
  7   5   6  2   
  8   5   8  1   
  9   7   9  1   
 10   7  21  1   
 11   8  10  ar  
 12   8  11  ar  
 13   9  12  1   
 14   9  13  1   
 15  10  14  ar  
 16  10  22  1   
 17  11  15  ar  
 18  11  23  1   
 19  12  24  1   
 20  12  25  1   
 21  12  26  1   
 22  13  27  1   
 23  13  28  1   
 24  13  29  1   
 25  14  16  ar  
 26  14  30  1   
 27  15  16  ar  
 28  15  31  1   
 29  16  17  1   
 30  17  18  1   
 31  17  19  1   
 32  17  20  1   
 33  18  32  1   
 34  18  33  1   
 35  18  34  1   
 36  19  35  1   
 37  19  36  1   
 38  19  37  1   
 39  20  38  1   
 40  20  39  1   
 41  20  40  1   
@<TRIPOS>SUBSTRUCTURE
  1 ****   8 GROUP 4 **** **** 0

# MOE 2024.06 (io_trps.svl 2023.06)
