@<TRIPOS>MOLECULE
NONAME
51 52 1 0 0 
SMALL
USER_CHARGES


@<TRIPOS>ATOM
  1 O       -9.2360     1.6560    -0.5130 O.3   1 <1>  -0.3630 
  2 C      -10.5280     1.9860    -0.2490 C.ar  1 <1>   0.0830 
  3 C       -8.1660     2.1650     0.2540 C.3   1 <1>   0.1200 
  4 C      -11.5080     1.4730    -1.0940 C.ar  1 <1>  -0.1440 
  5 C      -10.8970     2.8040     0.8180 C.ar  1 <1>  -0.1500 
  6 C       -6.8570     1.6100    -0.3190 C.3   1 <1>   0.2000 
  7 C      -12.8380     1.7820    -0.8620 C.ar  1 <1>  -0.1500 
  8 C      -11.1390     0.5770    -2.2680 C.3   1 <1>  -0.0960 
  9 C      -12.2280     3.1110     1.0420 C.ar  1 <1>  -0.1430 
 10 O       -6.9660     0.2220    -0.4340 O.3   1 <1>  -0.6800 
 11 C       -5.6320     1.9460     0.5570 C.3   1 <1>   0.3430 
 12 C      -13.1960     2.5950     0.1980 C.ar  1 <1>  -0.1500 
 13 C      -12.6310     4.0010     2.2050 C.3   1 <1>  -0.0970 
 14 N       -4.5290     0.9710     0.3030 N.4   1 <1>  -0.9590 
 15 C       -3.6370     0.7540     1.4700 C.3   1 <1>   0.3430 
 16 C       -3.7800     1.2370    -0.9680 C.3   1 <1>   0.3430 
 17 C       -2.8380    -0.5490     1.2750 C.3   1 <1>  -0.0800 
 18 C       -2.4730     0.4210    -1.0730 C.3   1 <1>  -0.0800 
 19 C       -2.5270    -0.8530    -0.2100 C.3   1 <1>  -0.1600 
 20 C       -3.5720    -1.7400     1.9100 C.3   1 <1>  -0.2400 
 21 C       -1.2400     1.2770    -0.7340 C.3   1 <1>  -0.2400 
 22 H       -8.3010     1.8490     1.2740 H     1 <1>   0.0800 
 23 H       -8.1870     3.2390     0.1930 H     1 <1>   0.0800 
 24 H      -10.1650     3.2110     1.4870 H     1 <1>   0.1500 
 25 H       -6.7140     2.0090    -1.3090 H     1 <1>   0.0800 
 26 H      -13.6070     1.3930    -1.5060 H     1 <1>   0.1500 
 27 H      -10.4520     1.0890    -2.9170 H     1 <1>   0.0800 
 28 H      -12.0100     0.3090    -2.8390 H     1 <1>   0.0800 
 29 H      -10.6760    -0.3230    -1.9080 H     1 <1>   0.0800 
 30 H       -7.8750     0.0130    -0.7580 H     1 <1>   0.4000 
 31 H       -5.9330     1.8760     1.5890 H     1 <1>   0.0800 
 32 H       -5.3020     2.9560     0.3760 H     1 <1>   0.0800 
 33 H      -14.2350     2.8230     0.3630 H     1 <1>   0.1500 
 34 H      -12.8660     3.3950     3.0620 H     1 <1>   0.0800 
 35 H      -13.4970     4.5840     1.9470 H     1 <1>   0.0800 
 36 H      -11.8350     4.6750     2.4620 H     1 <1>   0.0800 
 37 H       -5.0380     0.0790     0.1480 H     1 <1>   0.4500 
 38 H       -4.2120     0.6870     2.3800 H     1 <1>   0.0800 
 39 H       -2.9580     1.5850     1.5600 H     1 <1>   0.0800 
 40 H       -3.5410     2.2850    -1.0430 H     1 <1>   0.0800 
 41 H       -4.4160     0.9830    -1.8010 H     1 <1>   0.0800 
 42 H       -1.9060    -0.4270     1.8000 H     1 <1>   0.0800 
 43 H       -2.3650     0.1220    -2.1030 H     1 <1>   0.0800 
 44 H       -3.2950    -1.4910    -0.6160 H     1 <1>   0.0800 
 45 H       -1.6000    -1.3970    -0.2840 H     1 <1>   0.0800 
 46 H       -4.5310    -1.9000     1.4490 H     1 <1>   0.0800 
 47 H       -3.7220    -1.5740     2.9630 H     1 <1>   0.0800 
 48 H       -2.9880    -2.6380     1.7980 H     1 <1>   0.0800 
 49 H       -1.2620     1.6440     0.2750 H     1 <1>   0.0800 
 50 H       -1.1760     2.1210    -1.4000 H     1 <1>   0.0800 
 51 H       -0.3420     0.6950    -0.8580 H     1 <1>   0.0800 
@<TRIPOS>BOND
  1   1   2  1   
  2   1   3  1   
  3   2   4  ar  
  4   2   5  ar  
  5   3   6  1   
  6   3  22  1   
  7   3  23  1   
  8   4   7  ar  
  9   4   8  1   
 10   5   9  ar  
 11   5  24  1   
 12   6  10  1   
 13   6  11  1   
 14   6  25  1   
 15   7  12  ar  
 16   7  26  1   
 17   8  27  1   
 18   8  28  1   
 19   8  29  1   
 20   9  12  ar  
 21   9  13  1   
 22  10  30  1   
 23  11  14  1   
 24  11  31  1   
 25  11  32  1   
 26  12  33  1   
 27  13  34  1   
 28  13  35  1   
 29  13  36  1   
 30  14  15  1   
 31  14  16  1   
 32  14  37  1   
 33  15  17  1   
 34  15  38  1   
 35  15  39  1   
 36  16  18  1   
 37  16  40  1   
 38  16  41  1   
 39  17  19  1   
 40  17  20  1   
 41  17  42  1   
 42  18  19  1   
 43  18  21  1   
 44  18  43  1   
 45  19  44  1   
 46  19  45  1   
 47  20  46  1   
 48  20  47  1   
 49  20  48  1   
 50  21  49  1   
 51  21  50  1   
 52  21  51  1   
@<TRIPOS>SUBSTRUCTURE
  1 ****   6 GROUP 4 **** **** 0

# MOE 2024.06 (io_trps.svl 2023.06)
