@<TRIPOS>MOLECULE
NONAME
19 21 1 0 0 
SMALL
USER_CHARGES


@<TRIPOS>ATOM
  1 O       -0.6600    -0.2390     1.5140 O.2   1 <1>  -0.5700 
  2 C       -1.5990    -0.6600     0.8880 C.2   1 <1>   0.5770 
  3 N       -1.6710    -1.2720    -0.3270 N.am  1 <1>  -0.6550 
  4 C       -3.0870    -0.7990     1.2000 C.3   1 <1>   0.0530 
  5 C       -3.1220    -1.6390    -0.1040 C.3   1 <1>   0.2250 
  6 C       -4.0540     0.3690     0.8910 C.3   1 <1>   0.0580 
  7 C       -4.1420    -0.8770    -0.9870 C.3   1 <1>   0.0580 
  8 C       -5.4270    -0.2790     0.8310 C.2   1 <1>  -0.2880 
  9 C       -3.8660     0.5830    -0.6120 C.3   1 <1>  -0.1600 
 10 C       -5.4780    -1.0170    -0.2760 C.2   1 <1>  -0.2880 
 11 H       -0.9450    -1.9140    -0.6470 H     1 <1>   0.3700 
 12 H       -3.3100    -1.3710     2.0830 H     1 <1>   0.0000 
 13 H       -3.2760    -2.6940     0.0370 H     1 <1>   0.0000 
 14 H       -3.9680     1.2510     1.5020 H     1 <1>   0.0800 
 15 H       -4.1430    -1.1020    -2.0390 H     1 <1>   0.0800 
 16 H       -6.1500    -0.1180     1.6140 H     1 <1>   0.1500 
 17 H       -2.8870     0.9340    -0.8860 H     1 <1>   0.0800 
 18 H       -4.6070     1.2510    -1.0190 H     1 <1>   0.0800 
 19 H       -6.2570    -1.6450    -0.6770 H     1 <1>   0.1500 
@<TRIPOS>BOND
  1   1   2  2   
  2   2   3  am  
  3   2   4  1   
  4   3   5  1   
  5   3  11  1   
  6   4   5  1   
  7   4   6  1   
  8   4  12  1   
  9   5   7  1   
 10   5  13  1   
 11   6   8  1   
 12   6   9  1   
 13   6  14  1   
 14   7   9  1   
 15   7  10  1   
 16   7  15  1   
 17   8  10  2   
 18   8  16  1   
 19   9  17  1   
 20   9  18  1   
 21  10  19  1   
@<TRIPOS>SUBSTRUCTURE
  1 ****   4 GROUP 4 **** **** 0

# MOE 2024.06 (io_trps.svl 2023.06)
