@<TRIPOS>MOLECULE
NONAME
55 59 1 0 0 
SMALL
USER_CHARGES


@<TRIPOS>ATOM
  1 O       -0.3640     1.0650     0.0770 O.2   1 <1>  -0.5700 
  2 C       -1.0860     2.0390     0.0280 C.2   1 <1>   0.5690 
  3 N       -2.4570     1.8390     0.0450 N.am  1 <1>  -0.6600 
  4 C       -0.3800     3.4310    -0.0500 C.3   1 <1>   0.0610 
  5 C       -2.9610     0.4290    -0.0870 C.3   1 <1>   0.1400 
  6 C       -3.5120     2.8760     0.2780 C.3   1 <1>   0.1400 
  7 C       -1.0090     4.3800    -1.1100 C.3   1 <1>  -0.1600 
  8 C        1.1120     3.2500    -0.4650 C.3   1 <1>  -0.1600 
  9 C       -0.3680     4.1290     1.3350 C.3   1 <1>  -0.1600 
 10 C       -4.3960     0.3980    -0.6080 C.3   1 <1>  -0.1600 
 11 C       -4.6630     2.2970     1.0960 C.3   1 <1>  -0.1600 
 12 C       -0.2820     5.7380    -1.1690 C.3   1 <1>   0.0000 
 13 C        1.8780     4.5860    -0.5330 C.3   1 <1>   0.0000 
 14 C        0.3580     5.4860     1.2690 C.3   1 <1>  -0.0800 
 15 C       -5.3330     1.1430     0.3410 C.3   1 <1>   0.5600 
 16 C        1.1880     5.4990    -1.5620 C.3   1 <1>  -0.1600 
 17 C       -0.3300     6.3890     0.2290 C.3   1 <1>  -0.1600 
 18 C       -0.9560     6.6530    -2.1990 C.3   1 <1>  -0.2400 
 19 C        1.8200     5.2580     0.8520 C.3   1 <1>  -0.1600 
 20 C        3.3360     4.3410    -0.9400 C.3   1 <1>  -0.2400 
 21 O       -6.4100     1.6230    -0.3940 O.3   1 <1>  -0.5600 
 22 O       -5.8690     0.2430     1.2500 O.3   1 <1>  -0.5600 
 23 C       -7.5890     1.3890     0.2930 C.3   1 <1>   0.1200 
 24 C       -7.1690     0.6120     1.5230 C.3   1 <1>   0.1200 
 25 H       -2.9110    -0.0520     0.8750 H     1 <1>   0.0800 
 26 H       -2.3300    -0.1190    -0.7660 H     1 <1>   0.0800 
 27 H       -3.8870     3.2160    -0.6730 H     1 <1>   0.0800 
 28 H       -3.1120     3.7180     0.8050 H     1 <1>   0.0800 
 29 H       -2.0360     4.5780    -0.8920 H     1 <1>   0.0800 
 30 H       -0.9730     3.9040    -2.0740 H     1 <1>   0.0800 
 31 H        1.1560     2.7590    -1.4220 H     1 <1>   0.0800 
 32 H        1.6060     2.6070     0.2430 H     1 <1>   0.0800 
 33 H        0.1270     3.4920     2.0470 H     1 <1>   0.0800 
 34 H       -1.3620     4.2900     1.6990 H     1 <1>   0.0800 
 35 H       -4.7260    -0.6180    -0.7200 H     1 <1>   0.0800 
 36 H       -4.4100     0.8660    -1.5750 H     1 <1>   0.0800 
 37 H       -5.3820     3.0650     1.3100 H     1 <1>   0.0800 
 38 H       -4.2620     1.9360     2.0260 H     1 <1>   0.0800 
 39 H        0.3290     5.9590     2.2360 H     1 <1>   0.0800 
 40 H        1.2340     5.0450    -2.5360 H     1 <1>   0.0800 
 41 H        1.7070     6.4400    -1.6150 H     1 <1>   0.0800 
 42 H       -1.3510     6.5600     0.5200 H     1 <1>   0.0800 
 43 H        0.1650     7.3440     0.2030 H     1 <1>   0.0800 
 44 H       -0.9320     6.2020    -3.1760 H     1 <1>   0.0800 
 45 H       -0.4490     7.6000    -2.2500 H     1 <1>   0.0800 
 46 H       -1.9820     6.8320    -1.9320 H     1 <1>   0.0800 
 47 H        2.3390     6.2000     0.8250 H     1 <1>   0.0800 
 48 H        2.3100     4.6370     1.5820 H     1 <1>   0.0800 
 49 H        3.3830     3.8680    -1.9050 H     1 <1>   0.0800 
 50 H        3.8230     3.7010    -0.2250 H     1 <1>   0.0800 
 51 H        3.8750     5.2700    -0.9880 H     1 <1>   0.0800 
 52 H       -8.2410     0.8080    -0.3360 H     1 <1>   0.0800 
 53 H       -8.0500     2.3270     0.5440 H     1 <1>   0.0800 
 54 H       -7.1770     1.2330     2.4020 H     1 <1>   0.0800 
 55 H       -7.7670    -0.2680     1.6800 H     1 <1>   0.0800 
@<TRIPOS>BOND
  1   1   2  2   
  2   2   3  am  
  3   2   4  1   
  4   3   5  1   
  5   3   6  1   
  6   4   7  1   
  7   4   8  1   
  8   4   9  1   
  9   5  10  1   
 10   5  25  1   
 11   5  26  1   
 12   6  11  1   
 13   6  27  1   
 14   6  28  1   
 15   7  12  1   
 16   7  29  1   
 17   7  30  1   
 18   8  13  1   
 19   8  31  1   
 20   8  32  1   
 21   9  14  1   
 22   9  33  1   
 23   9  34  1   
 24  10  15  1   
 25  10  35  1   
 26  10  36  1   
 27  11  15  1   
 28  11  37  1   
 29  11  38  1   
 30  12  16  1   
 31  12  17  1   
 32  12  18  1   
 33  13  16  1   
 34  13  19  1   
 35  13  20  1   
 36  14  17  1   
 37  14  19  1   
 38  14  39  1   
 39  15  21  1   
 40  15  22  1   
 41  16  40  1   
 42  16  41  1   
 43  17  42  1   
 44  17  43  1   
 45  18  44  1   
 46  18  45  1   
 47  18  46  1   
 48  19  47  1   
 49  19  48  1   
 50  20  49  1   
 51  20  50  1   
 52  20  51  1   
 53  21  23  1   
 54  22  24  1   
 55  23  24  1   
 56  23  52  1   
 57  23  53  1   
 58  24  54  1   
 59  24  55  1   
@<TRIPOS>SUBSTRUCTURE
  1 ****   2 GROUP 4 **** **** 0

# MOE 2024.06 (io_trps.svl 2023.06)
