@<TRIPOS>MOLECULE
NONAME
23 22 1 0 0 
SMALL
USER_CHARGES


@<TRIPOS>ATOM
  1 S       -6.4240     1.6980    -0.5860 S.o   1 <1>   0.1130 
  2 O       -5.7760     2.7270     0.2950 O.2   1 <1>  -0.5000 
  3 C       -5.5150     0.1610    -0.2870 C.3   1 <1>   0.0330 
  4 C       -8.0520     1.3240     0.1230 C.3   1 <1>   0.0330 
  5 C       -4.0170     0.4510    -0.3300 C.3   1 <1>   0.0700 
  6 C       -8.9850     2.5360     0.0690 C.3   1 <1>  -0.2400 
  7 S       -3.0800    -1.1050     0.0320 S.3   1 <1>  -0.3610 
  8 C       -1.4280    -0.6390     0.3720 C.cat 1 <1>   0.8400 
  9 N       -0.6130    -1.6220     0.6250 N.pl3 1 <1>  -0.7540 
 10 N       -1.1010     0.6250     0.3580 N.pl3 1 <1>  -0.7540 
 11 H       -5.7650    -0.5810    -1.0230 H     1 <1>   0.0800 
 12 H       -5.7580    -0.2280     0.6860 H     1 <1>   0.0800 
 13 H       -7.9470     1.0230     1.1500 H     1 <1>   0.0800 
 14 H       -8.5140     0.5130    -0.4110 H     1 <1>   0.0800 
 15 H       -3.7640     1.1720     0.4270 H     1 <1>   0.0800 
 16 H       -3.7180     0.8020    -1.3020 H     1 <1>   0.0800 
 17 H       -8.5550     3.3540     0.6200 H     1 <1>   0.0800 
 18 H       -9.9390     2.2920     0.4990 H     1 <1>   0.0800 
 19 H       -9.1310     2.8480    -0.9500 H     1 <1>   0.0800 
 20 H        0.3780    -1.5320     0.8440 H     1 <1>   0.4500 
 21 H       -0.9490    -2.5890     0.6180 H     1 <1>   0.4500 
 22 H       -0.1630     0.9780     0.5480 H     1 <1>   0.4500 
 23 H       -1.7750     1.3680     0.1640 H     1 <1>   0.4500 
@<TRIPOS>BOND
  1   1   2  2   
  2   1   3  1   
  3   1   4  1   
  4   3   5  1   
  5   3  11  1   
  6   3  12  1   
  7   4   6  1   
  8   4  13  1   
  9   4  14  1   
 10   5   7  1   
 11   5  15  1   
 12   5  16  1   
 13   6  17  1   
 14   6  18  1   
 15   6  19  1   
 16   7   8  1   
 17   8   9  ar  
 18   8  10  ar  
 19   9  20  1   
 20   9  21  1   
 21  10  22  1   
 22  10  23  1   
@<TRIPOS>SUBSTRUCTURE
  1 ****   5 GROUP 4 **** **** 0

# MOE 2024.06 (io_trps.svl 2023.06)
