@<TRIPOS>MOLECULE
NONAME
40 41 1 0 0 
SMALL
USER_CHARGES


@<TRIPOS>ATOM
  1 S       -0.0020     1.0790    -1.5500 S.o2  1 <1>   1.4470 
  2 O       -0.5420     2.2550    -2.1910 O.2   1 <1>  -0.6500 
  3 O       -0.0500    -0.2040    -2.2110 O.2   1 <1>  -0.6500 
  4 N       -0.8830     0.9650    -0.1310 N.am  1 <1>  -0.9140 
  5 C        1.6820     1.3970    -0.9540 C.ar  1 <1>  -0.0090 
  6 C       -2.1400     0.2630    -0.2910 C.3   1 <1>   0.2760 
  7 C        2.2920     0.5080    -0.0730 C.ar  1 <1>  -0.1500 
  8 C        2.3920     2.5240    -1.3630 C.ar  1 <1>  -0.1500 
  9 C       -3.2380     0.9990     0.5070 C.3   1 <1>  -0.0800 
 10 C       -1.9630    -1.1760     0.2090 C.3   1 <1>  -0.1600 
 11 C        3.5830     0.7250     0.4020 C.ar  1 <1>   0.0830 
 12 C        3.6770     2.7650    -0.9070 C.ar  1 <1>  -0.1500 
 13 C       -4.5610     0.2130     0.4490 C.3   1 <1>  -0.1600 
 14 C       -3.4750     2.4320    -0.0050 C.3   1 <1>  -0.2400 
 15 C       -3.2840    -1.9550     0.1570 C.3   1 <1>  -0.1600 
 16 O        4.2130    -0.1190     1.2640 O.3   1 <1>  -0.3620 
 17 C        4.2510     1.8640    -0.0330 C.ar  1 <1>   0.1900 
 18 C       -4.3830    -1.2290     0.9420 C.3   1 <1>  -0.1600 
 19 C        3.5990    -1.3040     1.7230 C.3   1 <1>   0.0400 
 20 F        5.4660     2.1090     0.3890 F     1 <1>  -0.1900 
 21 H       -1.1490     1.9320     0.0350 H     1 <1>   0.4200 
 22 H       -2.4370     0.2450    -1.3290 H     1 <1>   0.0800 
 23 H        1.7300    -0.3560     0.2310 H     1 <1>   0.1500 
 24 H        1.9340     3.2210    -2.0470 H     1 <1>   0.1500 
 25 H       -2.9320     1.0480     1.5390 H     1 <1>   0.0800 
 26 H       -1.6050    -1.1580     1.2240 H     1 <1>   0.0800 
 27 H       -1.2360    -1.6850    -0.3980 H     1 <1>   0.0800 
 28 H        4.2280     3.6340    -1.2210 H     1 <1>   0.1500 
 29 H       -4.9270     0.1960    -0.5640 H     1 <1>   0.0800 
 30 H       -5.3020     0.7020     1.0580 H     1 <1>   0.0800 
 31 H       -3.7200     2.4220    -1.0540 H     1 <1>   0.0800 
 32 H       -2.6070     3.0500     0.1360 H     1 <1>   0.0800 
 33 H       -4.2900     2.8880     0.5290 H     1 <1>   0.0800 
 34 H       -3.1390    -2.9400     0.5640 H     1 <1>   0.0800 
 35 H       -3.5920    -2.0660    -0.8700 H     1 <1>   0.0800 
 36 H       -5.3120    -1.7630     0.8370 H     1 <1>   0.0800 
 37 H       -4.1260    -1.2200     1.9880 H     1 <1>   0.0800 
 38 H        4.2890    -1.8040     2.3780 H     1 <1>   0.0800 
 39 H        3.3770    -1.9330     0.8790 H     1 <1>   0.0800 
 40 H        2.7040    -1.0490     2.2620 H     1 <1>   0.0800 
@<TRIPOS>BOND
  1   1   2  2   
  2   1   3  2   
  3   1   4  am  
  4   1   5  1   
  5   4   6  1   
  6   4  21  1   
  7   5   7  ar  
  8   5   8  ar  
  9   6   9  1   
 10   6  10  1   
 11   6  22  1   
 12   7  11  ar  
 13   7  23  1   
 14   8  12  ar  
 15   8  24  1   
 16   9  13  1   
 17   9  14  1   
 18   9  25  1   
 19  10  15  1   
 20  10  26  1   
 21  10  27  1   
 22  11  16  1   
 23  11  17  ar  
 24  12  17  ar  
 25  12  28  1   
 26  13  18  1   
 27  13  29  1   
 28  13  30  1   
 29  14  31  1   
 30  14  32  1   
 31  14  33  1   
 32  15  18  1   
 33  15  34  1   
 34  15  35  1   
 35  16  19  1   
 36  17  20  1   
 37  18  36  1   
 38  18  37  1   
 39  19  38  1   
 40  19  39  1   
 41  19  40  1   
@<TRIPOS>SUBSTRUCTURE
  1 ****   4 GROUP 4 **** **** 0

# MOE 2024.06 (io_trps.svl 2023.06)
