@<TRIPOS>MOLECULE
NONAME
36 36 1 0 0 
SMALL
USER_CHARGES


@<TRIPOS>ATOM
  1 O       -2.5000     3.9540     0.5080 O.3   1 <1>  -0.3630 
  2 C       -3.7150     3.5220     0.0610 C.ar  1 <1>   0.0830 
  3 C       -1.6340     3.1440     1.2740 C.3   1 <1>   0.0400 
  4 C       -4.5870     4.4280    -0.5650 C.ar  1 <1>   0.0830 
  5 C       -4.1220     2.2010     0.2290 C.ar  1 <1>  -0.1500 
  6 O       -4.3350     5.7460    -0.8110 O.3   1 <1>  -0.3630 
  7 C       -5.8360     4.0010    -0.9820 C.ar  1 <1>  -0.1500 
  8 C       -5.3780     1.7820    -0.1990 C.ar  1 <1>   0.0830 
  9 C       -3.0270     6.2040    -1.0800 C.3   1 <1>   0.0400 
 10 C       -6.2390     2.6890    -0.8050 C.ar  1 <1>  -0.1440 
 11 O       -5.8330     0.5060    -0.0440 O.3   1 <1>  -0.3630 
 12 C       -7.6080     2.2510    -1.2700 C.3   1 <1>   0.4860 
 13 C       -4.9460    -0.5430     0.2980 C.3   1 <1>   0.0400 
 14 N       -8.3600     1.8560    -0.0650 N.4   1 <1>  -0.9060 
 15 C       -9.6980     1.3040    -0.3400 C.3   1 <1>   0.3430 
 16 C      -10.3220     0.9000     0.9870 C.3   1 <1>  -0.2400 
 17 H       -0.7800     3.7370     1.5480 H     1 <1>   0.0800 
 18 H       -1.3170     2.3070     0.6770 H     1 <1>   0.0800 
 19 H       -2.1500     2.8180     2.1590 H     1 <1>   0.0800 
 20 H       -3.4640     1.5010     0.7000 H     1 <1>   0.1500 
 21 H       -6.4800     4.7240    -1.4510 H     1 <1>   0.1500 
 22 H       -3.1000     7.1530    -1.5800 H     1 <1>   0.0800 
 23 H       -2.5250     5.4920    -1.7110 H     1 <1>   0.0800 
 24 H       -2.5030     6.3260    -0.1490 H     1 <1>   0.0800 
 25 H       -7.5070     1.4120    -1.9410 H     1 <1>   0.0800 
 26 H       -8.1060     3.0570    -1.7840 H     1 <1>   0.0800 
 27 H       -4.1300    -0.5580    -0.4040 H     1 <1>   0.0800 
 28 H       -5.4840    -1.4730     0.2470 H     1 <1>   0.0800 
 29 H       -4.5850    -0.3890     1.3000 H     1 <1>   0.0800 
 30 H       -8.4040     2.6580     0.5720 H     1 <1>   0.4500 
 31 H       -7.7630     1.1540     0.4000 H     1 <1>   0.4500 
 32 H       -9.6200     0.4420    -0.9840 H     1 <1>   0.0800 
 33 H      -10.3160     2.0440    -0.8250 H     1 <1>   0.0800 
 34 H       -9.7310     0.1450     1.4750 H     1 <1>   0.0800 
 35 H      -11.3010     0.4900     0.8090 H     1 <1>   0.0800 
 36 H      -10.4320     1.7510     1.6360 H     1 <1>   0.0800 
@<TRIPOS>BOND
  1   1   2  1   
  2   1   3  1   
  3   2   4  ar  
  4   2   5  ar  
  5   3  17  1   
  6   3  18  1   
  7   3  19  1   
  8   4   6  1   
  9   4   7  ar  
 10   5   8  ar  
 11   5  20  1   
 12   6   9  1   
 13   7  10  ar  
 14   7  21  1   
 15   8  10  ar  
 16   8  11  1   
 17   9  22  1   
 18   9  23  1   
 19   9  24  1   
 20  10  12  1   
 21  11  13  1   
 22  12  14  1   
 23  12  25  1   
 24  12  26  1   
 25  13  27  1   
 26  13  28  1   
 27  13  29  1   
 28  14  15  1   
 29  14  30  1   
 30  14  31  1   
 31  15  16  1   
 32  15  32  1   
 33  15  33  1   
 34  16  34  1   
 35  16  35  1   
 36  16  36  1   
@<TRIPOS>SUBSTRUCTURE
  1 ****  10 GROUP 4 **** **** 0

# MOE 2024.06 (io_trps.svl 2023.06)
