@<TRIPOS>MOLECULE
NONAME
42 42 1 0 0 
SMALL
USER_CHARGES


@<TRIPOS>ATOM
  1 CL      -1.2690     0.1430     0.8780 Cl    1 <1>  -0.1770 
  2 C       -0.7640     1.7320     0.3560 C.ar  1 <1>   0.1770 
  3 C       -1.6930     2.5720    -0.2320 C.ar  1 <1>  -0.1440 
  4 C        0.5480     2.1250     0.5550 C.ar  1 <1>  -0.1500 
  5 C       -1.2730     3.8360    -0.6120 C.ar  1 <1>   0.1770 
  6 C       -3.1170     2.1180    -0.4620 C.3   1 <1>   0.4870 
  7 C        0.9480     3.3920     0.1610 C.ar  1 <1>  -0.1500 
  8 CL      -2.4230     4.9390    -1.3270 Cl    1 <1>  -0.1770 
  9 C        0.0330     4.2530    -0.4240 C.ar  1 <1>  -0.1500 
 10 N       -3.8640     2.1020     0.8390 N.4   1 <1>  -0.9590 
 11 C       -5.2050     1.4090     0.7630 C.3   1 <1>   0.3430 
 12 C       -3.9200     3.4650     1.4760 C.3   1 <1>   0.2630 
 13 C       -6.2780     2.1230    -0.1120 C.3   1 <1>   0.3430 
 14 N       -7.6480     1.4840    -0.0940 N.4   1 <1>  -0.9590 
 15 C       -7.6890     0.1120    -0.6890 C.3   1 <1>   0.3430 
 16 C       -8.6260     2.3710    -0.7940 C.3   1 <1>   0.3430 
 17 C       -7.6770    -0.9160     0.4350 C.3   1 <1>  -0.2400 
 18 C      -10.0370     2.0450    -0.3180 C.3   1 <1>  -0.2400 
 19 H        1.2500     1.4480     1.0130 H     1 <1>   0.1500 
 20 H       -3.0950     1.1260    -0.8860 H     1 <1>   0.0800 
 21 H       -3.6030     2.7730    -1.1670 H     1 <1>   0.0800 
 22 H        1.9700     3.7070     0.3090 H     1 <1>   0.1500 
 23 H        0.3330     5.2400    -0.7330 H     1 <1>   0.1500 
 24 H       -3.2640     1.5250     1.4590 H     1 <1>   0.4500 
 25 H       -5.5950     1.3170     1.7640 H     1 <1>   0.0800 
 26 H       -5.0550     0.4140     0.3780 H     1 <1>   0.0800 
 27 H       -4.4420     4.1640     0.8440 H     1 <1>   0.0800 
 28 H       -2.9220     3.8430     1.6410 H     1 <1>   0.0800 
 29 H       -4.4180     3.4170     2.4320 H     1 <1>   0.0800 
 30 H       -5.9280     2.1600    -1.1300 H     1 <1>   0.0800 
 31 H       -6.3740     3.1360     0.2410 H     1 <1>   0.0800 
 32 H       -8.0010     1.4070     0.8720 H     1 <1>   0.4500 
 33 H       -6.8550    -0.0430    -1.3550 H     1 <1>   0.0800 
 34 H       -8.5950    -0.0190    -1.2600 H     1 <1>   0.0800 
 35 H       -8.5560     2.2440    -1.8640 H     1 <1>   0.0800 
 36 H       -8.4200     3.4050    -0.5640 H     1 <1>   0.0800 
 37 H       -6.7770    -0.8740     1.0190 H     1 <1>   0.0800 
 38 H       -7.7410    -1.9010     0.0060 H     1 <1>   0.0800 
 39 H       -8.5320    -0.7890     1.0760 H     1 <1>   0.0800 
 40 H      -10.3260     1.0420    -0.5770 H     1 <1>   0.0800 
 41 H      -10.7310     2.7140    -0.7960 H     1 <1>   0.0800 
 42 H      -10.1280     2.1850     0.7450 H     1 <1>   0.0800 
@<TRIPOS>BOND
  1   1   2  1   
  2   2   3  ar  
  3   2   4  ar  
  4   3   5  ar  
  5   3   6  1   
  6   4   7  ar  
  7   4  19  1   
  8   5   8  1   
  9   5   9  ar  
 10   6  10  1   
 11   6  20  1   
 12   6  21  1   
 13   7   9  ar  
 14   7  22  1   
 15   9  23  1   
 16  10  11  1   
 17  10  12  1   
 18  10  24  1   
 19  11  13  1   
 20  11  25  1   
 21  11  26  1   
 22  12  27  1   
 23  12  28  1   
 24  12  29  1   
 25  13  14  1   
 26  13  30  1   
 27  13  31  1   
 28  14  15  1   
 29  14  16  1   
 30  14  32  1   
 31  15  17  1   
 32  15  33  1   
 33  15  34  1   
 34  16  18  1   
 35  16  35  1   
 36  16  36  1   
 37  17  37  1   
 38  17  38  1   
 39  17  39  1   
 40  18  40  1   
 41  18  41  1   
 42  18  42  1   
@<TRIPOS>SUBSTRUCTURE
  1 ****  10 GROUP 4 **** **** 0

# MOE 2024.06 (io_trps.svl 2023.06)
