@<TRIPOS>MOLECULE
NONAME
46 49 1 0 0 
SMALL
USER_CHARGES


@<TRIPOS>ATOM
  1 S       -3.3390    -5.5430    -1.0180 S.3   1 <1>  -0.2030 
  2 C       -2.1950    -4.5540    -0.0480 C.ar  1 <1>   0.1020 
  3 C       -2.9830    -7.2020    -0.4200 C.ar  1 <1>   0.1020 
  4 C       -1.0560    -5.1590     0.4790 C.ar  1 <1>   0.1170 
  5 C       -2.4950    -3.2250     0.1780 C.ar  1 <1>  -0.1500 
  6 C       -1.7400    -7.4710     0.1530 C.ar  1 <1>   0.1170 
  7 C       -3.9760    -8.1570    -0.5170 C.ar  1 <1>  -0.1500 
  8 N       -0.7100    -6.4950     0.1600 N.am  1 <1>  -0.2940 
  9 C       -0.2430    -4.3870     1.3040 C.ar  1 <1>  -0.1500 
 10 C       -1.6590    -2.4710     0.9840 C.ar  1 <1>  -0.1500 
 11 C       -1.5480    -8.7430     0.6860 C.ar  1 <1>  -0.1500 
 12 C       -3.7510    -9.4210     0.0010 C.ar  1 <1>  -0.1500 
 13 C        0.5050    -6.7730    -0.4500 C.2   1 <1>   0.5690 
 14 C       -0.5400    -3.0570     1.5530 C.ar  1 <1>  -0.1500 
 15 C       -2.5400    -9.7080     0.6080 C.ar  1 <1>  -0.1500 
 16 O        1.0350    -7.8610    -0.4020 O.2   1 <1>  -0.5700 
 17 C        1.2260    -5.6840    -1.2650 C.3   1 <1>   0.1710 
 18 N        2.3300    -4.9670    -0.5520 N.3   1 <1>  -0.8100 
 19 C        2.8180    -3.8280    -1.3540 C.3   1 <1>   0.1100 
 20 C        3.4300    -5.8920    -0.1900 C.3   1 <1>   0.1100 
 21 C        3.9580    -3.0750    -0.6370 C.3   1 <1>   0.3430 
 22 C        4.5820    -5.1610     0.5280 C.3   1 <1>   0.3430 
 23 N        5.0920    -3.9960    -0.2770 N.4   1 <1>  -0.9590 
 24 C        6.1740    -3.2690     0.4500 C.3   1 <1>   0.2630 
 25 H       -3.3770    -2.7890    -0.2590 H     1 <1>   0.1500 
 26 H       -4.9160    -7.9130    -0.9790 H     1 <1>   0.1500 
 27 H        0.6310    -4.8310     1.7480 H     1 <1>   0.1500 
 28 H       -1.8850    -1.4350     1.1750 H     1 <1>   0.1500 
 29 H       -0.6120    -8.9860     1.1560 H     1 <1>   0.1500 
 30 H       -4.5160   -10.1760    -0.0630 H     1 <1>   0.1500 
 31 H        0.1000    -2.4740     2.1940 H     1 <1>   0.1500 
 32 H       -2.3650   -10.6880     1.0190 H     1 <1>   0.1500 
 33 H        0.4940    -4.9680    -1.5940 H     1 <1>   0.0800 
 34 H        1.6220    -6.1540    -2.1480 H     1 <1>   0.0800 
 35 H        2.0040    -3.1420    -1.5190 H     1 <1>   0.0800 
 36 H        3.1610    -4.1720    -2.3150 H     1 <1>   0.0800 
 37 H        3.8050    -6.3850    -1.0710 H     1 <1>   0.0800 
 38 H        3.0560    -6.6530     0.4740 H     1 <1>   0.0800 
 39 H        3.5560    -2.6270     0.2570 H     1 <1>   0.0800 
 40 H        4.3150    -2.2840    -1.2750 H     1 <1>   0.0800 
 41 H        5.3810    -5.8590     0.7130 H     1 <1>   0.0800 
 42 H        4.2170    -4.8120     1.4800 H     1 <1>   0.0800 
 43 H        5.4700    -4.3760    -1.1550 H     1 <1>   0.4500 
 44 H        5.7970    -2.8640     1.3760 H     1 <1>   0.0800 
 45 H        6.5510    -2.4580    -0.1520 H     1 <1>   0.0800 
 46 H        6.9900    -3.9370     0.6740 H     1 <1>   0.0800 
@<TRIPOS>BOND
  1   1   2  1   
  2   1   3  1   
  3   2   4  ar  
  4   2   5  ar  
  5   3   6  ar  
  6   3   7  ar  
  7   4   8  1   
  8   4   9  ar  
  9   5  10  ar  
 10   5  25  1   
 11   6   8  1   
 12   6  11  ar  
 13   7  12  ar  
 14   7  26  1   
 15   8  13  am  
 16   9  14  ar  
 17   9  27  1   
 18  10  14  ar  
 19  10  28  1   
 20  11  15  ar  
 21  11  29  1   
 22  12  15  ar  
 23  12  30  1   
 24  13  16  2   
 25  13  17  1   
 26  14  31  1   
 27  15  32  1   
 28  17  18  1   
 29  17  33  1   
 30  17  34  1   
 31  18  19  1   
 32  18  20  1   
 33  19  21  1   
 34  19  35  1   
 35  19  36  1   
 36  20  22  1   
 37  20  37  1   
 38  20  38  1   
 39  21  23  1   
 40  21  39  1   
 41  21  40  1   
 42  22  23  1   
 43  22  41  1   
 44  22  42  1   
 45  23  24  1   
 46  23  43  1   
 47  24  44  1   
 48  24  45  1   
 49  24  46  1   
@<TRIPOS>SUBSTRUCTURE
  1 ****   8 GROUP 4 **** **** 0

# MOE 2024.06 (io_trps.svl 2023.06)
