@<TRIPOS>MOLECULE
NONAME
49 51 1 0 0 
SMALL
USER_CHARGES


@<TRIPOS>ATOM
  1 F        0.8960    -1.2930    -2.3530 F     1 <1>  -0.1900 
  2 C        1.9910    -1.7030    -1.7730 C.ar  1 <1>   0.1900 
  3 C        1.9010    -2.6150    -0.7410 C.ar  1 <1>  -0.1500 
  4 C        3.2040    -1.2110    -2.2110 C.ar  1 <1>  -0.1500 
  5 C        3.0680    -3.0450    -0.1340 C.ar  1 <1>  -0.1500 
  6 C        4.3610    -1.6510    -1.5920 C.ar  1 <1>  -0.1500 
  7 C        4.3170    -2.5760    -0.5450 C.ar  1 <1>   0.0280 
  8 C        5.5210    -3.0460     0.1070 C.2   1 <1>  -0.1670 
  9 C        5.6680    -3.1510     1.4400 C.2   1 <1>  -0.2880 
 10 C        6.6650    -3.4550    -0.8140 C.3   1 <1>  -0.0220 
 11 C        6.9050    -3.6350     2.1670 C.3   1 <1>   0.4810 
 12 C        7.7270    -4.2720    -0.0730 C.3   1 <1>   0.3430 
 13 N        8.0570    -3.6160     1.2310 N.4   1 <1>  -0.9590 
 14 C        9.2930    -4.1640     1.8500 C.3   1 <1>   0.4860 
 15 C       10.4550    -3.9070     0.9060 C.ar  1 <1>  -0.1430 
 16 C       11.0140    -4.8890     0.0840 C.ar  1 <1>  -0.1430 
 17 C       10.9500    -2.6120     0.8670 C.ar  1 <1>  -0.1500 
 18 C       12.0340    -4.5430    -0.8050 C.ar  1 <1>  -0.1430 
 19 C       10.5360    -6.3450     0.1400 C.3   1 <1>  -0.0970 
 20 C       11.9750    -2.2760     0.0090 C.ar  1 <1>  -0.1500 
 21 C       12.5210    -3.2350    -0.8330 C.ar  1 <1>   0.0830 
 22 C       12.6420    -5.5820    -1.7540 C.3   1 <1>  -0.0970 
 23 O       13.5340    -2.9400    -1.6920 O.3   1 <1>  -0.3630 
 24 C       14.1780    -1.6850    -1.7040 C.3   1 <1>   0.0400 
 25 H        0.9380    -2.9760    -0.4260 H     1 <1>   0.1500 
 26 H        3.2340    -0.5000    -3.0170 H     1 <1>   0.1500 
 27 H        3.0070    -3.7590     0.6680 H     1 <1>   0.1500 
 28 H        5.3050    -1.2600    -1.9260 H     1 <1>   0.1500 
 29 H        4.8750    -2.8870     2.1210 H     1 <1>   0.1500 
 30 H        7.1260    -2.5810    -1.2390 H     1 <1>   0.0800 
 31 H        6.2820    -4.0490    -1.6250 H     1 <1>   0.0800 
 32 H        6.7360    -4.6330     2.5390 H     1 <1>   0.0800 
 33 H        7.1080    -2.9850     3.0040 H     1 <1>   0.0800 
 34 H        8.6060    -4.3470    -0.6930 H     1 <1>   0.0800 
 35 H        7.3520    -5.2670     0.1070 H     1 <1>   0.0800 
 36 H        8.2440    -2.6330     1.0050 H     1 <1>   0.4500 
 37 H        9.1760    -5.2130     2.0550 H     1 <1>   0.0800 
 38 H        9.4890    -3.6630     2.7850 H     1 <1>   0.0800 
 39 H       10.5490    -1.8440     1.5060 H     1 <1>   0.1500 
 40 H       10.0180    -6.5910     1.0440 H     1 <1>   0.0800 
 41 H       11.3790    -7.0120     0.0930 H     1 <1>   0.0800 
 42 H        9.8940    -6.5550    -0.6970 H     1 <1>   0.0800 
 43 H       12.3350    -1.2650     0.0090 H     1 <1>   0.1500 
 44 H       11.8930    -6.2480    -2.1380 H     1 <1>   0.0800 
 45 H       13.3890    -6.1540    -1.2330 H     1 <1>   0.0800 
 46 H       13.1080    -5.1240    -2.6060 H     1 <1>   0.0800 
 47 H       14.9700    -1.7250    -2.4310 H     1 <1>   0.0800 
 48 H       14.5890    -1.4930    -0.7290 H     1 <1>   0.0800 
 49 H       13.4670    -0.9290    -1.9820 H     1 <1>   0.0800 
@<TRIPOS>BOND
  1   1   2  1   
  2   2   3  ar  
  3   2   4  ar  
  4   3   5  ar  
  5   3  25  1   
  6   4   6  ar  
  7   4  26  1   
  8   5   7  ar  
  9   5  27  1   
 10   6   7  ar  
 11   6  28  1   
 12   7   8  1   
 13   8   9  2   
 14   8  10  1   
 15   9  11  1   
 16   9  29  1   
 17  10  12  1   
 18  10  30  1   
 19  10  31  1   
 20  11  13  1   
 21  11  32  1   
 22  11  33  1   
 23  12  13  1   
 24  12  34  1   
 25  12  35  1   
 26  13  14  1   
 27  13  36  1   
 28  14  15  1   
 29  14  37  1   
 30  14  38  1   
 31  15  16  ar  
 32  15  17  ar  
 33  16  18  ar  
 34  16  19  1   
 35  17  20  ar  
 36  17  39  1   
 37  18  21  ar  
 38  18  22  1   
 39  19  40  1   
 40  19  41  1   
 41  19  42  1   
 42  20  21  ar  
 43  20  43  1   
 44  21  23  1   
 45  22  44  1   
 46  22  45  1   
 47  22  46  1   
 48  23  24  1   
 49  24  47  1   
 50  24  48  1   
 51  24  49  1   
@<TRIPOS>SUBSTRUCTURE
  1 ****  12 GROUP 4 **** **** 0

# MOE 2024.06 (io_trps.svl 2023.06)
