@<TRIPOS>MOLECULE
NONAME
58 61 1 0 0 
SMALL
USER_CHARGES


@<TRIPOS>ATOM
  1 S        0.3090    -0.1840     1.0190 S.o2  1 <1>   1.4470 
  2 O        0.6800    -0.6010     2.3550 O.2   1 <1>  -0.6500 
  3 O       -0.2760     1.1240     0.8170 O.2   1 <1>  -0.6500 
  4 N        1.7230    -0.2370     0.0870 N.am  1 <1>  -0.8490 
  5 C       -0.7380    -1.4410     0.2350 C.ar  1 <1>  -0.0090 
  6 C        2.5820     0.9300     0.3580 C.3   1 <1>   0.1960 
  7 C        2.4840    -1.4810     0.2990 C.3   1 <1>   0.1960 
  8 C       -1.1630    -2.5670     0.9320 C.ar  1 <1>  -0.1500 
  9 C       -1.1270    -1.3140    -1.0940 C.ar  1 <1>  -0.1500 
 10 C        3.8310     0.9380    -0.5380 C.3   1 <1>   0.1400 
 11 C        3.7270    -1.5510    -0.6050 C.3   1 <1>   0.1400 
 12 C       -1.9430    -3.5350     0.3240 C.ar  1 <1>  -0.1500 
 13 C       -1.9080    -2.2760    -1.7100 C.ar  1 <1>  -0.1500 
 14 N        4.5890    -0.3470    -0.4120 N.am  1 <1>  -0.6600 
 15 C       -2.3160    -3.3900    -1.0000 C.ar  1 <1>  -0.1500 
 16 C        5.8650    -0.3890     0.1070 C.2   1 <1>   0.5440 
 17 O        6.3300     0.6120     0.6160 O.2   1 <1>  -0.5700 
 18 C        6.6690    -1.5960     0.0730 C.ar  1 <1>   0.0860 
 19 C        7.2660    -2.0870     1.2320 C.ar  1 <1>  -0.1500 
 20 C        6.8880    -2.2990    -1.1110 C.ar  1 <1>  -0.1500 
 21 C        8.0450    -3.2290     1.2150 C.ar  1 <1>  -0.1500 
 22 C        7.6670    -3.4410    -1.1380 C.ar  1 <1>  -0.1500 
 23 C        8.2590    -3.9110     0.0260 C.ar  1 <1>  -0.1430 
 24 C        9.1450    -5.1430    -0.0080 C.3   1 <1>   0.4860 
 25 N       10.5580    -4.7240     0.1920 N.4   1 <1>  -0.9590 
 26 C       11.0380    -3.6990    -0.7980 C.3   1 <1>   0.3430 
 27 C       11.5200    -5.8720     0.2840 C.3   1 <1>   0.3430 
 28 C       12.4840    -3.2520    -0.4790 C.3   1 <1>   0.1200 
 29 C       12.9830    -5.3810     0.3990 C.3   1 <1>   0.1200 
 30 O       13.0310    -3.9920     0.5810 O.3   1 <1>  -0.5600 
 31 H        2.8870     0.9330     1.3920 H     1 <1>   0.0800 
 32 H        2.0300     1.8370     0.1760 H     1 <1>   0.0800 
 33 H        1.8560    -2.3290     0.0860 H     1 <1>   0.0800 
 34 H        2.7980    -1.5510     1.3280 H     1 <1>   0.0800 
 35 H       -0.8800    -2.6890     1.9650 H     1 <1>   0.1500 
 36 H       -0.8120    -0.4470    -1.6510 H     1 <1>   0.1500 
 37 H        4.4520     1.7760    -0.2720 H     1 <1>   0.0800 
 38 H        3.5280     1.0690    -1.5620 H     1 <1>   0.0800 
 39 H        3.4130    -1.6010    -1.6330 H     1 <1>   0.0800 
 40 H        4.2680    -2.4510    -0.3760 H     1 <1>   0.0800 
 41 H       -2.2630    -4.4000     0.8810 H     1 <1>   0.1500 
 42 H       -2.2000    -2.1580    -2.7400 H     1 <1>   0.1500 
 43 H       -2.9240    -4.1410    -1.4750 H     1 <1>   0.1500 
 44 H        7.1110    -1.5520     2.1550 H     1 <1>   0.1500 
 45 H        6.4390    -1.9320    -2.0190 H     1 <1>   0.1500 
 46 H        8.4800    -3.5710     2.1400 H     1 <1>   0.1500 
 47 H        7.8070    -3.9520    -2.0760 H     1 <1>   0.1500 
 48 H        9.0370    -5.6440    -0.9560 H     1 <1>   0.0800 
 49 H        8.8440    -5.8210     0.7740 H     1 <1>   0.0800 
 50 H       10.6210    -4.2380     1.0980 H     1 <1>   0.4500 
 51 H       10.3950    -2.8340    -0.7820 H     1 <1>   0.0800 
 52 H       11.0080    -4.1070    -1.7950 H     1 <1>   0.0800 
 53 H       11.4340    -6.5030    -0.5850 H     1 <1>   0.0800 
 54 H       11.2880    -6.4760     1.1470 H     1 <1>   0.0800 
 55 H       12.4930    -2.2150    -0.1890 H     1 <1>   0.0800 
 56 H       13.1170    -3.3630    -1.3430 H     1 <1>   0.0800 
 57 H       13.5420    -5.6320    -0.4860 H     1 <1>   0.0800 
 58 H       13.4650    -5.8430     1.2440 H     1 <1>   0.0800 
@<TRIPOS>BOND
  1   1   2  2   
  2   1   3  2   
  3   1   4  am  
  4   1   5  1   
  5   4   6  1   
  6   4   7  1   
  7   5   8  ar  
  8   5   9  ar  
  9   6  10  1   
 10   6  31  1   
 11   6  32  1   
 12   7  11  1   
 13   7  33  1   
 14   7  34  1   
 15   8  12  ar  
 16   8  35  1   
 17   9  13  ar  
 18   9  36  1   
 19  10  14  1   
 20  10  37  1   
 21  10  38  1   
 22  11  14  1   
 23  11  39  1   
 24  11  40  1   
 25  12  15  ar  
 26  12  41  1   
 27  13  15  ar  
 28  13  42  1   
 29  14  16  am  
 30  15  43  1   
 31  16  17  2   
 32  16  18  1   
 33  18  19  ar  
 34  18  20  ar  
 35  19  21  ar  
 36  19  44  1   
 37  20  22  ar  
 38  20  45  1   
 39  21  23  ar  
 40  21  46  1   
 41  22  23  ar  
 42  22  47  1   
 43  23  24  1   
 44  24  25  1   
 45  24  48  1   
 46  24  49  1   
 47  25  26  1   
 48  25  27  1   
 49  25  50  1   
 50  26  28  1   
 51  26  51  1   
 52  26  52  1   
 53  27  29  1   
 54  27  53  1   
 55  27  54  1   
 56  28  30  1   
 57  28  55  1   
 58  28  56  1   
 59  29  30  1   
 60  29  57  1   
 61  29  58  1   
@<TRIPOS>SUBSTRUCTURE
  1 ****  11 GROUP 4 **** **** 0

# MOE 2024.06 (io_trps.svl 2023.06)
