@<TRIPOS>MOLECULE
NONAME
46 47 1 0 0 
SMALL
USER_CHARGES


@<TRIPOS>ATOM
  1 S        0.3360    -0.8760     1.5620 S.o2  1 <1>   1.4470 
  2 O       -0.3180     0.4050     1.7240 O.2   1 <1>  -0.6500 
  3 O        0.5640    -1.6900     2.7380 O.2   1 <1>  -0.6500 
  4 N       -0.6210    -1.8200     0.5230 N.am  1 <1>  -0.8490 
  5 C        1.8930    -0.6510     0.6360 C.ar  1 <1>  -0.0090 
  6 C       -2.0220    -1.8420     0.9600 C.3   1 <1>   0.1960 
  7 C       -0.0560    -3.1650     0.3610 C.3   1 <1>   0.1960 
  8 C        1.9700     0.0390    -0.5770 C.ar  1 <1>  -0.1440 
  9 C        3.0650    -1.2010     1.1420 C.ar  1 <1>  -0.1500 
 10 C       -2.9480    -2.0700    -0.2380 C.3   1 <1>  -0.1600 
 11 C       -0.7190    -3.9720    -0.7620 C.3   1 <1>  -0.1600 
 12 C        3.1860     0.1600    -1.2310 C.ar  1 <1>  -0.1500 
 13 C        0.7440     0.6810    -1.2170 C.3   1 <1>  -0.0970 
 14 C        4.2970    -1.1060     0.4990 C.ar  1 <1>   0.0860 
 15 C       -3.2540    -3.5400    -0.5670 C.3   1 <1>  -0.1600 
 16 C       -2.0960    -4.5280    -0.3720 C.3   1 <1>  -0.1600 
 17 C        4.3300    -0.4010    -0.7010 C.ar  1 <1>  -0.1500 
 18 C        5.4860    -1.7210     1.0640 C.2   1 <1>   0.5440 
 19 O        5.5860    -1.8890     2.2620 O.2   1 <1>  -0.5700 
 20 N        6.5040    -2.1440     0.2550 N.am  1 <1>  -0.7300 
 21 C        7.7600    -2.7610     0.7220 C.3   1 <1>   0.1400 
 22 C        8.9020    -2.2610    -0.1540 C.3   1 <1>  -0.2400 
 23 H       -2.2860    -0.8840     1.3750 H     1 <1>   0.0800 
 24 H       -2.1770    -2.5790     1.7310 H     1 <1>   0.0800 
 25 H       -0.1190    -3.7070     1.2920 H     1 <1>   0.0800 
 26 H        0.9870    -3.0760     0.1130 H     1 <1>   0.0800 
 27 H        3.0300    -1.7320     2.0800 H     1 <1>   0.1500 
 28 H       -2.5240    -1.5820    -1.0990 H     1 <1>   0.0800 
 29 H       -3.8840    -1.5810    -0.0370 H     1 <1>   0.0800 
 30 H       -0.0780    -4.8110    -0.9660 H     1 <1>   0.0800 
 31 H       -0.7730    -3.3870    -1.6630 H     1 <1>   0.0800 
 32 H        3.2490     0.6990    -2.1610 H     1 <1>   0.1500 
 33 H        0.3400     1.4410    -0.5720 H     1 <1>   0.0800 
 34 H       -0.0160    -0.0570    -1.4040 H     1 <1>   0.0800 
 35 H        0.9910     1.1430    -2.1560 H     1 <1>   0.0800 
 36 H       -3.5820    -3.5870    -1.5920 H     1 <1>   0.0800 
 37 H       -4.0780    -3.8700     0.0410 H     1 <1>   0.0800 
 38 H       -2.0710    -4.8540     0.6540 H     1 <1>   0.0800 
 39 H       -2.3020    -5.4000    -0.9700 H     1 <1>   0.0800 
 40 H        5.2620    -0.2790    -1.2250 H     1 <1>   0.1500 
 41 H        6.3800    -2.1220    -0.7570 H     1 <1>   0.3700 
 42 H        7.6780    -3.8320     0.6570 H     1 <1>   0.0800 
 43 H        7.9400    -2.4940     1.7510 H     1 <1>   0.0800 
 44 H        8.7470    -2.5470    -1.1780 H     1 <1>   0.0800 
 45 H        9.8270    -2.6930     0.1840 H     1 <1>   0.0800 
 46 H        8.9830    -1.1910    -0.0830 H     1 <1>   0.0800 
@<TRIPOS>BOND
  1   1   2  2   
  2   1   3  2   
  3   1   4  am  
  4   1   5  1   
  5   4   6  1   
  6   4   7  1   
  7   5   8  ar  
  8   5   9  ar  
  9   6  10  1   
 10   6  23  1   
 11   6  24  1   
 12   7  11  1   
 13   7  25  1   
 14   7  26  1   
 15   8  12  ar  
 16   8  13  1   
 17   9  14  ar  
 18   9  27  1   
 19  10  15  1   
 20  10  28  1   
 21  10  29  1   
 22  11  16  1   
 23  11  30  1   
 24  11  31  1   
 25  12  17  ar  
 26  12  32  1   
 27  13  33  1   
 28  13  34  1   
 29  13  35  1   
 30  14  17  ar  
 31  14  18  1   
 32  15  16  1   
 33  15  36  1   
 34  15  37  1   
 35  16  38  1   
 36  16  39  1   
 37  17  40  1   
 38  18  19  2   
 39  18  20  am  
 40  20  21  1   
 41  20  41  1   
 42  21  22  1   
 43  21  42  1   
 44  21  43  1   
 45  22  44  1   
 46  22  45  1   
 47  22  46  1   
@<TRIPOS>SUBSTRUCTURE
  1 ****   5 GROUP 4 **** **** 0

# MOE 2024.06 (io_trps.svl 2023.06)
