@<TRIPOS>MOLECULE
NONAME
52 54 1 0 0 
SMALL
USER_CHARGES


@<TRIPOS>ATOM
  1 F       -0.6070    -0.5240    -0.2850 F     1 <1>  -0.1900 
  2 C       -1.4550    -1.2350     0.4220 C.ar  1 <1>   0.1900 
  3 C       -1.1760    -2.5830     0.6810 C.ar  1 <1>   0.1000 
  4 C       -2.5940    -0.6030     0.8800 C.ar  1 <1>  -0.1500 
  5 N       -0.0310    -3.2590     0.2350 N.pl3 1 <1>  -0.8380 
  6 C       -2.1100    -3.2830     1.4350 C.ar  1 <1>  -0.1500 
  7 C       -3.5050    -1.3300     1.6290 C.ar  1 <1>  -0.1500 
  8 C        1.2510    -2.8100     0.8580 C.3   1 <1>   0.2090 
  9 C        0.0540    -3.4510    -1.2440 C.3   1 <1>   0.2090 
 10 C       -3.2600    -2.6660     1.9030 C.ar  1 <1>  -0.1500 
 11 C        2.4160    -3.7460     0.4720 C.3   1 <1>   0.3430 
 12 C        1.2220    -4.3890    -1.6150 C.3   1 <1>   0.3430 
 13 N        2.5330    -3.9390    -1.0230 N.4   1 <1>  -0.9590 
 14 C        3.6450    -4.8620    -1.3720 C.3   1 <1>   0.4860 
 15 C        4.9480    -4.2160    -0.9490 C.ar  1 <1>  -0.1430 
 16 C        5.4880    -3.1770    -1.6900 C.ar  1 <1>  -0.1500 
 17 C        5.6120    -4.6520     0.1870 C.ar  1 <1>  -0.1500 
 18 C        6.6650    -2.5580    -1.3010 C.ar  1 <1>   0.0830 
 19 C        6.7900    -4.0480     0.5940 C.ar  1 <1>   0.0830 
 20 O        7.0850    -1.5510    -2.1120 O.3   1 <1>  -0.3630 
 21 C        7.3170    -2.9750    -0.1340 C.ar  1 <1>   0.0830 
 22 O        7.3550    -4.5530     1.7210 O.3   1 <1>  -0.3630 
 23 C        8.4600    -1.4040    -2.4010 C.3   1 <1>   0.0400 
 24 O        8.4280    -2.3270     0.3070 O.3   1 <1>  -0.3630 
 25 C        8.7240    -4.9050     1.6900 C.3   1 <1>   0.0400 
 26 C        8.1990    -1.3490     1.2960 C.3   1 <1>   0.0400 
 27 H       -2.7660     0.4340     0.6560 H     1 <1>   0.1500 
 28 H       -1.9300    -4.3190     1.6540 H     1 <1>   0.1500 
 29 H       -4.4010    -0.8590     1.9960 H     1 <1>   0.1500 
 30 H        1.1400    -2.8050     1.9290 H     1 <1>   0.0800 
 31 H        1.4780    -1.8050     0.5460 H     1 <1>   0.0800 
 32 H        0.1850    -2.4990    -1.7300 H     1 <1>   0.0800 
 33 H       -0.8710    -3.8760    -1.5970 H     1 <1>   0.0800 
 34 H       -3.9690    -3.2300     2.4860 H     1 <1>   0.1500 
 35 H        2.2490    -4.6980     0.9470 H     1 <1>   0.0800 
 36 H        3.3330    -3.3380     0.8630 H     1 <1>   0.0800 
 37 H        1.3000    -4.4400    -2.6890 H     1 <1>   0.0800 
 38 H        0.9810    -5.3750    -1.2530 H     1 <1>   0.0800 
 39 H        2.7710    -3.0210    -1.4190 H     1 <1>   0.4500 
 40 H        3.6650    -5.0370    -2.4360 H     1 <1>   0.0800 
 41 H        3.5190    -5.8080    -0.8710 H     1 <1>   0.0800 
 42 H        5.0120    -2.8240    -2.5880 H     1 <1>   0.1500 
 43 H        5.2350    -5.4680     0.7790 H     1 <1>   0.1500 
 44 H        8.5540    -0.8680    -3.3280 H     1 <1>   0.0800 
 45 H        8.9100    -2.3780    -2.4910 H     1 <1>   0.0800 
 46 H        8.9260    -0.8440    -1.6110 H     1 <1>   0.0800 
 47 H        9.3190    -4.0260     1.8590 H     1 <1>   0.0800 
 48 H        8.9050    -5.6190     2.4720 H     1 <1>   0.0800 
 49 H        8.9570    -5.3390     0.7330 H     1 <1>   0.0800 
 50 H        9.1430    -0.9070     1.5580 H     1 <1>   0.0800 
 51 H        7.5380    -0.6000     0.8960 H     1 <1>   0.0800 
 52 H        7.7600    -1.8190     2.1580 H     1 <1>   0.0800 
@<TRIPOS>BOND
  1   1   2  1   
  2   2   3  ar  
  3   2   4  ar  
  4   3   5  1   
  5   3   6  ar  
  6   4   7  ar  
  7   4  27  1   
  8   5   8  1   
  9   5   9  1   
 10   6  10  ar  
 11   6  28  1   
 12   7  10  ar  
 13   7  29  1   
 14   8  11  1   
 15   8  30  1   
 16   8  31  1   
 17   9  12  1   
 18   9  32  1   
 19   9  33  1   
 20  10  34  1   
 21  11  13  1   
 22  11  35  1   
 23  11  36  1   
 24  12  13  1   
 25  12  37  1   
 26  12  38  1   
 27  13  14  1   
 28  13  39  1   
 29  14  15  1   
 30  14  40  1   
 31  14  41  1   
 32  15  16  ar  
 33  15  17  ar  
 34  16  18  ar  
 35  16  42  1   
 36  17  19  ar  
 37  17  43  1   
 38  18  20  1   
 39  18  21  ar  
 40  19  21  ar  
 41  19  22  1   
 42  20  23  1   
 43  21  24  1   
 44  22  25  1   
 45  23  44  1   
 46  23  45  1   
 47  23  46  1   
 48  24  26  1   
 49  25  47  1   
 50  25  48  1   
 51  25  49  1   
 52  26  50  1   
 53  26  51  1   
 54  26  52  1   
@<TRIPOS>SUBSTRUCTURE
  1 ****  11 GROUP 4 **** **** 0

# MOE 2024.06 (io_trps.svl 2023.06)
