@<TRIPOS>MOLECULE
NONAME
47 49 1 0 0 
SMALL
USER_CHARGES


@<TRIPOS>ATOM
  1 O       -0.0250     0.6780     0.2020 O.2   1 <1>  -0.5700 
  2 C       -1.0660     1.2070    -0.1010 C.2   1 <1>   0.5690 
  3 N       -1.4670     2.4510     0.3530 N.am  1 <1>  -0.4770 
  4 C       -1.9620     0.4270    -1.0400 C.3   1 <1>  -0.1790 
  5 C       -2.8280     2.7840     0.5390 C.ar  1 <1>   0.1170 
  6 C       -0.5390     3.6230     0.4740 C.3   1 <1>   0.2200 
  7 C       -3.3160     4.0390     0.1710 C.ar  1 <1>  -0.1440 
  8 C       -3.7150     1.8700     1.1020 C.ar  1 <1>  -0.1500 
  9 C       -0.9590     4.6270    -0.6010 C.3   1 <1>  -0.1600 
 10 C        0.9590     3.3220     0.3450 C.3   1 <1>  -0.2400 
 11 C       -4.6650     4.3300     0.3120 C.ar  1 <1>  -0.1500 
 12 C       -2.3810     5.1220    -0.3500 C.3   1 <1>   0.4330 
 13 C       -5.0570     2.1690     1.2450 C.ar  1 <1>  -0.1500 
 14 C       -5.5420     3.4000     0.8430 C.ar  1 <1>  -0.1440 
 15 N       -2.3210     6.1640     0.6920 N.pl3 1 <1>  -0.8690 
 16 C       -7.0160     3.7300     0.9890 C.3   1 <1>  -0.0970 
 17 C       -2.8250     7.4190     0.3840 C.ar  1 <1>   0.1000 
 18 C       -2.3110     8.1670    -0.6670 C.ar  1 <1>  -0.1500 
 19 C       -3.8660     7.9500     1.1340 C.ar  1 <1>  -0.1500 
 20 C       -2.8360     9.4100    -0.9730 C.ar  1 <1>  -0.1500 
 21 C       -4.3920     9.1920     0.8300 C.ar  1 <1>  -0.1500 
 22 C       -3.8810     9.9300    -0.2260 C.ar  1 <1>  -0.1430 
 23 C       -4.4580    11.2930    -0.5610 C.3   1 <1>  -0.0970 
 24 H       -2.5370    -0.2870    -0.4830 H     1 <1>   0.0800 
 25 H       -1.3550    -0.1010    -1.7510 H     1 <1>   0.0800 
 26 H       -2.6220     1.0850    -1.5740 H     1 <1>   0.0800 
 27 H       -0.6950     4.0670     1.4440 H     1 <1>   0.0800 
 28 H       -3.3530     0.9160     1.4370 H     1 <1>   0.1500 
 29 H       -0.9140     4.1470    -1.5620 H     1 <1>   0.0800 
 30 H       -0.2900     5.4680    -0.6210 H     1 <1>   0.0800 
 31 H        1.1860     2.8850    -0.6110 H     1 <1>   0.0800 
 32 H        1.2720     2.6570     1.1300 H     1 <1>   0.0800 
 33 H        1.5240     4.2310     0.4450 H     1 <1>   0.0800 
 34 H       -5.0310     5.2980     0.0120 H     1 <1>   0.1500 
 35 H       -2.7820     5.5390    -1.2590 H     1 <1>   0.0800 
 36 H       -5.7220     1.4390     1.6730 H     1 <1>   0.1500 
 37 H       -2.7290     5.7700     1.5460 H     1 <1>   0.4000 
 38 H       -7.1590     4.7920     1.0780 H     1 <1>   0.0800 
 39 H       -7.4200     3.2600     1.8680 H     1 <1>   0.0800 
 40 H       -7.5550     3.3790     0.1280 H     1 <1>   0.0800 
 41 H       -1.4930     7.7750    -1.2410 H     1 <1>   0.1500 
 42 H       -4.2660     7.3870     1.9560 H     1 <1>   0.1500 
 43 H       -2.4260     9.9720    -1.7920 H     1 <1>   0.1500 
 44 H       -5.2010     9.5840     1.4210 H     1 <1>   0.1500 
 45 H       -5.2440    11.1870    -1.2880 H     1 <1>   0.0800 
 46 H       -3.6960    11.9350    -0.9650 H     1 <1>   0.0800 
 47 H       -4.8600    11.7590     0.3200 H     1 <1>   0.0800 
@<TRIPOS>BOND
  1   1   2  2   
  2   2   3  am  
  3   2   4  1   
  4   3   5  1   
  5   3   6  1   
  6   4  24  1   
  7   4  25  1   
  8   4  26  1   
  9   5   7  ar  
 10   5   8  ar  
 11   6   9  1   
 12   6  10  1   
 13   6  27  1   
 14   7  11  ar  
 15   7  12  1   
 16   8  13  ar  
 17   8  28  1   
 18   9  12  1   
 19   9  29  1   
 20   9  30  1   
 21  10  31  1   
 22  10  32  1   
 23  10  33  1   
 24  11  14  ar  
 25  11  34  1   
 26  12  15  1   
 27  12  35  1   
 28  13  14  ar  
 29  13  36  1   
 30  14  16  1   
 31  15  17  1   
 32  15  37  1   
 33  16  38  1   
 34  16  39  1   
 35  16  40  1   
 36  17  18  ar  
 37  17  19  ar  
 38  18  20  ar  
 39  18  41  1   
 40  19  21  ar  
 41  19  42  1   
 42  20  22  ar  
 43  20  43  1   
 44  21  22  ar  
 45  21  44  1   
 46  22  23  1   
 47  23  45  1   
 48  23  46  1   
 49  23  47  1   
@<TRIPOS>SUBSTRUCTURE
  1 ****  12 GROUP 4 **** **** 0

# MOE 2024.06 (io_trps.svl 2023.06)
