@<TRIPOS>MOLECULE
NONAME
50 51 1 0 0 
SMALL
USER_CHARGES


@<TRIPOS>ATOM
  1 O       -6.4430    -3.1490    -1.8000 O.2   1 <1>  -0.5700 
  2 C       -6.4200    -2.9520    -0.6140 C.2   1 <1>   0.6590 
  3 O       -7.5170    -2.7850     0.1080 O.3   1 <1>  -0.4300 
  4 C       -5.1000    -2.8750     0.1460 C.3   1 <1>  -0.0190 
  5 C       -8.7970    -2.8320    -0.4800 C.3   1 <1>   0.1200 
  6 C       -4.2730    -1.6600    -0.3150 C.3   1 <1>  -0.1600 
  7 C       -4.2870    -4.1730    -0.0270 C.3   1 <1>  -0.1600 
  8 C       -9.8310    -2.6040     0.6180 C.3   1 <1>  -0.2400 
  9 C       -2.8900    -1.6290     0.3320 C.3   1 <1>   0.3430 
 10 C       -2.9040    -4.0740     0.6110 C.3   1 <1>   0.3430 
 11 N       -2.1740    -2.9040     0.0370 N.4   1 <1>  -0.9590 
 12 C       -0.7670    -2.8160     0.5360 C.3   1 <1>   0.3430 
 13 C        0.1270    -3.9080    -0.0580 C.3   1 <1>  -0.0990 
 14 C        1.5320    -3.7460     0.4790 C.2   1 <1>   0.5690 
 15 O        1.6810    -3.0440     1.4480 O.2   1 <1>  -0.5700 
 16 N        2.5430    -4.4100    -0.1560 N.am  1 <1>  -0.5470 
 17 C        3.9250    -4.4340     0.0950 C.ar  1 <1>   0.1170 
 18 C        4.6730    -5.4880    -0.4210 C.ar  1 <1>  -0.1500 
 19 C        4.5880    -3.4470     0.8180 C.ar  1 <1>  -0.1500 
 20 C        6.0410    -5.5660    -0.2210 C.ar  1 <1>  -0.1440 
 21 C        5.9540    -3.5170     1.0220 C.ar  1 <1>  -0.1500 
 22 C        6.6800    -4.5740     0.5030 C.ar  1 <1>  -0.1500 
 23 C        6.8460    -6.7220    -0.7870 C.3   1 <1>  -0.0970 
 24 H       -5.3300    -2.7550     1.1910 H     1 <1>   0.0800 
 25 H       -8.9280    -3.7970    -0.9400 H     1 <1>   0.0800 
 26 H       -8.8560    -2.0630    -1.2330 H     1 <1>   0.0800 
 27 H       -4.8000    -0.7560    -0.0600 H     1 <1>   0.0800 
 28 H       -4.1630    -1.6740    -1.3860 H     1 <1>   0.0800 
 29 H       -4.1780    -4.4040    -1.0730 H     1 <1>   0.0800 
 30 H       -4.8240    -4.9900     0.4240 H     1 <1>   0.0800 
 31 H       -9.7550    -3.3720     1.3660 H     1 <1>   0.0800 
 32 H      -10.8190    -2.6340     0.1960 H     1 <1>   0.0800 
 33 H       -9.6840    -1.6410     1.0730 H     1 <1>   0.0800 
 34 H       -2.9890    -1.5020     1.3980 H     1 <1>   0.0800 
 35 H       -2.3320    -0.7920    -0.0590 H     1 <1>   0.0800 
 36 H       -2.3600    -4.9850     0.4210 H     1 <1>   0.0800 
 37 H       -3.0030    -3.9550     1.6790 H     1 <1>   0.0800 
 38 H       -2.1580    -3.0090    -0.9870 H     1 <1>   0.4500 
 39 H       -0.7520    -2.8890     1.6130 H     1 <1>   0.0800 
 40 H       -0.3470    -1.8580     0.2730 H     1 <1>   0.0800 
 41 H        0.1510    -3.8210    -1.1280 H     1 <1>   0.0800 
 42 H       -0.2220    -4.8830     0.2230 H     1 <1>   0.0800 
 43 H        2.2670    -5.0300    -0.9150 H     1 <1>   0.3700 
 44 H        4.1810    -6.2590    -0.9830 H     1 <1>   0.1500 
 45 H        4.0480    -2.6140     1.2250 H     1 <1>   0.1500 
 46 H        6.4520    -2.7480     1.5850 H     1 <1>   0.1500 
 47 H        7.7430    -4.6210     0.6660 H     1 <1>   0.1500 
 48 H        6.2020    -7.5250    -1.0980 H     1 <1>   0.0800 
 49 H        7.5230    -7.1000    -0.0420 H     1 <1>   0.0800 
 50 H        7.4160    -6.3880    -1.6360 H     1 <1>   0.0800 
@<TRIPOS>BOND
  1   1   2  2   
  2   2   3  1   
  3   2   4  1   
  4   3   5  1   
  5   4   6  1   
  6   4   7  1   
  7   4  24  1   
  8   5   8  1   
  9   5  25  1   
 10   5  26  1   
 11   6   9  1   
 12   6  27  1   
 13   6  28  1   
 14   7  10  1   
 15   7  29  1   
 16   7  30  1   
 17   8  31  1   
 18   8  32  1   
 19   8  33  1   
 20   9  11  1   
 21   9  34  1   
 22   9  35  1   
 23  10  11  1   
 24  10  36  1   
 25  10  37  1   
 26  11  12  1   
 27  11  38  1   
 28  12  13  1   
 29  12  39  1   
 30  12  40  1   
 31  13  14  1   
 32  13  41  1   
 33  13  42  1   
 34  14  15  2   
 35  14  16  am  
 36  16  17  1   
 37  16  43  1   
 38  17  18  ar  
 39  17  19  ar  
 40  18  20  ar  
 41  18  44  1   
 42  19  21  ar  
 43  19  45  1   
 44  20  22  ar  
 45  20  23  1   
 46  21  22  ar  
 47  21  46  1   
 48  22  47  1   
 49  23  48  1   
 50  23  49  1   
 51  23  50  1   
@<TRIPOS>SUBSTRUCTURE
  1 ****  13 GROUP 4 **** **** 0

# MOE 2024.06 (io_trps.svl 2023.06)
