@<TRIPOS>MOLECULE
NONAME
29 31 1 0 0 
SMALL
USER_CHARGES


@<TRIPOS>ATOM
  1 O        0.1430     0.2750    -0.1520 O.2   1 <1>  -0.5700 
  2 C       -0.0700     1.3720     0.3040 C.2   1 <1>   0.5770 
  3 N       -1.3270     1.8600     0.5440 N.am  1 <1>  -0.5470 
  4 C        1.1120     2.2710     0.6460 C.3   1 <1>   0.0530 
  5 C       -2.5970     1.2880     0.3520 C.ar  1 <1>   0.1170 
  6 C        0.9880     3.7430     0.1640 C.3   1 <1>   0.0000 
  7 C        2.3410     2.1560    -0.3000 C.3   1 <1>   0.0000 
  8 C       -3.6920     2.1430     0.2450 C.ar  1 <1>  -0.1500 
  9 C       -2.8050    -0.0960     0.2800 C.ar  1 <1>  -0.1500 
 10 C        2.5070     3.6890    -0.1380 C.3   1 <1>   0.0000 
 11 C       -4.9460     1.5960     0.0680 C.ar  1 <1>   0.0830 
 12 C       -4.0740    -0.6300     0.1000 C.ar  1 <1>  -0.1500 
 13 O       -6.1160     2.2310    -0.0570 O.3   1 <1>  -0.3630 
 14 C       -5.1340     0.2470    -0.0040 C.ar  1 <1>   0.0830 
 15 C       -7.1120     1.2230    -0.2230 C.3   1 <1>   0.4000 
 16 O       -6.4330    -0.0310    -0.1780 O.3   1 <1>  -0.3630 
 17 H       -1.3520     2.8200     0.8790 H     1 <1>   0.3700 
 18 H        1.3970     2.2100     1.6830 H     1 <1>   0.0000 
 19 H        0.7230     4.4360     0.9430 H     1 <1>   0.0000 
 20 H        0.3960     3.8500    -0.7290 H     1 <1>   0.0000 
 21 H        2.0800     1.8780    -1.3070 H     1 <1>   0.0000 
 22 H        3.1540     1.5840     0.1090 H     1 <1>   0.0000 
 23 H       -3.5810     3.2090     0.2940 H     1 <1>   0.1500 
 24 H       -1.9720    -0.7680     0.3690 H     1 <1>   0.1500 
 25 H        3.1110     3.9540     0.7130 H     1 <1>   0.0000 
 26 H        2.7900     4.1950    -1.0440 H     1 <1>   0.0000 
 27 H       -4.2370    -1.6910     0.0420 H     1 <1>   0.1500 
 28 H       -7.5880     1.3400    -1.1800 H     1 <1>   0.0800 
 29 H       -7.8200     1.2780     0.5840 H     1 <1>   0.0800 
@<TRIPOS>BOND
  1   1   2  2   
  2   2   3  am  
  3   2   4  1   
  4   3   5  1   
  5   3  17  1   
  6   4   6  1   
  7   4   7  1   
  8   4  18  1   
  9   5   8  ar  
 10   5   9  ar  
 11   6  10  1   
 12   6  19  1   
 13   6  20  1   
 14   7  10  1   
 15   7  21  1   
 16   7  22  1   
 17   8  11  ar  
 18   8  23  1   
 19   9  12  ar  
 20   9  24  1   
 21  10  25  1   
 22  10  26  1   
 23  11  13  1   
 24  11  14  ar  
 25  12  14  ar  
 26  12  27  1   
 27  13  15  1   
 28  14  16  1   
 29  15  16  1   
 30  15  28  1   
 31  15  29  1   
@<TRIPOS>SUBSTRUCTURE
  1 ****   5 GROUP 4 **** **** 0

# MOE 2024.06 (io_trps.svl 2023.06)
