@<TRIPOS>MOLECULE
NONAME
36 37 1 0 0 
SMALL
USER_CHARGES


@<TRIPOS>ATOM
  1 O        0.4130    -0.3000    -0.7950 O.2   1 <1>  -0.5700 
  2 C        0.9260    -1.3720    -0.5310 C.2   1 <1>   0.5440 
  3 N        0.1180    -2.4830    -0.4340 N.am  1 <1>  -0.6600 
  4 C        2.3580    -1.4510    -0.3150 C.ar  1 <1>   0.0860 
  5 C       -1.3430    -2.4130    -0.6510 C.3   1 <1>   0.1400 
  6 C        0.4910    -3.7430     0.2490 C.3   1 <1>   0.1400 
  7 C        3.1490    -2.4010    -0.9630 C.ar  1 <1>  -0.1500 
  8 C        2.9990    -0.5670     0.5530 C.ar  1 <1>  -0.1500 
  9 C       -1.8670    -3.7900    -0.2580 C.3   1 <1>  -0.1600 
 10 C       -0.8320    -4.3290     0.7260 C.3   1 <1>  -0.1600 
 11 C        4.5120    -2.4830    -0.7430 C.ar  1 <1>  -0.1500 
 12 C        4.3600    -0.6420     0.7800 C.ar  1 <1>  -0.1500 
 13 C        5.1290    -1.6000     0.1390 C.ar  1 <1>   0.0830 
 14 O        6.4520    -1.6100     0.4150 O.3   1 <1>  -0.3630 
 15 C        7.3330    -2.5190    -0.2030 C.3   1 <1>   0.1200 
 16 C        8.7440    -2.2480     0.3210 C.3   1 <1>  -0.1600 
 17 C        9.7660    -3.2020    -0.3070 C.3   1 <1>  -0.2400 
 18 H       -1.5640    -2.1770    -1.6780 H     1 <1>   0.0800 
 19 H       -1.7570    -1.6520    -0.0110 H     1 <1>   0.0800 
 20 H        1.1610    -3.5600     1.0720 H     1 <1>   0.0800 
 21 H        0.9560    -4.4040    -0.4620 H     1 <1>   0.0800 
 22 H        2.6790    -3.0790    -1.6540 H     1 <1>   0.1500 
 23 H        2.4110     0.1850     1.0500 H     1 <1>   0.1500 
 24 H       -1.9000    -4.4130    -1.1350 H     1 <1>   0.0800 
 25 H       -2.8520    -3.7340     0.1700 H     1 <1>   0.0800 
 26 H       -1.0420    -3.9600     1.7140 H     1 <1>   0.0800 
 27 H       -0.8090    -5.4040     0.7500 H     1 <1>   0.0800 
 28 H        5.0760    -3.2330    -1.2640 H     1 <1>   0.1500 
 29 H        4.8390     0.0450     1.4540 H     1 <1>   0.1500 
 30 H        7.2870    -2.3650    -1.2670 H     1 <1>   0.0800 
 31 H        7.0200    -3.5180     0.0450 H     1 <1>   0.0800 
 32 H        8.7530    -2.3730     1.3900 H     1 <1>   0.0800 
 33 H        9.0170    -1.2330     0.0910 H     1 <1>   0.0800 
 34 H        9.5220    -4.2240    -0.0750 H     1 <1>   0.0800 
 35 H       10.7480    -2.9910     0.0770 H     1 <1>   0.0800 
 36 H        9.7860    -3.0820    -1.3770 H     1 <1>   0.0800 
@<TRIPOS>BOND
  1   1   2  2   
  2   2   3  am  
  3   2   4  1   
  4   3   5  1   
  5   3   6  1   
  6   4   7  ar  
  7   4   8  ar  
  8   5   9  1   
  9   5  18  1   
 10   5  19  1   
 11   6  10  1   
 12   6  20  1   
 13   6  21  1   
 14   7  11  ar  
 15   7  22  1   
 16   8  12  ar  
 17   8  23  1   
 18   9  10  1   
 19   9  24  1   
 20   9  25  1   
 21  10  26  1   
 22  10  27  1   
 23  11  13  ar  
 24  11  28  1   
 25  12  13  ar  
 26  12  29  1   
 27  13  14  1   
 28  14  15  1   
 29  15  16  1   
 30  15  30  1   
 31  15  31  1   
 32  16  17  1   
 33  16  32  1   
 34  16  33  1   
 35  17  34  1   
 36  17  35  1   
 37  17  36  1   
@<TRIPOS>SUBSTRUCTURE
  1 ****   7 GROUP 4 **** **** 0

# MOE 2024.06 (io_trps.svl 2023.06)
