@<TRIPOS>MOLECULE
NONAME
32 32 1 0 0 
SMALL
USER_CHARGES


@<TRIPOS>ATOM
  1 BR       0.2140     0.3960    -0.0120 Br    1 <1>  -0.1110 
  2 C       -1.5840     1.0870    -0.0070 C.ar  1 <1>   0.1110 
  3 C       -1.7710     2.4560     0.0010 C.ar  1 <1>  -0.1500 
  4 C       -2.6400     0.1960    -0.0120 C.ar  1 <1>  -0.1500 
  5 C       -3.0660     2.9450     0.0050 C.ar  1 <1>  -0.1500 
  6 C       -3.9320     0.6940    -0.0080 C.ar  1 <1>  -0.1500 
  7 C       -4.1480     2.0730     0.0000 C.ar  1 <1>   0.0820 
  8 O       -5.3800     2.6430     0.0040 O.3   1 <1>  -0.3630 
  9 C       -6.5490     1.8640     0.0010 C.3   1 <1>   0.1200 
 10 C       -7.7330     2.8340     0.0070 C.3   1 <1>   0.3430 
 11 N       -9.0460     2.1170     0.0040 N.4   1 <1>  -0.9060 
 12 C      -10.1870     3.0840     0.0110 C.3   1 <1>   0.3430 
 13 C      -11.5420     2.3720     0.0070 C.3   1 <1>   0.1200 
 14 O      -12.5120     3.3600     0.0150 O.3   1 <1>  -0.5600 
 15 C      -13.8240     2.8860     0.0130 C.3   1 <1>   0.0400 
 16 H       -0.9240     3.1190     0.0050 H     1 <1>   0.1500 
 17 H       -2.4480    -0.8630    -0.0180 H     1 <1>   0.1500 
 18 H       -3.2390     4.0060     0.0110 H     1 <1>   0.1500 
 19 H       -4.7440    -0.0080    -0.0120 H     1 <1>   0.1500 
 20 H       -6.5440     1.2510     0.8850 H     1 <1>   0.0800 
 21 H       -6.5450     1.2610    -0.8910 H     1 <1>   0.0800 
 22 H       -7.6640     3.4660    -0.8640 H     1 <1>   0.0800 
 23 H       -7.6630     3.4560     0.8860 H     1 <1>   0.0800 
 24 H       -9.1130     1.5100     0.8310 H     1 <1>   0.4500 
 25 H       -9.1150     1.5200    -0.8310 H     1 <1>   0.4500 
 26 H      -10.1320     3.7180    -0.8600 H     1 <1>   0.0800 
 27 H      -10.1310     3.7070     0.8890 H     1 <1>   0.0800 
 28 H      -11.6670     1.7690     0.8910 H     1 <1>   0.0800 
 29 H      -11.6690     1.7810    -0.8830 H     1 <1>   0.0800 
 30 H      -14.4870     3.7340     0.0190 H     1 <1>   0.0800 
 31 H      -13.9930     2.2920     0.8950 H     1 <1>   0.0800 
 32 H      -13.9950     2.3040    -0.8760 H     1 <1>   0.0800 
@<TRIPOS>BOND
  1   1   2  1   
  2   2   3  ar  
  3   2   4  ar  
  4   3   5  ar  
  5   3  16  1   
  6   4   6  ar  
  7   4  17  1   
  8   5   7  ar  
  9   5  18  1   
 10   6   7  ar  
 11   6  19  1   
 12   7   8  1   
 13   8   9  1   
 14   9  10  1   
 15   9  20  1   
 16   9  21  1   
 17  10  11  1   
 18  10  22  1   
 19  10  23  1   
 20  11  12  1   
 21  11  24  1   
 22  11  25  1   
 23  12  13  1   
 24  12  26  1   
 25  12  27  1   
 26  13  14  1   
 27  13  28  1   
 28  13  29  1   
 29  14  15  1   
 30  15  30  1   
 31  15  31  1   
 32  15  32  1   
@<TRIPOS>SUBSTRUCTURE
  1 ****   9 GROUP 4 **** **** 0

# MOE 2024.06 (io_trps.svl 2023.06)
