@<TRIPOS>MOLECULE
NONAME
50 52 1 0 0 
SMALL
USER_CHARGES


@<TRIPOS>ATOM
  1 S       -0.4630     0.0280    -0.7500 S.o2  1 <1>   1.4470 
  2 O       -1.2750     0.9740    -1.4820 O.2   1 <1>  -0.6500 
  3 O        0.0390    -1.1480    -1.4290 O.2   1 <1>  -0.6500 
  4 N        0.8960     0.8660    -0.1750 N.am  1 <1>  -0.8490 
  5 C       -1.3330    -0.4480     0.7710 C.ar  1 <1>  -0.0090 
  6 C        1.5020     1.6870    -1.2270 C.3   1 <1>   0.1960 
  7 C        1.8750    -0.0340     0.4420 C.3   1 <1>   0.1960 
  8 C       -1.5690     0.4880     1.7770 C.ar  1 <1>  -0.1500 
  9 C       -1.7870    -1.7520     0.9620 C.ar  1 <1>  -0.1500 
 10 C        2.6300     2.5460    -0.6480 C.3   1 <1>  -0.1600 
 11 C        3.0040     0.7740     1.0860 C.3   1 <1>  -0.1600 
 12 C       -2.2320     0.1400     2.9430 C.ar  1 <1>  -0.1500 
 13 C       -2.4510    -2.1200     2.1210 C.ar  1 <1>  -0.1500 
 14 C        3.6920     1.6850     0.0550 C.3   1 <1>  -0.0190 
 15 C       -2.6610    -1.1630     3.0930 C.ar  1 <1>   0.1900 
 16 C        4.7780     2.5510     0.6920 C.2   1 <1>   0.5690 
 17 F       -3.2850    -1.5010     4.1880 F     1 <1>  -0.1900 
 18 O        4.4930     3.2350     1.6450 O.2   1 <1>  -0.5700 
 19 N        6.0310     2.4970     0.1440 N.am  1 <1>  -0.5470 
 20 C        7.2230     3.1680     0.4750 C.ar  1 <1>   0.1170 
 21 C        8.4600     2.5910     0.1610 C.ar  1 <1>  -0.1430 
 22 C        7.1940     4.4180     1.0830 C.ar  1 <1>  -0.1500 
 23 C        9.6380     3.2810     0.4440 C.ar  1 <1>  -0.1430 
 24 C        8.4970     1.2050    -0.4900 C.3   1 <1>  -0.0970 
 25 C        8.3610     5.0920     1.3750 C.ar  1 <1>  -0.1500 
 26 C        9.5780     4.5250     1.0530 C.ar  1 <1>  -0.1500 
 27 C       11.0180     2.7270     0.1110 C.3   1 <1>  -0.0970 
 28 H        0.7590     2.3420    -1.6520 H     1 <1>   0.0800 
 29 H        1.8780     1.0530    -2.0140 H     1 <1>   0.0800 
 30 H        2.2810    -0.7030    -0.2990 H     1 <1>   0.0800 
 31 H        1.3960    -0.6270     1.2030 H     1 <1>   0.0800 
 32 H       -1.2280     1.5020     1.6400 H     1 <1>   0.1500 
 33 H       -1.6170    -2.4890     0.1930 H     1 <1>   0.1500 
 34 H        2.2060     3.2440     0.0530 H     1 <1>   0.0800 
 35 H        3.0850     3.1150    -1.4390 H     1 <1>   0.0800 
 36 H        3.7250     0.1040     1.5170 H     1 <1>   0.0800 
 37 H        2.5920     1.3690     1.8840 H     1 <1>   0.0800 
 38 H       -2.4130     0.8620     3.7190 H     1 <1>   0.1500 
 39 H       -2.8010    -3.1260     2.2700 H     1 <1>   0.1500 
 40 H        4.1500     1.0550    -0.6860 H     1 <1>   0.0800 
 41 H        6.1480     1.8280    -0.6100 H     1 <1>   0.3700 
 42 H        6.2550     4.8770     1.3300 H     1 <1>   0.1500 
 43 H        8.2530     1.2870    -1.5340 H     1 <1>   0.0800 
 44 H        7.7940     0.5460    -0.0120 H     1 <1>   0.0800 
 45 H        9.4590     0.7380    -0.4040 H     1 <1>   0.0800 
 46 H        8.3220     6.0570     1.8490 H     1 <1>   0.1500 
 47 H       10.4800     5.0640     1.2830 H     1 <1>   0.1500 
 48 H       11.2280     1.8690     0.7250 H     1 <1>   0.0800 
 49 H       11.7840     3.4600     0.2870 H     1 <1>   0.0800 
 50 H       11.0640     2.4430    -0.9250 H     1 <1>   0.0800 
@<TRIPOS>BOND
  1   1   2  2   
  2   1   3  2   
  3   1   4  am  
  4   1   5  1   
  5   4   6  1   
  6   4   7  1   
  7   5   8  ar  
  8   5   9  ar  
  9   6  10  1   
 10   6  28  1   
 11   6  29  1   
 12   7  11  1   
 13   7  30  1   
 14   7  31  1   
 15   8  12  ar  
 16   8  32  1   
 17   9  13  ar  
 18   9  33  1   
 19  10  14  1   
 20  10  34  1   
 21  10  35  1   
 22  11  14  1   
 23  11  36  1   
 24  11  37  1   
 25  12  15  ar  
 26  12  38  1   
 27  13  15  ar  
 28  13  39  1   
 29  14  16  1   
 30  14  40  1   
 31  15  17  1   
 32  16  18  2   
 33  16  19  am  
 34  19  20  1   
 35  19  41  1   
 36  20  21  ar  
 37  20  22  ar  
 38  21  23  ar  
 39  21  24  1   
 40  22  25  ar  
 41  22  42  1   
 42  23  26  ar  
 43  23  27  1   
 44  24  43  1   
 45  24  44  1   
 46  24  45  1   
 47  25  26  ar  
 48  25  46  1   
 49  26  47  1   
 50  27  48  1   
 51  27  49  1   
 52  27  50  1   
@<TRIPOS>SUBSTRUCTURE
  1 ****  11 GROUP 4 **** **** 0

# MOE 2024.06 (io_trps.svl 2023.06)
