@<TRIPOS>MOLECULE
NONAME
51 53 1 0 0 
SMALL
USER_CHARGES


@<TRIPOS>ATOM
  1 O       -7.3580    -0.6690    -0.2650 O.2   1 <1>  -0.5700 
  2 C       -7.7640     0.2680     0.3810 C.2   1 <1>   0.5690 
  3 N       -6.9780     0.8150     1.3520 N.am  1 <1>  -0.7300 
  4 C       -9.1680     0.8600     0.1280 C.3   1 <1>   0.0610 
  5 C       -5.6520     0.3090     1.8050 C.3   1 <1>   0.1400 
  6 C       -9.8970     0.1300    -1.0310 C.3   1 <1>  -0.1600 
  7 C       -9.0620     2.3610    -0.2460 C.3   1 <1>  -0.1600 
  8 C      -10.0420     0.7290     1.4000 C.3   1 <1>  -0.1600 
  9 C       -4.6620     0.1150     0.6330 C.3   1 <1>   0.3430 
 10 C      -11.2990     0.7220    -1.2790 C.3   1 <1>   0.0000 
 11 C      -10.4560     2.9790    -0.4810 C.3   1 <1>   0.0000 
 12 C      -11.4390     1.3330     1.1700 C.3   1 <1>  -0.0800 
 13 N       -4.0290    -1.2510     0.6010 N.4   1 <1>  -0.9590 
 14 C      -11.1510     2.2170    -1.6270 C.3   1 <1>  -0.1600 
 15 C      -12.1290     0.5900     0.0130 C.3   1 <1>  -0.1600 
 16 C      -11.9900    -0.0220    -2.4280 C.3   1 <1>  -0.2400 
 17 C      -11.2950     2.8210     0.8030 C.3   1 <1>  -0.1600 
 18 C      -10.3210     4.4630    -0.8430 C.3   1 <1>  -0.2400 
 19 C       -2.9160    -1.2800    -0.3950 C.3   1 <1>   0.2630 
 20 C       -5.0440    -2.2990     0.2490 C.3   1 <1>   0.2630 
 21 H       -7.3820     1.5740     1.9100 H     1 <1>   0.3700 
 22 H       -5.8040    -0.6170     2.3310 H     1 <1>   0.0800 
 23 H       -5.2340     1.0200     2.4970 H     1 <1>   0.0800 
 24 H       -9.9860    -0.9160    -0.7950 H     1 <1>   0.0800 
 25 H       -9.3100     0.2080    -1.9300 H     1 <1>   0.0800 
 26 H       -8.4680     2.4640    -1.1370 H     1 <1>   0.0800 
 27 H       -8.5680     2.9040     0.5390 H     1 <1>   0.0800 
 28 H      -10.1400    -0.3090     1.6650 H     1 <1>   0.0800 
 29 H       -9.5770     1.2330     2.2290 H     1 <1>   0.0800 
 30 H       -3.8910     0.8630     0.7170 H     1 <1>   0.0800 
 31 H       -5.1850     0.2840    -0.2940 H     1 <1>   0.0800 
 32 H      -12.0300     1.2360     2.0650 H     1 <1>   0.0800 
 33 H       -3.6450    -1.4650     1.5330 H     1 <1>   0.4500 
 34 H      -10.5800     2.3220    -2.5330 H     1 <1>   0.0800 
 35 H      -12.1240     2.6420    -1.8060 H     1 <1>   0.0800 
 36 H      -12.2450    -0.4490     0.2700 H     1 <1>   0.0800 
 37 H      -13.1120     0.9990    -0.1400 H     1 <1>   0.0800 
 38 H      -11.4160     0.0660    -3.3330 H     1 <1>   0.0800 
 39 H      -12.9690     0.3860    -2.6060 H     1 <1>   0.0800 
 40 H      -12.0950    -1.0660    -2.1910 H     1 <1>   0.0800 
 41 H      -12.2720     3.2480     0.6550 H     1 <1>   0.0800 
 42 H      -10.8300     3.3510     1.6150 H     1 <1>   0.0800 
 43 H       -9.7370     4.5810    -1.7390 H     1 <1>   0.0800 
 44 H       -9.8390     5.0040    -0.0480 H     1 <1>   0.0800 
 45 H      -11.2910     4.8980    -1.0110 H     1 <1>   0.0800 
 46 H       -3.2930    -1.0620    -1.3810 H     1 <1>   0.0800 
 47 H       -2.4530    -2.2530    -0.4110 H     1 <1>   0.0800 
 48 H       -2.1660    -0.5470    -0.1420 H     1 <1>   0.0800 
 49 H       -5.4590    -2.1020    -0.7270 H     1 <1>   0.0800 
 50 H       -5.8550    -2.2950     0.9590 H     1 <1>   0.0800 
 51 H       -4.5930    -3.2780     0.2430 H     1 <1>   0.0800 
@<TRIPOS>BOND
  1   1   2  2   
  2   2   3  am  
  3   2   4  1   
  4   3   5  1   
  5   3  21  1   
  6   4   6  1   
  7   4   7  1   
  8   4   8  1   
  9   5   9  1   
 10   5  22  1   
 11   5  23  1   
 12   6  10  1   
 13   6  24  1   
 14   6  25  1   
 15   7  11  1   
 16   7  26  1   
 17   7  27  1   
 18   8  12  1   
 19   8  28  1   
 20   8  29  1   
 21   9  13  1   
 22   9  30  1   
 23   9  31  1   
 24  10  14  1   
 25  10  15  1   
 26  10  16  1   
 27  11  14  1   
 28  11  17  1   
 29  11  18  1   
 30  12  15  1   
 31  12  17  1   
 32  12  32  1   
 33  13  19  1   
 34  13  20  1   
 35  13  33  1   
 36  14  34  1   
 37  14  35  1   
 38  15  36  1   
 39  15  37  1   
 40  16  38  1   
 41  16  39  1   
 42  16  40  1   
 43  17  41  1   
 44  17  42  1   
 45  18  43  1   
 46  18  44  1   
 47  18  45  1   
 48  19  46  1   
 49  19  47  1   
 50  19  48  1   
 51  20  49  1   
 52  20  50  1   
 53  20  51  1   
@<TRIPOS>SUBSTRUCTURE
  1 ****   4 GROUP 4 **** **** 0

# MOE 2024.06 (io_trps.svl 2023.06)
