@<TRIPOS>MOLECULE
NONAME
33 32 1 0 0 
SMALL
USER_CHARGES


@<TRIPOS>ATOM
  1 S        0.0510    -0.4400    -0.3510 S.o   1 <1>   0.1130 
  2 O        0.0390    -1.4430     0.7680 O.2   1 <1>  -0.5000 
  3 C        1.4560     0.6750    -0.0600 C.3   1 <1>   0.0330 
  4 C       -1.3610     0.6680    -0.0860 C.3   1 <1>   0.0330 
  5 C        2.7760    -0.0910     0.0550 C.3   1 <1>   0.2000 
  6 C       -2.6940    -0.0760    -0.2100 C.3   1 <1>  -0.1600 
  7 O        2.7070    -0.8860     1.1890 O.3   1 <1>  -0.6800 
  8 C        3.9880     0.8490     0.1590 C.3   1 <1>   0.1200 
  9 C       -3.8860     0.8650     0.0060 C.3   1 <1>  -0.1600 
 10 O        5.1540     0.1600    -0.1720 O.3   1 <1>  -0.5600 
 11 C       -5.2110     0.1090    -0.1200 C.3   1 <1>  -0.2400 
 12 C        6.3230     0.8450     0.1230 C.3   1 <1>   0.1200 
 13 C        7.4890    -0.0190    -0.3410 C.3   1 <1>  -0.2400 
 14 H        1.3140     1.2400     0.8430 H     1 <1>   0.0800 
 15 H        1.5370     1.3710    -0.8730 H     1 <1>   0.0800 
 16 H       -1.3450     1.4660    -0.8060 H     1 <1>   0.0800 
 17 H       -1.3030     1.1050     0.8940 H     1 <1>   0.0800 
 18 H        2.8940    -0.7360    -0.8000 H     1 <1>   0.0800 
 19 H       -2.7200    -0.8670     0.5220 H     1 <1>   0.0800 
 20 H       -2.7590    -0.5270    -1.1850 H     1 <1>   0.0800 
 21 H        1.8410    -1.3670     1.1890 H     1 <1>   0.4000 
 22 H        4.0680     1.2340     1.1620 H     1 <1>   0.0800 
 23 H        3.8900     1.6640    -0.5360 H     1 <1>   0.0800 
 24 H       -3.8620     1.6580    -0.7230 H     1 <1>   0.0800 
 25 H       -3.8250     1.3080     0.9860 H     1 <1>   0.0800 
 26 H       -5.3050    -0.3270    -1.0990 H     1 <1>   0.0800 
 27 H       -6.0360     0.7820     0.0350 H     1 <1>   0.0800 
 28 H       -5.2670    -0.6750     0.6140 H     1 <1>   0.0800 
 29 H        6.3710     1.0050     1.1870 H     1 <1>   0.0800 
 30 H        6.3180     1.7880    -0.3960 H     1 <1>   0.0800 
 31 H        7.4710    -0.9630     0.1730 H     1 <1>   0.0800 
 32 H        8.4190     0.4740    -0.1250 H     1 <1>   0.0800 
 33 H        7.4240    -0.1870    -1.4010 H     1 <1>   0.0800 
@<TRIPOS>BOND
  1   1   2  2   
  2   1   3  1   
  3   1   4  1   
  4   3   5  1   
  5   3  14  1   
  6   3  15  1   
  7   4   6  1   
  8   4  16  1   
  9   4  17  1   
 10   5   7  1   
 11   5   8  1   
 12   5  18  1   
 13   6   9  1   
 14   6  19  1   
 15   6  20  1   
 16   7  21  1   
 17   8  10  1   
 18   8  22  1   
 19   8  23  1   
 20   9  11  1   
 21   9  24  1   
 22   9  25  1   
 23  10  12  1   
 24  11  26  1   
 25  11  27  1   
 26  11  28  1   
 27  12  13  1   
 28  12  29  1   
 29  12  30  1   
 30  13  31  1   
 31  13  32  1   
 32  13  33  1   
@<TRIPOS>SUBSTRUCTURE
  1 ****   3 GROUP 4 **** **** 0

# MOE 2024.06 (io_trps.svl 2023.06)
