@<TRIPOS>MOLECULE
NONAME
52 54 1 0 0 
SMALL
USER_CHARGES


@<TRIPOS>ATOM
  1 CL       0.6960     0.1120    -0.0210 Cl    1 <1>  -0.1770 
  2 C        2.1270    -0.8680     0.1930 C.ar  1 <1>   0.1770 
  3 C        2.4020    -1.8750    -0.7130 C.ar  1 <1>  -0.1500 
  4 C        2.9630    -0.6230     1.2660 C.ar  1 <1>  -0.1500 
  5 C        3.5370    -2.6480    -0.5410 C.ar  1 <1>  -0.1500 
  6 C        4.0940    -1.4020     1.4310 C.ar  1 <1>  -0.1500 
  7 C        4.3970    -2.4210     0.5320 C.ar  1 <1>   0.1000 
  8 N        5.5470    -3.1840     0.7210 N.pl3 1 <1>  -0.8380 
  9 C        5.5240    -4.6740     0.6060 C.3   1 <1>   0.2090 
 10 C        6.8870    -2.5250     0.6580 C.3   1 <1>   0.2090 
 11 C        6.3890    -5.1660    -0.5760 C.3   1 <1>   0.3430 
 12 C        7.7180    -3.0540    -0.5300 C.3   1 <1>   0.3430 
 13 N        7.7660    -4.5600    -0.5730 N.4   1 <1>  -0.9590 
 14 C        8.6260    -5.0730    -1.6680 C.3   1 <1>   0.4860 
 15 C       10.0500    -4.6140    -1.4140 C.ar  1 <1>  -0.1430 
 16 C       10.7180    -5.0030    -0.2540 C.ar  1 <1>   0.0830 
 17 C       10.6770    -3.8030    -2.3480 C.ar  1 <1>  -0.1500 
 18 O       10.0000    -5.8080     0.5920 O.3   1 <1>  -0.3630 
 19 C       12.0290    -4.5510    -0.0240 C.ar  1 <1>   0.0830 
 20 C       11.9630    -3.3540    -2.1220 C.ar  1 <1>  -0.1500 
 21 C       10.6220    -6.7360     1.4590 C.3   1 <1>   0.0400 
 22 O       12.6990    -4.9040     1.1110 O.3   1 <1>  -0.3630 
 23 C       12.6310    -3.7040    -0.9630 C.ar  1 <1>   0.0830 
 24 C       13.8970    -5.6390     0.9530 C.3   1 <1>   0.0400 
 25 O       13.8710    -3.1850    -0.7970 O.3   1 <1>  -0.3630 
 26 C       14.0010    -2.1710     0.1750 C.3   1 <1>   0.0400 
 27 H        1.7330    -2.0430    -1.5380 H     1 <1>   0.1500 
 28 H        2.7250     0.1640     1.9590 H     1 <1>   0.1500 
 29 H        3.7540    -3.4260    -1.2470 H     1 <1>   0.1500 
 30 H        4.7470    -1.2280     2.2670 H     1 <1>   0.1500 
 31 H        4.5110    -5.0160     0.4810 H     1 <1>   0.0800 
 32 H        5.8950    -5.0990     1.5230 H     1 <1>   0.0800 
 33 H        7.4140    -2.7070     1.5790 H     1 <1>   0.0800 
 34 H        6.7640    -1.4600     0.5560 H     1 <1>   0.0800 
 35 H        5.8850    -4.9030    -1.4900 H     1 <1>   0.0800 
 36 H        6.4600    -6.2400    -0.5330 H     1 <1>   0.0800 
 37 H        8.7170    -2.6560    -0.4600 H     1 <1>   0.0800 
 38 H        7.2760    -2.6810    -1.4390 H     1 <1>   0.0800 
 39 H        8.2590    -4.8680     0.2850 H     1 <1>   0.4500 
 40 H        8.2780    -4.7090    -2.6210 H     1 <1>   0.0800 
 41 H        8.6060    -6.1510    -1.6790 H     1 <1>   0.0800 
 42 H       10.1790    -3.5100    -3.2580 H     1 <1>   0.1500 
 43 H       12.4590    -2.7230    -2.8390 H     1 <1>   0.1500 
 44 H       11.0170    -6.2110     2.3110 H     1 <1>   0.0800 
 45 H       11.4070    -7.2460     0.9280 H     1 <1>   0.0800 
 46 H        9.8840    -7.4450     1.7870 H     1 <1>   0.0800 
 47 H       14.1420    -6.0890     1.8990 H     1 <1>   0.0800 
 48 H       14.6890    -4.9770     0.6560 H     1 <1>   0.0800 
 49 H       13.7500    -6.4020     0.2090 H     1 <1>   0.0800 
 50 H       15.0230    -1.8380     0.1790 H     1 <1>   0.0800 
 51 H       13.7420    -2.5660     1.1410 H     1 <1>   0.0800 
 52 H       13.3500    -1.3550    -0.0840 H     1 <1>   0.0800 
@<TRIPOS>BOND
  1   1   2  1   
  2   2   3  ar  
  3   2   4  ar  
  4   3   5  ar  
  5   3  27  1   
  6   4   6  ar  
  7   4  28  1   
  8   5   7  ar  
  9   5  29  1   
 10   6   7  ar  
 11   6  30  1   
 12   7   8  1   
 13   8   9  1   
 14   8  10  1   
 15   9  11  1   
 16   9  31  1   
 17   9  32  1   
 18  10  12  1   
 19  10  33  1   
 20  10  34  1   
 21  11  13  1   
 22  11  35  1   
 23  11  36  1   
 24  12  13  1   
 25  12  37  1   
 26  12  38  1   
 27  13  14  1   
 28  13  39  1   
 29  14  15  1   
 30  14  40  1   
 31  14  41  1   
 32  15  16  ar  
 33  15  17  ar  
 34  16  18  1   
 35  16  19  ar  
 36  17  20  ar  
 37  17  42  1   
 38  18  21  1   
 39  19  22  1   
 40  19  23  ar  
 41  20  23  ar  
 42  20  43  1   
 43  21  44  1   
 44  21  45  1   
 45  21  46  1   
 46  22  24  1   
 47  23  25  1   
 48  24  47  1   
 49  24  48  1   
 50  24  49  1   
 51  25  26  1   
 52  26  50  1   
 53  26  51  1   
 54  26  52  1   
@<TRIPOS>SUBSTRUCTURE
  1 ****  12 GROUP 4 **** **** 0

# MOE 2024.06 (io_trps.svl 2023.06)
