@<TRIPOS>MOLECULE
NONAME
59 62 1 0 0 
SMALL
USER_CHARGES


@<TRIPOS>ATOM
  1 O        1.8660    -1.3810     1.4720 O.2   1 <1>  -0.5700 
  2 C        1.5780    -2.1510     0.5720 C.2   1 <1>   0.6900 
  3 N        0.6120    -1.8380    -0.3430 N.am  1 <1>  -0.6600 
  4 N        2.3010    -3.3070     0.4510 N.am  1 <1>  -0.6600 
  5 C       -0.1480    -2.8710    -1.1100 C.3   1 <1>   0.1400 
  6 C       -0.0470    -0.4960    -0.3600 C.3   1 <1>   0.1400 
  7 C        3.2170    -3.4020    -0.7170 C.3   1 <1>   0.1400 
  8 C        2.8810    -3.9020     1.6890 C.3   1 <1>   0.1400 
  9 C       -1.6360    -2.8510    -0.7210 C.3   1 <1>   0.1200 
 10 C       -1.5390    -0.6180    -0.0110 C.3   1 <1>   0.1200 
 11 C        4.5490    -2.6950    -0.3910 C.3   1 <1>   0.3430 
 12 C        4.2140    -3.2100     2.0380 C.3   1 <1>   0.3430 
 13 O       -2.1610    -1.5600    -0.8400 O.3   1 <1>  -0.5600 
 14 N        5.1750    -3.2150     0.8780 N.4   1 <1>  -0.9590 
 15 C        6.4570    -2.5180     1.2040 C.3   1 <1>   0.3430 
 16 C        7.5960    -3.0280     0.2960 C.3   1 <1>   0.2000 
 17 O        7.3990    -4.3870     0.0390 O.3   1 <1>  -0.6800 
 18 C        8.9820    -2.8330     0.9230 C.3   1 <1>   0.1200 
 19 O        9.9360    -3.4730     0.1020 O.3   1 <1>  -0.3630 
 20 C       11.2630    -3.4120     0.3730 C.ar  1 <1>   0.0820 
 21 C       12.1240    -3.9380    -0.5540 C.ar  1 <1>  -0.1500 
 22 C       11.7810    -2.8390     1.5510 C.ar  1 <1>  -0.1500 
 23 C       13.5180    -3.9180    -0.3650 C.ar  1 <1>   0.0000 
 24 C       13.1320    -2.8080     1.7580 C.ar  1 <1>  -0.1500 
 25 C       14.0350    -3.3400     0.8150 C.ar  1 <1>   0.0000 
 26 C       14.4210    -4.4520    -1.3080 C.ar  1 <1>  -0.1500 
 27 C       15.4310    -3.3190     1.0050 C.ar  1 <1>  -0.1500 
 28 C       15.7720    -4.4170    -1.0970 C.ar  1 <1>  -0.1500 
 29 C       16.2830    -3.8440     0.0730 C.ar  1 <1>  -0.1500 
 30 H        0.2460    -3.8530    -0.9240 H     1 <1>   0.0800 
 31 H       -0.0580    -2.6680    -2.1630 H     1 <1>   0.0800 
 32 H        0.0490    -0.0680    -1.3420 H     1 <1>   0.0800 
 33 H        0.4260     0.1740     0.3370 H     1 <1>   0.0800 
 34 H        2.7670    -2.9320    -1.5750 H     1 <1>   0.0800 
 35 H        3.3930    -4.4360    -0.9580 H     1 <1>   0.0800 
 36 H        3.0340    -4.9580     1.5470 H     1 <1>   0.0800 
 37 H        2.1890    -3.7750     2.5050 H     1 <1>   0.0800 
 38 H       -1.7680    -3.1850     0.2930 H     1 <1>   0.0800 
 39 H       -2.2000    -3.4950    -1.3730 H     1 <1>   0.0800 
 40 H       -2.0340     0.3260    -0.1570 H     1 <1>   0.0800 
 41 H       -1.6650    -0.9200     1.0140 H     1 <1>   0.0800 
 42 H        4.3510    -1.6400    -0.2880 H     1 <1>   0.0800 
 43 H        5.2290    -2.8300    -1.2160 H     1 <1>   0.0800 
 44 H        4.6570    -3.7040     2.8870 H     1 <1>   0.0800 
 45 H        3.9950    -2.1930     2.3220 H     1 <1>   0.0800 
 46 H        5.4730    -4.1900     0.6830 H     1 <1>   0.4500 
 47 H        6.7240    -2.7320     2.2250 H     1 <1>   0.0800 
 48 H        6.3470    -1.4500     1.1080 H     1 <1>   0.0800 
 49 H        7.5670    -2.5090    -0.6470 H     1 <1>   0.0800 
 50 H        8.2390    -4.7580    -0.3230 H     1 <1>   0.4000 
 51 H        9.0230    -3.2790     1.9020 H     1 <1>   0.0800 
 52 H        9.2300    -1.7880     0.9820 H     1 <1>   0.0800 
 53 H       11.7360    -4.3780    -1.4530 H     1 <1>   0.1500 
 54 H       11.1320    -2.4250     2.2970 H     1 <1>   0.1500 
 55 H       13.5350    -2.3720     2.6540 H     1 <1>   0.1500 
 56 H       14.0240    -4.8910    -2.2050 H     1 <1>   0.1500 
 57 H       15.8190    -2.8780     1.9050 H     1 <1>   0.1500 
 58 H       16.4560    -4.8260    -1.8210 H     1 <1>   0.1500 
 59 H       17.3480    -3.8250     0.2230 H     1 <1>   0.1500 
@<TRIPOS>BOND
  1   1   2  2   
  2   2   3  am  
  3   2   4  am  
  4   3   5  1   
  5   3   6  1   
  6   4   7  1   
  7   4   8  1   
  8   5   9  1   
  9   5  30  1   
 10   5  31  1   
 11   6  10  1   
 12   6  32  1   
 13   6  33  1   
 14   7  11  1   
 15   7  34  1   
 16   7  35  1   
 17   8  12  1   
 18   8  36  1   
 19   8  37  1   
 20   9  13  1   
 21   9  38  1   
 22   9  39  1   
 23  10  13  1   
 24  10  40  1   
 25  10  41  1   
 26  11  14  1   
 27  11  42  1   
 28  11  43  1   
 29  12  14  1   
 30  12  44  1   
 31  12  45  1   
 32  14  15  1   
 33  14  46  1   
 34  15  16  1   
 35  15  47  1   
 36  15  48  1   
 37  16  17  1   
 38  16  18  1   
 39  16  49  1   
 40  17  50  1   
 41  18  19  1   
 42  18  51  1   
 43  18  52  1   
 44  19  20  1   
 45  20  21  ar  
 46  20  22  ar  
 47  21  23  ar  
 48  21  53  1   
 49  22  24  ar  
 50  22  54  1   
 51  23  25  ar  
 52  23  26  ar  
 53  24  25  ar  
 54  24  55  1   
 55  25  27  ar  
 56  26  28  ar  
 57  26  56  1   
 58  27  29  ar  
 59  27  57  1   
 60  28  29  ar  
 61  28  58  1   
 62  29  59  1   
@<TRIPOS>SUBSTRUCTURE
  1 ****  16 GROUP 4 **** **** 0

# MOE 2024.06 (io_trps.svl 2023.06)
