@<TRIPOS>MOLECULE
NONAME
46 47 1 0 0 
SMALL
USER_CHARGES


@<TRIPOS>ATOM
  1 O       -0.0290    -0.4240    -0.0630 O.2   1 <1>  -0.5700 
  2 C       -0.8540    -1.3050    -0.1110 C.2   1 <1>   0.5690 
  3 N       -2.1520    -1.0530    -0.4050 N.am  1 <1>  -0.7300 
  4 C       -0.4390    -2.7500     0.1670 C.3   1 <1>  -0.0190 
  5 C       -2.7280     0.2860    -0.5790 C.3   1 <1>   0.3640 
  6 C        0.0790    -2.9170     1.6080 C.3   1 <1>  -0.1600 
  7 C        0.6140    -3.2370    -0.8470 C.3   1 <1>  -0.1600 
  8 C       -4.2220     0.2110    -0.2650 C.ar  1 <1>  -0.1440 
  9 C       -2.4910     0.7440    -2.0160 C.3   1 <1>  -0.2400 
 10 C        0.5090    -4.3640     1.8910 C.3   1 <1>  -0.1600 
 11 C        1.0430    -4.6850    -0.5660 C.3   1 <1>  -0.1600 
 12 C       -4.8010     1.0560     0.6790 C.ar  1 <1>   0.0820 
 13 C       -5.0240    -0.7100    -0.9280 C.ar  1 <1>  -0.1500 
 14 C        1.5530    -4.8400     0.8730 C.3   1 <1>  -0.1600 
 15 O       -3.9970     1.9590     1.3050 O.3   1 <1>  -0.3620 
 16 C       -6.1650     0.9580     0.9510 C.ar  1 <1>  -0.1500 
 17 C       -6.3780    -0.8100    -0.6590 C.ar  1 <1>   0.0820 
 18 C       -4.4810     2.8160     2.3150 C.3   1 <1>   0.0400 
 19 C       -6.9490     0.0320     0.2890 C.ar  1 <1>  -0.1500 
 20 O       -7.0710    -1.7460    -1.3580 O.3   1 <1>  -0.3620 
 21 C       -8.4640    -1.8960    -1.1910 C.3   1 <1>   0.0400 
 22 H       -2.8490    -1.7930    -0.3560 H     1 <1>   0.3700 
 23 H       -1.3100    -3.3710     0.0580 H     1 <1>   0.0800 
 24 H       -2.2240     0.9650     0.0890 H     1 <1>   0.0800 
 25 H       -0.6900    -2.6260     2.3030 H     1 <1>   0.0800 
 26 H        0.9200    -2.2610     1.7590 H     1 <1>   0.0800 
 27 H        1.4770    -2.5950    -0.7960 H     1 <1>   0.0800 
 28 H        0.2130    -3.1670    -1.8440 H     1 <1>   0.0800 
 29 H       -1.4350     0.8280    -2.2010 H     1 <1>   0.0800 
 30 H       -2.9380     1.7100    -2.1600 H     1 <1>   0.0800 
 31 H       -2.9220     0.0550    -2.7180 H     1 <1>   0.0800 
 32 H       -0.3530    -5.0080     1.8460 H     1 <1>   0.0800 
 33 H        0.9180    -4.4300     2.8840 H     1 <1>   0.0800 
 34 H        1.8180    -4.9700    -1.2550 H     1 <1>   0.0800 
 35 H        0.2050    -5.3430    -0.7200 H     1 <1>   0.0800 
 36 H       -4.6080    -1.3650    -1.6710 H     1 <1>   0.1500 
 37 H        1.7960    -5.8720     1.0600 H     1 <1>   0.0800 
 38 H        2.4540    -4.2620     0.9930 H     1 <1>   0.0800 
 39 H       -6.6350     1.5960     1.6740 H     1 <1>   0.1500 
 40 H       -3.6600     3.4120     2.6690 H     1 <1>   0.0800 
 41 H       -5.2410     3.4530     1.8980 H     1 <1>   0.0800 
 42 H       -4.8730     2.2200     3.1200 H     1 <1>   0.0800 
 43 H       -7.9950    -0.0200     0.5220 H     1 <1>   0.1500 
 44 H       -8.7970    -2.6750    -1.8520 H     1 <1>   0.0800 
 45 H       -8.9470    -0.9690    -1.4460 H     1 <1>   0.0800 
 46 H       -8.6660    -2.1700    -0.1710 H     1 <1>   0.0800 
@<TRIPOS>BOND
  1   1   2  2   
  2   2   3  am  
  3   2   4  1   
  4   3   5  1   
  5   3  22  1   
  6   4   6  1   
  7   4   7  1   
  8   4  23  1   
  9   5   8  1   
 10   5   9  1   
 11   5  24  1   
 12   6  10  1   
 13   6  25  1   
 14   6  26  1   
 15   7  11  1   
 16   7  27  1   
 17   7  28  1   
 18   8  12  ar  
 19   8  13  ar  
 20   9  29  1   
 21   9  30  1   
 22   9  31  1   
 23  10  14  1   
 24  10  32  1   
 25  10  33  1   
 26  11  14  1   
 27  11  34  1   
 28  11  35  1   
 29  12  15  1   
 30  12  16  ar  
 31  13  17  ar  
 32  13  36  1   
 33  14  37  1   
 34  14  38  1   
 35  15  18  1   
 36  16  19  ar  
 37  16  39  1   
 38  17  19  ar  
 39  17  20  1   
 40  18  40  1   
 41  18  41  1   
 42  18  42  1   
 43  19  43  1   
 44  20  21  1   
 45  21  44  1   
 46  21  45  1   
 47  21  46  1   
@<TRIPOS>SUBSTRUCTURE
  1 ****   3 GROUP 4 **** **** 0

# MOE 2024.06 (io_trps.svl 2023.06)
