@<TRIPOS>MOLECULE
NONAME
49 50 1 0 0 
SMALL
USER_CHARGES


@<TRIPOS>ATOM
  1 S        0.1360     0.1070     0.0800 S.o2  1 <1>   1.3330 
  2 O       -0.8940    -0.6410    -0.5960 O.2   1 <1>  -0.6500 
  3 O        1.4390    -0.4810     0.2820 O.2   1 <1>  -0.6500 
  4 N        0.4100     1.5520    -0.8280 N.am  1 <1>  -0.6930 
  5 C       -0.4600     0.7300     1.6370 C.3   1 <1>  -0.1350 
  6 C       -0.5840     2.5200    -0.9550 C.ar  1 <1>   0.1990 
  7 C        1.3770     1.4270    -1.9640 C.3   1 <1>   0.2570 
  8 C       -0.3820     3.8260    -0.5010 C.ar  1 <1>  -0.1440 
  9 C       -1.8040     2.1970    -1.5420 C.ar  1 <1>  -0.1500 
 10 C        2.8180     1.8270    -1.6270 C.2   1 <1>   0.5690 
 11 C       -1.3930     4.7650    -0.6280 C.ar  1 <1>  -0.1500 
 12 C        0.9380     4.2550     0.1280 C.3   1 <1>  -0.0970 
 13 C       -2.8090     3.1370    -1.6640 C.ar  1 <1>  -0.1500 
 14 O        3.3280     2.7140    -2.2710 O.2   1 <1>  -0.5700 
 15 N        3.4850     1.1580    -0.6370 N.am  1 <1>  -0.5470 
 16 C       -2.6040     4.4240    -1.2040 C.ar  1 <1>  -0.1500 
 17 C        4.8490     1.1950    -0.3140 C.ar  1 <1>   0.1170 
 18 C        5.5000     2.3120     0.2260 C.ar  1 <1>  -0.1430 
 19 C        5.5740     0.0300    -0.5350 C.ar  1 <1>  -0.1500 
 20 C        6.8580     2.2290     0.5040 C.ar  1 <1>  -0.1500 
 21 C        4.7640     3.6210     0.5330 C.3   1 <1>   0.0630 
 22 C        6.9240    -0.0400    -0.2480 C.ar  1 <1>  -0.1500 
 23 C        7.5690     1.0650     0.2710 C.ar  1 <1>  -0.1500 
 24 C        5.3090     4.7740    -0.3160 C.3   1 <1>  -0.2400 
 25 C        4.8380     3.9630     2.0260 C.3   1 <1>  -0.2400 
 26 H       -0.6410    -0.0820     2.3130 H     1 <1>   0.0800 
 27 H       -1.3770     1.2690     1.4950 H     1 <1>   0.0800 
 28 H        0.2640     1.3890     2.0740 H     1 <1>   0.0800 
 29 H        1.0450     2.0500    -2.7750 H     1 <1>   0.0800 
 30 H        1.3800     0.4130    -2.3210 H     1 <1>   0.0800 
 31 H       -1.9700     1.2010    -1.9120 H     1 <1>   0.1500 
 32 H       -1.2450     5.7730    -0.2820 H     1 <1>   0.1500 
 33 H        1.2950     3.5060     0.8100 H     1 <1>   0.0800 
 34 H        0.8250     5.1760     0.6710 H     1 <1>   0.0800 
 35 H        1.6720     4.4040    -0.6440 H     1 <1>   0.0800 
 36 H       -3.7480     2.8690    -2.1170 H     1 <1>   0.1500 
 37 H        2.9510     0.4030    -0.1840 H     1 <1>   0.3700 
 38 H       -3.3840     5.1610    -1.2970 H     1 <1>   0.1500 
 39 H        5.0760    -0.8300    -0.9410 H     1 <1>   0.1500 
 40 H        7.3800     3.0760     0.9100 H     1 <1>   0.1500 
 41 H        3.7250     3.5140     0.2930 H     1 <1>   0.0800 
 42 H        7.4690    -0.9490    -0.4300 H     1 <1>   0.1500 
 43 H        8.6210     1.0220     0.4930 H     1 <1>   0.1500 
 44 H        6.3360     4.9810    -0.0770 H     1 <1>   0.0800 
 45 H        4.7290     5.6640    -0.1530 H     1 <1>   0.0800 
 46 H        5.2460     4.5130    -1.3580 H     1 <1>   0.0800 
 47 H        5.8500     4.1610     2.3270 H     1 <1>   0.0800 
 48 H        4.4620     3.1390     2.6060 H     1 <1>   0.0800 
 49 H        4.2410     4.8320     2.2370 H     1 <1>   0.0800 
@<TRIPOS>BOND
  1   1   2  2   
  2   1   3  2   
  3   1   4  am  
  4   1   5  1   
  5   4   6  1   
  6   4   7  1   
  7   5  26  1   
  8   5  27  1   
  9   5  28  1   
 10   6   8  ar  
 11   6   9  ar  
 12   7  10  1   
 13   7  29  1   
 14   7  30  1   
 15   8  11  ar  
 16   8  12  1   
 17   9  13  ar  
 18   9  31  1   
 19  10  14  2   
 20  10  15  am  
 21  11  16  ar  
 22  11  32  1   
 23  12  33  1   
 24  12  34  1   
 25  12  35  1   
 26  13  16  ar  
 27  13  36  1   
 28  15  17  1   
 29  15  37  1   
 30  16  38  1   
 31  17  18  ar  
 32  17  19  ar  
 33  18  20  ar  
 34  18  21  1   
 35  19  22  ar  
 36  19  39  1   
 37  20  23  ar  
 38  20  40  1   
 39  21  24  1   
 40  21  25  1   
 41  21  41  1   
 42  22  23  ar  
 43  22  42  1   
 44  23  43  1   
 45  24  44  1   
 46  24  45  1   
 47  24  46  1   
 48  25  47  1   
 49  25  48  1   
 50  25  49  1   
@<TRIPOS>SUBSTRUCTURE
  1 ****  10 GROUP 4 **** **** 0

# MOE 2024.06 (io_trps.svl 2023.06)
