@<TRIPOS>MOLECULE
NONAME
47 49 1 0 0 
SMALL
USER_CHARGES


@<TRIPOS>ATOM
  1 O       -0.3230     0.0430     1.1740 O.2   1 <1>  -0.5700 
  2 C       -0.6420     0.9980     0.5040 C.2   1 <1>   0.5690 
  3 N       -1.9570     1.3230     0.2950 N.am  1 <1>  -0.5470 
  4 C        0.4640     1.9160    -0.0900 C.3   1 <1>   0.2050 
  5 C       -3.1570     0.6590     0.5960 C.ar  1 <1>   0.1170 
  6 C        1.7080     1.0640    -0.4480 C.ar  1 <1>  -0.1440 
  7 C        0.0160     2.6240    -1.4030 C.3   1 <1>  -0.1600 
  8 C        0.7710     3.0300     0.9390 C.3   1 <1>  -0.1600 
  9 C       -4.3440     1.3890     0.6950 C.ar  1 <1>  -0.1430 
 10 C       -3.2040    -0.7200     0.7770 C.ar  1 <1>  -0.1500 
 11 C        1.5670     0.0510    -1.3920 C.ar  1 <1>  -0.1500 
 12 C        2.9670     1.2520     0.1180 C.ar  1 <1>  -0.1500 
 13 C       -0.6360     3.9990    -1.1910 C.3   1 <1>   0.1200 
 14 C       -0.4220     3.9800     1.1580 C.3   1 <1>   0.1200 
 15 C       -5.5360     0.7380     0.9740 C.ar  1 <1>  -0.1500 
 16 C       -4.3590     2.9020     0.5090 C.3   1 <1>  -0.0970 
 17 C       -4.3950    -1.3640     1.0560 C.ar  1 <1>  -0.1500 
 18 C        2.6420    -0.7320    -1.7710 C.ar  1 <1>  -0.1500 
 19 C        4.0460     0.4700    -0.2570 C.ar  1 <1>  -0.1500 
 20 O       -1.2740     4.0090     0.0440 O.3   1 <1>  -0.5600 
 21 C       -5.5640    -0.6340     1.1540 C.ar  1 <1>  -0.1500 
 22 C        3.8900    -0.5290    -1.2110 C.ar  1 <1>   0.0830 
 23 O        4.8940    -1.3360    -1.6370 O.3   1 <1>  -0.3630 
 24 C        6.1870    -1.2490    -1.0820 C.3   1 <1>   0.0400 
 25 H       -2.0770     2.2960    -0.0090 H     1 <1>   0.3700 
 26 H       -0.6530     1.9890    -1.9570 H     1 <1>   0.0800 
 27 H        0.8720     2.7820    -2.0370 H     1 <1>   0.0800 
 28 H        1.5980     3.6220     0.5890 H     1 <1>   0.0800 
 29 H        1.0560     2.5970     1.8820 H     1 <1>   0.0800 
 30 H       -2.3030    -1.3010     0.6990 H     1 <1>   0.1500 
 31 H        0.6080    -0.1440    -1.8410 H     1 <1>   0.1500 
 32 H        3.1400     2.0030     0.8650 H     1 <1>   0.1500 
 33 H       -1.3690     4.1980    -1.9540 H     1 <1>   0.0800 
 34 H        0.0990     4.7870    -1.2000 H     1 <1>   0.0800 
 35 H       -0.0810     4.9830     1.3520 H     1 <1>   0.0800 
 36 H       -1.0110     3.6500     1.9970 H     1 <1>   0.0800 
 37 H       -6.4530     1.2930     1.0540 H     1 <1>   0.1500 
 38 H       -3.7210     3.3680     1.2380 H     1 <1>   0.0800 
 39 H       -5.3520     3.2970     0.6300 H     1 <1>   0.0800 
 40 H       -4.0130     3.1580    -0.4760 H     1 <1>   0.0800 
 41 H       -4.4090    -2.4300     1.1950 H     1 <1>   0.1500 
 42 H        2.5170    -1.5100    -2.5010 H     1 <1>   0.1500 
 43 H        4.9970     0.6510     0.2050 H     1 <1>   0.1500 
 44 H       -6.4930    -1.1310     1.3710 H     1 <1>   0.1500 
 45 H        6.8030    -1.9930    -1.5540 H     1 <1>   0.0800 
 46 H        6.1260    -1.4410    -0.0250 H     1 <1>   0.0800 
 47 H        6.5840    -0.2690    -1.2750 H     1 <1>   0.0800 
@<TRIPOS>BOND
  1   1   2  2   
  2   2   3  am  
  3   2   4  1   
  4   3   5  1   
  5   3  25  1   
  6   4   6  1   
  7   4   7  1   
  8   4   8  1   
  9   5   9  ar  
 10   5  10  ar  
 11   6  11  ar  
 12   6  12  ar  
 13   7  13  1   
 14   7  26  1   
 15   7  27  1   
 16   8  14  1   
 17   8  28  1   
 18   8  29  1   
 19   9  15  ar  
 20   9  16  1   
 21  10  17  ar  
 22  10  30  1   
 23  11  18  ar  
 24  11  31  1   
 25  12  19  ar  
 26  12  32  1   
 27  13  20  1   
 28  13  33  1   
 29  13  34  1   
 30  14  20  1   
 31  14  35  1   
 32  14  36  1   
 33  15  21  ar  
 34  15  37  1   
 35  16  38  1   
 36  16  39  1   
 37  16  40  1   
 38  17  21  ar  
 39  17  41  1   
 40  18  22  ar  
 41  18  42  1   
 42  19  22  ar  
 43  19  43  1   
 44  21  44  1   
 45  22  23  1   
 46  23  24  1   
 47  24  45  1   
 48  24  46  1   
 49  24  47  1   
@<TRIPOS>SUBSTRUCTURE
  1 ****   2 GROUP 4 **** **** 0

# MOE 2024.06 (io_trps.svl 2023.06)
