@<TRIPOS>MOLECULE
NONAME
34 35 1 0 0 
SMALL
USER_CHARGES


@<TRIPOS>ATOM
  1 BR       2.5380    -0.8410    -0.3850 Br    1 <1>  -0.1110 
  2 C        1.6980    -2.5700    -0.3470 C.ar  1 <1>   0.1110 
  3 C        1.6210    -3.3000    -1.5150 C.ar  1 <1>  -0.1500 
  4 C        1.1920    -3.0430     0.8470 C.ar  1 <1>  -0.1500 
  5 C        1.0210    -4.5480    -1.4750 C.ar  1 <1>  -0.1500 
  6 C        0.5930    -4.2910     0.8640 C.ar  1 <1>  -0.1500 
  7 C        0.5050    -5.0710    -0.2900 C.ar  1 <1>  -0.0090 
  8 S       -0.2540    -6.7230    -0.2920 S.o2  1 <1>   1.4470 
  9 O        0.6810    -7.6810    -0.8510 O.2   1 <1>  -0.6500 
 10 O       -1.5700    -6.6230    -0.8820 O.2   1 <1>  -0.6500 
 11 N       -0.4550    -7.1480     1.3440 N.am  1 <1>  -0.8490 
 12 C        0.7220    -7.8370     1.9430 C.3   1 <1>   0.2570 
 13 C       -1.6770    -7.9220     1.5880 C.3   1 <1>   0.1160 
 14 C        2.0370    -7.0420     1.9540 C.2   1 <1>   0.5690 
 15 O        2.3190    -6.4040     2.9420 O.2   1 <1>  -0.5700 
 16 N        2.8430    -7.0780     0.8570 N.am  1 <1>  -0.5790 
 17 C        4.0810    -6.3100     0.6790 C.3   1 <1>   0.0490 
 18 C        4.3520    -5.7340    -0.6700 C.3   1 <1>  -0.2000 
 19 C        5.1580    -6.8960    -0.1720 C.3   1 <1>  -0.2000 
 20 H        2.0200    -2.9020    -2.4310 H     1 <1>   0.1500 
 21 H        1.2660    -2.4500     1.7420 H     1 <1>   0.1500 
 22 H        0.9530    -5.1300    -2.3790 H     1 <1>   0.1500 
 23 H        0.1970    -4.6610     1.7960 H     1 <1>   0.1500 
 24 H        0.8920    -8.7700     1.4340 H     1 <1>   0.0800 
 25 H        0.4980    -8.0710     2.9690 H     1 <1>   0.0800 
 26 H       -2.5410    -7.3520     1.2890 H     1 <1>   0.0800 
 27 H       -1.7760    -8.1480     2.6360 H     1 <1>   0.0800 
 28 H       -1.6580    -8.8420     1.0260 H     1 <1>   0.0800 
 29 H        2.5060    -7.5630     0.0150 H     1 <1>   0.3700 
 30 H        4.3610    -5.7390     1.5510 H     1 <1>   0.1000 
 31 H        4.8240    -4.7690    -0.7280 H     1 <1>   0.1000 
 32 H        3.6440    -5.8980    -1.4620 H     1 <1>   0.1000 
 33 H        5.0040    -7.8660    -0.6090 H     1 <1>   0.1000 
 34 H        6.1830    -6.7220     0.1030 H     1 <1>   0.1000 
@<TRIPOS>BOND
  1   1   2  1   
  2   2   3  ar  
  3   2   4  ar  
  4   3   5  ar  
  5   3  20  1   
  6   4   6  ar  
  7   4  21  1   
  8   5   7  ar  
  9   5  22  1   
 10   6   7  ar  
 11   6  23  1   
 12   7   8  1   
 13   8   9  2   
 14   8  10  2   
 15   8  11  am  
 16  11  12  1   
 17  11  13  1   
 18  12  14  1   
 19  12  24  1   
 20  12  25  1   
 21  13  26  1   
 22  13  27  1   
 23  13  28  1   
 24  14  15  2   
 25  14  16  am  
 26  16  17  1   
 27  16  29  1   
 28  17  18  1   
 29  17  19  1   
 30  17  30  1   
 31  18  19  1   
 32  18  31  1   
 33  18  32  1   
 34  19  33  1   
 35  19  34  1   
@<TRIPOS>SUBSTRUCTURE
  1 ****   7 GROUP 4 **** **** 0

# MOE 2024.06 (io_trps.svl 2023.06)
