@<TRIPOS>MOLECULE
NONAME
57 59 1 0 0 
SMALL
USER_CHARGES


@<TRIPOS>ATOM
  1 O       -1.1150     0.5310    -2.8660 O.2   1 <1>  -0.5700 
  2 C       -0.3990    -0.1620    -2.1840 C.2   1 <1>   0.5690 
  3 N       -0.7570    -0.6990    -0.9840 N.am  1 <1>  -0.5470 
  4 C        1.0240    -0.4620    -2.6640 C.3   1 <1>   0.1710 
  5 C       -1.8860    -0.5810    -0.1550 C.ar  1 <1>   0.1170 
  6 N        1.9550    -0.8750    -1.5710 N.3   1 <1>  -0.8100 
  7 C       -1.7700    -0.9680     1.1840 C.ar  1 <1>   0.0830 
  8 C       -3.1060    -0.1040    -0.6150 C.ar  1 <1>  -0.1500 
  9 C        3.1940    -1.4690    -2.1180 C.3   1 <1>   0.1100 
 10 C        2.3040     0.2720    -0.6950 C.3   1 <1>   0.1100 
 11 O       -0.5480    -1.4300     1.5980 O.3   1 <1>  -0.3630 
 12 C       -2.8680    -0.8710     2.0330 C.ar  1 <1>  -0.1500 
 13 C       -4.1990    -0.0060     0.2280 C.ar  1 <1>   0.0830 
 14 C        4.1570    -1.9430    -1.0090 C.3   1 <1>   0.2090 
 15 C        3.2300    -0.1380     0.4660 C.3   1 <1>   0.2090 
 16 C       -0.3570    -1.9200     2.9070 C.3   1 <1>   0.0400 
 17 C       -4.0770    -0.3920     1.5590 C.ar  1 <1>  -0.1500 
 18 O       -5.3490     0.4730    -0.3150 O.3   1 <1>  -0.3630 
 19 N        4.4390    -0.8740    -0.0070 N.pl3 1 <1>  -0.8380 
 20 C       -6.5120     0.6390     0.4640 C.3   1 <1>   0.0400 
 21 C        5.6480    -0.1820    -0.1000 C.ar  1 <1>   0.1000 
 22 C        6.6920    -0.4270     0.7990 C.ar  1 <1>  -0.1430 
 23 C        5.8240     0.7630    -1.1030 C.ar  1 <1>  -0.1500 
 24 C        7.8920     0.2710     0.6750 C.ar  1 <1>  -0.1430 
 25 C        6.4680    -1.4700     1.8940 C.3   1 <1>  -0.0970 
 26 C        7.0090     1.4580    -1.2220 C.ar  1 <1>  -0.1500 
 27 C        8.0390     1.2100    -0.3360 C.ar  1 <1>  -0.1500 
 28 C        9.0700     0.0430     1.6120 C.3   1 <1>  -0.0970 
 29 H        0.0290    -1.1860    -0.5360 H     1 <1>   0.3700 
 30 H        1.4100     0.4060    -3.1680 H     1 <1>   0.0800 
 31 H        0.9490    -1.2570    -3.3850 H     1 <1>   0.0800 
 32 H       -3.2190     0.1960    -1.6400 H     1 <1>   0.1500 
 33 H        3.7040    -0.7510    -2.7360 H     1 <1>   0.0800 
 34 H        2.9430    -2.3160    -2.7320 H     1 <1>   0.0800 
 35 H        1.4110     0.6990    -0.2740 H     1 <1>   0.0800 
 36 H        2.7900     1.0390    -1.2710 H     1 <1>   0.0800 
 37 H       -2.8050    -1.1600     3.0650 H     1 <1>   0.1500 
 38 H        5.0820    -2.2680    -1.4520 H     1 <1>   0.0800 
 39 H        3.7200    -2.7840    -0.5020 H     1 <1>   0.0800 
 40 H        2.6830    -0.7680     1.1440 H     1 <1>   0.0800 
 41 H        3.5370     0.7410     1.0070 H     1 <1>   0.0800 
 42 H        0.6600    -2.2570     2.9920 H     1 <1>   0.0800 
 43 H       -1.0290    -2.7430     3.0740 H     1 <1>   0.0800 
 44 H       -0.5380    -1.1240     3.6080 H     1 <1>   0.0800 
 45 H       -4.9070    -0.3280     2.2360 H     1 <1>   0.1500 
 46 H       -7.2840     1.0370    -0.1700 H     1 <1>   0.0800 
 47 H       -6.3030     1.3280     1.2630 H     1 <1>   0.0800 
 48 H       -6.8140    -0.3190     0.8480 H     1 <1>   0.0800 
 49 H        5.0260     0.9520    -1.7910 H     1 <1>   0.1500 
 50 H        5.5420    -1.2660     2.4010 H     1 <1>   0.0800 
 51 H        7.2460    -1.4840     2.6300 H     1 <1>   0.0800 
 52 H        6.4000    -2.4440     1.4460 H     1 <1>   0.0800 
 53 H        7.1320     2.1880    -2.0020 H     1 <1>   0.1500 
 54 H        8.9590     1.7570    -0.4400 H     1 <1>   0.1500 
 55 H        9.3520    -0.9940     1.6020 H     1 <1>   0.0800 
 56 H        8.8010     0.3290     2.6130 H     1 <1>   0.0800 
 57 H        9.9230     0.6250     1.3140 H     1 <1>   0.0800 
@<TRIPOS>BOND
  1   1   2  2   
  2   2   3  am  
  3   2   4  1   
  4   3   5  1   
  5   3  29  1   
  6   4   6  1   
  7   4  30  1   
  8   4  31  1   
  9   5   7  ar  
 10   5   8  ar  
 11   6   9  1   
 12   6  10  1   
 13   7  11  1   
 14   7  12  ar  
 15   8  13  ar  
 16   8  32  1   
 17   9  14  1   
 18   9  33  1   
 19   9  34  1   
 20  10  15  1   
 21  10  35  1   
 22  10  36  1   
 23  11  16  1   
 24  12  17  ar  
 25  12  37  1   
 26  13  17  ar  
 27  13  18  1   
 28  14  19  1   
 29  14  38  1   
 30  14  39  1   
 31  15  19  1   
 32  15  40  1   
 33  15  41  1   
 34  16  42  1   
 35  16  43  1   
 36  16  44  1   
 37  17  45  1   
 38  18  20  1   
 39  19  21  1   
 40  20  46  1   
 41  20  47  1   
 42  20  48  1   
 43  21  22  ar  
 44  21  23  ar  
 45  22  24  ar  
 46  22  25  1   
 47  23  26  ar  
 48  23  49  1   
 49  24  27  ar  
 50  24  28  1   
 51  25  50  1   
 52  25  51  1   
 53  25  52  1   
 54  26  27  ar  
 55  26  53  1   
 56  27  54  1   
 57  28  55  1   
 58  28  56  1   
 59  28  57  1   
@<TRIPOS>SUBSTRUCTURE
  1 ****  10 GROUP 4 **** **** 0

# MOE 2024.06 (io_trps.svl 2023.06)
