@<TRIPOS>MOLECULE
NONAME
50 51 1 0 0 
SMALL
USER_CHARGES


@<TRIPOS>ATOM
  1 S        0.2110    -0.6710    -1.6490 S.3   1 <1>  -0.3710 
  2 C       -0.9710     0.4210    -0.8580 C.2   1 <1>   0.6510 
  3 C        1.5340     0.4550    -2.3320 C.3   1 <1>   0.1310 
  4 N       -0.7960     1.6700    -1.0350 N.2   1 <1>  -0.6210 
  5 N       -1.9620    -0.1740    -0.1020 N.am  1 <1>  -0.2370 
  6 C        2.8240     0.3610    -1.5180 C.2   1 <1>   0.5690 
  7 C       -1.6090     2.5360    -0.3730 C.2   1 <1>   0.0210 
  8 C       -2.8500     0.6930     0.5310 C.2   1 <1>   0.6160 
  9 C       -2.0510    -1.5680     0.0740 C.ar  1 <1>   0.1170 
 10 O        3.6260    -0.4690    -1.8890 O.2   1 <1>  -0.5700 
 11 N        3.1070     1.1860    -0.4480 N.am  1 <1>  -0.6600 
 12 O       -1.3220     3.7290    -0.4960 O.3   1 <1>  -0.8500 
 13 C       -2.6630     2.0680     0.4020 C.2   1 <1>  -0.1240 
 14 O       -3.7810     0.1990     1.1990 O.2   1 <1>  -0.5700 
 15 C       -1.2510    -2.2160     1.0070 C.ar  1 <1>  -0.1500 
 16 C       -2.9390    -2.3210    -0.6830 C.ar  1 <1>  -0.1500 
 17 C        2.1960     2.2480     0.0760 C.3   1 <1>   0.1400 
 18 C        4.4030     1.0660     0.2690 C.3   1 <1>   0.1400 
 19 C       -3.5900     3.0560     1.1040 C.3   1 <1>  -0.0220 
 20 C       -1.3320    -3.5870     1.1740 C.ar  1 <1>  -0.1500 
 21 C       -3.0210    -3.6920    -0.5170 C.ar  1 <1>  -0.1500 
 22 C        1.4820     1.7470     1.3300 C.3   1 <1>  -0.2400 
 23 C        5.4180     2.0270    -0.3450 C.3   1 <1>  -0.2400 
 24 C       -4.8190     3.3510     0.2400 C.3   1 <1>  -0.2400 
 25 C       -2.2160    -4.3340     0.4110 C.ar  1 <1>  -0.1430 
 26 C       -2.3050    -5.8370     0.5960 C.3   1 <1>  -0.0970 
 27 H        1.1690     1.4600    -2.3990 H     1 <1>   0.0800 
 28 H        1.7270     0.1060    -3.3280 H     1 <1>   0.0800 
 29 H       -0.5630    -1.6410     1.6000 H     1 <1>   0.1500 
 30 H       -3.5660    -1.8250    -1.4010 H     1 <1>   0.1500 
 31 H        1.4760     2.5440    -0.6630 H     1 <1>   0.0800 
 32 H        2.7640     3.1290     0.3160 H     1 <1>   0.0800 
 33 H        4.7700     0.0550     0.1940 H     1 <1>   0.0800 
 34 H        4.2690     1.2880     1.3130 H     1 <1>   0.0800 
 35 H       -3.0570     3.9720     1.2890 H     1 <1>   0.0800 
 36 H       -3.8960     2.6600     2.0550 H     1 <1>   0.0800 
 37 H       -0.7030    -4.0700     1.9010 H     1 <1>   0.1500 
 38 H       -3.7150    -4.2560    -1.1130 H     1 <1>   0.1500 
 39 H        1.0040     0.8050     1.1360 H     1 <1>   0.0800 
 40 H        0.7200     2.4580     1.6000 H     1 <1>   0.0800 
 41 H        2.1640     1.6440     2.1510 H     1 <1>   0.0800 
 42 H        5.5640     1.7870    -1.3840 H     1 <1>   0.0800 
 43 H        6.3590     1.9320     0.1630 H     1 <1>   0.0800 
 44 H        5.0790     3.0430    -0.2570 H     1 <1>   0.0800 
 45 H       -4.4970     3.7550    -0.7040 H     1 <1>   0.0800 
 46 H       -5.4530     4.0670     0.7300 H     1 <1>   0.0800 
 47 H       -5.3740     2.4470     0.0640 H     1 <1>   0.0800 
 48 H       -1.3440    -6.2390     0.8660 H     1 <1>   0.0800 
 49 H       -2.6260    -6.3110    -0.3140 H     1 <1>   0.0800 
 50 H       -3.0090    -6.0660     1.3750 H     1 <1>   0.0800 
@<TRIPOS>BOND
  1   1   2  1   
  2   1   3  1   
  3   2   4  2   
  4   2   5  1   
  5   3   6  1   
  6   3  27  1   
  7   3  28  1   
  8   4   7  1   
  9   5   8  am  
 10   5   9  1   
 11   6  10  2   
 12   6  11  am  
 13   7  12  1   
 14   7  13  2   
 15   8  13  1   
 16   8  14  2   
 17   9  15  ar  
 18   9  16  ar  
 19  11  17  1   
 20  11  18  1   
 21  13  19  1   
 22  15  20  ar  
 23  15  29  1   
 24  16  21  ar  
 25  16  30  1   
 26  17  22  1   
 27  17  31  1   
 28  17  32  1   
 29  18  23  1   
 30  18  33  1   
 31  18  34  1   
 32  19  24  1   
 33  19  35  1   
 34  19  36  1   
 35  20  25  ar  
 36  20  37  1   
 37  21  25  ar  
 38  21  38  1   
 39  22  39  1   
 40  22  40  1   
 41  22  41  1   
 42  23  42  1   
 43  23  43  1   
 44  23  44  1   
 45  24  45  1   
 46  24  46  1   
 47  24  47  1   
 48  25  26  1   
 49  26  48  1   
 50  26  49  1   
 51  26  50  1   
@<TRIPOS>SUBSTRUCTURE
  1 ****   2 GROUP 4 **** **** 0

# MOE 2024.06 (io_trps.svl 2023.06)
