@<TRIPOS>MOLECULE
NONAME
38 39 1 0 0 
SMALL
USER_CHARGES


@<TRIPOS>ATOM
  1 S        0.0100     0.4400    -1.0300 S.o2  1 <1>   1.4470 
  2 O       -0.2960     0.9400    -2.3540 O.2   1 <1>  -0.6500 
  3 O       -0.1750    -0.9660    -0.7430 O.2   1 <1>  -0.6500 
  4 N       -0.9500     1.3130     0.0610 N.am  1 <1>  -0.8490 
  5 C        1.6970     0.9140    -0.5670 C.ar  1 <1>  -0.0090 
  6 C       -2.3140     0.7780     0.1150 C.3   1 <1>   0.1960 
  7 C       -0.9620     2.7480    -0.2440 C.3   1 <1>   0.1960 
  8 C        2.1070     0.8780     0.7600 C.ar  1 <1>  -0.1500 
  9 C        2.6210     1.3190    -1.5240 C.ar  1 <1>  -0.1500 
 10 C       -3.1190     1.4800     1.2150 C.3   1 <1>  -0.1600 
 11 C       -1.7050     3.5170     0.8530 C.3   1 <1>  -0.1600 
 12 C        3.3930     1.2370     1.1220 C.ar  1 <1>  -0.1500 
 13 C        3.9100     1.6810    -1.1740 C.ar  1 <1>  -0.1500 
 14 C       -3.1390     3.0000     1.0180 C.3   1 <1>  -0.1600 
 15 C        4.3020     1.6410     0.1600 C.ar  1 <1>   0.0830 
 16 O        5.5390     1.9740     0.5930 O.3   1 <1>  -0.3630 
 17 C        6.5630     2.3620    -0.3150 C.3   1 <1>   0.1810 
 18 C        7.8660     2.6560     0.4180 C.2   1 <1>   0.5690 
 19 O        8.8270     3.0220    -0.2100 O.2   1 <1>  -0.5700 
 20 N        7.9470     2.5100     1.7550 N.am  1 <1>  -0.8000 
 21 H       -2.2840    -0.2770     0.3340 H     1 <1>   0.0800 
 22 H       -2.7960     0.9090    -0.8400 H     1 <1>   0.0800 
 23 H       -1.4400     2.9190    -1.1960 H     1 <1>   0.0800 
 24 H        0.0490     3.1170    -0.3040 H     1 <1>   0.0800 
 25 H        1.4070     0.5630     1.5170 H     1 <1>   0.1500 
 26 H        2.3250     1.3500    -2.5600 H     1 <1>   0.1500 
 27 H       -2.6770     1.2430     2.1680 H     1 <1>   0.0800 
 28 H       -4.1250     1.1010     1.2170 H     1 <1>   0.0800 
 29 H       -1.7240     4.5640     0.6050 H     1 <1>   0.0800 
 30 H       -1.1680     3.4070     1.7790 H     1 <1>   0.0800 
 31 H        3.6950     1.2040     2.1530 H     1 <1>   0.1500 
 32 H        4.5850     1.9870    -1.9510 H     1 <1>   0.1500 
 33 H       -3.6080     3.4760     1.8620 H     1 <1>   0.0800 
 34 H       -3.7090     3.2390     0.1370 H     1 <1>   0.0800 
 35 H        6.2420     3.2450    -0.8350 H     1 <1>   0.0800 
 36 H        6.7230     1.5600    -1.0110 H     1 <1>   0.0800 
 37 H        8.8180     2.7070     2.2470 H     1 <1>   0.3700 
 38 H        7.1450     2.2030     2.3100 H     1 <1>   0.3700 
@<TRIPOS>BOND
  1   1   2  2   
  2   1   3  2   
  3   1   4  am  
  4   1   5  1   
  5   4   6  1   
  6   4   7  1   
  7   5   8  ar  
  8   5   9  ar  
  9   6  10  1   
 10   6  21  1   
 11   6  22  1   
 12   7  11  1   
 13   7  23  1   
 14   7  24  1   
 15   8  12  ar  
 16   8  25  1   
 17   9  13  ar  
 18   9  26  1   
 19  10  14  1   
 20  10  27  1   
 21  10  28  1   
 22  11  14  1   
 23  11  29  1   
 24  11  30  1   
 25  12  15  ar  
 26  12  31  1   
 27  13  15  ar  
 28  13  32  1   
 29  14  33  1   
 30  14  34  1   
 31  15  16  1   
 32  16  17  1   
 33  17  18  1   
 34  17  35  1   
 35  17  36  1   
 36  18  19  2   
 37  18  20  am  
 38  20  37  1   
 39  20  38  1   
@<TRIPOS>SUBSTRUCTURE
  1 ****   5 GROUP 4 **** **** 0

# MOE 2024.06 (io_trps.svl 2023.06)
