@<TRIPOS>MOLECULE
NONAME
52 53 1 0 0 
SMALL
USER_CHARGES


@<TRIPOS>ATOM
  1 S        0.1080     0.7440    -0.7640 S.o2  1 <1>   1.3330 
  2 O        1.4060     1.2850    -1.1000 O.2   1 <1>  -0.6500 
  3 O       -0.9190     1.6430    -0.2950 O.2   1 <1>  -0.6500 
  4 N        0.3750    -0.4080     0.4480 N.am  1 <1>  -0.8490 
  5 C       -0.4480    -0.1570    -2.1990 C.3   1 <1>  -0.1350 
  6 C       -0.8430    -0.7900     1.1700 C.3   1 <1>   0.3390 
  7 C        1.4280     0.0250     1.4100 C.3   1 <1>   0.2570 
  8 C       -1.7860    -1.5770     0.2760 C.ar  1 <1>  -0.1440 
  9 C        2.8140    -0.5700     1.1290 C.2   1 <1>   0.5690 
 10 C       -3.0470    -1.0830    -0.0260 C.ar  1 <1>  -0.1500 
 11 C       -1.3890    -2.7980    -0.2470 C.ar  1 <1>  -0.1500 
 12 O        3.2420    -1.3970     1.9000 O.2   1 <1>  -0.5700 
 13 N        3.5070    -0.1480     0.0300 N.am  1 <1>  -0.5470 
 14 C       -3.8990    -1.8030    -0.8460 C.ar  1 <1>  -0.1500 
 15 C       -2.2400    -3.5180    -1.0670 C.ar  1 <1>  -0.1500 
 16 C        4.6800    -0.6930    -0.5110 C.ar  1 <1>   0.1170 
 17 C       -3.4960    -3.0200    -1.3670 C.ar  1 <1>  -0.1500 
 18 C        5.9280    -0.4650     0.0810 C.ar  1 <1>  -0.1430 
 19 C        4.6030    -1.4630    -1.6760 C.ar  1 <1>  -0.1430 
 20 C        7.0660    -1.0170    -0.4830 C.ar  1 <1>  -0.1500 
 21 C        6.0950     0.3920     1.3340 C.3   1 <1>  -0.0170 
 22 C        5.7550    -2.0080    -2.2190 C.ar  1 <1>  -0.1500 
 23 C        3.2780    -1.7330    -2.3850 C.3   1 <1>  -0.0170 
 24 C        6.9840    -1.7890    -1.6260 C.ar  1 <1>  -0.1500 
 25 C        6.1320     1.8800     0.9750 C.3   1 <1>  -0.2400 
 26 C        2.5350    -2.9090    -1.7420 C.3   1 <1>  -0.2400 
 27 H        0.2000    -0.9870    -2.3910 H     1 <1>   0.0800 
 28 H       -0.4450     0.4880    -3.0550 H     1 <1>   0.0800 
 29 H       -1.4450    -0.5230    -2.0660 H     1 <1>   0.0800 
 30 H       -1.3350     0.0810     1.5720 H     1 <1>   0.0800 
 31 H       -0.5850    -1.4310     1.9970 H     1 <1>   0.0800 
 32 H        1.1700    -0.2810     2.4080 H     1 <1>   0.0800 
 33 H        1.5050     1.0990     1.4290 H     1 <1>   0.0800 
 34 H       -3.3710    -0.1340     0.3700 H     1 <1>   0.1500 
 35 H       -0.4110    -3.1890    -0.0170 H     1 <1>   0.1500 
 36 H        2.9880     0.4870    -0.5910 H     1 <1>   0.3700 
 37 H       -4.8760    -1.4160    -1.0780 H     1 <1>   0.1500 
 38 H       -1.9270    -4.4660    -1.4690 H     1 <1>   0.1500 
 39 H       -4.1590    -3.5790    -2.0030 H     1 <1>   0.1500 
 40 H        8.0290    -0.8480    -0.0350 H     1 <1>   0.1500 
 41 H        7.0100     0.1270     1.8340 H     1 <1>   0.0800 
 42 H        5.2990     0.2030     2.0300 H     1 <1>   0.0800 
 43 H        5.7040    -2.6100    -3.1080 H     1 <1>   0.1500 
 44 H        3.4630    -1.9600    -3.4200 H     1 <1>   0.0800 
 45 H        2.6620    -0.8530    -2.3640 H     1 <1>   0.0800 
 46 H        7.8740    -2.2160    -2.0530 H     1 <1>   0.1500 
 47 H        6.9450     2.0770     0.3000 H     1 <1>   0.0800 
 48 H        6.2650     2.4710     1.8630 H     1 <1>   0.0800 
 49 H        5.2120     2.1690     0.5000 H     1 <1>   0.0800 
 50 H        3.1480    -3.7920    -1.7740 H     1 <1>   0.0800 
 51 H        1.6170    -3.1030    -2.2660 H     1 <1>   0.0800 
 52 H        2.3080    -2.6910    -0.7140 H     1 <1>   0.0800 
@<TRIPOS>BOND
  1   1   2  2   
  2   1   3  2   
  3   1   4  am  
  4   1   5  1   
  5   4   6  1   
  6   4   7  1   
  7   5  27  1   
  8   5  28  1   
  9   5  29  1   
 10   6   8  1   
 11   6  30  1   
 12   6  31  1   
 13   7   9  1   
 14   7  32  1   
 15   7  33  1   
 16   8  10  ar  
 17   8  11  ar  
 18   9  12  2   
 19   9  13  am  
 20  10  14  ar  
 21  10  34  1   
 22  11  15  ar  
 23  11  35  1   
 24  13  16  1   
 25  13  36  1   
 26  14  17  ar  
 27  14  37  1   
 28  15  17  ar  
 29  15  38  1   
 30  16  18  ar  
 31  16  19  ar  
 32  17  39  1   
 33  18  20  ar  
 34  18  21  1   
 35  19  22  ar  
 36  19  23  1   
 37  20  24  ar  
 38  20  40  1   
 39  21  25  1   
 40  21  41  1   
 41  21  42  1   
 42  22  24  ar  
 43  22  43  1   
 44  23  26  1   
 45  23  44  1   
 46  23  45  1   
 47  24  46  1   
 48  25  47  1   
 49  25  48  1   
 50  25  49  1   
 51  26  50  1   
 52  26  51  1   
 53  26  52  1   
@<TRIPOS>SUBSTRUCTURE
  1 ****   4 GROUP 4 **** **** 0

# MOE 2024.06 (io_trps.svl 2023.06)
