@<TRIPOS>MOLECULE
NONAME
46 46 1 0 0 
SMALL
USER_CHARGES


@<TRIPOS>ATOM
  1 O        1.8490     4.0080    -0.6290 O.2   1 <1>  -0.5700 
  2 C        1.1190     3.1690    -1.0970 C.2   1 <1>   0.5690 
  3 N        1.5960     2.0330    -1.6680 N.am  1 <1>  -0.7300 
  4 C       -0.3810     3.3500    -0.9890 C.3   1 <1>  -0.0990 
  5 C        2.9680     1.7840    -2.1870 C.3   1 <1>   0.1400 
  6 C       -0.9590     2.5840     0.2150 C.3   1 <1>  -0.1600 
  7 C        4.1000     2.0350    -1.1770 C.3   1 <1>  -0.1600 
  8 C       -2.4960     2.6330     0.2940 C.3   1 <1>  -0.0800 
  9 C        3.8620     1.4160     0.2030 C.3   1 <1>   0.3430 
 10 C       -3.0220     4.0620     0.5300 C.3   1 <1>  -0.1600 
 11 C       -2.9840     1.6950     1.4120 C.3   1 <1>  -0.1600 
 12 N        3.3290     2.4420     1.1380 N.4   1 <1>  -0.9590 
 13 C       -4.5500     4.0870     0.6720 C.3   1 <1>  -0.1600 
 14 C       -4.5130     1.7180     1.5460 C.3   1 <1>  -0.1600 
 15 C        4.3960     3.3210     1.7000 C.3   1 <1>   0.2630 
 16 C        2.4890     1.8410     2.2110 C.3   1 <1>   0.2630 
 17 C       -5.0240     3.1430     1.7830 C.3   1 <1>  -0.1600 
 18 H        0.8940     1.4010    -2.0660 H     1 <1>   0.3700 
 19 H       -0.8420     3.0110    -1.8990 H     1 <1>   0.0800 
 20 H       -0.5810     4.4010    -0.8910 H     1 <1>   0.0800 
 21 H        3.1270     2.4030    -3.0560 H     1 <1>   0.0800 
 22 H        3.0190     0.7580    -2.5130 H     1 <1>   0.0800 
 23 H       -0.5430     2.9870     1.1220 H     1 <1>   0.0800 
 24 H       -0.6540     1.5540     0.1430 H     1 <1>   0.0800 
 25 H        4.2970     3.0900    -1.1080 H     1 <1>   0.0800 
 26 H        4.9870     1.5880    -1.5890 H     1 <1>   0.0800 
 27 H       -2.9000     2.2730    -0.6390 H     1 <1>   0.0800 
 28 H        4.7850     1.0200     0.5940 H     1 <1>   0.0800 
 29 H        3.1610     0.6030     0.1050 H     1 <1>   0.0800 
 30 H       -2.7520     4.7020    -0.2910 H     1 <1>   0.0800 
 31 H       -2.5800     4.4660     1.4250 H     1 <1>   0.0800 
 32 H       -2.5490     1.9940     2.3500 H     1 <1>   0.0800 
 33 H       -2.6700     0.6860     1.2080 H     1 <1>   0.0800 
 34 H        2.7170     3.0550     0.5510 H     1 <1>   0.4500 
 35 H       -4.9990     3.7920    -0.2600 H     1 <1>   0.0800 
 36 H       -4.8750     5.0900     0.8910 H     1 <1>   0.0800 
 37 H       -4.8130     1.0870     2.3650 H     1 <1>   0.0800 
 38 H       -4.9560     1.3250     0.6470 H     1 <1>   0.0800 
 39 H        5.0790     2.7450     2.3030 H     1 <1>   0.0800 
 40 H        3.9560     4.0920     2.3110 H     1 <1>   0.0800 
 41 H        4.9480     3.7930     0.9040 H     1 <1>   0.0800 
 42 H        3.0820     1.1920     2.8340 H     1 <1>   0.0800 
 43 H        1.6850     1.2680     1.7760 H     1 <1>   0.0800 
 44 H        2.0610     2.6170     2.8250 H     1 <1>   0.0800 
 45 H       -6.1000     3.1400     1.8190 H     1 <1>   0.0800 
 46 H       -4.6630     3.4990     2.7330 H     1 <1>   0.0800 
@<TRIPOS>BOND
  1   1   2  2   
  2   2   3  am  
  3   2   4  1   
  4   3   5  1   
  5   3  18  1   
  6   4   6  1   
  7   4  19  1   
  8   4  20  1   
  9   5   7  1   
 10   5  21  1   
 11   5  22  1   
 12   6   8  1   
 13   6  23  1   
 14   6  24  1   
 15   7   9  1   
 16   7  25  1   
 17   7  26  1   
 18   8  10  1   
 19   8  11  1   
 20   8  27  1   
 21   9  12  1   
 22   9  28  1   
 23   9  29  1   
 24  10  13  1   
 25  10  30  1   
 26  10  31  1   
 27  11  14  1   
 28  11  32  1   
 29  11  33  1   
 30  12  15  1   
 31  12  16  1   
 32  12  34  1   
 33  13  17  1   
 34  13  35  1   
 35  13  36  1   
 36  14  17  1   
 37  14  37  1   
 38  14  38  1   
 39  15  39  1   
 40  15  40  1   
 41  15  41  1   
 42  16  42  1   
 43  16  43  1   
 44  16  44  1   
 45  17  45  1   
 46  17  46  1   
@<TRIPOS>SUBSTRUCTURE
  1 ****   6 GROUP 4 **** **** 0

# MOE 2024.06 (io_trps.svl 2023.06)
