@<TRIPOS>MOLECULE
NONAME
53 53 1 0 0 
SMALL
USER_CHARGES


@<TRIPOS>ATOM
  1 O        1.6420    -4.3140    -0.4750 O.3   1 <1>  -0.3630 
  2 C        2.1260    -5.4630     0.0870 C.ar  1 <1>   0.0830 
  3 C        2.5250    -3.2790    -0.8570 C.3   1 <1>   0.1200 
  4 C        3.2950    -6.1150    -0.3360 C.ar  1 <1>   0.0830 
  5 C        1.3710    -5.9990     1.1270 C.ar  1 <1>  -0.1440 
  6 C        1.7540    -1.9630    -0.8200 C.3   1 <1>  -0.2400 
  7 O        3.9940    -5.6170    -1.3960 O.3   1 <1>  -0.3630 
  8 C        3.6990    -7.2730     0.3240 C.ar  1 <1>  -0.1500 
  9 C        1.7880    -7.1560     1.7660 C.ar  1 <1>  -0.1500 
 10 C        0.0920    -5.3180     1.5600 C.3   1 <1>   0.4860 
 11 C        5.1560    -6.2460    -1.8960 C.3   1 <1>   0.0400 
 12 C        2.9510    -7.7860     1.3680 C.ar  1 <1>  -0.1500 
 13 N       -0.8090    -5.3240     0.3880 N.4   1 <1>  -0.9060 
 14 C       -2.0920    -4.6150     0.4450 C.3   1 <1>   0.5030 
 15 C       -2.6950    -4.7810    -0.9770 C.3   1 <1>  -0.1600 
 16 C       -1.7930    -3.1470     0.7750 C.3   1 <1>  -0.2400 
 17 C       -2.9240    -5.2540     1.5570 C.3   1 <1>  -0.2400 
 18 C       -4.1890    -4.5100    -1.3270 C.3   1 <1>   0.0000 
 19 C       -4.7190    -3.1670    -0.8080 C.3   1 <1>  -0.2400 
 20 C       -4.2940    -4.4790    -2.8620 C.3   1 <1>  -0.2400 
 21 C       -5.1180    -5.6400    -0.8470 C.3   1 <1>  -0.2400 
 22 H        2.8790    -3.4820    -1.8530 H     1 <1>   0.0800 
 23 H        3.3550    -3.2560    -0.1720 H     1 <1>   0.0800 
 24 H        0.9290    -1.9930    -1.5090 H     1 <1>   0.0800 
 25 H        2.4060    -1.1600    -1.1110 H     1 <1>   0.0800 
 26 H        1.3970    -1.7650     0.1740 H     1 <1>   0.0800 
 27 H        4.5930    -7.7970     0.0420 H     1 <1>   0.1500 
 28 H        1.2210    -7.5800     2.5790 H     1 <1>   0.1500 
 29 H        0.3160    -4.3080     1.8600 H     1 <1>   0.0800 
 30 H       -0.3530    -5.8450     2.3880 H     1 <1>   0.0800 
 31 H        5.5120    -5.6730    -2.7330 H     1 <1>   0.0800 
 32 H        4.9050    -7.2420    -2.2170 H     1 <1>   0.0800 
 33 H        5.9040    -6.2660    -1.1240 H     1 <1>   0.0800 
 34 H        3.2780    -8.6830     1.8690 H     1 <1>   0.1500 
 35 H       -0.9620    -6.2940     0.1050 H     1 <1>   0.4500 
 36 H       -0.2370    -4.9040    -0.3610 H     1 <1>   0.4500 
 37 H       -2.5080    -5.7920    -1.2970 H     1 <1>   0.0800 
 38 H       -2.1070    -4.1540    -1.6250 H     1 <1>   0.0800 
 39 H       -1.1510    -2.7080     0.0320 H     1 <1>   0.0800 
 40 H       -1.3370    -3.0390     1.7420 H     1 <1>   0.0800 
 41 H       -2.6950    -2.5700     0.8060 H     1 <1>   0.0800 
 42 H       -3.1480    -6.2810     1.3280 H     1 <1>   0.0800 
 43 H       -3.8500    -4.7240     1.6720 H     1 <1>   0.0800 
 44 H       -2.4290    -5.2030     2.5090 H     1 <1>   0.0800 
 45 H       -4.7980    -3.1590     0.2620 H     1 <1>   0.0800 
 46 H       -4.0840    -2.3580    -1.1240 H     1 <1>   0.0800 
 47 H       -5.7050    -2.9810    -1.1990 H     1 <1>   0.0800 
 48 H       -3.7030    -3.6790    -3.2740 H     1 <1>   0.0800 
 49 H       -5.3130    -4.3250    -3.1740 H     1 <1>   0.0800 
 50 H       -3.9550    -5.4060    -3.2900 H     1 <1>   0.0800 
 51 H       -5.2300    -5.6540     0.2190 H     1 <1>   0.0800 
 52 H       -4.7550    -6.6000    -1.1690 H     1 <1>   0.0800 
 53 H       -6.1040    -5.5090    -1.2590 H     1 <1>   0.0800 
@<TRIPOS>BOND
  1   1   2  1   
  2   1   3  1   
  3   2   4  ar  
  4   2   5  ar  
  5   3   6  1   
  6   3  22  1   
  7   3  23  1   
  8   4   7  1   
  9   4   8  ar  
 10   5   9  ar  
 11   5  10  1   
 12   6  24  1   
 13   6  25  1   
 14   6  26  1   
 15   7  11  1   
 16   8  12  ar  
 17   8  27  1   
 18   9  12  ar  
 19   9  28  1   
 20  10  13  1   
 21  10  29  1   
 22  10  30  1   
 23  11  31  1   
 24  11  32  1   
 25  11  33  1   
 26  12  34  1   
 27  13  14  1   
 28  13  35  1   
 29  13  36  1   
 30  14  15  1   
 31  14  16  1   
 32  14  17  1   
 33  15  18  1   
 34  15  37  1   
 35  15  38  1   
 36  16  39  1   
 37  16  40  1   
 38  16  41  1   
 39  17  42  1   
 40  17  43  1   
 41  17  44  1   
 42  18  19  1   
 43  18  20  1   
 44  18  21  1   
 45  19  45  1   
 46  19  46  1   
 47  19  47  1   
 48  20  48  1   
 49  20  49  1   
 50  20  50  1   
 51  21  51  1   
 52  21  52  1   
 53  21  53  1   
@<TRIPOS>SUBSTRUCTURE
  1 ****  13 GROUP 4 **** **** 0

# MOE 2024.06 (io_trps.svl 2023.06)
