@<TRIPOS>MOLECULE
NONAME
39 39 1 0 0 
SMALL
USER_CHARGES


@<TRIPOS>ATOM
  1 O       -0.0910     0.3820     0.2850 O.2   1 <1>  -0.5700 
  2 C        0.0710     1.5530     0.0050 C.2   1 <1>   0.6900 
  3 N        1.3090     2.1230    -0.0160 N.am  1 <1>  -0.5470 
  4 N       -0.9790     2.3630    -0.2950 N.am  1 <1>  -0.7300 
  5 C        2.5880     1.5580     0.0960 C.ar  1 <1>   0.1170 
  6 C       -2.4160     2.0300    -0.3110 C.3   1 <1>   0.2200 
  7 C        2.8600     0.2310    -0.2140 C.ar  1 <1>  -0.1500 
  8 C        3.6410     2.3620     0.5130 C.ar  1 <1>  -0.1500 
  9 C       -2.8760     1.5740     1.0720 C.3   1 <1>  -0.2400 
 10 C       -2.7040     0.9870    -1.3890 C.3   1 <1>  -0.2400 
 11 C        4.1430    -0.2760    -0.1060 C.ar  1 <1>  -0.1500 
 12 C        4.9250     1.8580     0.6210 C.ar  1 <1>  -0.1500 
 13 C        5.1910     0.5320     0.3120 C.ar  1 <1>  -0.1430 
 14 C        6.6140    -0.0130     0.4330 C.3   1 <1>   0.0630 
 15 C        7.1360    -0.4420    -0.9510 C.3   1 <1>  -0.1600 
 16 C        6.6590    -1.1520     1.4610 C.3   1 <1>  -0.2400 
 17 C        8.6250    -0.8160    -0.9560 C.3   1 <1>  -0.2400 
 18 H        1.2880     3.1350     0.0020 H     1 <1>   0.3700 
 19 H       -0.7650     3.2600    -0.7210 H     1 <1>   0.3700 
 20 H       -2.9580     2.9270    -0.5610 H     1 <1>   0.0800 
 21 H        2.0680    -0.4150    -0.5440 H     1 <1>   0.1500 
 22 H        3.4600     3.3910     0.7610 H     1 <1>   0.1500 
 23 H       -2.4120     0.6430     1.3430 H     1 <1>   0.0800 
 24 H       -3.9410     1.4290     1.0730 H     1 <1>   0.0800 
 25 H       -2.6320     2.3180     1.8080 H     1 <1>   0.0800 
 26 H       -2.2230     0.0540    -1.1550 H     1 <1>   0.0800 
 27 H       -2.3580     1.3330    -2.3450 H     1 <1>   0.0800 
 28 H       -3.7630     0.8110    -1.4530 H     1 <1>   0.0800 
 29 H        4.3180    -1.3080    -0.3520 H     1 <1>   0.1500 
 30 H        5.7190     2.5050     0.9480 H     1 <1>   0.1500 
 31 H        7.2480     0.7780     0.7950 H     1 <1>   0.0800 
 32 H        6.9870     0.3740    -1.6360 H     1 <1>   0.0800 
 33 H        6.5610    -1.2760    -1.3140 H     1 <1>   0.0800 
 34 H        6.1270    -2.0140     1.1000 H     1 <1>   0.0800 
 35 H        6.2030    -0.8300     2.3800 H     1 <1>   0.0800 
 36 H        7.6740    -1.4350     1.6710 H     1 <1>   0.0800 
 37 H        9.2190    -0.0060    -0.5710 H     1 <1>   0.0800 
 38 H        8.9440    -1.0220    -1.9630 H     1 <1>   0.0800 
 39 H        8.8040    -1.6940    -0.3620 H     1 <1>   0.0800 
@<TRIPOS>BOND
  1   1   2  2   
  2   2   3  am  
  3   2   4  am  
  4   3   5  1   
  5   3  18  1   
  6   4   6  1   
  7   4  19  1   
  8   5   7  ar  
  9   5   8  ar  
 10   6   9  1   
 11   6  10  1   
 12   6  20  1   
 13   7  11  ar  
 14   7  21  1   
 15   8  12  ar  
 16   8  22  1   
 17   9  23  1   
 18   9  24  1   
 19   9  25  1   
 20  10  26  1   
 21  10  27  1   
 22  10  28  1   
 23  11  13  ar  
 24  11  29  1   
 25  12  13  ar  
 26  12  30  1   
 27  13  14  1   
 28  14  15  1   
 29  14  16  1   
 30  14  31  1   
 31  15  17  1   
 32  15  32  1   
 33  15  33  1   
 34  16  34  1   
 35  16  35  1   
 36  16  36  1   
 37  17  37  1   
 38  17  38  1   
 39  17  39  1   
@<TRIPOS>SUBSTRUCTURE
  1 ****   5 GROUP 4 **** **** 0

# MOE 2024.06 (io_trps.svl 2023.06)
