@<TRIPOS>MOLECULE
NONAME
24 24 1 0 0 
SMALL
USER_CHARGES


@<TRIPOS>ATOM
  1 CL       0.1670     0.4490    -0.6390 Cl    1 <1>  -0.1770 
  2 C       -1.4140     1.0280    -0.1700 C.ar  1 <1>   0.1770 
  3 C       -1.7630     2.3400    -0.4210 C.ar  1 <1>  -0.1500 
  4 C       -2.2910     0.1570     0.4480 C.ar  1 <1>  -0.1500 
  5 C       -3.0210     2.8300    -0.0650 C.ar  1 <1>  -0.1790 
  6 C       -3.5390     0.6220     0.8190 C.ar  1 <1>  -0.1500 
  7 C       -3.9010     1.9380     0.5650 C.ar  1 <1>   0.0820 
  8 C       -3.3400     4.2140    -0.3490 C.2   1 <1>   0.9790 
  9 O       -5.1190     2.3310     0.9820 O.3   1 <1>  -0.3630 
 10 O       -2.6060     5.1180     0.0880 O.co2 1 <1>  -0.9000 
 11 O       -4.2790     4.5210    -1.1050 O.co2 1 <1>  -0.9000 
 12 C       -6.1510     2.3220     0.0220 C.3   1 <1>   0.1200 
 13 C       -7.2550     3.2650     0.4990 C.3   1 <1>  -0.1600 
 14 C       -8.4410     3.2750    -0.4710 C.3   1 <1>  -0.2400 
 15 H       -1.0610     3.0050    -0.8930 H     1 <1>   0.1500 
 16 H       -1.9970    -0.8590     0.6350 H     1 <1>   0.1500 
 17 H       -4.2400    -0.0250     1.3120 H     1 <1>   0.1500 
 18 H       -6.5100     1.3130    -0.0700 H     1 <1>   0.0800 
 19 H       -5.7580     2.6480    -0.9250 H     1 <1>   0.0800 
 20 H       -6.8430     4.2590     0.5650 H     1 <1>   0.0800 
 21 H       -7.5880     2.9600     1.4760 H     1 <1>   0.0800 
 22 H       -8.1150     3.6000    -1.4440 H     1 <1>   0.0800 
 23 H       -9.1960     3.9550    -0.1190 H     1 <1>   0.0800 
 24 H       -8.8700     2.2920    -0.5550 H     1 <1>   0.0800 
@<TRIPOS>BOND
  1   1   2  1   
  2   2   3  ar  
  3   2   4  ar  
  4   3   5  ar  
  5   3  15  1   
  6   4   6  ar  
  7   4  16  1   
  8   5   7  ar  
  9   5   8  1   
 10   6   7  ar  
 11   6  17  1   
 12   7   9  1   
 13   8  10  ar  
 14   8  11  ar  
 15   9  12  1   
 16  12  13  1   
 17  12  18  1   
 18  12  19  1   
 19  13  14  1   
 20  13  20  1   
 21  13  21  1   
 22  14  22  1   
 23  14  23  1   
 24  14  24  1   
@<TRIPOS>SUBSTRUCTURE
  1 ****   7 GROUP 4 **** **** 0

# MOE 2024.06 (io_trps.svl 2023.06)
