@<TRIPOS>MOLECULE
NONAME
34 35 1 0 0 
SMALL
USER_CHARGES


@<TRIPOS>ATOM
  1 O        0.1310    -1.1900     1.6280 O.2   1 <1>  -0.5700 
  2 C       -0.0460    -1.7060     0.5350 C.2   1 <1>   0.7160 
  3 N        1.0460    -1.8040    -0.3240 N.am  1 <1>  -0.6600 
  4 C       -1.3840    -2.2100     0.2440 C.2   1 <1>   0.2030 
  5 C        1.0260    -2.5410    -1.6230 C.3   1 <1>   0.1400 
  6 C        2.3400    -1.1350     0.0070 C.3   1 <1>   0.1400 
  7 N       -2.0470    -2.1790    -0.8770 N.2   1 <1>  -0.4100 
  8 C       -2.1970    -2.8020     1.1990 C.2   1 <1>  -0.1500 
  9 C        1.7310    -3.9060    -1.5680 C.3   1 <1>  -0.1600 
 10 C        3.4400    -2.1120     0.4540 C.3   1 <1>  -0.1600 
 11 O       -3.2300    -2.7230    -0.7280 O.3   1 <1>  -0.0190 
 12 C       -3.3140    -3.0940     0.5300 C.2   1 <1>  -0.0400 
 13 C        1.5600    -4.7030    -0.2590 C.3   1 <1>  -0.1600 
 14 C        2.9820    -3.2460     1.3940 C.3   1 <1>  -0.1600 
 15 C       -4.5900    -3.7540     1.0090 C.3   1 <1>  -0.0600 
 16 C        2.7600    -4.6040     0.7030 C.3   1 <1>  -0.1600 
 17 H        1.4880    -1.9320    -2.3810 H     1 <1>   0.0800 
 18 H        0.0190    -2.7070    -1.9460 H     1 <1>   0.0800 
 19 H        2.1840    -0.4180     0.7950 H     1 <1>   0.0800 
 20 H        2.6800    -0.5800    -0.8500 H     1 <1>   0.0800 
 21 H       -1.9360    -2.9600     2.2300 H     1 <1>   0.1500 
 22 H        2.7730    -3.7880    -1.8000 H     1 <1>   0.0800 
 23 H        1.3220    -4.4940    -2.3710 H     1 <1>   0.0800 
 24 H        4.1750    -1.5250     0.9750 H     1 <1>   0.0800 
 25 H        3.9450    -2.5150    -0.4030 H     1 <1>   0.0800 
 26 H        1.4580    -5.7410    -0.5240 H     1 <1>   0.0800 
 27 H        0.6510    -4.4290     0.2460 H     1 <1>   0.0800 
 28 H        2.1020    -2.9560     1.9420 H     1 <1>   0.0800 
 29 H        3.7580    -3.3910     2.1260 H     1 <1>   0.0800 
 30 H       -4.5140    -3.9980     2.0530 H     1 <1>   0.0800 
 31 H       -4.7660    -4.6550     0.4500 H     1 <1>   0.0800 
 32 H       -5.4200    -3.0860     0.8660 H     1 <1>   0.0800 
 33 H        3.6580    -4.8880     0.1820 H     1 <1>   0.0800 
 34 H        2.6090    -5.3350     1.4780 H     1 <1>   0.0800 
@<TRIPOS>BOND
  1   1   2  2   
  2   2   3  am  
  3   2   4  1   
  4   3   5  1   
  5   3   6  1   
  6   4   7  2   
  7   4   8  1   
  8   5   9  1   
  9   5  17  1   
 10   5  18  1   
 11   6  10  1   
 12   6  19  1   
 13   6  20  1   
 14   7  11  1   
 15   8  12  2   
 16   8  21  1   
 17   9  13  1   
 18   9  22  1   
 19   9  23  1   
 20  10  14  1   
 21  10  24  1   
 22  10  25  1   
 23  11  12  1   
 24  12  15  1   
 25  13  16  1   
 26  13  26  1   
 27  13  27  1   
 28  14  16  1   
 29  14  28  1   
 30  14  29  1   
 31  15  30  1   
 32  15  31  1   
 33  15  32  1   
 34  16  33  1   
 35  16  34  1   
@<TRIPOS>SUBSTRUCTURE
  1 ****   2 GROUP 4 **** **** 0

# MOE 2024.06 (io_trps.svl 2023.06)
