@<TRIPOS>MOLECULE
NONAME
54 57 1 0 0 
SMALL
USER_CHARGES


@<TRIPOS>ATOM
  1 S        0.5020    -0.1270     3.2110 S.3   1 <1>  -0.3710 
  2 C        1.4560     0.5390     1.8540 C.2   1 <1>   0.6510 
  3 C       -1.0200     0.9500     3.2630 C.3   1 <1>   0.1310 
  4 N        1.1520     1.7180     1.4660 N.2   1 <1>  -0.6290 
  5 N        2.4460    -0.2550     1.3200 N.am  1 <1>  -0.4200 
  6 C       -1.8080     0.8800     1.9600 C.2   1 <1>   0.5690 
  7 C        1.8410     2.2580     0.4060 C.ar  1 <1>   0.1790 
  8 C        3.1990     0.2550     0.2870 C.2   1 <1>   0.5440 
  9 C        2.6530    -1.6670     1.7520 C.3   1 <1>   0.2840 
 10 O       -2.5810     1.7750     1.7130 O.2   1 <1>  -0.5700 
 11 N       -1.6300    -0.1720     1.1160 N.am  1 <1>  -0.7300 
 12 C        2.8820     1.5630    -0.2170 C.ar  1 <1>   0.0860 
 13 C        1.4860     3.5210    -0.0540 C.ar  1 <1>  -0.1500 
 14 O        4.1120    -0.4010    -0.1880 O.2   1 <1>  -0.5700 
 15 C        1.6500    -2.5850     1.0620 C.ar  1 <1>  -0.1430 
 16 C       -2.1140    -0.2360    -0.2680 C.3   1 <1>   0.2200 
 17 C        3.5480     2.1660    -1.2880 C.ar  1 <1>  -0.1500 
 18 C        2.1510     4.1020    -1.1140 C.ar  1 <1>  -0.1500 
 19 C        0.6190    -3.1790     1.7780 C.ar  1 <1>  -0.1500 
 20 C        1.7670    -2.8470    -0.2950 C.ar  1 <1>  -0.1500 
 21 C       -2.8860    -1.5430    -0.4630 C.3   1 <1>  -0.1600 
 22 C       -0.9020    -0.1500    -1.2010 C.3   1 <1>  -0.1600 
 23 C        3.1890     3.4210    -1.7330 C.ar  1 <1>  -0.1500 
 24 C       -0.2860    -4.0110     1.1440 C.ar  1 <1>  -0.1500 
 25 C        0.8630    -3.6800    -0.9300 C.ar  1 <1>  -0.1500 
 26 C       -3.2920    -1.7390    -1.9320 C.3   1 <1>  -0.1600 
 27 C       -1.3070    -0.3480    -2.6680 C.3   1 <1>  -0.1600 
 28 C       -0.1650    -4.2620    -0.2110 C.ar  1 <1>  -0.1500 
 29 C       -2.0710    -1.6650    -2.8580 C.3   1 <1>  -0.1600 
 30 H       -0.6930     1.9570     3.4430 H     1 <1>   0.0800 
 31 H       -1.6250     0.6100     4.0810 H     1 <1>   0.0800 
 32 H        2.5660    -1.7450     2.8210 H     1 <1>   0.0800 
 33 H        3.6500    -1.9900     1.5060 H     1 <1>   0.0800 
 34 H       -0.9630    -0.9060     1.3640 H     1 <1>   0.3700 
 35 H        0.6770     4.0380     0.4320 H     1 <1>   0.1500 
 36 H       -2.7710     0.5960    -0.4650 H     1 <1>   0.0800 
 37 H        4.3530     1.6340    -1.7690 H     1 <1>   0.1500 
 38 H        1.8670     5.0810    -1.4610 H     1 <1>   0.1500 
 39 H        0.5150    -3.0010     2.8340 H     1 <1>   0.1500 
 40 H        2.5660    -2.4050    -0.8670 H     1 <1>   0.1500 
 41 H       -3.7680    -1.5290     0.1520 H     1 <1>   0.0800 
 42 H       -2.2710    -2.3700    -0.1600 H     1 <1>   0.0800 
 43 H       -0.1890    -0.9090    -0.9320 H     1 <1>   0.0800 
 44 H       -0.4350     0.8130    -1.0880 H     1 <1>   0.0800 
 45 H        3.7090     3.8750    -2.5600 H     1 <1>   0.1500 
 46 H       -1.0830    -4.4670     1.7050 H     1 <1>   0.1500 
 47 H        0.9610    -3.8750    -1.9840 H     1 <1>   0.1500 
 48 H       -3.9970    -0.9740    -2.2100 H     1 <1>   0.0800 
 49 H       -3.7770    -2.6920    -2.0480 H     1 <1>   0.0800 
 50 H       -0.4270    -0.3470    -3.2880 H     1 <1>   0.0800 
 51 H       -1.9310     0.4740    -2.9780 H     1 <1>   0.0800 
 52 H       -0.8690    -4.9100    -0.7050 H     1 <1>   0.1500 
 53 H       -2.3900    -1.7530    -3.8830 H     1 <1>   0.0800 
 54 H       -1.4130    -2.4910    -2.6460 H     1 <1>   0.0800 
@<TRIPOS>BOND
  1   1   2  1   
  2   1   3  1   
  3   2   4  2   
  4   2   5  1   
  5   3   6  1   
  6   3  30  1   
  7   3  31  1   
  8   4   7  1   
  9   5   8  am  
 10   5   9  1   
 11   6  10  2   
 12   6  11  am  
 13   7  12  ar  
 14   7  13  ar  
 15   8  12  1   
 16   8  14  2   
 17   9  15  1   
 18   9  32  1   
 19   9  33  1   
 20  11  16  1   
 21  11  34  1   
 22  12  17  ar  
 23  13  18  ar  
 24  13  35  1   
 25  15  19  ar  
 26  15  20  ar  
 27  16  21  1   
 28  16  22  1   
 29  16  36  1   
 30  17  23  ar  
 31  17  37  1   
 32  18  23  ar  
 33  18  38  1   
 34  19  24  ar  
 35  19  39  1   
 36  20  25  ar  
 37  20  40  1   
 38  21  26  1   
 39  21  41  1   
 40  21  42  1   
 41  22  27  1   
 42  22  43  1   
 43  22  44  1   
 44  23  45  1   
 45  24  28  ar  
 46  24  46  1   
 47  25  28  ar  
 48  25  47  1   
 49  26  29  1   
 50  26  48  1   
 51  26  49  1   
 52  27  29  1   
 53  27  50  1   
 54  27  51  1   
 55  28  52  1   
 56  29  53  1   
 57  29  54  1   
@<TRIPOS>SUBSTRUCTURE
  1 ****   2 GROUP 4 **** **** 0

# MOE 2024.06 (io_trps.svl 2023.06)
