@<TRIPOS>MOLECULE
NONAME
39 40 1 0 0 
SMALL
USER_CHARGES


@<TRIPOS>ATOM
  1 O        0.1150     0.9020     1.4910 O.2   1 <1>  -0.5700 
  2 C       -0.1100     1.5990     0.5310 C.2   1 <1>   0.5690 
  3 N       -1.3750     1.7970     0.0880 N.am  1 <1>  -0.7300 
  4 C        1.0310     2.2930    -0.2130 C.3   1 <1>  -0.0190 
  5 C       -2.5800     1.2920     0.7630 C.3   1 <1>   0.2840 
  6 C        2.3930     1.6000    -0.0010 C.3   1 <1>  -0.1600 
  7 C        1.1280     3.7760     0.1910 C.3   1 <1>  -0.1600 
  8 C       -3.7190     2.2400     0.4370 C.ar  1 <1>  -0.1440 
  9 C        3.5200     2.3340    -0.7320 C.3   1 <1>   0.1400 
 10 C        2.2700     4.4890    -0.5380 C.3   1 <1>   0.1400 
 11 C       -3.8680     3.4180     1.1520 C.ar  1 <1>  -0.1500 
 12 C       -4.6120     1.9440    -0.5820 C.ar  1 <1>  -0.1500 
 13 N        3.5450     3.7590    -0.2990 N.am  1 <1>  -0.6600 
 14 C       -4.9010     4.2900     0.8550 C.ar  1 <1>  -0.1500 
 15 C       -5.6450     2.8160    -0.8800 C.ar  1 <1>  -0.1500 
 16 C        4.6110     4.3850     0.2980 C.2   1 <1>   0.5690 
 17 C       -5.7900     3.9890    -0.1610 C.ar  1 <1>  -0.1500 
 18 O        4.5850     5.5520     0.6050 O.2   1 <1>  -0.5700 
 19 C        5.8810     3.6240     0.6010 C.3   1 <1>  -0.1790 
 20 H       -1.5700     2.4310    -0.6870 H     1 <1>   0.3700 
 21 H        0.8020     2.2450    -1.2630 H     1 <1>   0.0800 
 22 H       -2.4170     1.2510     1.8270 H     1 <1>   0.0800 
 23 H       -2.7990     0.2990     0.4110 H     1 <1>   0.0800 
 24 H        2.3400     0.5860    -0.3530 H     1 <1>   0.0800 
 25 H        2.6270     1.5680     1.0490 H     1 <1>   0.0800 
 26 H        1.2950     3.8510     1.2520 H     1 <1>   0.0800 
 27 H        0.2030     4.2780    -0.0290 H     1 <1>   0.0800 
 28 H        3.3520     2.2960    -1.7940 H     1 <1>   0.0800 
 29 H        4.4550     1.8450    -0.5280 H     1 <1>   0.0800 
 30 H        2.3390     5.5050    -0.1870 H     1 <1>   0.0800 
 31 H        2.0750     4.5170    -1.5960 H     1 <1>   0.0800 
 32 H       -3.1780     3.6590     1.9430 H     1 <1>   0.1500 
 33 H       -4.5080     1.0340    -1.1480 H     1 <1>   0.1500 
 34 H       -5.0120     5.2030     1.4150 H     1 <1>   0.1500 
 35 H       -6.3370     2.5810    -1.6700 H     1 <1>   0.1500 
 36 H       -6.5940     4.6670    -0.3920 H     1 <1>   0.1500 
 37 H        6.3200     3.2690    -0.3120 H     1 <1>   0.0800 
 38 H        5.6650     2.7990     1.2530 H     1 <1>   0.0800 
 39 H        6.5830     4.2740     1.0900 H     1 <1>   0.0800 
@<TRIPOS>BOND
  1   1   2  2   
  2   2   3  am  
  3   2   4  1   
  4   3   5  1   
  5   3  20  1   
  6   4   6  1   
  7   4   7  1   
  8   4  21  1   
  9   5   8  1   
 10   5  22  1   
 11   5  23  1   
 12   6   9  1   
 13   6  24  1   
 14   6  25  1   
 15   7  10  1   
 16   7  26  1   
 17   7  27  1   
 18   8  11  ar  
 19   8  12  ar  
 20   9  13  1   
 21   9  28  1   
 22   9  29  1   
 23  10  13  1   
 24  10  30  1   
 25  10  31  1   
 26  11  14  ar  
 27  11  32  1   
 28  12  15  ar  
 29  12  33  1   
 30  13  16  am  
 31  14  17  ar  
 32  14  34  1   
 33  15  17  ar  
 34  15  35  1   
 35  16  18  2   
 36  16  19  1   
 37  17  36  1   
 38  19  37  1   
 39  19  38  1   
 40  19  39  1   
@<TRIPOS>SUBSTRUCTURE
  1 ****   2 GROUP 4 **** **** 0

# MOE 2024.06 (io_trps.svl 2023.06)
