@<TRIPOS>MOLECULE
NONAME
26 26 1 0 0 
SMALL
USER_CHARGES


@<TRIPOS>ATOM
  1 O       -0.5150     0.3670    -0.3000 O.3   1 <1>  -0.3630 
  2 C       -1.6050    -0.4500    -0.1730 C.ar  1 <1>   0.0830 
  3 C        0.7810    -0.1950    -0.3340 C.3   1 <1>   0.0400 
  4 C       -2.8590     0.1480    -0.2130 C.ar  1 <1>   0.0830 
  5 C       -1.5250    -1.8250    -0.0090 C.ar  1 <1>  -0.1500 
  6 O       -2.9470     1.4840    -0.3670 O.3   1 <1>  -0.5330 
  7 C       -4.0060    -0.6130    -0.1020 C.ar  1 <1>  -0.1500 
  8 C       -2.6620    -2.6430     0.1180 C.ar  1 <1>   0.0860 
  9 C       -3.9050    -1.9820     0.0570 C.ar  1 <1>  -0.1500 
 10 C       -2.5090    -4.0590     0.2920 C.2   1 <1>   0.3030 
 11 N       -1.3530    -4.6440     0.0710 N.2   1 <1>  -0.8000 
 12 C       -3.7270    -4.8780     0.7590 C.3   1 <1>  -0.0990 
 13 O       -1.3100    -5.8560     0.2360 O.3   1 <1>  -0.6500 
 14 C       -4.5340    -5.4390    -0.4220 C.3   1 <1>  -0.2400 
 15 H        1.4910     0.6000    -0.4690 H     1 <1>   0.0800 
 16 H        0.8410    -0.8860    -1.1580 H     1 <1>   0.0800 
 17 H        0.9670    -0.7000     0.5980 H     1 <1>   0.0800 
 18 H       -0.5740    -2.3230     0.0290 H     1 <1>   0.1500 
 19 H       -2.0380     1.8400    -0.4330 H     1 <1>   0.4500 
 20 H       -4.9640    -0.1300    -0.1430 H     1 <1>   0.1500 
 21 H       -4.8120    -2.5510     0.1250 H     1 <1>   0.1500 
 22 H       -3.3890    -5.6980     1.3670 H     1 <1>   0.0800 
 23 H       -4.3530    -4.2840     1.3940 H     1 <1>   0.0800 
 24 H       -3.8880    -6.0720    -1.0060 H     1 <1>   0.0800 
 25 H       -4.8940    -4.6470    -1.0510 H     1 <1>   0.0800 
 26 H       -5.3620    -6.0220    -0.0660 H     1 <1>   0.0800 
@<TRIPOS>BOND
  1   1   2  1   
  2   1   3  1   
  3   2   4  ar  
  4   2   5  ar  
  5   3  15  1   
  6   3  16  1   
  7   3  17  1   
  8   4   6  1   
  9   4   7  ar  
 10   5   8  ar  
 11   5  18  1   
 12   6  19  1   
 13   7   9  ar  
 14   7  20  1   
 15   8   9  ar  
 16   8  10  1   
 17   9  21  1   
 18  10  11  2   
 19  10  12  1   
 20  11  13  1   
 21  12  14  1   
 22  12  22  1   
 23  12  23  1   
 24  14  24  1   
 25  14  25  1   
 26  14  26  1   
@<TRIPOS>SUBSTRUCTURE
  1 ****   8 GROUP 4 **** **** 0

# MOE 2024.06 (io_trps.svl 2023.06)
