@<TRIPOS>MOLECULE
NONAME
40 42 1 0 0 
SMALL
USER_CHARGES


@<TRIPOS>ATOM
  1 O        2.7840     2.8200    -1.8950 O.2   1 <1>  -0.5700 
  2 C        1.8150     2.2290    -1.4530 C.2   1 <1>   0.5440 
  3 N        1.9580     0.9070    -1.1600 N.am  1 <1>  -0.7300 
  4 C        0.5510     2.9130    -1.2630 C.ar  1 <1>   0.0860 
  5 C        3.2290     0.1740    -1.0530 C.3   1 <1>   0.2840 
  6 C       -0.4530     2.4720    -0.3660 C.ar  1 <1>   0.4100 
  7 C        0.2830     4.0610    -2.0000 C.ar  1 <1>  -0.1500 
  8 C        3.3410    -0.3480     0.3690 C.ar  1 <1>  -0.1440 
  9 N       -1.6320     3.0780    -0.2240 N.ar  1 <1>  -0.6200 
 10 N       -0.2710     1.3780     0.4650 N.pl3 1 <1>  -0.8380 
 11 C       -0.9300     4.6870    -1.8390 C.ar  1 <1>  -0.1500 
 12 C        4.0910     0.3440     1.3070 C.ar  1 <1>  -0.1500 
 13 C        2.6780    -1.5060     0.7460 C.ar  1 <1>  -0.1500 
 14 C       -1.8430     4.1560    -0.9500 C.ar  1 <1>   0.1600 
 15 C        0.4980     1.5770     1.7210 C.3   1 <1>   0.2090 
 16 C       -1.3640     0.4020     0.6980 C.3   1 <1>   0.2090 
 17 C        4.1780    -0.1170     2.6100 C.ar  1 <1>  -0.1500 
 18 C        2.7640    -1.9680     2.0480 C.ar  1 <1>  -0.1500 
 19 C       -0.1500     0.6600     2.7530 C.3   1 <1>  -0.1600 
 20 C       -0.9270    -0.3650     1.9360 C.3   1 <1>  -0.1600 
 21 C        3.5140    -1.2730     2.9810 C.ar  1 <1>  -0.1500 
 22 H        1.1980     0.5240    -0.5790 H     1 <1>   0.3700 
 23 H        4.0590     0.8190    -1.2860 H     1 <1>   0.0800 
 24 H        3.2280    -0.6450    -1.7520 H     1 <1>   0.0800 
 25 H        1.0160     4.4470    -2.6890 H     1 <1>   0.1500 
 26 H       -1.1700     5.5750    -2.3960 H     1 <1>   0.1500 
 27 H        4.6050     1.2480     1.0260 H     1 <1>   0.1500 
 28 H        2.0900    -2.0490     0.0270 H     1 <1>   0.1500 
 29 H       -2.7950     4.6460    -0.8300 H     1 <1>   0.1500 
 30 H        0.4580     2.6060     2.0370 H     1 <1>   0.0800 
 31 H        1.5230     1.2930     1.5650 H     1 <1>   0.0800 
 32 H       -1.4880    -0.2460    -0.1530 H     1 <1>   0.0800 
 33 H       -2.2880     0.9200     0.8950 H     1 <1>   0.0800 
 34 H        4.7630     0.4240     3.3330 H     1 <1>   0.1500 
 35 H        2.2480    -2.8670     2.3350 H     1 <1>   0.1500 
 36 H       -0.8280     1.2400     3.3540 H     1 <1>   0.0800 
 37 H        0.5860     0.2030     3.3910 H     1 <1>   0.0800 
 38 H       -0.2750    -1.1670     1.6380 H     1 <1>   0.0800 
 39 H       -1.7660    -0.7690     2.4730 H     1 <1>   0.0800 
 40 H        3.5830    -1.6320     3.9930 H     1 <1>   0.1500 
@<TRIPOS>BOND
  1   1   2  2   
  2   2   3  am  
  3   2   4  1   
  4   3   5  1   
  5   3  22  1   
  6   4   6  ar  
  7   4   7  ar  
  8   5   8  1   
  9   5  23  1   
 10   5  24  1   
 11   6   9  ar  
 12   6  10  1   
 13   7  11  ar  
 14   7  25  1   
 15   8  12  ar  
 16   8  13  ar  
 17   9  14  ar  
 18  10  15  1   
 19  10  16  1   
 20  11  14  ar  
 21  11  26  1   
 22  12  17  ar  
 23  12  27  1   
 24  13  18  ar  
 25  13  28  1   
 26  14  29  1   
 27  15  19  1   
 28  15  30  1   
 29  15  31  1   
 30  16  20  1   
 31  16  32  1   
 32  16  33  1   
 33  17  21  ar  
 34  17  34  1   
 35  18  21  ar  
 36  18  35  1   
 37  19  20  1   
 38  19  36  1   
 39  19  37  1   
 40  20  38  1   
 41  20  39  1   
 42  21  40  1   
@<TRIPOS>SUBSTRUCTURE
  1 ****  10 GROUP 4 **** **** 0

# MOE 2024.06 (io_trps.svl 2023.06)
