@<TRIPOS>MOLECULE
NONAME
52 53 1 0 0 
SMALL
USER_CHARGES


@<TRIPOS>ATOM
  1 S       -0.0930    -0.0490    -0.6910 S.o2  1 <1>   1.3330 
  2 O        1.2450     0.2000    -0.2090 O.2   1 <1>  -0.6500 
  3 O       -1.0140     1.0550    -0.8140 O.2   1 <1>  -0.6500 
  4 N       -0.7770    -1.2700     0.3360 N.am  1 <1>  -0.6930 
  5 C        0.0370    -0.8630    -2.2710 C.3   1 <1>  -0.1350 
  6 C       -0.1470    -2.5000     0.4800 C.ar  1 <1>   0.1990 
  7 C       -2.1740    -1.1320     0.8580 C.3   1 <1>   0.3370 
  8 C        1.0600    -2.6040     1.1580 C.ar  1 <1>  -0.1500 
  9 C       -0.7150    -3.6520    -0.0530 C.ar  1 <1>  -0.1500 
 10 C       -3.3010    -1.2270    -0.2130 C.2   1 <1>   0.5690 
 11 C       -2.2590     0.1010     1.7770 C.3   1 <1>  -0.2400 
 12 C        1.6890    -3.8270     1.3100 C.ar  1 <1>  -0.1440 
 13 C       -0.1000    -4.8830     0.0930 C.ar  1 <1>  -0.1440 
 14 O       -2.9840    -1.2250    -1.3840 O.2   1 <1>  -0.5700 
 15 N       -4.6310    -1.3700     0.1390 N.am  1 <1>  -0.6600 
 16 C        1.1020    -4.9640     0.7780 C.ar  1 <1>  -0.1500 
 17 C        3.0090    -3.9290     2.0520 C.3   1 <1>  -0.0970 
 18 C       -0.7240    -6.1380    -0.4880 C.3   1 <1>  -0.0970 
 19 C       -5.1250    -1.5640     1.5350 C.3   1 <1>   0.1400 
 20 C       -5.6730    -1.3260    -0.9270 C.3   1 <1>   0.1400 
 21 C       -6.2900    -2.5560     1.6610 C.3   1 <1>  -0.1600 
 22 C       -5.8970    -2.7290    -1.5030 C.3   1 <1>  -0.1600 
 23 C       -6.1390    -3.8360     0.8220 C.3   1 <1>  -0.1600 
 24 C       -6.7020    -3.6760    -0.5990 C.3   1 <1>  -0.1600 
 25 H        0.5030    -0.2080    -2.9790 H     1 <1>   0.0800 
 26 H       -0.9300    -1.1310    -2.6440 H     1 <1>   0.0800 
 27 H        0.6310    -1.7510    -2.1820 H     1 <1>   0.0800 
 28 H       -2.3230    -1.9820     1.4970 H     1 <1>   0.0800 
 29 H        1.5000    -1.7120     1.5660 H     1 <1>   0.1500 
 30 H       -1.6410    -3.5740    -0.5930 H     1 <1>   0.1500 
 31 H       -2.3900     1.0000     1.2050 H     1 <1>   0.0800 
 32 H       -1.3660     0.1840     2.3700 H     1 <1>   0.0800 
 33 H       -3.0940     0.0210     2.4430 H     1 <1>   0.0800 
 34 H        1.5850    -5.9190     0.8950 H     1 <1>   0.1500 
 35 H        3.4640    -2.9600     2.1540 H     1 <1>   0.0800 
 36 H        3.6880    -4.5670     1.5150 H     1 <1>   0.0800 
 37 H        2.8450    -4.3400     3.0320 H     1 <1>   0.0800 
 38 H       -1.6390    -5.9110    -1.0050 H     1 <1>   0.0800 
 39 H       -0.9390    -6.8380     0.2990 H     1 <1>   0.0800 
 40 H       -0.0440    -6.5960    -1.1840 H     1 <1>   0.0800 
 41 H       -5.4300    -0.6110     1.9320 H     1 <1>   0.0800 
 42 H       -4.3270    -1.9360     2.1510 H     1 <1>   0.0800 
 43 H       -5.3410    -0.6730    -1.7170 H     1 <1>   0.0800 
 44 H       -6.5920    -0.9190    -0.5410 H     1 <1>   0.0800 
 45 H       -7.2150    -2.0630     1.4230 H     1 <1>   0.0800 
 46 H       -6.3580    -2.8370     2.6980 H     1 <1>   0.0800 
 47 H       -4.9420    -3.1680    -1.7360 H     1 <1>   0.0800 
 48 H       -6.4290    -2.6250    -2.4320 H     1 <1>   0.0800 
 49 H       -6.6930    -4.6230     1.3050 H     1 <1>   0.0800 
 50 H       -5.1080    -4.1450     0.7840 H     1 <1>   0.0800 
 51 H       -6.7260    -4.6440    -1.0670 H     1 <1>   0.0800 
 52 H       -7.7190    -3.3290    -0.5400 H     1 <1>   0.0800 
@<TRIPOS>BOND
  1   1   2  2   
  2   1   3  2   
  3   1   4  am  
  4   1   5  1   
  5   4   6  1   
  6   4   7  1   
  7   5  25  1   
  8   5  26  1   
  9   5  27  1   
 10   6   8  ar  
 11   6   9  ar  
 12   7  10  1   
 13   7  11  1   
 14   7  28  1   
 15   8  12  ar  
 16   8  29  1   
 17   9  13  ar  
 18   9  30  1   
 19  10  14  2   
 20  10  15  am  
 21  11  31  1   
 22  11  32  1   
 23  11  33  1   
 24  12  16  ar  
 25  12  17  1   
 26  13  16  ar  
 27  13  18  1   
 28  15  19  1   
 29  15  20  1   
 30  16  34  1   
 31  17  35  1   
 32  17  36  1   
 33  17  37  1   
 34  18  38  1   
 35  18  39  1   
 36  18  40  1   
 37  19  21  1   
 38  19  41  1   
 39  19  42  1   
 40  20  22  1   
 41  20  43  1   
 42  20  44  1   
 43  21  23  1   
 44  21  45  1   
 45  21  46  1   
 46  22  24  1   
 47  22  47  1   
 48  22  48  1   
 49  23  24  1   
 50  23  49  1   
 51  23  50  1   
 52  24  51  1   
 53  24  52  1   
@<TRIPOS>SUBSTRUCTURE
  1 ****   7 GROUP 4 **** **** 0

# MOE 2024.06 (io_trps.svl 2023.06)
