@<TRIPOS>MOLECULE
NONAME
43 43 1 0 0 
SMALL
USER_CHARGES


@<TRIPOS>ATOM
  1 O       -8.2560    -0.8210     0.8270 O.3   1 <1>  -0.3630 
  2 C       -9.4910    -0.4560     0.3810 C.ar  1 <1>   0.0830 
  3 C       -7.6010    -0.1450     1.8810 C.3   1 <1>   0.1200 
  4 C      -10.2480    -1.3810    -0.3470 C.ar  1 <1>  -0.1440 
  5 C      -10.0120     0.8150     0.6300 C.ar  1 <1>  -0.1500 
  6 C       -6.7940     1.0650     1.3660 C.3   1 <1>   0.3430 
  7 C      -11.4920    -0.9940    -0.8280 C.ar  1 <1>  -0.1500 
  8 C       -9.8080    -2.8220    -0.6410 C.3   1 <1>   0.0640 
  9 C      -11.2540     1.1760     0.1440 C.ar  1 <1>  -0.1500 
 10 N       -5.6030     0.7220     0.5120 N.4   1 <1>  -0.9590 
 11 C      -11.9930     0.2720    -0.5900 C.ar  1 <1>  -0.1500 
 12 C       -9.6040    -3.6370     0.6420 C.3   1 <1>  -0.2400 
 13 C       -8.5730    -2.8810    -1.5420 C.3   1 <1>  -0.2400 
 14 C       -4.7240     1.9180     0.3900 C.3   1 <1>   0.3430 
 15 C       -6.0030     0.1820    -0.8190 C.3   1 <1>   0.3430 
 16 C       -3.3470     1.5280    -0.1350 C.3   1 <1>  -0.2400 
 17 C       -5.2940    -1.1510    -1.0240 C.3   1 <1>  -0.2400 
 18 H       -6.9460    -0.8490     2.3610 H     1 <1>   0.0800 
 19 H       -8.3420     0.1600     2.6000 H     1 <1>   0.0800 
 20 H       -9.4830     1.5490     1.1990 H     1 <1>   0.1500 
 21 H       -6.4480     1.6070     2.2310 H     1 <1>   0.0800 
 22 H       -7.4510     1.7220     0.8210 H     1 <1>   0.0800 
 23 H      -12.0950    -1.6820    -1.3950 H     1 <1>   0.1500 
 24 H      -10.6020    -3.3090    -1.1830 H     1 <1>   0.0800 
 25 H      -11.6510     2.1580     0.3360 H     1 <1>   0.1500 
 26 H       -5.0710    -0.0200     0.9840 H     1 <1>   0.4500 
 27 H      -12.9610     0.5480    -0.9730 H     1 <1>   0.1500 
 28 H       -8.7640    -3.2760     1.2050 H     1 <1>   0.0800 
 29 H       -9.4320    -4.6710     0.4000 H     1 <1>   0.0800 
 30 H      -10.4830    -3.5720     1.2580 H     1 <1>   0.0800 
 31 H       -7.7100    -2.5330    -1.0150 H     1 <1>   0.0800 
 32 H       -8.7260    -2.2700    -2.4140 H     1 <1>   0.0800 
 33 H       -8.3950    -3.8930    -1.8580 H     1 <1>   0.0800 
 34 H       -4.6010     2.3740     1.3600 H     1 <1>   0.0800 
 35 H       -5.1750     2.6460    -0.2660 H     1 <1>   0.0800 
 36 H       -5.7290     0.8690    -1.6030 H     1 <1>   0.0800 
 37 H       -7.0690     0.0320    -0.8680 H     1 <1>   0.0800 
 38 H       -2.9040     0.7620     0.4760 H     1 <1>   0.0800 
 39 H       -2.7030     2.3890    -0.1050 H     1 <1>   0.0800 
 40 H       -3.3970     1.1990    -1.1570 H     1 <1>   0.0800 
 41 H       -4.2260    -1.0340    -1.0370 H     1 <1>   0.0800 
 42 H       -5.5900    -1.5630    -1.9720 H     1 <1>   0.0800 
 43 H       -5.5710    -1.8500    -0.2560 H     1 <1>   0.0800 
@<TRIPOS>BOND
  1   1   2  1   
  2   1   3  1   
  3   2   4  ar  
  4   2   5  ar  
  5   3   6  1   
  6   3  18  1   
  7   3  19  1   
  8   4   7  ar  
  9   4   8  1   
 10   5   9  ar  
 11   5  20  1   
 12   6  10  1   
 13   6  21  1   
 14   6  22  1   
 15   7  11  ar  
 16   7  23  1   
 17   8  12  1   
 18   8  13  1   
 19   8  24  1   
 20   9  11  ar  
 21   9  25  1   
 22  10  14  1   
 23  10  15  1   
 24  10  26  1   
 25  11  27  1   
 26  12  28  1   
 27  12  29  1   
 28  12  30  1   
 29  13  31  1   
 30  13  32  1   
 31  13  33  1   
 32  14  16  1   
 33  14  34  1   
 34  14  35  1   
 35  15  17  1   
 36  15  36  1   
 37  15  37  1   
 38  16  38  1   
 39  16  39  1   
 40  16  40  1   
 41  17  41  1   
 42  17  42  1   
 43  17  43  1   
@<TRIPOS>SUBSTRUCTURE
  1 ****   1 GROUP 4 **** **** 0

# MOE 2024.06 (io_trps.svl 2023.06)
