@<TRIPOS>MOLECULE
NONAME
36 37 1 0 0 
SMALL
USER_CHARGES


@<TRIPOS>ATOM
  1 S       -0.1150     0.1450    -0.0920 S.o2  1 <1>   1.4470 
  2 O        0.0830     1.0790     0.9940 O.2   1 <1>  -0.6500 
  3 O       -0.2960     0.6450    -1.4380 O.2   1 <1>  -0.6500 
  4 N       -1.5180    -0.7380     0.2670 N.am  1 <1>  -0.8490 
  5 C        1.1900    -1.1060    -0.0210 C.ar  1 <1>  -0.0090 
  6 C       -2.0280    -1.4870    -0.8850 C.3   1 <1>   0.1960 
  7 C       -2.5660     0.1240     0.8420 C.3   1 <1>   0.1960 
  8 C        2.4050    -0.9020    -0.6610 C.ar  1 <1>   0.1900 
  9 C        1.0480    -2.2930     0.6940 C.ar  1 <1>  -0.1500 
 10 C       -3.0880    -2.5200    -0.4440 C.3   1 <1>  -0.0800 
 11 C       -3.9460    -0.5710     0.9640 C.3   1 <1>  -0.0800 
 12 F        2.6030     0.2080    -1.3190 F     1 <1>  -0.1900 
 13 C        3.4460    -1.8170    -0.6410 C.ar  1 <1>  -0.1500 
 14 C        2.0830    -3.2100     0.7160 C.ar  1 <1>   0.1900 
 15 C       -3.8200    -2.1000     0.8480 C.3   1 <1>  -0.1600 
 16 C       -2.4720    -3.9160    -0.2650 C.3   1 <1>  -0.2400 
 17 C       -4.9540    -0.0160    -0.0580 C.3   1 <1>  -0.2400 
 18 C        3.2830    -3.0000     0.0600 C.ar  1 <1>  -0.1500 
 19 F        1.9210    -4.3200     1.3830 F     1 <1>  -0.1900 
 20 H       -1.2210    -1.9910    -1.3890 H     1 <1>   0.0800 
 21 H       -2.4630    -0.7960    -1.5890 H     1 <1>   0.0800 
 22 H       -2.6630     1.0190     0.2490 H     1 <1>   0.0800 
 23 H       -2.2470     0.4270     1.8260 H     1 <1>   0.0800 
 24 H        0.1420    -2.5050     1.2350 H     1 <1>   0.1500 
 25 H       -3.8110    -2.5880    -1.2390 H     1 <1>   0.0800 
 26 H       -4.3370    -0.3420     1.9410 H     1 <1>   0.0800 
 27 H        4.3630    -1.6020    -1.1620 H     1 <1>   0.1500 
 28 H       -3.2540    -2.4400     1.6990 H     1 <1>   0.0800 
 29 H       -4.7880    -2.5670     0.8970 H     1 <1>   0.0800 
 30 H       -1.7220    -3.9030     0.5060 H     1 <1>   0.0800 
 31 H       -2.0180    -4.2480    -1.1810 H     1 <1>   0.0800 
 32 H       -3.2330    -4.6250     0.0110 H     1 <1>   0.0800 
 33 H       -4.6200    -0.1720    -1.0670 H     1 <1>   0.0800 
 34 H       -5.0910     1.0400     0.0930 H     1 <1>   0.0800 
 35 H       -5.9090    -0.4970     0.0630 H     1 <1>   0.0800 
 36 H        4.0620    -3.7400     0.1030 H     1 <1>   0.1500 
@<TRIPOS>BOND
  1   1   2  2   
  2   1   3  2   
  3   1   4  am  
  4   1   5  1   
  5   4   6  1   
  6   4   7  1   
  7   5   8  ar  
  8   5   9  ar  
  9   6  10  1   
 10   6  20  1   
 11   6  21  1   
 12   7  11  1   
 13   7  22  1   
 14   7  23  1   
 15   8  12  1   
 16   8  13  ar  
 17   9  14  ar  
 18   9  24  1   
 19  10  15  1   
 20  10  16  1   
 21  10  25  1   
 22  11  15  1   
 23  11  17  1   
 24  11  26  1   
 25  13  18  ar  
 26  13  27  1   
 27  14  18  ar  
 28  14  19  1   
 29  15  28  1   
 30  15  29  1   
 31  16  30  1   
 32  16  31  1   
 33  16  32  1   
 34  17  33  1   
 35  17  34  1   
 36  17  35  1   
 37  18  36  1   
@<TRIPOS>SUBSTRUCTURE
  1 ****   4 GROUP 4 **** **** 0

# MOE 2024.06 (io_trps.svl 2023.06)
