@<TRIPOS>MOLECULE
NONAME
39 40 1 0 0 
SMALL
USER_CHARGES


@<TRIPOS>ATOM
  1 O       -0.8400     0.9220     1.1670 O.2   1 <1>  -0.5700 
  2 C       -1.2040     1.9520     0.6310 C.2   1 <1>   0.5440 
  3 N       -0.4440     3.0980     0.7740 N.am  1 <1>  -0.6600 
  4 C       -2.4300     1.9360    -0.1430 C.ar  1 <1>   0.0860 
  5 C        0.7010     3.1200     1.7270 C.3   1 <1>   0.1400 
  6 C       -0.6970     4.3290    -0.0300 C.3   1 <1>   0.1400 
  7 C       -3.5060     2.7570     0.1830 C.ar  1 <1>  -0.1500 
  8 C       -2.5690     1.0870    -1.2400 C.ar  1 <1>  -0.1500 
  9 C        1.9780     2.6330     1.0330 C.3   1 <1>  -0.1600 
 10 C        0.5720     5.0800    -0.4590 C.3   1 <1>  -0.1600 
 11 C       -4.6800     2.7510    -0.5550 C.ar  1 <1>   0.1170 
 12 C       -3.7290     1.0730    -1.9920 C.ar  1 <1>  -0.1500 
 13 C        2.6230     3.6530     0.0830 C.3   1 <1>  -0.1600 
 14 C        1.6870     4.1800    -1.0160 C.3   1 <1>  -0.1600 
 15 N       -5.7310     3.5960    -0.1910 N.am  1 <1>  -0.5470 
 16 C       -4.7780     1.9070    -1.6540 C.ar  1 <1>  -0.1500 
 17 C       -7.0370     3.3210     0.0630 C.2   1 <1>   0.5690 
 18 O       -7.7920     4.2150     0.3400 O.2   1 <1>  -0.5700 
 19 C       -7.5590     1.9040     0.0240 C.3   1 <1>  -0.1790 
 20 H        0.4810     2.4630     2.5520 H     1 <1>   0.0800 
 21 H        0.8370     4.1080     2.1290 H     1 <1>   0.0800 
 22 H       -1.3240     4.9940     0.5400 H     1 <1>   0.0800 
 23 H       -1.2320     4.0600    -0.9240 H     1 <1>   0.0800 
 24 H       -3.4230     3.4030     1.0380 H     1 <1>   0.1500 
 25 H       -1.7510     0.4340    -1.4950 H     1 <1>   0.1500 
 26 H        1.7620     1.7210     0.5030 H     1 <1>   0.0800 
 27 H        2.6970     2.3890     1.7950 H     1 <1>   0.0800 
 28 H        0.9420     5.6700     0.3600 H     1 <1>   0.0800 
 29 H        0.2830     5.7750    -1.2270 H     1 <1>   0.0800 
 30 H       -3.8130     0.4140    -2.8400 H     1 <1>   0.1500 
 31 H        3.4690     3.1820    -0.3880 H     1 <1>   0.0800 
 32 H        3.0010     4.4830     0.6550 H     1 <1>   0.0800 
 33 H        2.2810     4.7630    -1.6990 H     1 <1>   0.0800 
 34 H        1.2680     3.3590    -1.5730 H     1 <1>   0.0800 
 35 H       -5.5040     4.5770    -0.0250 H     1 <1>   0.3700 
 36 H       -5.6750     1.9040    -2.2470 H     1 <1>   0.1500 
 37 H       -6.8370     1.2280     0.4420 H     1 <1>   0.0800 
 38 H       -7.7730     1.6250    -0.9890 H     1 <1>   0.0800 
 39 H       -8.4640     1.8400     0.5990 H     1 <1>   0.0800 
@<TRIPOS>BOND
  1   1   2  2   
  2   2   3  am  
  3   2   4  1   
  4   3   5  1   
  5   3   6  1   
  6   4   7  ar  
  7   4   8  ar  
  8   5   9  1   
  9   5  20  1   
 10   5  21  1   
 11   6  10  1   
 12   6  22  1   
 13   6  23  1   
 14   7  11  ar  
 15   7  24  1   
 16   8  12  ar  
 17   8  25  1   
 18   9  13  1   
 19   9  26  1   
 20   9  27  1   
 21  10  14  1   
 22  10  28  1   
 23  10  29  1   
 24  11  15  1   
 25  11  16  ar  
 26  12  16  ar  
 27  12  30  1   
 28  13  14  1   
 29  13  31  1   
 30  13  32  1   
 31  14  33  1   
 32  14  34  1   
 33  15  17  am  
 34  15  35  1   
 35  16  36  1   
 36  17  18  2   
 37  17  19  1   
 38  19  37  1   
 39  19  38  1   
 40  19  39  1   
@<TRIPOS>SUBSTRUCTURE
  1 ****   4 GROUP 4 **** **** 0

# MOE 2024.06 (io_trps.svl 2023.06)
