@<TRIPOS>MOLECULE
NONAME
36 36 1 0 0 
SMALL
USER_CHARGES


@<TRIPOS>ATOM
  1 O        0.4760    -0.5900     0.4140 O.2   1 <1>  -0.5700 
  2 C        1.2670    -1.3100    -0.1420 C.2   1 <1>   0.5690 
  3 N        1.0120    -2.6070    -0.4920 N.am  1 <1>  -0.5470 
  4 C        2.6410    -0.7570    -0.4720 C.3   1 <1>  -0.0990 
  5 C       -0.1410    -3.3980    -0.3370 C.ar  1 <1>   0.1170 
  6 C        3.7130    -1.2430     0.5210 C.3   1 <1>  -0.1600 
  7 C       -1.4120    -2.8610    -0.1710 C.ar  1 <1>  -0.1500 
  8 C       -0.0050    -4.7800    -0.3700 C.ar  1 <1>  -0.1500 
  9 C        5.1330    -0.7880     0.1490 C.3   1 <1>  -0.1600 
 10 C       -2.5270    -3.6800    -0.0260 C.ar  1 <1>   0.0830 
 11 C       -1.1040    -5.6090    -0.2350 C.ar  1 <1>  -0.1500 
 12 C        5.3120     0.7330     0.2190 C.3   1 <1>  -0.2400 
 13 O       -3.7840    -3.1760     0.1520 O.3   1 <1>  -0.3630 
 14 C       -2.3740    -5.0680    -0.0610 C.ar  1 <1>   0.0830 
 15 C       -3.9950    -1.8050     0.4070 C.3   1 <1>   0.0400 
 16 O       -3.4910    -5.8440     0.0800 O.3   1 <1>  -0.3620 
 17 C       -3.4160    -7.2520     0.0860 C.3   1 <1>   0.0400 
 18 H        1.8070    -3.0980    -0.8930 H     1 <1>   0.3700 
 19 H        2.5800     0.3160    -0.4460 H     1 <1>   0.0800 
 20 H        2.9030    -1.0470    -1.4730 H     1 <1>   0.0800 
 21 H        3.7000    -2.3180     0.5580 H     1 <1>   0.0800 
 22 H        3.4680    -0.8850     1.5070 H     1 <1>   0.0800 
 23 H       -1.5180    -1.7960    -0.1630 H     1 <1>   0.1500 
 24 H        0.9680    -5.2160    -0.4990 H     1 <1>   0.1500 
 25 H        5.3810    -1.1340    -0.8400 H     1 <1>   0.0800 
 26 H        5.8270    -1.2450     0.8340 H     1 <1>   0.0800 
 27 H       -0.9490    -6.6700    -0.2660 H     1 <1>   0.1500 
 28 H        4.7180     1.2280    -0.5280 H     1 <1>   0.0800 
 29 H        6.3440     0.9860     0.0480 H     1 <1>   0.0800 
 30 H        5.0300     1.1010     1.1900 H     1 <1>   0.0800 
 31 H       -5.0410    -1.6620     0.6100 H     1 <1>   0.0800 
 32 H       -3.7100    -1.2400    -0.4620 H     1 <1>   0.0800 
 33 H       -3.4130    -1.5150     1.2640 H     1 <1>   0.0800 
 34 H       -4.4110    -7.6360     0.2220 H     1 <1>   0.0800 
 35 H       -2.7900    -7.5640     0.9030 H     1 <1>   0.0800 
 36 H       -3.0220    -7.5850    -0.8570 H     1 <1>   0.0800 
@<TRIPOS>BOND
  1   1   2  2   
  2   2   3  am  
  3   2   4  1   
  4   3   5  1   
  5   3  18  1   
  6   4   6  1   
  7   4  19  1   
  8   4  20  1   
  9   5   7  ar  
 10   5   8  ar  
 11   6   9  1   
 12   6  21  1   
 13   6  22  1   
 14   7  10  ar  
 15   7  23  1   
 16   8  11  ar  
 17   8  24  1   
 18   9  12  1   
 19   9  25  1   
 20   9  26  1   
 21  10  13  1   
 22  10  14  ar  
 23  11  14  ar  
 24  11  27  1   
 25  12  28  1   
 26  12  29  1   
 27  12  30  1   
 28  13  15  1   
 29  14  16  1   
 30  15  31  1   
 31  15  32  1   
 32  15  33  1   
 33  16  17  1   
 34  17  34  1   
 35  17  35  1   
 36  17  36  1   
@<TRIPOS>SUBSTRUCTURE
  1 ****   5 GROUP 4 **** **** 0

# MOE 2024.06 (io_trps.svl 2023.06)
