@<TRIPOS>MOLECULE
NONAME
45 47 1 0 0 
SMALL
USER_CHARGES


@<TRIPOS>ATOM
  1 O       -0.7870     0.0220    -2.0700 O.2   1 <1>  -0.5700 
  2 C       -1.4850     0.7850    -1.4440 C.2   1 <1>   0.5690 
  3 N       -1.1360     1.9860    -0.9110 N.am  1 <1>  -0.2980 
  4 C       -2.9280     0.5420    -1.1070 C.3   1 <1>   0.0420 
  5 N       -2.1850     2.6200    -0.3060 N.2   1 <1>  -0.5120 
  6 C        0.2210     2.5820    -1.0060 C.3   1 <1>   0.2200 
  7 C       -3.2230     1.8770    -0.4130 C.2   1 <1>   0.3030 
  8 C       -3.0310    -0.6870    -0.1880 C.3   1 <1>   0.0400 
  9 C        0.7590     2.9210     0.3870 C.3   1 <1>  -0.1600 
 10 C        0.2080     3.8310    -1.9010 C.3   1 <1>  -0.1600 
 11 C       -4.5450     2.2350     0.0450 C.ar  1 <1>   0.0860 
 12 C       -4.4390    -1.0730     0.1150 C.1   1 <1>  -0.2000 
 13 C        2.1760     3.5250     0.2850 C.3   1 <1>   0.2800 
 14 C        1.2360     4.8740    -1.4440 C.3   1 <1>   0.1200 
 15 C       -4.7040     3.0650     1.1570 C.ar  1 <1>  -0.1500 
 16 C       -5.7100     1.8020    -0.5940 C.ar  1 <1>  -0.1500 
 17 C       -5.5540    -1.3950     0.3700 C.1   1 <1>  -0.1770 
 18 O        2.3500     4.2210    -0.9160 O.3   1 <1>  -0.5600 
 19 C        3.2360     2.4240     0.2670 C.3   1 <1>  -0.2400 
 20 C        2.4600     4.4950     1.4340 C.3   1 <1>  -0.2400 
 21 C       -5.9540     3.4330     1.6180 C.ar  1 <1>  -0.1500 
 22 C       -6.9640     2.1650    -0.1390 C.ar  1 <1>  -0.1500 
 23 C       -7.0900     2.9810     0.9700 C.ar  1 <1>  -0.1500 
 24 H       -3.4910     0.4230    -2.0120 H     1 <1>   0.0800 
 25 H        0.8830     1.8570    -1.4500 H     1 <1>   0.0800 
 26 H       -2.5120    -0.4950     0.7350 H     1 <1>   0.0800 
 27 H       -2.5530    -1.5250    -0.6640 H     1 <1>   0.0800 
 28 H        0.7740     2.0420     1.0040 H     1 <1>   0.0800 
 29 H        0.0980     3.6310     0.8520 H     1 <1>   0.0800 
 30 H       -0.7610     4.2960    -1.8960 H     1 <1>   0.0800 
 31 H        0.4290     3.5380    -2.9110 H     1 <1>   0.0800 
 32 H        0.8250     5.5180    -0.6860 H     1 <1>   0.0800 
 33 H        1.5630     5.4760    -2.2740 H     1 <1>   0.0800 
 34 H       -3.8270     3.4270     1.6660 H     1 <1>   0.1500 
 35 H       -5.6430     1.1710    -1.4620 H     1 <1>   0.1500 
 36 H       -6.5630    -1.6830     0.6090 H     1 <1>   0.1770 
 37 H        3.0710     1.7560    -0.5590 H     1 <1>   0.0800 
 38 H        3.2020     1.8550     1.1780 H     1 <1>   0.0800 
 39 H        4.2160     2.8560     0.1720 H     1 <1>   0.0800 
 40 H        1.7410     5.2940     1.4460 H     1 <1>   0.0800 
 41 H        3.4450     4.9130     1.3300 H     1 <1>   0.0800 
 42 H        2.4050     3.9780     2.3740 H     1 <1>   0.0800 
 43 H       -6.0460     4.0720     2.4800 H     1 <1>   0.1500 
 44 H       -7.8460     1.8150    -0.6480 H     1 <1>   0.1500 
 45 H       -8.0650     3.2650     1.3270 H     1 <1>   0.1500 
@<TRIPOS>BOND
  1   1   2  2   
  2   2   3  am  
  3   2   4  1   
  4   3   5  1   
  5   3   6  1   
  6   4   7  1   
  7   4   8  1   
  8   4  24  1   
  9   5   7  2   
 10   6   9  1   
 11   6  10  1   
 12   6  25  1   
 13   7  11  1   
 14   8  12  1   
 15   8  26  1   
 16   8  27  1   
 17   9  13  1   
 18   9  28  1   
 19   9  29  1   
 20  10  14  1   
 21  10  30  1   
 22  10  31  1   
 23  11  15  ar  
 24  11  16  ar  
 25  12  17  3   
 26  13  18  1   
 27  13  19  1   
 28  13  20  1   
 29  14  18  1   
 30  14  32  1   
 31  14  33  1   
 32  15  21  ar  
 33  15  34  1   
 34  16  22  ar  
 35  16  35  1   
 36  17  36  1   
 37  19  37  1   
 38  19  38  1   
 39  19  39  1   
 40  20  40  1   
 41  20  41  1   
 42  20  42  1   
 43  21  23  ar  
 44  21  43  1   
 45  22  23  ar  
 46  22  44  1   
 47  23  45  1   
@<TRIPOS>SUBSTRUCTURE
  1 ****   5 GROUP 4 **** **** 0

# MOE 2024.06 (io_trps.svl 2023.06)
