@<TRIPOS>MOLECULE
NONAME
51 53 1 0 0 
SMALL
USER_CHARGES


@<TRIPOS>ATOM
  1 O        0.8680    -0.6230     0.2440 O.2   1 <1>  -0.5700 
  2 C        1.1900    -1.7300    -0.1540 C.2   1 <1>   0.6900 
  3 N        0.2240    -2.6240    -0.5460 N.am  1 <1>  -0.6600 
  4 N        2.5200    -2.0570    -0.2040 N.am  1 <1>  -0.6600 
  5 C       -1.0820    -2.1210    -1.0500 C.3   1 <1>   0.1400 
  6 C        0.3580    -4.0870    -0.3140 C.3   1 <1>   0.1400 
  7 C        3.1270    -2.7360    -1.3860 C.3   1 <1>   0.1400 
  8 C        3.5130    -1.3150     0.6230 C.3   1 <1>   0.1400 
  9 C       -2.1040    -2.0450     0.0880 C.3   1 <1>  -0.1600 
 10 C       -0.6580    -4.6210     0.7040 C.3   1 <1>  -0.1600 
 11 C        4.2510    -3.6820    -0.9400 C.3   1 <1>   0.1400 
 12 C        4.6620    -2.2380     1.0610 C.3   1 <1>   0.1400 
 13 C       -2.8770    -3.3480     0.3590 C.3   1 <1>  -0.1600 
 14 C       -2.0960    -4.6570     0.1650 C.3   1 <1>  -0.1600 
 15 N        5.2580    -2.9530    -0.1110 N.am  1 <1>  -0.6600 
 16 C        6.4420    -2.5390    -0.6660 C.2   1 <1>   0.6900 
 17 O        6.5690    -2.5240    -1.8780 O.2   1 <1>  -0.5700 
 18 N        7.4840    -2.1440     0.1310 N.am  1 <1>  -0.6600 
 19 C        8.5980    -1.3200    -0.4190 C.3   1 <1>   0.1400 
 20 C        7.8790    -2.9320     1.3350 C.3   1 <1>   0.1400 
 21 C        9.8710    -2.1670    -0.5770 C.3   1 <1>   0.1200 
 22 C        9.1990    -3.6800     1.0830 C.3   1 <1>   0.1200 
 23 O       10.1900    -2.8000     0.6320 O.3   1 <1>  -0.5600 
 24 H       -1.4400    -2.7450    -1.8500 H     1 <1>   0.0800 
 25 H       -0.9350    -1.1310    -1.4480 H     1 <1>   0.0800 
 26 H        1.3420    -4.2990     0.0660 H     1 <1>   0.0800 
 27 H        0.2500    -4.6040    -1.2510 H     1 <1>   0.0800 
 28 H        3.5400    -1.9920    -2.0450 H     1 <1>   0.0800 
 29 H        2.3820    -3.2820    -1.9340 H     1 <1>   0.0800 
 30 H        3.0300    -0.9080     1.4950 H     1 <1>   0.0800 
 31 H        3.9090    -0.4960     0.0490 H     1 <1>   0.0800 
 32 H       -2.8200    -1.2790    -0.1510 H     1 <1>   0.0800 
 33 H       -1.5990    -1.7260     0.9840 H     1 <1>   0.0800 
 34 H       -0.5990    -4.0560     1.6180 H     1 <1>   0.0800 
 35 H       -0.3700    -5.6310     0.9370 H     1 <1>   0.0800 
 36 H        4.7230    -4.1120    -1.8070 H     1 <1>   0.0800 
 37 H        3.8330    -4.4860    -0.3620 H     1 <1>   0.0800 
 38 H        4.2880    -2.9620     1.7620 H     1 <1>   0.0800 
 39 H        5.4080    -1.6460     1.5600 H     1 <1>   0.0800 
 40 H       -3.7390    -3.3790    -0.2860 H     1 <1>   0.0800 
 41 H       -3.2440    -3.3090     1.3700 H     1 <1>   0.0800 
 42 H       -2.6350    -5.4380     0.6730 H     1 <1>   0.0800 
 43 H       -2.0810    -4.9170    -0.8790 H     1 <1>   0.0800 
 44 H        8.7980    -0.5020     0.2500 H     1 <1>   0.0800 
 45 H        8.3220    -0.9040    -1.3730 H     1 <1>   0.0800 
 46 H        7.1140    -3.6460     1.5820 H     1 <1>   0.0800 
 47 H        8.0000    -2.2660     2.1700 H     1 <1>   0.0800 
 48 H       10.7020    -1.5440    -0.8520 H     1 <1>   0.0800 
 49 H        9.7310    -2.9170    -1.3370 H     1 <1>   0.0800 
 50 H        9.0610    -4.4510     0.3440 H     1 <1>   0.0800 
 51 H        9.5510    -4.1320     1.9930 H     1 <1>   0.0800 
@<TRIPOS>BOND
  1   1   2  2   
  2   2   3  am  
  3   2   4  am  
  4   3   5  1   
  5   3   6  1   
  6   4   7  1   
  7   4   8  1   
  8   5   9  1   
  9   5  24  1   
 10   5  25  1   
 11   6  10  1   
 12   6  26  1   
 13   6  27  1   
 14   7  11  1   
 15   7  28  1   
 16   7  29  1   
 17   8  12  1   
 18   8  30  1   
 19   8  31  1   
 20   9  13  1   
 21   9  32  1   
 22   9  33  1   
 23  10  14  1   
 24  10  34  1   
 25  10  35  1   
 26  11  15  1   
 27  11  36  1   
 28  11  37  1   
 29  12  15  1   
 30  12  38  1   
 31  12  39  1   
 32  13  14  1   
 33  13  40  1   
 34  13  41  1   
 35  14  42  1   
 36  14  43  1   
 37  15  16  am  
 38  16  17  2   
 39  16  18  am  
 40  18  19  1   
 41  18  20  1   
 42  19  21  1   
 43  19  44  1   
 44  19  45  1   
 45  20  22  1   
 46  20  46  1   
 47  20  47  1   
 48  21  23  1   
 49  21  48  1   
 50  21  49  1   
 51  22  23  1   
 52  22  50  1   
 53  22  51  1   
@<TRIPOS>SUBSTRUCTURE
  1 ****   4 GROUP 4 **** **** 0

# MOE 2024.06 (io_trps.svl 2023.06)
