@<TRIPOS>MOLECULE
NONAME
40 43 1 0 0 
SMALL
USER_CHARGES


@<TRIPOS>ATOM
  1 S        0.0470    -0.2660    -0.9590 S.3   1 <1>  -0.0800 
  2 C        0.9440    -1.6900    -0.4870 C.2   1 <1>  -0.1400 
  3 C        1.4180     0.7500    -0.5820 C.2   1 <1>  -0.1100 
  4 C        2.1930    -1.3820    -0.1020 C.2   1 <1>  -0.1810 
  5 C        0.2800    -3.0490    -0.5270 C.3   1 <1>   0.0200 
  6 C        2.4900     0.0350    -0.1580 C.2   1 <1>  -0.0860 
  7 C        3.1410    -2.4730     0.3920 C.3   1 <1>   0.0210 
  8 C        1.1110    -4.0430     0.3090 C.3   1 <1>  -0.0800 
  9 C        3.7640     0.6210     0.1910 C.2   1 <1>   0.7160 
 10 C        2.6200    -3.8800     0.0330 C.3   1 <1>  -0.1600 
 11 C        0.6620    -5.4850     0.0430 C.3   1 <1>  -0.2400 
 12 O        3.8220     1.5720     0.9440 O.2   1 <1>  -0.5700 
 13 N        4.8910     0.0960    -0.3810 N.am  1 <1>  -0.5470 
 14 C        6.2600     0.2740    -0.1400 C.ar  1 <1>   0.1170 
 15 C        7.1260    -0.7120    -0.5900 C.ar  1 <1>  -0.1500 
 16 C        6.7970     1.3760     0.5170 C.ar  1 <1>  -0.1500 
 17 C        8.5060    -0.6470    -0.4020 C.ar  1 <1>   0.0410 
 18 C        8.1610     1.4740     0.7180 C.ar  1 <1>  -0.1500 
 19 C        9.3770    -1.7060    -0.8780 C.2   1 <1>   0.6960 
 20 C        9.0020     0.4750     0.2650 C.ar  1 <1>  -0.1500 
 21 N        8.9590    -2.7820    -1.4740 N.2   1 <1>  -0.6190 
 22 N       10.6740    -1.7100    -0.7640 N.2   1 <1>  -0.6190 
 23 N       10.0080    -3.4720    -1.7400 N.2   1 <1>  -0.2500 
 24 N       11.0510    -2.8210    -1.3080 N.2   1 <1>  -0.2500 
 25 H        1.3000     1.8100    -0.7170 H     1 <1>   0.1500 
 26 H        0.2190    -3.3720    -1.5510 H     1 <1>   0.0800 
 27 H       -0.7160    -2.9810    -0.1290 H     1 <1>   0.0800 
 28 H        3.2340    -2.3850     1.4600 H     1 <1>   0.0800 
 29 H        4.1200    -2.3630    -0.0360 H     1 <1>   0.0800 
 30 H        0.9390    -3.8230     1.3500 H     1 <1>   0.0800 
 31 H        3.1780    -4.6100     0.5930 H     1 <1>   0.0800 
 32 H        2.8040    -4.0590    -1.0130 H     1 <1>   0.0800 
 33 H        0.8310    -5.7530    -0.9850 H     1 <1>   0.0800 
 34 H       -0.3860    -5.5960     0.2600 H     1 <1>   0.0800 
 35 H        1.2100    -6.1680     0.6690 H     1 <1>   0.0800 
 36 H        4.6780    -0.6340    -1.0580 H     1 <1>   0.3700 
 37 H        6.7300    -1.5690    -1.1040 H     1 <1>   0.1500 
 38 H        6.1570     2.1620     0.8720 H     1 <1>   0.1500 
 39 H        8.5690     2.3290     1.2280 H     1 <1>   0.1500 
 40 H       10.0650     0.5520     0.4230 H     1 <1>   0.1500 
@<TRIPOS>BOND
  1   1   2  1   
  2   1   3  1   
  3   2   4  2   
  4   2   5  1   
  5   3   6  2   
  6   3  25  1   
  7   4   6  1   
  8   4   7  1   
  9   5   8  1   
 10   5  26  1   
 11   5  27  1   
 12   6   9  1   
 13   7  10  1   
 14   7  28  1   
 15   7  29  1   
 16   8  10  1   
 17   8  11  1   
 18   8  30  1   
 19   9  12  2   
 20   9  13  am  
 21  10  31  1   
 22  10  32  1   
 23  11  33  1   
 24  11  34  1   
 25  11  35  1   
 26  13  14  1   
 27  13  36  1   
 28  14  15  ar  
 29  14  16  ar  
 30  15  17  ar  
 31  15  37  1   
 32  16  18  ar  
 33  16  38  1   
 34  17  19  1   
 35  17  20  ar  
 36  18  20  ar  
 37  18  39  1   
 38  19  21  1   
 39  19  22  2   
 40  20  40  1   
 41  21  23  1   
 42  22  24  1   
 43  23  24  2   
@<TRIPOS>SUBSTRUCTURE
  1 ****  13 GROUP 4 **** **** 0

# MOE 2024.06 (io_trps.svl 2023.06)
