@<TRIPOS>MOLECULE
NONAME
40 41 1 0 0 
SMALL
USER_CHARGES


@<TRIPOS>ATOM
  1 S       -0.6970    -0.3520     0.0260 S.3   1 <1>  -0.3320 
  2 C        0.9680    -0.9820     0.0220 C.ar  1 <1>   0.7220 
  3 C       -1.7120    -1.7600    -0.6460 C.3   1 <1>   0.1310 
  4 N        1.8790    -0.1330     0.4560 N.ar  1 <1>  -0.6200 
  5 N        1.1160    -2.2210    -0.4080 N.ar  1 <1>  -0.6200 
  6 C       -3.1870    -1.4030    -0.7020 C.2   1 <1>   0.5690 
  7 C        3.1290    -0.5840     0.4620 C.ar  1 <1>   0.1660 
  8 C        2.3510    -2.6590    -0.4000 C.ar  1 <1>   0.1660 
  9 O       -3.8920    -2.0290    -1.4540 O.2   1 <1>  -0.5700 
 10 N       -3.6480    -0.3950     0.0980 N.am  1 <1>  -0.5470 
 11 C        3.3970    -1.8720     0.0280 C.ar  1 <1>  -0.1500 
 12 C        4.2800     0.3380     0.9540 C.3   1 <1>   1.1640 
 13 C        2.5790    -4.0750    -0.8860 C.3   1 <1>  -0.0960 
 14 C       -4.9280     0.1770     0.1590 C.ar  1 <1>   0.1170 
 15 F        5.4670    -0.2630     0.9360 F     1 <1>  -0.3400 
 16 F        4.4190     1.4300     0.2080 F     1 <1>  -0.3400 
 17 F        4.1080     0.7560     2.2040 F     1 <1>  -0.3400 
 18 C       -6.0430    -0.5550     0.5820 C.ar  1 <1>  -0.1440 
 19 C       -5.0820     1.5220    -0.1860 C.ar  1 <1>  -0.1430 
 20 C       -7.2840     0.0560     0.6400 C.ar  1 <1>  -0.1500 
 21 C       -5.9400    -2.0180     0.9930 C.3   1 <1>  -0.0970 
 22 C       -6.3310     2.1160    -0.1160 C.ar  1 <1>  -0.1500 
 23 C       -3.8950     2.3570    -0.6530 C.3   1 <1>  -0.0970 
 24 C       -7.4310     1.3860     0.2940 C.ar  1 <1>  -0.1500 
 25 H       -1.5580    -2.6060    -0.0040 H     1 <1>   0.0800 
 26 H       -1.3450    -1.9770    -1.6330 H     1 <1>   0.0800 
 27 H       -2.9190     0.1400     0.5710 H     1 <1>   0.3700 
 28 H        4.3980    -2.2650     0.0200 H     1 <1>   0.1500 
 29 H        2.2420    -4.1670    -1.9030 H     1 <1>   0.0800 
 30 H        2.0200    -4.7610    -0.2750 H     1 <1>   0.0800 
 31 H        3.6190    -4.3410    -0.8410 H     1 <1>   0.0800 
 32 H       -8.1480    -0.5000     0.9570 H     1 <1>   0.1500 
 33 H       -5.9110    -2.6390     0.1160 H     1 <1>   0.0800 
 34 H       -6.7850    -2.3100     1.5890 H     1 <1>   0.0800 
 35 H       -5.0490    -2.1870     1.5700 H     1 <1>   0.0800 
 36 H       -6.4600     3.1500    -0.3820 H     1 <1>   0.1500 
 37 H       -3.4300     1.8890    -1.5020 H     1 <1>   0.0800 
 38 H       -3.1720     2.4470     0.1380 H     1 <1>   0.0800 
 39 H       -4.2060     3.3440    -0.9430 H     1 <1>   0.0800 
 40 H       -8.3990     1.8520     0.3440 H     1 <1>   0.1500 
@<TRIPOS>BOND
  1   1   2  1   
  2   1   3  1   
  3   2   4  ar  
  4   2   5  ar  
  5   3   6  1   
  6   3  25  1   
  7   3  26  1   
  8   4   7  ar  
  9   5   8  ar  
 10   6   9  2   
 11   6  10  am  
 12   7  11  ar  
 13   7  12  1   
 14   8  11  ar  
 15   8  13  1   
 16  10  14  1   
 17  10  27  1   
 18  11  28  1   
 19  12  15  1   
 20  12  16  1   
 21  12  17  1   
 22  13  29  1   
 23  13  30  1   
 24  13  31  1   
 25  14  18  ar  
 26  14  19  ar  
 27  18  20  ar  
 28  18  21  1   
 29  19  22  ar  
 30  19  23  1   
 31  20  24  ar  
 32  20  32  1   
 33  21  33  1   
 34  21  34  1   
 35  21  35  1   
 36  22  24  ar  
 37  22  36  1   
 38  23  37  1   
 39  23  38  1   
 40  23  39  1   
 41  24  40  1   
@<TRIPOS>SUBSTRUCTURE
  1 ****   1 GROUP 4 **** **** 0

# MOE 2024.06 (io_trps.svl 2023.06)
