@<TRIPOS>MOLECULE
NONAME
39 39 1 0 0 
SMALL
USER_CHARGES


@<TRIPOS>ATOM
  1 S       -0.0640    -0.1990    -0.5920 S.o2  1 <1>   1.4470 
  2 O       -0.5360    -1.1980     0.3390 O.2   1 <1>  -0.6500 
  3 O       -0.3550    -0.3290    -2.0010 O.2   1 <1>  -0.6500 
  4 N       -0.7650     1.2690    -0.1860 N.am  1 <1>  -0.9140 
  5 C        1.7080     0.0960    -0.3460 C.ar  1 <1>  -0.0090 
  6 C       -2.1670     1.1750     0.1220 C.3   1 <1>   0.2760 
  7 C        2.6410    -0.2550    -1.3150 C.ar  1 <1>  -0.1500 
  8 C        2.1860     0.6690     0.8270 C.ar  1 <1>  -0.1500 
  9 C       -2.8400     2.4130    -0.4580 C.3   1 <1>  -0.2400 
 10 C       -2.3320     1.1400     1.6380 C.3   1 <1>  -0.2400 
 11 C        3.9940    -0.0360    -1.1250 C.ar  1 <1>  -0.1500 
 12 C        3.5380     0.8910     1.0210 C.ar  1 <1>  -0.1500 
 13 C        4.4660     0.5450     0.0450 C.ar  1 <1>   0.1170 
 14 N        5.8470     0.7390     0.1930 N.am  1 <1>  -0.5470 
 15 C        6.5540     1.5810     1.0070 C.2   1 <1>   0.5690 
 16 O        6.0480     2.3660     1.7680 O.2   1 <1>  -0.5700 
 17 C        8.0680     1.5210     0.9270 C.3   1 <1>  -0.0990 
 18 C        8.6120     2.1870    -0.3480 C.3   1 <1>  -0.1600 
 19 C       10.1410     2.1160    -0.4030 C.3   1 <1>  -0.2400 
 20 H       -0.7100     1.7850    -1.0600 H     1 <1>   0.4200 
 21 H       -2.6040     0.2930    -0.3240 H     1 <1>   0.0800 
 22 H        2.3010    -0.7060    -2.2330 H     1 <1>   0.1500 
 23 H        1.4880     0.9470     1.5990 H     1 <1>   0.1500 
 24 H       -2.4110     3.3090    -0.0440 H     1 <1>   0.0800 
 25 H       -3.8890     2.3990    -0.2230 H     1 <1>   0.0800 
 26 H       -2.7410     2.4270    -1.5290 H     1 <1>   0.0800 
 27 H       -1.8910     2.0120     2.0870 H     1 <1>   0.0800 
 28 H       -1.8670     0.2610     2.0470 H     1 <1>   0.0800 
 29 H       -3.3750     1.1120     1.8930 H     1 <1>   0.0800 
 30 H        4.6860    -0.3160    -1.8980 H     1 <1>   0.1500 
 31 H        3.8660     1.3330     1.9440 H     1 <1>   0.1500 
 32 H        6.4230     0.1940    -0.4440 H     1 <1>   0.3700 
 33 H        8.3800     0.4940     0.9710 H     1 <1>   0.0800 
 34 H        8.4720     2.0220     1.7900 H     1 <1>   0.0800 
 35 H        8.3040     3.2190    -0.3660 H     1 <1>   0.0800 
 36 H        8.2040     1.7040    -1.2190 H     1 <1>   0.0800 
 37 H       10.5720     2.6200     0.4460 H     1 <1>   0.0800 
 38 H       10.4990     2.5940    -1.2980 H     1 <1>   0.0800 
 39 H       10.4750     1.0930    -0.4050 H     1 <1>   0.0800 
@<TRIPOS>BOND
  1   1   2  2   
  2   1   3  2   
  3   1   4  am  
  4   1   5  1   
  5   4   6  1   
  6   4  20  1   
  7   5   7  ar  
  8   5   8  ar  
  9   6   9  1   
 10   6  10  1   
 11   6  21  1   
 12   7  11  ar  
 13   7  22  1   
 14   8  12  ar  
 15   8  23  1   
 16   9  24  1   
 17   9  25  1   
 18   9  26  1   
 19  10  27  1   
 20  10  28  1   
 21  10  29  1   
 22  11  13  ar  
 23  11  30  1   
 24  12  13  ar  
 25  12  31  1   
 26  13  14  1   
 27  14  15  am  
 28  14  32  1   
 29  15  16  2   
 30  15  17  1   
 31  17  18  1   
 32  17  33  1   
 33  17  34  1   
 34  18  19  1   
 35  18  35  1   
 36  18  36  1   
 37  19  37  1   
 38  19  38  1   
 39  19  39  1   
@<TRIPOS>SUBSTRUCTURE
  1 ****   8 GROUP 4 **** **** 0

# MOE 2024.06 (io_trps.svl 2023.06)
