@<TRIPOS>MOLECULE
NONAME
30 32 1 0 0 
SMALL
USER_CHARGES


@<TRIPOS>ATOM
  1 S       -1.9110     0.6640    -1.4290 S.3   1 <1>  -0.0800 
  2 C       -0.8890     1.4410    -0.2110 C.2   1 <1>   0.4620 
  3 C       -1.8870    -0.8120    -0.4930 C.ar  1 <1>   0.0400 
  4 N       -0.5800     0.6830     0.7780 N.2   1 <1>  -0.5650 
  5 N       -0.5260     2.7650    -0.3980 N.pl3 1 <1>  -0.4110 
  6 C       -1.1240    -0.5850     0.6370 C.ar  1 <1>   0.2270 
  7 C       -2.4980    -2.0190    -0.7760 C.ar  1 <1>  -0.1500 
  8 N       -1.1150     3.6380    -1.2840 N.2   1 <1>  -0.4920 
  9 C        0.4600     3.4590     0.4830 C.3   1 <1>   0.6490 
 10 C       -0.9630    -1.6320     1.5340 C.ar  1 <1>  -0.1500 
 11 C       -2.3270    -3.0510     0.1320 C.ar  1 <1>  -0.1500 
 12 C       -0.6940     4.8020    -1.0760 C.2   1 <1>   0.3280 
 13 O       -0.0670     3.3660     1.7730 O.3   1 <1>  -0.6800 
 14 C        1.9580     2.9430     0.3580 C.3   1 <1>   1.0200 
 15 C        0.3170     4.9240     0.0330 C.3   1 <1>  -0.0990 
 16 C       -1.5620    -2.8560     1.2800 C.ar  1 <1>  -0.1500 
 17 C       -1.1130     6.0400    -1.8360 C.3   1 <1>  -0.1790 
 18 F        2.1680     1.7190     0.8350 F     1 <1>  -0.3400 
 19 F        2.8160     3.7270     1.0110 F     1 <1>  -0.3400 
 20 F        2.3950     2.9220    -0.9010 F     1 <1>  -0.3400 
 21 H       -3.0830    -2.1420    -1.6710 H     1 <1>   0.1500 
 22 H       -0.3710    -1.4750     2.4170 H     1 <1>   0.1500 
 23 H       -2.7860    -4.0080    -0.0500 H     1 <1>   0.1500 
 24 H       -0.3580     2.4320     1.8830 H     1 <1>   0.4000 
 25 H        1.2350     5.3210    -0.3570 H     1 <1>   0.0800 
 26 H       -0.0480     5.5550     0.8230 H     1 <1>   0.0800 
 27 H       -1.4360    -3.6670     1.9770 H     1 <1>   0.1500 
 28 H       -0.2610     6.4840    -2.3170 H     1 <1>   0.0800 
 29 H       -1.5560     6.7510    -1.1640 H     1 <1>   0.0800 
 30 H       -1.8370     5.7760    -2.5870 H     1 <1>   0.0800 
@<TRIPOS>BOND
  1   1   2  1   
  2   1   3  1   
  3   2   4  2   
  4   2   5  1   
  5   3   6  ar  
  6   3   7  ar  
  7   4   6  1   
  8   5   8  1   
  9   5   9  1   
 10   6  10  ar  
 11   7  11  ar  
 12   7  21  1   
 13   8  12  2   
 14   9  13  1   
 15   9  14  1   
 16   9  15  1   
 17  10  16  ar  
 18  10  22  1   
 19  11  16  ar  
 20  11  23  1   
 21  12  15  1   
 22  12  17  1   
 23  13  24  1   
 24  14  18  1   
 25  14  19  1   
 26  14  20  1   
 27  15  25  1   
 28  15  26  1   
 29  16  27  1   
 30  17  28  1   
 31  17  29  1   
 32  17  30  1   
@<TRIPOS>SUBSTRUCTURE
  1 ****   2 GROUP 4 **** **** 0

# MOE 2024.06 (io_trps.svl 2023.06)
