@<TRIPOS>MOLECULE
NONAME
34 37 1 0 0 
SMALL
USER_CHARGES


@<TRIPOS>ATOM
  1 O        0.5280     0.3980    -0.0370 O.2   1 <1>  -0.5700 
  2 C        0.6920     1.5900    -0.0030 C.2   1 <1>   0.5690 
  3 N        1.8540     2.3160    -0.2190 N.am  1 <1>  -0.2370 
  4 C       -0.3730     2.5740     0.3470 C.3   1 <1>  -0.0190 
  5 C        3.1580     1.7830    -0.2970 C.ar  1 <1>   0.1170 
  6 C        1.5130     3.6580    -0.3380 C.2   1 <1>   0.5690 
  7 C       -1.8820     2.7650     0.4210 C.3   1 <1>   0.4180 
  8 C        0.0320     3.7240    -0.5660 C.3   1 <1>  -0.0190 
  9 C        3.4190     0.6370    -1.0420 C.ar  1 <1>  -0.1500 
 10 C        4.2210     2.3850     0.3680 C.ar  1 <1>  -0.1500 
 11 O        2.2360     4.6190    -0.3050 O.2   1 <1>  -0.5700 
 12 O       -1.7930     4.1190     0.7730 O.3   1 <1>  -0.5600 
 13 C       -2.5720     2.9600    -0.9220 C.2   1 <1>  -0.2880 
 14 C       -2.6190     1.9160     1.4840 C.3   1 <1>   0.1200 
 15 C       -1.1780     4.6590    -0.3600 C.3   1 <1>   0.3380 
 16 C        4.6970     0.1140    -1.1190 C.ar  1 <1>  -0.1500 
 17 C        5.4990     1.8610     0.2900 C.ar  1 <1>  -0.1500 
 18 C       -2.1890     4.1530    -1.3700 C.2   1 <1>  -0.2880 
 19 O       -3.9850     2.1960     1.5430 O.3   1 <1>  -0.6800 
 20 C        5.7590     0.7170    -0.4550 C.ar  1 <1>   0.0730 
 21 C        7.0850     0.1730    -0.5350 C.1   1 <1>   0.4840 
 22 N        8.1390    -0.2590    -0.6000 N.1   1 <1>  -0.5570 
 23 H       -0.0760     2.8090     1.3600 H     1 <1>   0.0800 
 24 H       -0.0220     3.4190    -1.5990 H     1 <1>   0.0800 
 25 H        2.6170     0.1460    -1.5670 H     1 <1>   0.1500 
 26 H        4.0520     3.2750     0.9510 H     1 <1>   0.1500 
 27 H       -3.2430     2.2130    -1.3100 H     1 <1>   0.1500 
 28 H       -2.5120     0.8730     1.2420 H     1 <1>   0.0800 
 29 H       -2.1940     2.0980     2.4550 H     1 <1>   0.0800 
 30 H       -1.0280     5.7220    -0.2810 H     1 <1>   0.0800 
 31 H        4.8710    -0.7760    -1.7020 H     1 <1>   0.1500 
 32 H        6.3040     2.3500     0.8130 H     1 <1>   0.1500 
 33 H       -2.4380     4.7160    -2.2530 H     1 <1>   0.1500 
 34 H       -4.4090     1.7350     2.2930 H     1 <1>   0.4000 
@<TRIPOS>BOND
  1   1   2  2   
  2   2   3  am  
  3   2   4  1   
  4   3   5  1   
  5   3   6  am  
  6   4   7  1   
  7   4   8  1   
  8   4  23  1   
  9   5   9  ar  
 10   5  10  ar  
 11   6   8  1   
 12   6  11  2   
 13   7  12  1   
 14   7  13  1   
 15   7  14  1   
 16   8  15  1   
 17   8  24  1   
 18   9  16  ar  
 19   9  25  1   
 20  10  17  ar  
 21  10  26  1   
 22  12  15  1   
 23  13  18  2   
 24  13  27  1   
 25  14  19  1   
 26  14  28  1   
 27  14  29  1   
 28  15  18  1   
 29  15  30  1   
 30  16  20  ar  
 31  16  31  1   
 32  17  20  ar  
 33  17  32  1   
 34  18  33  1   
 35  19  34  1   
 36  20  21  1   
 37  21  22  3   
@<TRIPOS>SUBSTRUCTURE
  1 ****   3 GROUP 4 **** **** 0

# MOE 2024.06 (io_trps.svl 2023.06)
