@<TRIPOS>MOLECULE
NONAME
45 47 1 0 0 
SMALL
USER_CHARGES


@<TRIPOS>ATOM
  1 CL       0.1620    -1.4020    -2.6510 Cl    1 <1>  -0.1770 
  2 C        0.0310    -1.9760    -1.0070 C.ar  1 <1>   0.1770 
  3 C        1.1310    -1.8990    -0.1700 C.ar  1 <1>  -0.1440 
  4 C       -1.1800    -2.4860    -0.5700 C.ar  1 <1>  -0.1500 
  5 C        0.9680    -2.3470     1.1290 C.ar  1 <1>   0.1900 
  6 C        2.4620    -1.3590    -0.6460 C.3   1 <1>   0.4860 
  7 C       -1.3100    -2.9310     0.7370 C.ar  1 <1>  -0.1500 
  8 F        1.9830    -2.2710     1.9470 F     1 <1>  -0.1900 
  9 C       -0.2260    -2.8610     1.5990 C.ar  1 <1>  -0.1500 
 10 N        2.6750     0.0070    -0.0910 N.4   1 <1>  -0.9590 
 11 C        1.6790     0.9860    -0.6180 C.3   1 <1>   0.3430 
 12 C        4.0750     0.4620    -0.3070 C.3   1 <1>   0.3430 
 13 C        1.8470     2.3190     0.1060 C.3   1 <1>  -0.1600 
 14 C        4.2980     1.7840     0.4230 C.3   1 <1>  -0.1600 
 15 C        3.2840     2.8650    -0.0020 C.3   1 <1>  -0.0190 
 16 C        3.4510     4.1200     0.8600 C.2   1 <1>   0.5690 
 17 O        3.2280     4.0060     2.0420 O.2   1 <1>  -0.5700 
 18 N        3.8360     5.3160     0.3190 N.am  1 <1>  -0.6600 
 19 C        4.1770     5.6130    -1.0920 C.3   1 <1>   0.1400 
 20 C        3.9580     6.5340     1.1530 C.3   1 <1>   0.1400 
 21 C        4.7420     7.0290    -1.0720 C.3   1 <1>  -0.1600 
 22 C        4.1170     7.6770     0.1590 C.3   1 <1>  -0.1600 
 23 H       -2.0160    -2.5360    -1.2470 H     1 <1>   0.1500 
 24 H        2.4930    -1.3320    -1.7230 H     1 <1>   0.0800 
 25 H        3.2440    -2.0170    -0.3030 H     1 <1>   0.0800 
 26 H       -2.2500    -3.3310     1.0820 H     1 <1>   0.1500 
 27 H       -0.3080    -3.2010     2.6180 H     1 <1>   0.1500 
 28 H        2.5260    -0.0630     0.9270 H     1 <1>   0.4500 
 29 H        0.6760     0.6220    -0.4590 H     1 <1>   0.0800 
 30 H        1.8240     1.1250    -1.6770 H     1 <1>   0.0800 
 31 H        4.2600     0.5950    -1.3610 H     1 <1>   0.0800 
 32 H        4.7670    -0.2740     0.0720 H     1 <1>   0.0800 
 33 H        1.5770     2.1900     1.1410 H     1 <1>   0.0800 
 34 H        1.1630     3.0370    -0.3110 H     1 <1>   0.0800 
 35 H        5.2950     2.1360     0.2230 H     1 <1>   0.0800 
 36 H        4.2300     1.6150     1.4850 H     1 <1>   0.0800 
 37 H        3.4660     3.1080    -1.0320 H     1 <1>   0.0800 
 38 H        3.2800     5.5820    -1.6870 H     1 <1>   0.0800 
 39 H        4.9010     4.9150    -1.4750 H     1 <1>   0.0800 
 40 H        4.8330     6.4480     1.7740 H     1 <1>   0.0800 
 41 H        3.0880     6.6650     1.7750 H     1 <1>   0.0800 
 42 H        4.5170     7.5650    -1.9770 H     1 <1>   0.0800 
 43 H        5.8110     6.9780    -0.9520 H     1 <1>   0.0800 
 44 H        4.7220     8.4720     0.5580 H     1 <1>   0.0800 
 45 H        3.1430     8.0660    -0.0850 H     1 <1>   0.0800 
@<TRIPOS>BOND
  1   1   2  1   
  2   2   3  ar  
  3   2   4  ar  
  4   3   5  ar  
  5   3   6  1   
  6   4   7  ar  
  7   4  23  1   
  8   5   8  1   
  9   5   9  ar  
 10   6  10  1   
 11   6  24  1   
 12   6  25  1   
 13   7   9  ar  
 14   7  26  1   
 15   9  27  1   
 16  10  11  1   
 17  10  12  1   
 18  10  28  1   
 19  11  13  1   
 20  11  29  1   
 21  11  30  1   
 22  12  14  1   
 23  12  31  1   
 24  12  32  1   
 25  13  15  1   
 26  13  33  1   
 27  13  34  1   
 28  14  15  1   
 29  14  35  1   
 30  14  36  1   
 31  15  16  1   
 32  15  37  1   
 33  16  17  2   
 34  16  18  am  
 35  18  19  1   
 36  18  20  1   
 37  19  21  1   
 38  19  38  1   
 39  19  39  1   
 40  20  22  1   
 41  20  40  1   
 42  20  41  1   
 43  21  22  1   
 44  21  42  1   
 45  21  43  1   
 46  22  44  1   
 47  22  45  1   
@<TRIPOS>SUBSTRUCTURE
  1 ****  11 GROUP 4 **** **** 0

# MOE 2024.06 (io_trps.svl 2023.06)
