@<TRIPOS>MOLECULE
NONAME
39 42 1 0 0 
SMALL
USER_CHARGES


@<TRIPOS>ATOM
  1 S        0.1270     1.0170     0.0050 S.3   1 <1>  -0.2860 
  2 C        1.8440     0.5740     0.2170 C.2   1 <1>   0.5340 
  3 C       -0.1070     2.3640     1.2670 C.3   1 <1>   0.1310 
  4 O        2.3450    -0.3500    -0.5210 O.3   1 <1>  -0.2800 
  5 N        2.6610     1.0890     1.0480 N.2   1 <1>  -0.3380 
  6 C       -1.5280     2.9070     1.2690 C.2   1 <1>   0.5690 
  7 C        3.5830    -0.4150    -0.1130 C.2   1 <1>   0.4780 
  8 N        3.8070     0.4430     0.8360 N.2   1 <1>  -0.3380 
  9 O       -1.7890     3.8040     2.0320 O.2   1 <1>  -0.5700 
 10 N       -2.4600     2.3850     0.4300 N.am  1 <1>  -0.7300 
 11 C        4.5120    -1.3470    -0.6950 C.2   1 <1>   0.1400 
 12 C       -3.8730     2.8170     0.3310 C.3   1 <1>   0.2200 
 13 O        4.1370    -2.1720    -1.6680 O.3   1 <1>  -0.2800 
 14 C        5.8270    -1.5740    -0.4200 C.2   1 <1>  -0.1500 
 15 C       -4.9030     1.5860     0.6560 C.3   1 <1>  -0.0800 
 16 C       -4.1890     3.3410    -1.2210 C.3   1 <1>  -0.1600 
 17 C        5.1680    -2.9110    -2.0170 C.2   1 <1>  -0.0100 
 18 C        6.2510    -2.5890    -1.2790 C.2   1 <1>  -0.1500 
 19 C       -5.2280     2.0730    -0.5490 C.3   1 <1>  -0.1600 
 20 C       -6.2450     0.8110     0.1320 C.3   1 <1>  -0.1600 
 21 C       -5.5230     2.5580    -1.7580 C.3   1 <1>  -0.0800 
 22 C       -6.5650     1.3430    -1.4230 C.3   1 <1>  -0.1600 
 23 H        0.5880     3.1480     1.0310 H     1 <1>   0.0800 
 24 H        0.1300     1.9470     2.2280 H     1 <1>   0.0800 
 25 H       -2.1870     1.6330    -0.2070 H     1 <1>   0.3700 
 26 H       -4.0500     3.6250     1.0260 H     1 <1>   0.0800 
 27 H        6.4370    -1.0770     0.3140 H     1 <1>   0.1500 
 28 H       -4.2250     0.7520     0.7720 H     1 <1>   0.0800 
 29 H       -3.3520     3.1390    -1.8710 H     1 <1>   0.0800 
 30 H       -4.3500     4.4080    -1.2180 H     1 <1>   0.0800 
 31 H        5.0470    -3.6420    -2.7980 H     1 <1>   0.1500 
 32 H        7.2420    -3.0070    -1.3200 H     1 <1>   0.1500 
 33 H       -4.5100     1.2820    -1.0460 H     1 <1>   0.0800 
 34 H       -5.9340     2.8750    -0.0530 H     1 <1>   0.0800 
 35 H       -7.0800     1.0340     0.7800 H     1 <1>   0.0800 
 36 H       -6.1040    -0.2590     0.1430 H     1 <1>   0.0800 
 37 H       -6.2090     3.3850    -1.8850 H     1 <1>   0.0800 
 38 H       -7.5880     1.6750    -1.5050 H     1 <1>   0.0800 
 39 H       -6.4310     0.5350    -2.1280 H     1 <1>   0.0800 
@<TRIPOS>BOND
  1   1   2  1   
  2   1   3  1   
  3   2   4  1   
  4   2   5  2   
  5   3   6  1   
  6   3  23  1   
  7   3  24  1   
  8   4   7  1   
  9   5   8  1   
 10   6   9  2   
 11   6  10  am  
 12   7   8  2   
 13   7  11  1   
 14  10  12  1   
 15  10  25  1   
 16  11  13  1   
 17  11  14  2   
 18  12  15  1   
 19  12  16  1   
 20  12  26  1   
 21  13  17  1   
 22  14  18  1   
 23  14  27  1   
 24  15  19  1   
 25  15  20  1   
 26  15  28  1   
 27  16  21  1   
 28  16  29  1   
 29  16  30  1   
 30  17  18  2   
 31  17  31  1   
 32  18  32  1   
 33  19  21  1   
 34  19  33  1   
 35  19  34  1   
 36  20  22  1   
 37  20  35  1   
 38  20  36  1   
 39  21  22  1   
 40  21  37  1   
 41  22  38  1   
 42  22  39  1   
@<TRIPOS>SUBSTRUCTURE
  1 ****   1 GROUP 4 **** **** 0

# MOE 2024.06 (io_trps.svl 2023.06)
