@<TRIPOS>MOLECULE
NONAME
54 56 1 0 0 
SMALL
USER_CHARGES


@<TRIPOS>ATOM
  1 O       -2.6430     1.3160    -1.9080 O.2   1 <1>  -0.5700 
  2 C       -3.0430     1.0420    -0.7960 C.2   1 <1>   0.5440 
  3 N       -2.9930    -0.2610    -0.4450 N.am  1 <1>  -0.8000 
  4 C       -3.4930     2.0700     0.1170 C.ar  1 <1>   0.0860 
  5 C       -4.7650     2.0770     0.7210 C.ar  1 <1>   0.1170 
  6 C       -2.6260     3.1260     0.4040 C.ar  1 <1>  -0.1500 
  7 N       -5.7400     1.1040     0.4790 N.am  1 <1>  -0.5470 
  8 C       -5.1090     3.1160     1.5790 C.ar  1 <1>  -0.1500 
  9 C       -2.9800     4.1500     1.2590 C.ar  1 <1>  -0.1500 
 10 C       -5.8190    -0.1810     0.9290 C.2   1 <1>   0.5690 
 11 C       -4.2290     4.1440     1.8530 C.ar  1 <1>  -0.1500 
 12 O       -4.9390    -0.7180     1.5590 O.2   1 <1>  -0.5700 
 13 C       -7.1010    -0.9440     0.5960 C.3   1 <1>   0.1710 
 14 N       -8.2800    -0.0510     0.4110 N.3   1 <1>  -0.8100 
 15 C       -9.3720    -0.7530    -0.3060 C.3   1 <1>   0.1100 
 16 C       -8.7890     0.4390     1.7190 C.3   1 <1>   0.1100 
 17 C      -10.6170     0.1360    -0.4900 C.3   1 <1>   0.2090 
 18 C      -10.0270     1.3440     1.5650 C.3   1 <1>   0.2090 
 19 N      -11.1090     0.6330     0.8270 N.pl3 1 <1>  -0.8380 
 20 C      -12.3480     1.2890     0.7990 C.ar  1 <1>   0.1000 
 21 C      -12.5860     2.5150     0.1510 C.ar  1 <1>   0.0830 
 22 C      -13.3990     0.6720     1.4610 C.ar  1 <1>  -0.1500 
 23 O      -11.5450     3.1200    -0.5030 O.3   1 <1>  -0.3620 
 24 C      -13.8590     3.0780     0.1890 C.ar  1 <1>  -0.1500 
 25 C      -14.6610     1.2360     1.4940 C.ar  1 <1>  -0.1500 
 26 C      -11.7290     4.2960    -1.2550 C.3   1 <1>   0.1200 
 27 C      -14.8910     2.4410     0.8570 C.ar  1 <1>  -0.1500 
 28 C      -10.3910     4.6580    -1.8920 C.3   1 <1>  -0.2400 
 29 H       -2.6680    -0.9570    -1.1130 H     1 <1>   0.3700 
 30 H       -3.4240    -0.6020     0.4260 H     1 <1>   0.3700 
 31 H       -1.6560     3.1350    -0.0640 H     1 <1>   0.1500 
 32 H       -6.6300     1.4160     0.0710 H     1 <1>   0.3700 
 33 H       -6.0800     3.1170     2.0400 H     1 <1>   0.1500 
 34 H       -2.2890     4.9500     1.4640 H     1 <1>   0.1500 
 35 H       -4.5110     4.9390     2.5220 H     1 <1>   0.1500 
 36 H       -7.2980    -1.6620     1.3730 H     1 <1>   0.0800 
 37 H       -6.9170    -1.4840    -0.3150 H     1 <1>   0.0800 
 38 H       -9.6610    -1.6350     0.2390 H     1 <1>   0.0800 
 39 H       -9.0230    -1.0580    -1.2780 H     1 <1>   0.0800 
 40 H       -8.0190     0.9950     2.2250 H     1 <1>   0.0800 
 41 H       -9.0600    -0.3970     2.3420 H     1 <1>   0.0800 
 42 H      -11.3980    -0.4290    -0.9670 H     1 <1>   0.0800 
 43 H      -10.3670     0.9670    -1.1250 H     1 <1>   0.0800 
 44 H       -9.7490     2.2370     1.0350 H     1 <1>   0.0800 
 45 H      -10.3910     1.6280     2.5360 H     1 <1>   0.0800 
 46 H      -13.2120    -0.2640     1.9540 H     1 <1>   0.1500 
 47 H      -14.0750     4.0120    -0.2910 H     1 <1>   0.1500 
 48 H      -15.4590     0.7370     2.0140 H     1 <1>   0.1500 
 49 H      -12.0580     5.0770    -0.5930 H     1 <1>   0.0800 
 50 H      -12.4710     4.1050    -2.0110 H     1 <1>   0.0800 
 51 H      -15.8720     2.8820     0.8820 H     1 <1>   0.1500 
 52 H       -9.6530     4.8290    -1.1300 H     1 <1>   0.0800 
 53 H      -10.4960     5.5530    -2.4770 H     1 <1>   0.0800 
 54 H      -10.0630     3.8620    -2.5380 H     1 <1>   0.0800 
@<TRIPOS>BOND
  1   1   2  2   
  2   2   3  am  
  3   2   4  1   
  4   3  29  1   
  5   3  30  1   
  6   4   5  ar  
  7   4   6  ar  
  8   5   7  1   
  9   5   8  ar  
 10   6   9  ar  
 11   6  31  1   
 12   7  10  am  
 13   7  32  1   
 14   8  11  ar  
 15   8  33  1   
 16   9  11  ar  
 17   9  34  1   
 18  10  12  2   
 19  10  13  1   
 20  11  35  1   
 21  13  14  1   
 22  13  36  1   
 23  13  37  1   
 24  14  15  1   
 25  14  16  1   
 26  15  17  1   
 27  15  38  1   
 28  15  39  1   
 29  16  18  1   
 30  16  40  1   
 31  16  41  1   
 32  17  19  1   
 33  17  42  1   
 34  17  43  1   
 35  18  19  1   
 36  18  44  1   
 37  18  45  1   
 38  19  20  1   
 39  20  21  ar  
 40  20  22  ar  
 41  21  23  1   
 42  21  24  ar  
 43  22  25  ar  
 44  22  46  1   
 45  23  26  1   
 46  24  27  ar  
 47  24  47  1   
 48  25  27  ar  
 49  25  48  1   
 50  26  28  1   
 51  26  49  1   
 52  26  50  1   
 53  27  51  1   
 54  28  52  1   
 55  28  53  1   
 56  28  54  1   
@<TRIPOS>SUBSTRUCTURE
  1 ****  14 GROUP 4 **** **** 0

# MOE 2024.06 (io_trps.svl 2023.06)
