@<TRIPOS>MOLECULE
NONAME
53 55 1 0 0 
SMALL
USER_CHARGES


@<TRIPOS>ATOM
  1 O        0.3290    -0.2040     0.3220 O.2   1 <1>  -0.5700 
  2 C        0.7920    -1.2920     0.0400 C.2   1 <1>   0.6340 
  3 O        2.0830    -1.3700    -0.3030 O.3   1 <1>  -0.4300 
  4 C        0.0150    -2.5130     0.0610 C.ar  1 <1>   0.0860 
  5 C        2.9110    -0.2250    -0.3500 C.3   1 <1>   0.0400 
  6 C       -1.3520    -2.4920     0.3420 C.ar  1 <1>  -0.1500 
  7 C        0.5800    -3.7630    -0.1910 C.ar  1 <1>  -0.1500 
  8 C       -2.1370    -3.6330     0.3760 C.ar  1 <1>   0.1170 
  9 C       -0.1800    -4.9140    -0.1570 C.ar  1 <1>  -0.1500 
 10 N       -3.5010    -3.4410     0.6820 N.am  1 <1>  -0.5470 
 11 C       -1.5400    -4.8880     0.1250 C.ar  1 <1>   0.1000 
 12 C       -4.6100    -3.7550    -0.0580 C.2   1 <1>   0.5440 
 13 N       -2.2030    -6.1200     0.1410 N.pl3 1 <1>  -0.8380 
 14 O       -4.4890    -4.3370    -1.1210 O.2   1 <1>  -0.5700 
 15 C       -5.9320    -3.4350     0.4490 C.ar  1 <1>   0.0860 
 16 C       -2.2580    -6.9240    -1.1260 C.3   1 <1>   0.2090 
 17 C       -3.0320    -6.5690     1.3050 C.3   1 <1>   0.2090 
 18 C       -6.9950    -3.2120    -0.4270 C.ar  1 <1>  -0.1500 
 19 C       -6.2000    -3.3580     1.8180 C.ar  1 <1>  -0.1500 
 20 C       -3.5640    -7.7350    -1.2750 C.3   1 <1>   0.3430 
 21 C       -4.4690    -7.0040     0.9090 C.3   1 <1>   0.3430 
 22 C       -8.2700    -2.9300     0.0310 C.ar  1 <1>  -0.1440 
 23 C       -7.4690    -3.0750     2.2850 C.ar  1 <1>  -0.1500 
 24 N       -4.6960    -7.0520    -0.5760 N.4   1 <1>  -0.9590 
 25 C       -8.5040    -2.8620     1.3930 C.ar  1 <1>  -0.1500 
 26 C       -9.4120    -2.6850    -0.9400 C.3   1 <1>  -0.0970 
 27 C       -6.0450    -7.5480    -0.9630 C.3   1 <1>   0.2630 
 28 H        3.8980    -0.5290    -0.6500 H     1 <1>   0.0800 
 29 H        2.9410     0.2230     0.6280 H     1 <1>   0.0800 
 30 H        2.5030     0.4700    -1.0640 H     1 <1>   0.0800 
 31 H       -1.8100    -1.5370     0.5320 H     1 <1>   0.1500 
 32 H        1.6310    -3.8350    -0.4130 H     1 <1>   0.1500 
 33 H        0.2950    -5.8600    -0.3450 H     1 <1>   0.1500 
 34 H       -3.6640    -2.7300     1.3950 H     1 <1>   0.3700 
 35 H       -1.4150    -7.5910    -1.1660 H     1 <1>   0.0800 
 36 H       -2.1770    -6.2480    -1.9610 H     1 <1>   0.0800 
 37 H       -3.0840    -5.7840     2.0390 H     1 <1>   0.0800 
 38 H       -2.5360    -7.4010     1.7730 H     1 <1>   0.0800 
 39 H       -6.8110    -3.2580    -1.4870 H     1 <1>   0.1500 
 40 H       -5.4160    -3.5240     2.5350 H     1 <1>   0.1500 
 41 H       -3.4210    -8.7170    -0.8570 H     1 <1>   0.0800 
 42 H       -3.7850    -7.8480    -2.3240 H     1 <1>   0.0800 
 43 H       -5.1660    -6.3110     1.3500 H     1 <1>   0.0800 
 44 H       -4.6630    -7.9720     1.3390 H     1 <1>   0.0800 
 45 H       -7.6600    -3.0170     3.3440 H     1 <1>   0.1500 
 46 H       -4.5970    -6.0550    -0.8830 H     1 <1>   0.4500 
 47 H       -9.4910    -2.6390     1.7630 H     1 <1>   0.1500 
 48 H       -9.0980    -2.8400    -1.9560 H     1 <1>   0.0800 
 49 H       -9.7640    -1.6730    -0.8420 H     1 <1>   0.0800 
 50 H      -10.2260    -3.3550    -0.7280 H     1 <1>   0.0800 
 51 H       -6.1680    -8.5750    -0.6620 H     1 <1>   0.0800 
 52 H       -6.1730    -7.4790    -2.0310 H     1 <1>   0.0800 
 53 H       -6.8080    -6.9510    -0.4900 H     1 <1>   0.0800 
@<TRIPOS>BOND
  1   1   2  2   
  2   2   3  1   
  3   2   4  1   
  4   3   5  1   
  5   4   6  ar  
  6   4   7  ar  
  7   5  28  1   
  8   5  29  1   
  9   5  30  1   
 10   6   8  ar  
 11   6  31  1   
 12   7   9  ar  
 13   7  32  1   
 14   8  10  1   
 15   8  11  ar  
 16   9  11  ar  
 17   9  33  1   
 18  10  12  am  
 19  10  34  1   
 20  11  13  1   
 21  12  14  2   
 22  12  15  1   
 23  13  16  1   
 24  13  17  1   
 25  15  18  ar  
 26  15  19  ar  
 27  16  20  1   
 28  16  35  1   
 29  16  36  1   
 30  17  21  1   
 31  17  37  1   
 32  17  38  1   
 33  18  22  ar  
 34  18  39  1   
 35  19  23  ar  
 36  19  40  1   
 37  20  24  1   
 38  20  41  1   
 39  20  42  1   
 40  21  24  1   
 41  21  43  1   
 42  21  44  1   
 43  22  25  ar  
 44  22  26  1   
 45  23  25  ar  
 46  23  45  1   
 47  24  27  1   
 48  24  46  1   
 49  25  47  1   
 50  26  48  1   
 51  26  49  1   
 52  26  50  1   
 53  27  51  1   
 54  27  52  1   
 55  27  53  1   
@<TRIPOS>SUBSTRUCTURE
  1 ****  10 GROUP 4 **** **** 0

# MOE 2024.06 (io_trps.svl 2023.06)
