@<TRIPOS>MOLECULE
NONAME
41 43 1 0 0 
SMALL
USER_CHARGES


@<TRIPOS>ATOM
  1 F       -1.2730     0.9300    -1.9880 F     1 <1>  -0.3400 
  2 C       -2.1340    -0.0680    -1.8270 C.3   1 <1>   1.1640 
  3 F       -2.8530    -0.1180    -2.9420 F     1 <1>  -0.3400 
  4 F       -1.4140    -1.1810    -1.7950 F     1 <1>  -0.3400 
  5 C       -3.0060     0.0910    -0.5710 C.ar  1 <1>  -0.1440 
  6 C       -4.2470    -0.5320    -0.4910 C.ar  1 <1>  -0.1500 
  7 C       -2.5750     0.8490     0.5140 C.ar  1 <1>  -0.1500 
  8 C       -5.0690    -0.4100     0.6270 C.ar  1 <1>   0.0860 
  9 C       -3.3670     0.9760     1.6410 C.ar  1 <1>  -0.1500 
 10 C       -6.3650    -1.0600     0.6690 C.2   1 <1>   0.5440 
 11 C       -4.5980     0.3510     1.6960 C.ar  1 <1>  -0.1500 
 12 O       -6.4410    -2.2430     0.3970 O.2   1 <1>  -0.5700 
 13 N       -7.5150    -0.3700     0.9880 N.am  1 <1>  -0.6600 
 14 C       -7.6620     1.1120     0.8670 C.3   1 <1>   0.1400 
 15 C       -8.8210    -1.0630     1.2070 C.3   1 <1>   0.1400 
 16 C       -8.7150     1.4700    -0.1970 C.3   1 <1>   0.1100 
 17 C       -9.8400    -0.6510     0.1320 C.3   1 <1>   0.1100 
 18 N      -10.0110     0.8200     0.0770 N.3   1 <1>  -0.8100 
 19 C      -11.0140     1.1960    -0.9400 C.3   1 <1>   0.2900 
 20 C      -12.4320     0.8760    -0.4900 C.2   1 <1>  -0.0400 
 21 O      -13.3950     0.8930    -1.3930 O.3   1 <1>  -0.2800 
 22 C      -12.9350     0.5670     0.7260 C.2   1 <1>  -0.1500 
 23 C      -14.5230     0.5950    -0.7800 C.2   1 <1>  -0.0100 
 24 C      -14.3100     0.3800     0.5360 C.2   1 <1>  -0.1500 
 25 H       -4.6030    -1.1370    -1.3100 H     1 <1>   0.1500 
 26 H       -1.6170     1.3440     0.4920 H     1 <1>   0.1500 
 27 H       -3.0210     1.5590     2.4780 H     1 <1>   0.1500 
 28 H       -5.2080     0.4440     2.5780 H     1 <1>   0.1500 
 29 H       -6.7280     1.5700     0.5950 H     1 <1>   0.0800 
 30 H       -7.9700     1.5150     1.8160 H     1 <1>   0.0800 
 31 H       -9.2040    -0.7950     2.1760 H     1 <1>   0.0800 
 32 H       -8.6940    -2.1310     1.1880 H     1 <1>   0.0800 
 33 H       -8.3510     1.1690    -1.1650 H     1 <1>   0.0800 
 34 H       -8.8470     2.5380    -0.2040 H     1 <1>   0.0800 
 35 H      -10.7820    -1.1200     0.3570 H     1 <1>   0.0800 
 36 H       -9.5050    -1.0220    -0.8220 H     1 <1>   0.0800 
 37 H      -10.8080     0.6820    -1.8630 H     1 <1>   0.0800 
 38 H      -10.9620     2.2540    -1.1270 H     1 <1>   0.0800 
 39 H      -12.4060     0.4810     1.6580 H     1 <1>   0.1500 
 40 H      -15.4310     0.5570    -1.3550 H     1 <1>   0.1500 
 41 H      -15.0180     0.1210     1.3020 H     1 <1>   0.1500 
@<TRIPOS>BOND
  1   1   2  1   
  2   2   3  1   
  3   2   4  1   
  4   2   5  1   
  5   5   6  ar  
  6   5   7  ar  
  7   6   8  ar  
  8   6  25  1   
  9   7   9  ar  
 10   7  26  1   
 11   8  10  1   
 12   8  11  ar  
 13   9  11  ar  
 14   9  27  1   
 15  10  12  2   
 16  10  13  am  
 17  11  28  1   
 18  13  14  1   
 19  13  15  1   
 20  14  16  1   
 21  14  29  1   
 22  14  30  1   
 23  15  17  1   
 24  15  31  1   
 25  15  32  1   
 26  16  18  1   
 27  16  33  1   
 28  16  34  1   
 29  17  18  1   
 30  17  35  1   
 31  17  36  1   
 32  18  19  1   
 33  19  20  1   
 34  19  37  1   
 35  19  38  1   
 36  20  21  1   
 37  20  22  2   
 38  21  23  1   
 39  22  24  1   
 40  22  39  1   
 41  23  24  2   
 42  23  40  1   
 43  24  41  1   
@<TRIPOS>SUBSTRUCTURE
  1 ****  13 GROUP 4 **** **** 0

# MOE 2024.06 (io_trps.svl 2023.06)
