@<TRIPOS>MOLECULE
NONAME
45 46 1 0 0 
SMALL
USER_CHARGES


@<TRIPOS>ATOM
  1 O       -0.1020    -1.8230    -2.1610 O.2   1 <1>  -0.5700 
  2 C       -0.6100    -2.0180    -1.0730 C.2   1 <1>   0.5440 
  3 N       -1.4950    -1.0870    -0.5700 N.am  1 <1>  -0.6600 
  4 C       -0.3000    -3.2300    -0.3540 C.ar  1 <1>   0.0860 
  5 C       -1.7100     0.2420    -1.2170 C.3   1 <1>   0.1400 
  6 C       -2.3820    -1.3200     0.6070 C.3   1 <1>   0.1400 
  7 C        0.6420    -3.2440     0.6860 C.ar  1 <1>   0.1170 
  8 C       -0.9450    -4.4210    -0.6860 C.ar  1 <1>  -0.1500 
  9 C       -3.2080     0.4910    -1.4560 C.3   1 <1>   0.1200 
 10 C       -3.8410    -0.9870     0.2540 C.3   1 <1>   0.1200 
 11 N        1.3540    -2.0920     1.0500 N.am  1 <1>  -0.4770 
 12 C        0.8890    -4.4310     1.3680 C.ar  1 <1>  -0.1500 
 13 C       -0.6850    -5.5940    -0.0050 C.ar  1 <1>  -0.1500 
 14 O       -3.9380     0.3050    -0.2740 O.3   1 <1>  -0.5600 
 15 C        2.4880    -1.6360     0.4050 C.2   1 <1>   0.5690 
 16 C        0.8160    -1.2930     2.1790 C.3   1 <1>   0.0600 
 17 C        0.2370    -5.5980     1.0270 C.ar  1 <1>  -0.1500 
 18 O        3.0000    -0.5790     0.6960 O.2   1 <1>  -0.5700 
 19 C        3.1390    -2.4690    -0.6920 C.3   1 <1>  -0.0990 
 20 C        4.0520    -3.5640    -0.1170 C.3   1 <1>  -0.1600 
 21 C        4.5630    -4.5170    -1.2100 C.3   1 <1>  -0.2660 
 22 C        5.4010    -5.6410    -0.6410 C.2   1 <1>   0.9060 
 23 O        4.8340    -6.5400    -0.0120 O.co2 1 <1>  -0.9000 
 24 O        6.6210    -5.6210    -0.8260 O.co2 1 <1>  -0.9000 
 25 H       -1.1870     0.3000    -2.1560 H     1 <1>   0.0800 
 26 H       -1.3200     1.0130    -0.5770 H     1 <1>   0.0800 
 27 H       -2.0660    -0.6880     1.4180 H     1 <1>   0.0800 
 28 H       -2.3240    -2.3420     0.9360 H     1 <1>   0.0800 
 29 H       -1.6530    -4.4180    -1.4960 H     1 <1>   0.1500 
 30 H       -3.5860    -0.1810    -2.2060 H     1 <1>   0.0800 
 31 H       -3.3670     1.5020    -1.7860 H     1 <1>   0.0800 
 32 H       -4.4560    -1.0280     1.1350 H     1 <1>   0.0800 
 33 H       -4.2260    -1.6850    -0.4700 H     1 <1>   0.0800 
 34 H        1.6170    -4.4400     2.1600 H     1 <1>   0.1500 
 35 H       -1.1860    -6.5070    -0.2790 H     1 <1>   0.1500 
 36 H        0.0360    -1.8330     2.6830 H     1 <1>   0.0800 
 37 H        0.4260    -0.3640     1.8010 H     1 <1>   0.0800 
 38 H        1.6070    -1.0810     2.8780 H     1 <1>   0.0800 
 39 H        0.4560    -6.5120     1.5540 H     1 <1>   0.1500 
 40 H        3.7210    -1.8180    -1.3180 H     1 <1>   0.0800 
 41 H        2.3800    -2.9100    -1.3110 H     1 <1>   0.0800 
 42 H        3.5180    -4.1470     0.6110 H     1 <1>   0.0800 
 43 H        4.8930    -3.1120     0.3820 H     1 <1>   0.0800 
 44 H        5.1610    -3.9810    -1.9220 H     1 <1>   0.0800 
 45 H        3.7370    -4.9670    -1.7250 H     1 <1>   0.0800 
@<TRIPOS>BOND
  1   1   2  2   
  2   2   3  am  
  3   2   4  1   
  4   3   5  1   
  5   3   6  1   
  6   4   7  ar  
  7   4   8  ar  
  8   5   9  1   
  9   5  25  1   
 10   5  26  1   
 11   6  10  1   
 12   6  27  1   
 13   6  28  1   
 14   7  11  1   
 15   7  12  ar  
 16   8  13  ar  
 17   8  29  1   
 18   9  14  1   
 19   9  30  1   
 20   9  31  1   
 21  10  14  1   
 22  10  32  1   
 23  10  33  1   
 24  11  15  am  
 25  11  16  1   
 26  12  17  ar  
 27  12  34  1   
 28  13  17  ar  
 29  13  35  1   
 30  15  18  2   
 31  15  19  1   
 32  16  36  1   
 33  16  37  1   
 34  16  38  1   
 35  17  39  1   
 36  19  20  1   
 37  19  40  1   
 38  19  41  1   
 39  20  21  1   
 40  20  42  1   
 41  20  43  1   
 42  21  22  1   
 43  21  44  1   
 44  21  45  1   
 45  22  23  ar  
 46  22  24  ar  
@<TRIPOS>SUBSTRUCTURE
  1 ****   7 GROUP 4 **** **** 0

# MOE 2024.06 (io_trps.svl 2023.06)
