@<TRIPOS>MOLECULE
NONAME
43 46 1 0 0 
SMALL
USER_CHARGES


@<TRIPOS>ATOM
  1 O       -0.2390    -1.0910     2.2910 O.2   1 <1>  -0.5700 
  2 C       -0.6310    -1.7680     1.3650 C.2   1 <1>   0.5440 
  3 N        0.1920    -2.4580     0.5200 N.am  1 <1>  -0.4200 
  4 C       -1.9920    -1.9930     0.9660 C.ar  1 <1>   0.0860 
  5 C       -0.5740    -3.1260    -0.3940 C.2   1 <1>   0.5440 
  6 C        1.6670    -2.4450     0.5590 C.3   1 <1>   0.3200 
  7 C       -1.9540    -2.8400    -0.1300 C.ar  1 <1>   0.0860 
  8 C       -3.2060    -1.5390     1.4590 C.ar  1 <1>  -0.1500 
  9 O       -0.1280    -3.8400    -1.2660 O.2   1 <1>  -0.5700 
 10 C        2.2370    -1.3160    -0.2840 C.2   1 <1>  -0.0400 
 11 C       -3.1350    -3.2410    -0.7380 C.ar  1 <1>  -0.1500 
 12 C       -4.4090    -1.9190     0.8610 C.ar  1 <1>   0.0860 
 13 O        3.5500    -1.1950    -0.3450 O.3   1 <1>  -0.2800 
 14 C        1.6450    -0.3540    -1.0280 C.2   1 <1>  -0.1500 
 15 C       -4.3420    -2.7830    -0.2410 C.ar  1 <1>  -0.1500 
 16 C       -5.6760    -1.4310     1.3750 C.2   1 <1>   0.5440 
 17 C        3.8230    -0.1650    -1.1200 C.2   1 <1>  -0.0100 
 18 C        2.6870     0.4020    -1.5770 C.2   1 <1>  -0.1500 
 19 O       -5.7890    -1.1310     2.5470 O.2   1 <1>  -0.5700 
 20 N       -6.7530    -1.2860     0.5490 N.am  1 <1>  -0.7300 
 21 C       -8.0850    -0.8040     0.9490 C.3   1 <1>   0.2200 
 22 C       -9.1300    -1.7920     0.4440 C.3   1 <1>  -0.1600 
 23 C       -8.3980     0.4650     0.1670 C.3   1 <1>  -0.1600 
 24 C       -9.3510    -1.4480    -1.0340 C.3   1 <1>  -0.1600 
 25 C       -8.8720    -0.0020    -1.2140 C.3   1 <1>  -0.1600 
 26 H        2.0400    -3.3840     0.1890 H     1 <1>   0.0800 
 27 H        1.9950    -2.3260     1.5760 H     1 <1>   0.0800 
 28 H       -3.2160    -0.8830     2.3150 H     1 <1>   0.1500 
 29 H       -3.0940    -3.9050    -1.5860 H     1 <1>   0.1500 
 30 H        0.5980    -0.1720    -1.1910 H     1 <1>   0.1500 
 31 H       -5.2550    -3.1100    -0.7100 H     1 <1>   0.1500 
 32 H        4.8530     0.0960    -1.2930 H     1 <1>   0.1500 
 33 H        2.5710     1.2520    -2.2250 H     1 <1>   0.1500 
 34 H       -6.6550    -1.4240    -0.4540 H     1 <1>   0.3700 
 35 H       -8.1410    -0.6560     2.0150 H     1 <1>   0.0800 
 36 H      -10.0450    -1.6190     0.9820 H     1 <1>   0.0800 
 37 H       -8.8310    -2.8140     0.5970 H     1 <1>   0.0800 
 38 H       -7.5540     1.1310     0.1180 H     1 <1>   0.0800 
 39 H       -9.2070     0.9750     0.6600 H     1 <1>   0.0800 
 40 H      -10.3900    -1.5530    -1.2980 H     1 <1>   0.0800 
 41 H       -8.7690    -2.1060    -1.6570 H     1 <1>   0.0800 
 42 H       -8.0530     0.0260    -1.9130 H     1 <1>   0.0800 
 43 H       -9.6610     0.6320    -1.5820 H     1 <1>   0.0800 
@<TRIPOS>BOND
  1   1   2  2   
  2   2   3  am  
  3   2   4  1   
  4   3   5  am  
  5   3   6  1   
  6   4   7  ar  
  7   4   8  ar  
  8   5   7  1   
  9   5   9  2   
 10   6  10  1   
 11   6  26  1   
 12   6  27  1   
 13   7  11  ar  
 14   8  12  ar  
 15   8  28  1   
 16  10  13  1   
 17  10  14  2   
 18  11  15  ar  
 19  11  29  1   
 20  12  15  ar  
 21  12  16  1   
 22  13  17  1   
 23  14  18  1   
 24  14  30  1   
 25  15  31  1   
 26  16  19  2   
 27  16  20  am  
 28  17  18  2   
 29  17  32  1   
 30  18  33  1   
 31  20  21  1   
 32  20  34  1   
 33  21  22  1   
 34  21  23  1   
 35  21  35  1   
 36  22  24  1   
 37  22  36  1   
 38  22  37  1   
 39  23  25  1   
 40  23  38  1   
 41  23  39  1   
 42  24  25  1   
 43  24  40  1   
 44  24  41  1   
 45  25  42  1   
 46  25  43  1   
@<TRIPOS>SUBSTRUCTURE
  1 ****   4 GROUP 4 **** **** 0

# MOE 2024.06 (io_trps.svl 2023.06)
