@<TRIPOS>MOLECULE
NONAME
37 38 1 0 0 
SMALL
USER_CHARGES


@<TRIPOS>ATOM
  1 CL      -2.4600     1.1710     3.5630 Cl    1 <1>  -0.1770 
  2 C       -2.7670     1.4860     1.8740 C.ar  1 <1>   0.1770 
  3 C       -2.0330     2.4310     1.1780 C.ar  1 <1>   0.1770 
  4 C       -3.7710     0.7720     1.2430 C.ar  1 <1>  -0.1500 
  5 CL      -0.7680     3.3430     1.9650 Cl    1 <1>  -0.1770 
  6 C       -2.2980     2.6670    -0.1590 C.ar  1 <1>  -0.1500 
  7 C       -4.0540     1.0120    -0.0980 C.ar  1 <1>  -0.1440 
  8 C       -3.3050     1.9560    -0.7940 C.ar  1 <1>  -0.1500 
  9 C       -5.1660     0.2470    -0.7950 C.3   1 <1>   0.4870 
 10 N       -6.4830     0.7470    -0.2790 N.4   1 <1>  -0.9590 
 11 C       -7.5910    -0.1920    -0.6980 C.3   1 <1>   0.3430 
 12 C       -6.7180     2.1450    -0.7500 C.3   1 <1>   0.3430 
 13 C       -8.9790     0.0240    -0.0220 C.3   1 <1>   0.3430 
 14 C       -7.5060     2.9680     0.2690 C.3   1 <1>  -0.1600 
 15 N       -9.4910     1.4470     0.0470 N.4   1 <1>  -0.9590 
 16 C       -8.6900     2.3020     0.9730 C.3   1 <1>   0.3430 
 17 C      -10.9180     1.4310     0.5210 C.3   1 <1>   0.2630 
 18 H       -4.3040     0.0350     1.8190 H     1 <1>   0.1500 
 19 H       -1.7130     3.3990    -0.6910 H     1 <1>   0.1500 
 20 H       -3.4850     2.1510    -1.8400 H     1 <1>   0.1500 
 21 H       -5.0520    -0.8040    -0.5800 H     1 <1>   0.0800 
 22 H       -5.0980     0.3840    -1.8630 H     1 <1>   0.0800 
 23 H       -6.3640     0.7590     0.7430 H     1 <1>   0.4500 
 24 H       -7.2880    -1.2070    -0.4920 H     1 <1>   0.0800 
 25 H       -7.7240    -0.1230    -1.7660 H     1 <1>   0.0800 
 26 H       -7.2440     2.1260    -1.6920 H     1 <1>   0.0800 
 27 H       -5.7760     2.6440    -0.9210 H     1 <1>   0.0800 
 28 H       -8.9320    -0.3760     0.9780 H     1 <1>   0.0800 
 29 H       -9.6970    -0.5780    -0.5570 H     1 <1>   0.0800 
 30 H       -7.8620     3.8540    -0.2270 H     1 <1>   0.0800 
 31 H       -6.8240     3.3150     1.0260 H     1 <1>   0.0800 
 32 H       -9.5110     1.8800    -0.8890 H     1 <1>   0.4500 
 33 H       -9.3160     3.0800     1.3850 H     1 <1>   0.0800 
 34 H       -8.3380     1.7050     1.7990 H     1 <1>   0.0800 
 35 H      -10.9870     1.0050     1.5100 H     1 <1>   0.0800 
 36 H      -11.5330     0.8470    -0.1470 H     1 <1>   0.0800 
 37 H      -11.3160     2.4330     0.5540 H     1 <1>   0.0800 
@<TRIPOS>BOND
  1   1   2  1   
  2   2   3  ar  
  3   2   4  ar  
  4   3   5  1   
  5   3   6  ar  
  6   4   7  ar  
  7   4  18  1   
  8   6   8  ar  
  9   6  19  1   
 10   7   8  ar  
 11   7   9  1   
 12   8  20  1   
 13   9  10  1   
 14   9  21  1   
 15   9  22  1   
 16  10  11  1   
 17  10  12  1   
 18  10  23  1   
 19  11  13  1   
 20  11  24  1   
 21  11  25  1   
 22  12  14  1   
 23  12  26  1   
 24  12  27  1   
 25  13  15  1   
 26  13  28  1   
 27  13  29  1   
 28  14  16  1   
 29  14  30  1   
 30  14  31  1   
 31  15  16  1   
 32  15  17  1   
 33  15  32  1   
 34  16  33  1   
 35  16  34  1   
 36  17  35  1   
 37  17  36  1   
 38  17  37  1   
@<TRIPOS>SUBSTRUCTURE
  1 ****  10 GROUP 4 **** **** 0

# MOE 2024.06 (io_trps.svl 2023.06)
