@<TRIPOS>MOLECULE
NONAME
52 54 1 0 0 
SMALL
USER_CHARGES


@<TRIPOS>ATOM
  1 S       -0.8320    -1.3900     1.0230 S.o2  1 <1>   1.4470 
  2 O       -1.1930    -0.0400     1.4040 O.2   1 <1>  -0.6500 
  3 O       -1.3000    -2.4630     1.8780 O.2   1 <1>  -0.6500 
  4 N       -1.5550    -1.6510    -0.4920 N.am  1 <1>  -0.8490 
  5 C        0.9520    -1.4210     0.6850 C.ar  1 <1>  -0.0090 
  6 C       -2.9780    -1.2810    -0.4450 C.3   1 <1>   0.1960 
  7 C       -1.3630    -3.0300    -0.9550 C.3   1 <1>   0.1960 
  8 C        1.7130    -2.5880     0.7500 C.ar  1 <1>   0.0820 
  9 C        1.5960    -0.2430     0.3210 C.ar  1 <1>  -0.1500 
 10 C       -3.6830    -1.4990    -1.7920 C.3   1 <1>  -0.0190 
 11 C       -1.9210    -3.2000    -2.3700 C.3   1 <1>  -0.1600 
 12 O        1.0900    -3.7460     1.0790 O.3   1 <1>  -0.3630 
 13 C        3.0780    -2.5540     0.4690 C.ar  1 <1>  -0.1500 
 14 C        2.9520    -0.2020     0.0430 C.ar  1 <1>  -0.1430 
 15 C       -5.1650    -1.1300    -1.7040 C.2   1 <1>   0.5690 
 16 C       -3.4190    -2.8830    -2.4190 C.3   1 <1>  -0.1600 
 17 C        1.8020    -4.8620     1.5690 C.3   1 <1>   0.0400 
 18 C        3.6910    -1.3670     0.1200 C.ar  1 <1>  -0.1500 
 19 C        3.6160     1.1070    -0.3450 C.3   1 <1>  -0.0970 
 20 O       -5.5090    -0.1840    -2.3730 O.2   1 <1>  -0.5700 
 21 N       -6.0790    -1.7980    -0.9170 N.am  1 <1>  -0.6600 
 22 C       -5.8590    -3.0000    -0.0510 C.3   1 <1>   0.1400 
 23 C       -7.4980    -1.3250    -0.8340 C.3   1 <1>   0.1400 
 24 C       -6.3630    -2.7350     1.3780 C.3   1 <1>   0.1200 
 25 C       -7.9270    -1.1520     0.6330 C.3   1 <1>   0.1200 
 26 O       -7.7010    -2.3290     1.3560 O.3   1 <1>  -0.5600 
 27 H       -3.0640    -0.2360    -0.1940 H     1 <1>   0.0800 
 28 H       -3.4560    -1.8350     0.3400 H     1 <1>   0.0800 
 29 H       -1.8430    -3.7200    -0.2810 H     1 <1>   0.0800 
 30 H       -0.3120    -3.2600    -0.9800 H     1 <1>   0.0800 
 31 H        1.0190     0.6640     0.2560 H     1 <1>   0.1500 
 32 H       -3.2380    -0.7810    -2.4600 H     1 <1>   0.0800 
 33 H       -1.7540    -4.2100    -2.7000 H     1 <1>   0.0800 
 34 H       -1.3850    -2.5440    -3.0340 H     1 <1>   0.0800 
 35 H        3.6770    -3.4430     0.5100 H     1 <1>   0.1500 
 36 H       -3.7570    -2.8830    -3.4410 H     1 <1>   0.0800 
 37 H       -3.9550    -3.6550    -1.9020 H     1 <1>   0.0800 
 38 H        1.0870    -5.5820     1.9250 H     1 <1>   0.0800 
 39 H        2.4340    -4.5450     2.3800 H     1 <1>   0.0800 
 40 H        2.3820    -5.2880     0.7700 H     1 <1>   0.0800 
 41 H        4.7460    -1.3540    -0.0960 H     1 <1>   0.1500 
 42 H        3.1150     1.9360     0.1220 H     1 <1>   0.0800 
 43 H        3.5750     1.2330    -1.4120 H     1 <1>   0.0800 
 44 H        4.6450     1.1150    -0.0330 H     1 <1>   0.0800 
 45 H       -4.8280    -3.2820    -0.0070 H     1 <1>   0.0800 
 46 H       -6.4060    -3.8310    -0.4620 H     1 <1>   0.0800 
 47 H       -8.1410    -2.0450    -1.3090 H     1 <1>   0.0800 
 48 H       -7.6240    -0.3860    -1.3450 H     1 <1>   0.0800 
 49 H       -5.7760    -1.9690     1.8540 H     1 <1>   0.0800 
 50 H       -6.3030    -3.6330     1.9660 H     1 <1>   0.0800 
 51 H       -8.9770    -0.9280     0.6880 H     1 <1>   0.0800 
 52 H       -7.3770    -0.3500     1.0950 H     1 <1>   0.0800 
@<TRIPOS>BOND
  1   1   2  2   
  2   1   3  2   
  3   1   4  am  
  4   1   5  1   
  5   4   6  1   
  6   4   7  1   
  7   5   8  ar  
  8   5   9  ar  
  9   6  10  1   
 10   6  27  1   
 11   6  28  1   
 12   7  11  1   
 13   7  29  1   
 14   7  30  1   
 15   8  12  1   
 16   8  13  ar  
 17   9  14  ar  
 18   9  31  1   
 19  10  15  1   
 20  10  16  1   
 21  10  32  1   
 22  11  16  1   
 23  11  33  1   
 24  11  34  1   
 25  12  17  1   
 26  13  18  ar  
 27  13  35  1   
 28  14  18  ar  
 29  14  19  1   
 30  15  20  2   
 31  15  21  am  
 32  16  36  1   
 33  16  37  1   
 34  17  38  1   
 35  17  39  1   
 36  17  40  1   
 37  18  41  1   
 38  19  42  1   
 39  19  43  1   
 40  19  44  1   
 41  21  22  1   
 42  21  23  1   
 43  22  24  1   
 44  22  45  1   
 45  22  46  1   
 46  23  25  1   
 47  23  47  1   
 48  23  48  1   
 49  24  26  1   
 50  24  49  1   
 51  24  50  1   
 52  25  26  1   
 53  25  51  1   
 54  25  52  1   
@<TRIPOS>SUBSTRUCTURE
  1 ****   4 GROUP 4 **** **** 0

# MOE 2024.06 (io_trps.svl 2023.06)
