@<TRIPOS>MOLECULE
NONAME
49 50 1 0 0 
SMALL
USER_CHARGES


@<TRIPOS>ATOM
  1 O       -0.8930     0.0140     1.6140 O.2   1 <1>  -0.5700 
  2 C       -0.7040     0.9370     0.8590 C.2   1 <1>   0.5690 
  3 N       -1.6990     1.5390     0.1370 N.am  1 <1>  -0.5470 
  4 C        0.7230     1.4670     0.6760 C.3   1 <1>  -0.0190 
  5 C       -3.0840     1.3040     0.0950 C.ar  1 <1>   0.1170 
  6 C        1.6360     0.4110     0.0320 C.3   1 <1>  -0.2400 
  7 C        1.3270     1.9400     2.0090 C.3   1 <1>  -0.2400 
  8 C       -3.8010     1.7440    -1.0110 C.ar  1 <1>  -0.1500 
  9 C       -3.7820     0.6650     1.1140 C.ar  1 <1>  -0.1500 
 10 C       -5.1680     1.5510    -1.0990 C.ar  1 <1>  -0.1500 
 11 C       -5.1490     0.4720     1.0260 C.ar  1 <1>  -0.1500 
 12 C       -5.8660     0.9130    -0.0790 C.ar  1 <1>   0.1170 
 13 N       -7.2510     0.6840    -0.1170 N.am  1 <1>  -0.5470 
 14 C       -8.2540     1.2130    -0.8830 C.2   1 <1>   0.5690 
 15 O       -8.0810     2.0530    -1.7340 O.2   1 <1>  -0.5700 
 16 C       -9.6760     0.7220    -0.6440 C.3   1 <1>   0.1810 
 17 O       -9.7230    -0.2230     0.4180 O.3   1 <1>  -0.3630 
 18 C      -10.8950    -0.7930     0.7960 C.ar  1 <1>   0.0820 
 19 C      -12.1230    -0.5050     0.2050 C.ar  1 <1>  -0.1500 
 20 C      -10.8350    -1.7130     1.8300 C.ar  1 <1>  -0.1500 
 21 C      -13.2740    -1.1330     0.6500 C.ar  1 <1>  -0.1440 
 22 C      -11.9810    -2.3450     2.2800 C.ar  1 <1>  -0.1440 
 23 C      -13.1960    -2.0510     1.6850 C.ar  1 <1>  -0.1500 
 24 C      -14.6170    -0.8270     0.0120 C.3   1 <1>  -0.0970 
 25 C      -11.9160    -3.3550     3.4120 C.3   1 <1>  -0.0970 
 26 H       -1.3810     2.2570    -0.5080 H     1 <1>   0.3700 
 27 H        0.6880     2.3160     0.0170 H     1 <1>   0.0800 
 28 H        1.7110    -0.4530     0.6690 H     1 <1>   0.0800 
 29 H        2.6220     0.8090    -0.1300 H     1 <1>   0.0800 
 30 H        1.2310     0.0980    -0.9150 H     1 <1>   0.0800 
 31 H        1.4010     1.1160     2.6980 H     1 <1>   0.0800 
 32 H        0.7020     2.6960     2.4520 H     1 <1>   0.0800 
 33 H        2.3090     2.3510     1.8560 H     1 <1>   0.0800 
 34 H       -3.2910     2.2390    -1.8160 H     1 <1>   0.1500 
 35 H       -3.2600     0.3180     1.9870 H     1 <1>   0.1500 
 36 H       -5.6880     1.8990    -1.9720 H     1 <1>   0.1500 
 37 H       -5.6600    -0.0250     1.8300 H     1 <1>   0.1500 
 38 H       -7.5990     0.0160     0.5750 H     1 <1>   0.3700 
 39 H      -10.0420     0.2500    -1.5370 H     1 <1>   0.0800 
 40 H      -10.2990     1.5580    -0.3850 H     1 <1>   0.0800 
 41 H      -12.2010     0.2010    -0.5980 H     1 <1>   0.1500 
 42 H       -9.8830    -1.9300     2.2780 H     1 <1>   0.1500 
 43 H      -14.0890    -2.5430     2.0290 H     1 <1>   0.1500 
 44 H      -14.5960     0.1250    -0.4870 H     1 <1>   0.0800 
 45 H      -15.3870    -0.7980     0.7630 H     1 <1>   0.0800 
 46 H      -14.8610    -1.5900    -0.7050 H     1 <1>   0.0800 
 47 H      -10.9840    -3.2770     3.9410 H     1 <1>   0.0800 
 48 H      -12.0080    -4.3500     3.0170 H     1 <1>   0.0800 
 49 H      -12.7170    -3.1820     4.1080 H     1 <1>   0.0800 
@<TRIPOS>BOND
  1   1   2  2   
  2   2   3  am  
  3   2   4  1   
  4   3   5  1   
  5   3  26  1   
  6   4   6  1   
  7   4   7  1   
  8   4  27  1   
  9   5   8  ar  
 10   5   9  ar  
 11   6  28  1   
 12   6  29  1   
 13   6  30  1   
 14   7  31  1   
 15   7  32  1   
 16   7  33  1   
 17   8  10  ar  
 18   8  34  1   
 19   9  11  ar  
 20   9  35  1   
 21  10  12  ar  
 22  10  36  1   
 23  11  12  ar  
 24  11  37  1   
 25  12  13  1   
 26  13  14  am  
 27  13  38  1   
 28  14  15  2   
 29  14  16  1   
 30  16  17  1   
 31  16  39  1   
 32  16  40  1   
 33  17  18  1   
 34  18  19  ar  
 35  18  20  ar  
 36  19  21  ar  
 37  19  41  1   
 38  20  22  ar  
 39  20  42  1   
 40  21  23  ar  
 41  21  24  1   
 42  22  23  ar  
 43  22  25  1   
 44  23  43  1   
 45  24  44  1   
 46  24  45  1   
 47  24  46  1   
 48  25  47  1   
 49  25  48  1   
 50  25  49  1   
@<TRIPOS>SUBSTRUCTURE
  1 ****  13 GROUP 4 **** **** 0

# MOE 2024.06 (io_trps.svl 2023.06)
