@<TRIPOS>MOLECULE
NONAME
41 42 1 0 0 
SMALL
USER_CHARGES


@<TRIPOS>ATOM
  1 O       -0.5690    -0.2210    -0.0400 O.2   1 <1>  -0.5700 
  2 C       -1.6800    -0.6430     0.2040 C.2   1 <1>   0.5440 
  3 N       -1.8000    -1.9990     0.3010 N.am  1 <1>  -0.5470 
  4 C       -2.7940     0.2670     0.3860 C.ar  1 <1>   0.0860 
  5 C       -2.8910    -2.8380     0.3210 C.ar  1 <1>   0.4270 
  6 C       -2.9610     1.3650    -0.4600 C.ar  1 <1>  -0.1500 
  7 C       -3.7360     0.0910     1.4020 C.ar  1 <1>  -0.1500 
  8 N       -2.7040    -3.9470     1.0180 N.ar  1 <1>  -0.6200 
  9 C       -4.0740    -2.5440    -0.3550 C.ar  1 <1>  -0.1500 
 10 C       -4.0290     2.2320    -0.3220 C.ar  1 <1>  -0.1500 
 11 C       -4.8070     0.9520     1.5450 C.ar  1 <1>  -0.1500 
 12 C       -3.7330    -4.7770     1.0650 C.ar  1 <1>   0.1600 
 13 C       -5.1410    -3.4130    -0.2950 C.ar  1 <1>  -0.1430 
 14 C       -4.9680     2.0250     0.6850 C.ar  1 <1>   0.0830 
 15 C       -4.9500    -4.5630     0.4430 C.ar  1 <1>  -0.1500 
 16 C       -6.4550    -3.1310    -1.0010 C.3   1 <1>  -0.0970 
 17 O       -6.0450     2.8140     0.8850 O.3   1 <1>  -0.3630 
 18 C       -6.3170     3.9300     0.0640 C.3   1 <1>   0.1200 
 19 C       -7.6270     4.5910     0.5180 C.3   1 <1>  -0.0800 
 20 C       -8.8200     3.6310     0.3980 C.3   1 <1>  -0.2400 
 21 C       -7.8960     5.8550    -0.3090 C.3   1 <1>  -0.2400 
 22 H       -0.9140    -2.4820     0.4320 H     1 <1>   0.3700 
 23 H       -2.2340     1.5320    -1.2360 H     1 <1>   0.1500 
 24 H       -3.6270    -0.7330     2.0860 H     1 <1>   0.1500 
 25 H       -4.1500    -1.6400    -0.9270 H     1 <1>   0.1500 
 26 H       -4.1130     3.0600    -1.0000 H     1 <1>   0.1500 
 27 H       -5.5290     0.8010     2.3280 H     1 <1>   0.1500 
 28 H       -3.5980    -5.6820     1.6320 H     1 <1>   0.1500 
 29 H       -5.7350    -5.2910     0.5350 H     1 <1>   0.1500 
 30 H       -6.5020    -2.1060    -1.3240 H     1 <1>   0.0800 
 31 H       -7.2790    -3.3150    -0.3360 H     1 <1>   0.0800 
 32 H       -6.5520    -3.7690    -1.8610 H     1 <1>   0.0800 
 33 H       -6.4000     3.5890    -0.9530 H     1 <1>   0.0800 
 34 H       -5.4960     4.6190     0.1560 H     1 <1>   0.0800 
 35 H       -7.5150     4.8820     1.5490 H     1 <1>   0.0800 
 36 H       -8.9510     3.3120    -0.6210 H     1 <1>   0.0800 
 37 H       -9.7230     4.1130     0.7280 H     1 <1>   0.0800 
 38 H       -8.6630     2.7600     1.0110 H     1 <1>   0.0800 
 39 H       -8.0150     5.6110    -1.3500 H     1 <1>   0.0800 
 40 H       -7.0810     6.5500    -0.2070 H     1 <1>   0.0800 
 41 H       -8.7940     6.3380     0.0340 H     1 <1>   0.0800 
@<TRIPOS>BOND
  1   1   2  2   
  2   2   3  am  
  3   2   4  1   
  4   3   5  1   
  5   3  22  1   
  6   4   6  ar  
  7   4   7  ar  
  8   5   8  ar  
  9   5   9  ar  
 10   6  10  ar  
 11   6  23  1   
 12   7  11  ar  
 13   7  24  1   
 14   8  12  ar  
 15   9  13  ar  
 16   9  25  1   
 17  10  14  ar  
 18  10  26  1   
 19  11  14  ar  
 20  11  27  1   
 21  12  15  ar  
 22  12  28  1   
 23  13  15  ar  
 24  13  16  1   
 25  14  17  1   
 26  15  29  1   
 27  16  30  1   
 28  16  31  1   
 29  16  32  1   
 30  17  18  1   
 31  18  19  1   
 32  18  33  1   
 33  18  34  1   
 34  19  20  1   
 35  19  21  1   
 36  19  35  1   
 37  20  36  1   
 38  20  37  1   
 39  20  38  1   
 40  21  39  1   
 41  21  40  1   
 42  21  41  1   
@<TRIPOS>SUBSTRUCTURE
  1 ****   7 GROUP 4 **** **** 0

# MOE 2024.06 (io_trps.svl 2023.06)
