@<TRIPOS>MOLECULE
NONAME
23 23 1 0 0 
SMALL
USER_CHARGES


@<TRIPOS>ATOM
  1 S       -0.0860    -0.0650     0.0170 S.2   1 <1>  -0.3800 
  2 C       -1.0080    -1.3520     0.3130 C.2   1 <1>   0.5810 
  3 S       -0.1990    -2.9310     0.2950 S.3   1 <1>  -0.3710 
  4 N       -2.3400    -1.3080     0.5510 N.am  1 <1>  -0.6600 
  5 C        1.6050    -2.6230    -0.0900 C.3   1 <1>  -0.0360 
  6 C       -3.1330    -0.0400     0.5120 C.3   1 <1>   0.1400 
  7 C       -3.1940    -2.5140     0.7950 C.3   1 <1>   0.1400 
  8 C        2.4120    -3.9060    -0.1640 C.2   1 <1>   0.9060 
  9 C       -4.0090     0.0070    -0.7460 C.3   1 <1>   0.0700 
 10 C       -4.0680    -2.8070    -0.4290 C.3   1 <1>   0.0700 
 11 O        2.9790    -4.3140     0.8570 O.co2 1 <1>  -0.9000 
 12 O        2.5260    -4.4770    -1.2560 O.co2 1 <1>  -0.9000 
 13 S       -5.1720    -1.3910    -0.7240 S.3   1 <1>  -0.4600 
 14 H        2.0010    -2.0000     0.6870 H     1 <1>   0.0800 
 15 H        1.6540    -2.1220    -1.0370 H     1 <1>   0.0800 
 16 H       -2.4880     0.8190     0.5220 H     1 <1>   0.0800 
 17 H       -3.7570     0.0170     1.3860 H     1 <1>   0.0800 
 18 H       -3.8240    -2.3350     1.6480 H     1 <1>   0.0800 
 19 H       -2.6010    -3.3810     1.0190 H     1 <1>   0.0800 
 20 H       -3.4130    -0.0750    -1.6370 H     1 <1>   0.0800 
 21 H       -4.5960     0.9070    -0.7790 H     1 <1>   0.0800 
 22 H       -4.6900    -3.6680    -0.2670 H     1 <1>   0.0800 
 23 H       -3.4660    -2.9490    -1.3100 H     1 <1>   0.0800 
@<TRIPOS>BOND
  1   1   2  2   
  2   2   3  1   
  3   2   4  am  
  4   3   5  1   
  5   4   6  1   
  6   4   7  1   
  7   5   8  1   
  8   5  14  1   
  9   5  15  1   
 10   6   9  1   
 11   6  16  1   
 12   6  17  1   
 13   7  10  1   
 14   7  18  1   
 15   7  19  1   
 16   8  11  ar  
 17   8  12  ar  
 18   9  13  1   
 19   9  20  1   
 20   9  21  1   
 21  10  13  1   
 22  10  22  1   
 23  10  23  1   
@<TRIPOS>SUBSTRUCTURE
  1 ****   2 GROUP 4 **** **** 0

# MOE 2024.06 (io_trps.svl 2023.06)
