@<TRIPOS>MOLECULE
NONAME
34 34 1 0 0 
SMALL
USER_CHARGES


@<TRIPOS>ATOM
  1 CL      -0.2110    -0.1820    -0.4310 Cl    1 <1>  -0.1770 
  2 C        1.3700    -0.9210    -0.2850 C.ar  1 <1>   0.1770 
  3 C        1.5140    -2.2840    -0.0460 C.ar  1 <1>  -0.1440 
  4 C        2.4620    -0.0870    -0.4120 C.ar  1 <1>  -0.1500 
  5 C        2.8020    -2.8060     0.0920 C.ar  1 <1>  -0.1440 
  6 C        0.2750    -3.1740     0.0660 C.3   1 <1>  -0.0960 
  7 C        3.7350    -0.6070    -0.2980 C.ar  1 <1>  -0.1500 
  8 C        3.9120    -1.9660    -0.0470 C.ar  1 <1>   0.0830 
  9 C        3.0000    -4.2950     0.3930 C.3   1 <1>  -0.0960 
 10 O        5.1510    -2.5190     0.0650 O.3   1 <1>  -0.3630 
 11 C        6.3280    -1.7600    -0.0570 C.3   1 <1>   0.1200 
 12 C        7.5060    -2.7240     0.1140 C.3   1 <1>   0.3430 
 13 N        8.8440    -2.0510    -0.0250 N.4   1 <1>  -0.9590 
 14 C        9.9280    -3.0800    -0.0930 C.3   1 <1>   0.2630 
 15 C        9.1160    -1.0910     1.0930 C.3   1 <1>   0.2630 
 16 H        2.3070     0.9610    -0.6000 H     1 <1>   0.1500 
 17 H       -0.5640    -2.7580    -0.4600 H     1 <1>   0.0800 
 18 H        0.0060    -3.2940     1.0990 H     1 <1>   0.0800 
 19 H        0.4550    -4.1430    -0.3630 H     1 <1>   0.0800 
 20 H        4.5610     0.0670    -0.4070 H     1 <1>   0.1500 
 21 H        2.2830    -4.6320     1.1190 H     1 <1>   0.0800 
 22 H        3.9720    -4.5010     0.7990 H     1 <1>   0.0800 
 23 H        2.8790    -4.8660    -0.5090 H     1 <1>   0.0800 
 24 H        6.3190    -1.0110     0.7150 H     1 <1>   0.0800 
 25 H        6.3360    -1.3130    -1.0350 H     1 <1>   0.0800 
 26 H        7.4160    -3.4930    -0.6360 H     1 <1>   0.0800 
 27 H        7.4360    -3.1900     1.0840 H     1 <1>   0.0800 
 28 H        8.8520    -1.5300    -0.9170 H     1 <1>   0.4500 
 29 H        9.9570    -3.6560     0.8190 H     1 <1>   0.0800 
 30 H       10.8870    -2.6070    -0.2310 H     1 <1>   0.0800 
 31 H        9.7570    -3.7520    -0.9190 H     1 <1>   0.0800 
 32 H        9.1000    -1.6050     2.0410 H     1 <1>   0.0800 
 33 H        8.3720    -0.3110     1.1120 H     1 <1>   0.0800 
 34 H       10.0840    -0.6340     0.9660 H     1 <1>   0.0800 
@<TRIPOS>BOND
  1   1   2  1   
  2   2   3  ar  
  3   2   4  ar  
  4   3   5  ar  
  5   3   6  1   
  6   4   7  ar  
  7   4  16  1   
  8   5   8  ar  
  9   5   9  1   
 10   6  17  1   
 11   6  18  1   
 12   6  19  1   
 13   7   8  ar  
 14   7  20  1   
 15   8  10  1   
 16   9  21  1   
 17   9  22  1   
 18   9  23  1   
 19  10  11  1   
 20  11  12  1   
 21  11  24  1   
 22  11  25  1   
 23  12  13  1   
 24  12  26  1   
 25  12  27  1   
 26  13  14  1   
 27  13  15  1   
 28  13  28  1   
 29  14  29  1   
 30  14  30  1   
 31  14  31  1   
 32  15  32  1   
 33  15  33  1   
 34  15  34  1   
@<TRIPOS>SUBSTRUCTURE
  1 ****   8 GROUP 4 **** **** 0

# MOE 2024.06 (io_trps.svl 2023.06)
