@<TRIPOS>MOLECULE
NONAME
46 49 1 0 0 
SMALL
USER_CHARGES


@<TRIPOS>ATOM
  1 F        0.9170    -1.2880    -2.7590 F     1 <1>  -0.1900 
  2 C        1.9840    -1.6830    -2.1210 C.ar  1 <1>   0.1900 
  3 C        3.2160    -1.5470    -2.7290 C.ar  1 <1>  -0.1500 
  4 C        1.8470    -2.2220    -0.8570 C.ar  1 <1>  -0.1500 
  5 C        4.3420    -1.9700    -2.0450 C.ar  1 <1>  -0.1500 
  6 C        2.9840    -2.6390    -0.1870 C.ar  1 <1>  -0.1500 
  7 C        4.2480    -2.5270    -0.7690 C.ar  1 <1>   0.0280 
  8 C        5.4430    -2.9620    -0.0820 C.2   1 <1>  -0.1670 
  9 C        6.4980    -2.1650     0.1600 C.2   1 <1>  -0.2880 
 10 C        5.4720    -4.4220     0.3570 C.3   1 <1>  -0.0220 
 11 C        7.7860    -2.5770     0.8400 C.3   1 <1>   0.4810 
 12 C        6.6340    -4.7080     1.3150 C.3   1 <1>   0.3430 
 13 N        7.8860    -4.0640     0.8210 N.4   1 <1>  -0.9590 
 14 C        9.0960    -4.5480     1.5350 C.3   1 <1>   0.4860 
 15 C       10.3210    -3.9920     0.8370 C.ar  1 <1>  -0.1440 
 16 C       11.0100    -2.9150     1.3910 C.ar  1 <1>  -0.1500 
 17 C       10.7550    -4.5450    -0.3620 C.ar  1 <1>  -0.1500 
 18 C       12.1190    -2.3610     0.7640 C.ar  1 <1>   0.0820 
 19 C       11.8610    -3.9880    -0.9730 C.ar  1 <1>   0.0820 
 20 O       12.6960    -1.3030     1.3950 O.3   1 <1>  -0.3620 
 21 C       12.5350    -2.9260    -0.4420 C.ar  1 <1>   0.0820 
 22 O       12.4180    -4.3730    -2.1240 O.3   1 <1>  -0.3620 
 23 C       13.8740    -0.7110     0.8920 C.3   1 <1>   0.0400 
 24 O       13.5560    -2.6010    -1.2550 O.3   1 <1>  -0.3620 
 25 C       13.5350    -3.5170    -2.3460 C.3   1 <1>   0.4000 
 26 H        3.2850    -1.1190    -3.7140 H     1 <1>   0.1500 
 27 H        0.8710    -2.3080    -0.4140 H     1 <1>   0.1500 
 28 H        5.3080    -1.8700    -2.5080 H     1 <1>   0.1500 
 29 H        2.8830    -3.0470     0.8020 H     1 <1>   0.1500 
 30 H        6.5000    -1.1250    -0.1210 H     1 <1>   0.1500 
 31 H        5.5560    -5.0490    -0.5130 H     1 <1>   0.0800 
 32 H        4.5550    -4.6840     0.8530 H     1 <1>   0.0800 
 33 H        7.7970    -2.2070     1.8530 H     1 <1>   0.0800 
 34 H        8.6230    -2.1500     0.3100 H     1 <1>   0.0800 
 35 H        6.7670    -5.7750     1.4010 H     1 <1>   0.0800 
 36 H        6.3910    -4.3160     2.2900 H     1 <1>   0.0800 
 37 H        7.9950    -4.3080    -0.1710 H     1 <1>   0.4500 
 38 H        9.1350    -5.6250     1.5150 H     1 <1>   0.0800 
 39 H        9.0800    -4.2250     2.5640 H     1 <1>   0.0800 
 40 H       10.7030    -2.4790     2.3260 H     1 <1>   0.1500 
 41 H       10.2710    -5.3850    -0.8290 H     1 <1>   0.1500 
 42 H       14.1700     0.0730     1.5650 H     1 <1>   0.0800 
 43 H       13.6710    -0.3010    -0.0810 H     1 <1>   0.0800 
 44 H       14.6460    -1.4580     0.8390 H     1 <1>   0.0800 
 45 H       13.4030    -2.9800    -3.2690 H     1 <1>   0.0800 
 46 H       14.4410    -4.0980    -2.3490 H     1 <1>   0.0800 
@<TRIPOS>BOND
  1   1   2  1   
  2   2   3  ar  
  3   2   4  ar  
  4   3   5  ar  
  5   3  26  1   
  6   4   6  ar  
  7   4  27  1   
  8   5   7  ar  
  9   5  28  1   
 10   6   7  ar  
 11   6  29  1   
 12   7   8  1   
 13   8   9  2   
 14   8  10  1   
 15   9  11  1   
 16   9  30  1   
 17  10  12  1   
 18  10  31  1   
 19  10  32  1   
 20  11  13  1   
 21  11  33  1   
 22  11  34  1   
 23  12  13  1   
 24  12  35  1   
 25  12  36  1   
 26  13  14  1   
 27  13  37  1   
 28  14  15  1   
 29  14  38  1   
 30  14  39  1   
 31  15  16  ar  
 32  15  17  ar  
 33  16  18  ar  
 34  16  40  1   
 35  17  19  ar  
 36  17  41  1   
 37  18  20  1   
 38  18  21  ar  
 39  19  21  ar  
 40  19  22  1   
 41  20  23  1   
 42  21  24  1   
 43  22  25  1   
 44  23  42  1   
 45  23  43  1   
 46  23  44  1   
 47  24  25  1   
 48  25  45  1   
 49  25  46  1   
@<TRIPOS>SUBSTRUCTURE
  1 ****  11 GROUP 4 **** **** 0

# MOE 2024.06 (io_trps.svl 2023.06)
