@<TRIPOS>MOLECULE
NONAME
40 40 1 0 0 
SMALL
USER_CHARGES


@<TRIPOS>ATOM
  1 O       -0.3770     2.8480    -0.6960 O.3   1 <1>  -0.3630 
  2 C       -1.6090     2.3290    -0.4650 C.ar  1 <1>   0.0830 
  3 C        0.7150     2.5320     0.1290 C.3   1 <1>   0.1200 
  4 C       -2.6170     2.7100    -1.3350 C.ar  1 <1>  -0.1500 
  5 C       -1.9010     1.4550     0.5790 C.ar  1 <1>  -0.1500 
  6 C        1.9240     3.2900    -0.4210 C.3   1 <1>   0.3430 
  7 C       -3.9040     2.2280    -1.1710 C.ar  1 <1>  -0.1500 
  8 C       -3.1900     0.9760     0.7380 C.ar  1 <1>  -0.1500 
  9 N        3.1600     3.0280     0.3860 N.4   1 <1>  -0.9060 
 10 C       -4.1970     1.3570    -0.1350 C.ar  1 <1>  -0.1430 
 11 C        4.3800     3.7090    -0.0570 C.3   1 <1>   0.5030 
 12 C       -5.6110     0.8280     0.0450 C.3   1 <1>  -0.0170 
 13 C        5.4800     3.2860     0.9100 C.3   1 <1>  -0.2400 
 14 C        4.7370     3.2630    -1.4750 C.3   1 <1>  -0.2400 
 15 C        4.1830     5.2230     0.0110 C.3   1 <1>  -0.2400 
 16 C       -6.4180     1.7520     0.9590 C.3   1 <1>  -0.2400 
 17 H        0.8690     1.4680     0.0830 H     1 <1>   0.0800 
 18 H        0.4780     2.8500     1.1290 H     1 <1>   0.0800 
 19 H       -2.3950     3.3850    -2.1410 H     1 <1>   0.1500 
 20 H       -1.1540     1.1340     1.2770 H     1 <1>   0.1500 
 21 H        1.6990     4.3440    -0.4100 H     1 <1>   0.0800 
 22 H        2.0830     2.9840    -1.4420 H     1 <1>   0.0800 
 23 H       -4.6770     2.5350    -1.8540 H     1 <1>   0.1500 
 24 H       -3.4120     0.3020     1.5470 H     1 <1>   0.1500 
 25 H        3.3630     2.0240     0.3880 H     1 <1>   0.4500 
 26 H        3.0010     3.3050     1.3600 H     1 <1>   0.4500 
 27 H       -5.5780    -0.1610     0.4690 H     1 <1>   0.0800 
 28 H       -6.0960     0.7550    -0.9130 H     1 <1>   0.0800 
 29 H        5.6360     2.2210     0.8840 H     1 <1>   0.0800 
 30 H        5.2510     3.5860     1.9180 H     1 <1>   0.0800 
 31 H        6.4090     3.7560     0.6360 H     1 <1>   0.0800 
 32 H        4.0130     3.6020    -2.1930 H     1 <1>   0.0800 
 33 H        4.8260     2.1930    -1.5360 H     1 <1>   0.0800 
 34 H        5.6850     3.6860    -1.7590 H     1 <1>   0.0800 
 35 H        3.4590     5.5630    -0.7070 H     1 <1>   0.0800 
 36 H        5.1110     5.7180    -0.2180 H     1 <1>   0.0800 
 37 H        3.8830     5.5330     0.9960 H     1 <1>   0.0800 
 38 H       -5.9520     1.8180     1.9260 H     1 <1>   0.0800 
 39 H       -7.4170     1.3730     1.0810 H     1 <1>   0.0800 
 40 H       -6.4710     2.7390     0.5350 H     1 <1>   0.0800 
@<TRIPOS>BOND
  1   1   2  1   
  2   1   3  1   
  3   2   4  ar  
  4   2   5  ar  
  5   3   6  1   
  6   3  17  1   
  7   3  18  1   
  8   4   7  ar  
  9   4  19  1   
 10   5   8  ar  
 11   5  20  1   
 12   6   9  1   
 13   6  21  1   
 14   6  22  1   
 15   7  10  ar  
 16   7  23  1   
 17   8  10  ar  
 18   8  24  1   
 19   9  11  1   
 20   9  25  1   
 21   9  26  1   
 22  10  12  1   
 23  11  13  1   
 24  11  14  1   
 25  11  15  1   
 26  12  16  1   
 27  12  27  1   
 28  12  28  1   
 29  13  29  1   
 30  13  30  1   
 31  13  31  1   
 32  14  32  1   
 33  14  33  1   
 34  14  34  1   
 35  15  35  1   
 36  15  36  1   
 37  15  37  1   
 38  16  38  1   
 39  16  39  1   
 40  16  40  1   
@<TRIPOS>SUBSTRUCTURE
  1 ****   1 GROUP 4 **** **** 0

# MOE 2024.06 (io_trps.svl 2023.06)
