@<TRIPOS>MOLECULE
NONAME
47 48 1 0 0 
SMALL
USER_CHARGES


@<TRIPOS>ATOM
  1 O       -0.3070    -6.6520    -0.8710 O.3   1 <1>  -0.3630 
  2 C       -1.4840    -6.1150    -0.4800 C.ar  1 <1>   0.0830 
  3 C        0.8220    -6.1830    -0.1810 C.3   1 <1>   0.1200 
  4 C       -1.9430    -4.9460    -1.0810 C.ar  1 <1>  -0.1440 
  5 C       -2.2240    -6.7380     0.5210 C.ar  1 <1>  -0.1440 
  6 C        2.0350    -6.9540    -0.7090 C.3   1 <1>   0.3430 
  7 C       -3.1280    -4.3830    -0.6380 C.ar  1 <1>  -0.1500 
  8 C       -1.1880    -4.2730    -2.2200 C.3   1 <1>  -0.0970 
  9 C       -3.4060    -6.1550     0.9460 C.ar  1 <1>  -0.1500 
 10 C       -1.7760    -8.0480     1.1540 C.3   1 <1>  -0.0960 
 11 N        3.3250    -6.4970    -0.0950 N.4   1 <1>  -0.9590 
 12 C       -3.8590    -4.9760     0.3780 C.ar  1 <1>  -0.1430 
 13 C        4.4910    -7.0850    -0.8330 C.3   1 <1>   0.3430 
 14 C        3.4180    -6.7900     1.3650 C.3   1 <1>   0.3430 
 15 C       -5.1560    -4.3480     0.8540 C.3   1 <1>  -0.0970 
 16 C        5.8310    -6.8650    -0.0970 C.3   1 <1>  -0.0800 
 17 C        4.6090    -6.0290     1.9620 C.3   1 <1>  -0.1600 
 18 C        5.7450    -5.7510     0.9600 C.3   1 <1>  -0.1600 
 19 C        6.9520    -6.5620    -1.0990 C.3   1 <1>  -0.2400 
 20 H        0.6650    -6.3600     0.8680 H     1 <1>   0.0800 
 21 H        0.9150    -5.1300    -0.3730 H     1 <1>   0.0800 
 22 H        2.0790    -6.8110    -1.7760 H     1 <1>   0.0800 
 23 H        1.8920    -8.0040    -0.5140 H     1 <1>   0.0800 
 24 H       -3.4920    -3.4760    -1.0880 H     1 <1>   0.1500 
 25 H       -0.4090    -3.6470    -1.8260 H     1 <1>   0.0800 
 26 H       -1.8540    -3.6650    -2.8050 H     1 <1>   0.0800 
 27 H       -0.7570    -5.0120    -2.8710 H     1 <1>   0.0800 
 28 H       -3.9850    -6.6210     1.7240 H     1 <1>   0.1500 
 29 H       -1.0340    -7.8600     1.9060 H     1 <1>   0.0800 
 30 H       -1.3670    -8.7030     0.4060 H     1 <1>   0.0800 
 31 H       -2.6090    -8.5510     1.6120 H     1 <1>   0.0800 
 32 H        3.4010    -5.4760    -0.1960 H     1 <1>   0.4500 
 33 H        4.5490    -6.6320    -1.8100 H     1 <1>   0.0800 
 34 H        4.3440    -8.1440    -0.9720 H     1 <1>   0.0800 
 35 H        3.5610    -7.8490     1.5070 H     1 <1>   0.0800 
 36 H        2.5160    -6.4980     1.8770 H     1 <1>   0.0800 
 37 H       -5.1210    -3.2790     0.7390 H     1 <1>   0.0800 
 38 H       -5.3240    -4.5710     1.8920 H     1 <1>   0.0800 
 39 H       -5.9780    -4.7330     0.2780 H     1 <1>   0.0800 
 40 H        6.0840    -7.7850     0.4040 H     1 <1>   0.0800 
 41 H        4.9930    -6.6110     2.7830 H     1 <1>   0.0800 
 42 H        4.2670    -5.0970     2.3780 H     1 <1>   0.0800 
 43 H        5.5660    -4.8080     0.4690 H     1 <1>   0.0800 
 44 H        6.6800    -5.6640     1.4890 H     1 <1>   0.0800 
 45 H        6.7600    -5.6460    -1.6320 H     1 <1>   0.0800 
 46 H        7.0500    -7.3610    -1.8140 H     1 <1>   0.0800 
 47 H        7.8940    -6.4620    -0.5860 H     1 <1>   0.0800 
@<TRIPOS>BOND
  1   1   2  1   
  2   1   3  1   
  3   2   4  ar  
  4   2   5  ar  
  5   3   6  1   
  6   3  20  1   
  7   3  21  1   
  8   4   7  ar  
  9   4   8  1   
 10   5   9  ar  
 11   5  10  1   
 12   6  11  1   
 13   6  22  1   
 14   6  23  1   
 15   7  12  ar  
 16   7  24  1   
 17   8  25  1   
 18   8  26  1   
 19   8  27  1   
 20   9  12  ar  
 21   9  28  1   
 22  10  29  1   
 23  10  30  1   
 24  10  31  1   
 25  11  13  1   
 26  11  14  1   
 27  11  32  1   
 28  12  15  1   
 29  13  16  1   
 30  13  33  1   
 31  13  34  1   
 32  14  17  1   
 33  14  35  1   
 34  14  36  1   
 35  15  37  1   
 36  15  38  1   
 37  15  39  1   
 38  16  18  1   
 39  16  19  1   
 40  16  40  1   
 41  17  18  1   
 42  17  41  1   
 43  17  42  1   
 44  18  43  1   
 45  18  44  1   
 46  19  45  1   
 47  19  46  1   
 48  19  47  1   
@<TRIPOS>SUBSTRUCTURE
  1 ****   3 GROUP 4 **** **** 0

# MOE 2024.06 (io_trps.svl 2023.06)
