@<TRIPOS>MOLECULE
NONAME
36 37 1 0 0 
SMALL
USER_CHARGES


@<TRIPOS>ATOM
  1 CL      -0.1860     0.0800     0.4900 Cl    1 <1>  -0.1770 
  2 C        1.4010     0.7620     0.1880 C.ar  1 <1>   0.1770 
  3 C        1.5950     1.9630    -0.5080 C.ar  1 <1>   0.0820 
  4 C        2.4720     0.0290     0.6560 C.ar  1 <1>  -0.1500 
  5 O        0.6270     2.7750    -1.0010 O.3   1 <1>  -0.3630 
  6 C        2.8940     2.3820    -0.7290 C.ar  1 <1>  -0.1500 
  7 C        3.7910     0.4490     0.4470 C.ar  1 <1>   0.0280 
  8 C       -0.6210     2.9380    -0.3690 C.3   1 <1>   0.1200 
  9 C        3.9700     1.6460    -0.2600 C.ar  1 <1>   0.0830 
 10 C        4.9600    -0.2600     0.9000 C.2   1 <1>  -0.1670 
 11 C       -1.1780     4.2990    -0.7760 C.3   1 <1>  -0.2400 
 12 O        5.2090     2.1200    -0.4980 O.3   1 <1>  -0.2330 
 13 C        6.1870     0.2740     0.6530 C.2   1 <1>  -0.1240 
 14 C        4.7370    -1.5920     1.6240 C.3   1 <1>  -0.1020 
 15 C        6.3150     1.5120    -0.0710 C.2   1 <1>   0.7060 
 16 C        7.5030    -0.3800     1.0930 C.3   1 <1>   0.0390 
 17 O        7.3750     2.0560    -0.3100 O.2   1 <1>  -0.5700 
 18 C        7.9320    -1.4620     0.1240 C.2   1 <1>   0.6590 
 19 O        7.9680    -2.6190     0.4530 O.2   1 <1>  -0.5700 
 20 O        8.2590    -1.0640    -1.0990 O.3   1 <1>  -0.4300 
 21 C        8.6720    -1.9750    -2.0950 C.3   1 <1>   0.0400 
 22 H        2.2630    -0.8810     1.1840 H     1 <1>   0.1500 
 23 H        3.0690     3.2950    -1.2690 H     1 <1>   0.1500 
 24 H       -0.4820     2.8890     0.6970 H     1 <1>   0.0800 
 25 H       -1.2750     2.1510    -0.7000 H     1 <1>   0.0800 
 26 H       -0.5120     5.0810    -0.4590 H     1 <1>   0.0800 
 27 H       -2.1350     4.4530    -0.3110 H     1 <1>   0.0800 
 28 H       -1.3040     4.3420    -1.8430 H     1 <1>   0.0800 
 29 H        4.2050    -1.4260     2.5430 H     1 <1>   0.0800 
 30 H        5.6480    -2.1070     1.8590 H     1 <1>   0.0800 
 31 H        4.1590    -2.2520     1.0020 H     1 <1>   0.0800 
 32 H        7.3990    -0.8090     2.0710 H     1 <1>   0.0800 
 33 H        8.2960     0.3390     1.1670 H     1 <1>   0.0800 
 34 H        8.8860    -1.4230    -2.9930 H     1 <1>   0.0800 
 35 H        7.8780    -2.6800    -2.2730 H     1 <1>   0.0800 
 36 H        9.5550    -2.4870    -1.7540 H     1 <1>   0.0800 
@<TRIPOS>BOND
  1   1   2  1   
  2   2   3  ar  
  3   2   4  ar  
  4   3   5  1   
  5   3   6  ar  
  6   4   7  ar  
  7   4  22  1   
  8   5   8  1   
  9   6   9  ar  
 10   6  23  1   
 11   7   9  ar  
 12   7  10  1   
 13   8  11  1   
 14   8  24  1   
 15   8  25  1   
 16   9  12  1   
 17  10  13  2   
 18  10  14  1   
 19  11  26  1   
 20  11  27  1   
 21  11  28  1   
 22  12  15  1   
 23  13  15  1   
 24  13  16  1   
 25  14  29  1   
 26  14  30  1   
 27  14  31  1   
 28  15  17  2   
 29  16  18  1   
 30  16  32  1   
 31  16  33  1   
 32  18  19  2   
 33  18  20  1   
 34  20  21  1   
 35  21  34  1   
 36  21  35  1   
 37  21  36  1   
@<TRIPOS>SUBSTRUCTURE
  1 ****   7 GROUP 4 **** **** 0

# MOE 2024.06 (io_trps.svl 2023.06)
