@<TRIPOS>MOLECULE
NONAME
32 33 1 0 0 
SMALL
USER_CHARGES


@<TRIPOS>ATOM
  1 F       -0.8840    -2.3680    -1.9330 F     1 <1>  -0.3400 
  2 C       -1.3820    -1.6880    -0.9050 C.3   1 <1>   1.0200 
  3 F       -2.6030    -1.3120    -1.2790 F     1 <1>  -0.3400 
  4 F       -0.6700    -0.5630    -0.8570 F     1 <1>  -0.3400 
  5 C       -1.3580    -2.4790     0.4380 C.3   1 <1>   0.6800 
  6 F       -0.1190    -2.9310     0.6740 F     1 <1>  -0.3400 
  7 F       -1.5680    -1.6360     1.4620 F     1 <1>  -0.3400 
  8 C       -2.4070    -3.6490     0.5390 C.3   1 <1>   0.5800 
  9 O       -2.1590    -4.5100     1.6010 O.3   1 <1>  -0.6800 
 10 N       -2.5370    -4.5530    -0.6430 N.am  1 <1>  -0.2980 
 11 C       -3.8530    -3.1520     0.7580 C.3   1 <1>  -0.0990 
 12 N       -3.8660    -4.6420    -1.0190 N.2   1 <1>  -0.5120 
 13 C       -1.4980    -5.2070    -1.3150 C.2   1 <1>   0.5440 
 14 C       -4.5930    -3.9180    -0.2990 C.2   1 <1>   0.3280 
 15 O       -1.6340    -5.4670    -2.4940 O.2   1 <1>  -0.5700 
 16 C       -0.2530    -5.5840    -0.6860 C.ar  1 <1>   0.0860 
 17 C       -6.0920    -3.7650    -0.4240 C.3   1 <1>  -0.1790 
 18 C       -0.2150    -6.4700     0.3890 C.ar  1 <1>   0.1600 
 19 C        0.9660    -5.1090    -1.1520 C.ar  1 <1>  -0.1500 
 20 N        0.8720    -6.8750     1.0260 N.ar  1 <1>  -0.6200 
 21 C        2.1120    -5.5150    -0.5040 C.ar  1 <1>  -0.1500 
 22 C        2.0120    -6.3840     0.5690 C.ar  1 <1>   0.1600 
 23 H       -2.7940    -5.2500     1.5460 H     1 <1>   0.4000 
 24 H       -3.9720    -2.1000     0.5880 H     1 <1>   0.0800 
 25 H       -4.2240    -3.3820     1.7410 H     1 <1>   0.0800 
 26 H       -6.3410    -2.7420    -0.6340 H     1 <1>   0.0800 
 27 H       -6.5720    -4.0700     0.4870 H     1 <1>   0.0800 
 28 H       -6.4520    -4.3800    -1.2290 H     1 <1>   0.0800 
 29 H       -1.1490    -6.8730     0.7390 H     1 <1>   0.1500 
 30 H        1.0060    -4.4460    -2.0000 H     1 <1>   0.1500 
 31 H        3.0770    -5.1660    -0.8260 H     1 <1>   0.1500 
 32 H        2.9130    -6.6940     1.0720 H     1 <1>   0.1500 
@<TRIPOS>BOND
  1   1   2  1   
  2   2   3  1   
  3   2   4  1   
  4   2   5  1   
  5   5   6  1   
  6   5   7  1   
  7   5   8  1   
  8   8   9  1   
  9   8  10  1   
 10   8  11  1   
 11   9  23  1   
 12  10  12  1   
 13  10  13  am  
 14  11  14  1   
 15  11  24  1   
 16  11  25  1   
 17  12  14  2   
 18  13  15  2   
 19  13  16  1   
 20  14  17  1   
 21  16  18  ar  
 22  16  19  ar  
 23  17  26  1   
 24  17  27  1   
 25  17  28  1   
 26  18  20  ar  
 27  18  29  1   
 28  19  21  ar  
 29  19  30  1   
 30  20  22  ar  
 31  21  22  ar  
 32  21  31  1   
 33  22  32  1   
@<TRIPOS>SUBSTRUCTURE
  1 ****  10 GROUP 4 **** **** 0

# MOE 2024.06 (io_trps.svl 2023.06)
