@<TRIPOS>MOLECULE
NONAME
48 50 1 0 0 
SMALL
USER_CHARGES


@<TRIPOS>ATOM
  1 O       -0.7220     4.3460    -1.5870 O.2   1 <1>  -0.5700 
  2 C        0.2630     4.1840    -0.8890 C.2   1 <1>   0.7060 
  3 O        1.4550     4.3050    -1.4810 O.3   1 <1>  -0.2320 
  4 C        0.2120     3.9310     0.5220 C.2   1 <1>   0.0290 
  5 C        2.6260     4.2330    -0.8090 C.ar  1 <1>   0.0830 
  6 C       -1.0830     3.7430     1.1190 C.2   1 <1>   0.6160 
  7 C        1.3740     3.8370     1.2240 C.2   1 <1>  -0.1780 
  8 C        2.6280     4.0000     0.5700 C.ar  1 <1>   0.0280 
  9 C        3.8140     4.3960    -1.5050 C.ar  1 <1>  -0.1500 
 10 O       -1.3240     2.6670     1.6270 O.2   1 <1>  -0.5700 
 11 N       -2.0700     4.7150     1.1610 N.am  1 <1>  -0.6600 
 12 C        3.8560     3.9370     1.2270 C.ar  1 <1>  -0.1500 
 13 C        5.0220     4.3320    -0.8370 C.ar  1 <1>  -0.1500 
 14 C       -1.9570     6.0870     0.5730 C.3   1 <1>   0.1400 
 15 C       -3.4660     4.3760     1.5790 C.3   1 <1>   0.1400 
 16 C        5.0440     4.1010     0.5400 C.ar  1 <1>   0.0830 
 17 C       -2.9260     6.2420    -0.6210 C.3   1 <1>   0.3430 
 18 C       -4.4160     4.5000     0.3740 C.3   1 <1>   0.3430 
 19 O        6.1870     4.0240     1.2700 O.3   1 <1>  -0.3630 
 20 N       -4.3390     5.8610    -0.2660 N.4   1 <1>  -0.9590 
 21 C        7.4540     4.1660     0.6670 C.3   1 <1>   0.0400 
 22 C       -5.2230     5.9600    -1.4420 C.3   1 <1>   0.4810 
 23 C       -6.3940     6.8210    -1.0090 C.2   1 <1>  -0.2760 
 24 C       -6.5030     8.1110    -1.3430 C.2   1 <1>  -0.3000 
 25 C       -7.4590     6.1120    -0.1790 C.3   1 <1>  -0.1020 
 26 H        1.3790     3.6270     2.2800 H     1 <1>   0.1500 
 27 H        3.7870     4.5730    -2.5660 H     1 <1>   0.1500 
 28 H        3.8890     3.7580     2.2860 H     1 <1>   0.1500 
 29 H        5.9300     4.4610    -1.3950 H     1 <1>   0.1500 
 30 H       -0.9520     6.2880     0.2500 H     1 <1>   0.0800 
 31 H       -2.1990     6.8140     1.3290 H     1 <1>   0.0800 
 32 H       -3.7780     5.0410     2.3650 H     1 <1>   0.0800 
 33 H       -3.5250     3.3730     1.9670 H     1 <1>   0.0800 
 34 H       -2.5800     5.6150    -1.4270 H     1 <1>   0.0800 
 35 H       -2.8980     7.2620    -0.9670 H     1 <1>   0.0800 
 36 H       -5.4240     4.3000     0.6970 H     1 <1>   0.0800 
 37 H       -4.1440     3.7450    -0.3450 H     1 <1>   0.0800 
 38 H       -4.7070     6.5600     0.3920 H     1 <1>   0.4500 
 39 H        8.2010     4.0650     1.4330 H     1 <1>   0.0800 
 40 H        7.5210     5.1420     0.2190 H     1 <1>   0.0800 
 41 H        7.5800     3.3920    -0.0700 H     1 <1>   0.0800 
 42 H       -5.5550     4.9900    -1.7770 H     1 <1>   0.0800 
 43 H       -4.7080     6.4480    -2.2540 H     1 <1>   0.0800 
 44 H       -7.3300     8.7420    -1.0560 H     1 <1>   0.1500 
 45 H       -5.7890     8.6600    -1.9350 H     1 <1>   0.1500 
 46 H       -7.8440     5.2590    -0.7100 H     1 <1>   0.0800 
 47 H       -8.2850     6.7760     0.0160 H     1 <1>   0.0800 
 48 H       -7.0670     5.7900     0.7680 H     1 <1>   0.0800 
@<TRIPOS>BOND
  1   1   2  2   
  2   2   3  1   
  3   2   4  1   
  4   3   5  1   
  5   4   6  1   
  6   4   7  2   
  7   5   8  ar  
  8   5   9  ar  
  9   6  10  2   
 10   6  11  am  
 11   7   8  1   
 12   7  26  1   
 13   8  12  ar  
 14   9  13  ar  
 15   9  27  1   
 16  11  14  1   
 17  11  15  1   
 18  12  16  ar  
 19  12  28  1   
 20  13  16  ar  
 21  13  29  1   
 22  14  17  1   
 23  14  30  1   
 24  14  31  1   
 25  15  18  1   
 26  15  32  1   
 27  15  33  1   
 28  16  19  1   
 29  17  20  1   
 30  17  34  1   
 31  17  35  1   
 32  18  20  1   
 33  18  36  1   
 34  18  37  1   
 35  19  21  1   
 36  20  22  1   
 37  20  38  1   
 38  21  39  1   
 39  21  40  1   
 40  21  41  1   
 41  22  23  1   
 42  22  42  1   
 43  22  43  1   
 44  23  24  2   
 45  23  25  1   
 46  24  44  1   
 47  24  45  1   
 48  25  46  1   
 49  25  47  1   
 50  25  48  1   
@<TRIPOS>SUBSTRUCTURE
  1 ****   4 GROUP 4 **** **** 0

# MOE 2024.06 (io_trps.svl 2023.06)
