@<TRIPOS>MOLECULE
NONAME
44 45 1 0 0 
SMALL
USER_CHARGES


@<TRIPOS>ATOM
  1 BR      -0.7250    -0.3240     2.5350 Br    1 <1>  -0.0580 
  2 C       -2.0310     0.2720     1.2600 C.2   1 <1>   0.0980 
  3 S       -3.2800    -0.8790     0.8480 S.3   1 <1>  -0.0800 
  4 C       -2.1610     1.4420     0.6130 C.2   1 <1>  -0.1500 
  5 C       -4.0040     0.2970    -0.2510 C.2   1 <1>  -0.1400 
  6 C       -3.3000     1.4510    -0.2570 C.2   1 <1>  -0.1500 
  7 C       -5.2530    -0.1410    -0.9880 C.3   1 <1>   0.5230 
  8 N       -6.2930    -0.4890     0.0150 N.4   1 <1>  -0.9590 
  9 C       -7.4500    -1.1830    -0.6350 C.3   1 <1>   0.3430 
 10 C       -6.7210     0.7090     0.7960 C.3   1 <1>   0.3430 
 11 C       -8.4960    -1.6250     0.3970 C.3   1 <1>  -0.0190 
 12 C       -7.7260     0.2890     1.8720 C.3   1 <1>  -0.1600 
 13 C       -9.6770    -2.2300    -0.3550 C.2   1 <1>   0.5690 
 14 C       -8.9390    -0.4320     1.2670 C.3   1 <1>  -0.1600 
 15 O       -9.8850    -1.7920    -1.4630 O.2   1 <1>  -0.5700 
 16 N      -10.4550    -3.2190     0.1930 N.am  1 <1>  -0.6600 
 17 C      -10.2870    -3.7970     1.5550 C.3   1 <1>   0.1400 
 18 C      -11.6050    -3.7740    -0.5750 C.3   1 <1>   0.1400 
 19 C       -9.4150    -5.0470     1.4760 C.3   1 <1>  -0.2400 
 20 C      -12.8720    -2.9920    -0.2340 C.3   1 <1>  -0.2400 
 21 H       -1.5060     2.2910     0.7120 H     1 <1>   0.1500 
 22 H       -3.5210     2.3300    -0.8410 H     1 <1>   0.1500 
 23 H       -5.0190    -1.0010    -1.5940 H     1 <1>   0.0800 
 24 H       -5.6010     0.6500    -1.6320 H     1 <1>   0.0800 
 25 H       -5.8430    -1.1380     0.6740 H     1 <1>   0.4500 
 26 H       -7.1100    -2.0490    -1.1800 H     1 <1>   0.0800 
 27 H       -7.9220    -0.5150    -1.3380 H     1 <1>   0.0800 
 28 H       -7.1810     1.4290     0.1390 H     1 <1>   0.0800 
 29 H       -5.8670     1.1720     1.2650 H     1 <1>   0.0800 
 30 H       -8.0470    -2.3800     1.0130 H     1 <1>   0.0800 
 31 H       -8.0610     1.1680     2.3960 H     1 <1>   0.0800 
 32 H       -7.2370    -0.3450     2.5910 H     1 <1>   0.0800 
 33 H       -9.5930    -0.7690     2.0540 H     1 <1>   0.0800 
 34 H       -9.4990     0.2610     0.6590 H     1 <1>   0.0800 
 35 H      -11.2520    -4.0540     1.9600 H     1 <1>   0.0800 
 36 H       -9.8430    -3.0790     2.2200 H     1 <1>   0.0800 
 37 H      -11.7390    -4.8160    -0.3380 H     1 <1>   0.0800 
 38 H      -11.4120    -3.7010    -1.6320 H     1 <1>   0.0800 
 39 H       -9.8830    -5.7930     0.8580 H     1 <1>   0.0800 
 40 H       -9.2860    -5.4600     2.4600 H     1 <1>   0.0800 
 41 H       -8.4460    -4.8140     1.0750 H     1 <1>   0.0800 
 42 H      -13.1060    -3.0760     0.8110 H     1 <1>   0.0800 
 43 H      -13.6980    -3.3830    -0.8000 H     1 <1>   0.0800 
 44 H      -12.7460    -1.9560    -0.4930 H     1 <1>   0.0800 
@<TRIPOS>BOND
  1   1   2  1   
  2   2   3  1   
  3   2   4  2   
  4   3   5  1   
  5   4   6  1   
  6   4  21  1   
  7   5   6  2   
  8   5   7  1   
  9   6  22  1   
 10   7   8  1   
 11   7  23  1   
 12   7  24  1   
 13   8   9  1   
 14   8  10  1   
 15   8  25  1   
 16   9  11  1   
 17   9  26  1   
 18   9  27  1   
 19  10  12  1   
 20  10  28  1   
 21  10  29  1   
 22  11  13  1   
 23  11  14  1   
 24  11  30  1   
 25  12  14  1   
 26  12  31  1   
 27  12  32  1   
 28  13  15  2   
 29  13  16  am  
 30  14  33  1   
 31  14  34  1   
 32  16  17  1   
 33  16  18  1   
 34  17  19  1   
 35  17  35  1   
 36  17  36  1   
 37  18  20  1   
 38  18  37  1   
 39  18  38  1   
 40  19  39  1   
 41  19  40  1   
 42  19  41  1   
 43  20  42  1   
 44  20  43  1   
 45  20  44  1   
@<TRIPOS>SUBSTRUCTURE
  1 ****   8 GROUP 4 **** **** 0

# MOE 2024.06 (io_trps.svl 2023.06)
