@<TRIPOS>MOLECULE
NONAME
39 39 1 0 0 
SMALL
USER_CHARGES


@<TRIPOS>ATOM
  1 S        0.6770    -2.9080    -3.2070 S.3   1 <1>  -0.3710 
  2 C       -0.5250    -3.4140    -1.9920 C.2   1 <1>   0.6510 
  3 C        2.2790    -3.4770    -2.4420 C.3   1 <1>   0.0700 
  4 N       -0.0620    -3.9230    -0.9250 N.2   1 <1>  -0.6210 
  5 N       -1.8310    -3.1980    -2.2620 N.am  1 <1>  -0.4900 
  6 C        2.5470    -2.6770    -1.1490 C.3   1 <1>   0.3430 
  7 C       -0.9280    -4.2470     0.0670 C.2   1 <1>   0.0210 
  8 C       -2.7570    -3.5400    -1.3160 C.2   1 <1>   0.6160 
  9 N        3.3190    -3.4450    -0.1090 N.4   1 <1>  -0.9590 
 10 O       -0.3850    -4.6680     1.0940 O.3   1 <1>  -0.8500 
 11 C       -2.3010    -4.0770    -0.1100 C.2   1 <1>  -0.1240 
 12 O       -3.9400    -3.3260    -1.6210 O.2   1 <1>  -0.5700 
 13 C        2.4340    -4.4940     0.5010 C.3   1 <1>   0.3430 
 14 C        3.7780    -2.5300     0.9650 C.3   1 <1>   0.3430 
 15 C       -3.2730    -4.4670     0.9950 C.3   1 <1>  -0.0220 
 16 C        3.2800    -5.5370     1.2220 C.3   1 <1>  -0.2400 
 17 C        4.9790    -1.7270     0.4800 C.3   1 <1>  -0.2400 
 18 C       -3.7780    -5.8980     0.7920 C.3   1 <1>  -0.2400 
 19 H        3.0530    -3.3200    -3.1700 H     1 <1>   0.0800 
 20 H        2.1560    -4.5280    -2.2480 H     1 <1>   0.0800 
 21 H       -2.1570    -2.8020    -3.1320 H     1 <1>   0.3700 
 22 H        1.6080    -2.3740    -0.7160 H     1 <1>   0.0800 
 23 H        3.0780    -1.7810    -1.4170 H     1 <1>   0.0800 
 24 H        4.1200    -3.9180    -0.5350 H     1 <1>   0.4500 
 25 H        1.8600    -4.9970    -0.2600 H     1 <1>   0.0800 
 26 H        1.7260    -4.0440     1.1800 H     1 <1>   0.0800 
 27 H        4.0690    -3.1000     1.8310 H     1 <1>   0.0800 
 28 H        2.9730    -1.8730     1.2560 H     1 <1>   0.0800 
 29 H       -4.1030    -3.7840     1.0090 H     1 <1>   0.0800 
 30 H       -2.7720    -4.3980     1.9460 H     1 <1>   0.0800 
 31 H        3.9750    -6.0010     0.5470 H     1 <1>   0.0800 
 32 H        2.6160    -6.2980     1.5930 H     1 <1>   0.0800 
 33 H        3.7970    -5.1190     2.0650 H     1 <1>   0.0800 
 34 H        5.7780    -2.3810     0.1810 H     1 <1>   0.0800 
 35 H        5.3380    -1.1130     1.2880 H     1 <1>   0.0800 
 36 H        4.7170    -1.0750    -0.3330 H     1 <1>   0.0800 
 37 H       -4.2980    -5.9780    -0.1450 H     1 <1>   0.0800 
 38 H       -4.4420    -6.1730     1.5900 H     1 <1>   0.0800 
 39 H       -2.9390    -6.5730     0.7870 H     1 <1>   0.0800 
@<TRIPOS>BOND
  1   1   2  1   
  2   1   3  1   
  3   2   4  2   
  4   2   5  1   
  5   3   6  1   
  6   3  19  1   
  7   3  20  1   
  8   4   7  1   
  9   5   8  am  
 10   5  21  1   
 11   6   9  1   
 12   6  22  1   
 13   6  23  1   
 14   7  10  1   
 15   7  11  2   
 16   8  11  1   
 17   8  12  2   
 18   9  13  1   
 19   9  14  1   
 20   9  24  1   
 21  11  15  1   
 22  13  16  1   
 23  13  25  1   
 24  13  26  1   
 25  14  17  1   
 26  14  27  1   
 27  14  28  1   
 28  15  18  1   
 29  15  29  1   
 30  15  30  1   
 31  16  31  1   
 32  16  32  1   
 33  16  33  1   
 34  17  34  1   
 35  17  35  1   
 36  17  36  1   
 37  18  37  1   
 38  18  38  1   
 39  18  39  1   
@<TRIPOS>SUBSTRUCTURE
  1 ****   4 GROUP 4 **** **** 0

# MOE 2024.06 (io_trps.svl 2023.06)
