@<TRIPOS>MOLECULE
NONAME
52 53 1 0 0 
SMALL
USER_CHARGES


@<TRIPOS>ATOM
  1 O       -0.1570    -1.3050    -1.5250 O.2   1 <1>  -0.5700 
  2 C        0.5130    -1.7580    -0.6180 C.2   1 <1>   0.5440 
  3 N       -0.1210    -2.4000     0.4170 N.am  1 <1>  -0.7300 
  4 C        1.9590    -1.6120    -0.6170 C.ar  1 <1>   0.0860 
  5 C       -1.5610    -2.6950     0.5760 C.3   1 <1>   0.2200 
  6 C        2.7880    -2.5080     0.0570 C.ar  1 <1>  -0.1500 
  7 C        2.5760    -0.5620    -1.2980 C.ar  1 <1>  -0.1500 
  8 C       -2.0510    -3.5730    -0.5780 C.3   1 <1>  -0.1600 
  9 C       -2.3630    -1.3940     0.6560 C.3   1 <1>  -0.1600 
 10 C        4.1630    -2.3610     0.0730 C.ar  1 <1>   0.0830 
 11 C        3.9500    -0.4040    -1.2950 C.ar  1 <1>  -0.1500 
 12 C       -3.5560    -3.8520    -0.5120 C.3   1 <1>   0.5030 
 13 C       -3.8740    -1.6340     0.7430 C.3   1 <1>   0.5030 
 14 O        4.8600    -3.2900     0.7700 O.3   1 <1>  -0.3630 
 15 C        4.7490    -1.2990    -0.6090 C.ar  1 <1>  -0.1500 
 16 N       -4.3080    -2.6110    -0.2680 N.4   1 <1>  -0.9060 
 17 C       -3.9020    -4.9090     0.5400 C.3   1 <1>  -0.2400 
 18 C       -4.0410    -4.3600    -1.8690 C.3   1 <1>  -0.2400 
 19 C       -4.6170    -0.3430     0.4040 C.3   1 <1>  -0.2400 
 20 C       -4.3090    -2.0760     2.1430 C.3   1 <1>  -0.2400 
 21 C        6.2690    -3.2760     0.8060 C.3   1 <1>   0.2580 
 22 C        6.7300    -4.4510     1.6460 C.2   1 <1>  -0.2880 
 23 C        7.5510    -5.4230     1.2380 C.2   1 <1>  -0.3000 
 24 H        0.4640    -2.6820     1.2070 H     1 <1>   0.3700 
 25 H       -1.6780    -3.2350     1.5000 H     1 <1>   0.0800 
 26 H        2.3710    -3.3490     0.5780 H     1 <1>   0.1500 
 27 H        1.9630     0.1410    -1.8380 H     1 <1>   0.1500 
 28 H       -1.5120    -4.5040    -0.5720 H     1 <1>   0.0800 
 29 H       -1.8380    -3.0900    -1.5130 H     1 <1>   0.0800 
 30 H       -2.1650    -0.7960    -0.2140 H     1 <1>   0.0800 
 31 H       -2.0390    -0.8270     1.5110 H     1 <1>   0.0800 
 32 H        4.3970     0.4180    -1.8280 H     1 <1>   0.1500 
 33 H        5.8130    -1.1530    -0.6200 H     1 <1>   0.1500 
 34 H       -5.2840    -2.8490    -0.0940 H     1 <1>   0.4500 
 35 H       -4.2860    -2.1050    -1.1570 H     1 <1>   0.4500 
 36 H       -3.4390    -4.7150     1.4860 H     1 <1>   0.0800 
 37 H       -3.5370    -5.8690     0.2190 H     1 <1>   0.0800 
 38 H       -4.9660    -4.9950     0.6720 H     1 <1>   0.0800 
 39 H       -3.8500    -3.6430    -2.6480 H     1 <1>   0.0800 
 40 H       -5.0930    -4.5860    -1.8480 H     1 <1>   0.0800 
 41 H       -3.5180    -5.2640    -2.1300 H     1 <1>   0.0800 
 42 H       -4.3720     0.0030    -0.5850 H     1 <1>   0.0800 
 43 H       -4.3360     0.4340     1.0940 H     1 <1>   0.0800 
 44 H       -5.6820    -0.4740     0.4780 H     1 <1>   0.0800 
 45 H       -3.7040    -2.8700     2.5300 H     1 <1>   0.0800 
 46 H       -5.3420    -2.3750     2.1550 H     1 <1>   0.0800 
 47 H       -4.2010    -1.2550     2.8300 H     1 <1>   0.0800 
 48 H        6.5890    -2.3490     1.2490 H     1 <1>   0.0800 
 49 H        6.6380    -3.3570    -0.2020 H     1 <1>   0.0800 
 50 H        6.3110    -4.4230     2.6380 H     1 <1>   0.1500 
 51 H        7.8590    -6.2470     1.8600 H     1 <1>   0.1500 
 52 H        7.9830    -5.4830     0.2540 H     1 <1>   0.1500 
@<TRIPOS>BOND
  1   1   2  2   
  2   2   3  am  
  3   2   4  1   
  4   3   5  1   
  5   3  24  1   
  6   4   6  ar  
  7   4   7  ar  
  8   5   8  1   
  9   5   9  1   
 10   5  25  1   
 11   6  10  ar  
 12   6  26  1   
 13   7  11  ar  
 14   7  27  1   
 15   8  12  1   
 16   8  28  1   
 17   8  29  1   
 18   9  13  1   
 19   9  30  1   
 20   9  31  1   
 21  10  14  1   
 22  10  15  ar  
 23  11  15  ar  
 24  11  32  1   
 25  12  16  1   
 26  12  17  1   
 27  12  18  1   
 28  13  16  1   
 29  13  19  1   
 30  13  20  1   
 31  14  21  1   
 32  15  33  1   
 33  16  34  1   
 34  16  35  1   
 35  17  36  1   
 36  17  37  1   
 37  17  38  1   
 38  18  39  1   
 39  18  40  1   
 40  18  41  1   
 41  19  42  1   
 42  19  43  1   
 43  19  44  1   
 44  20  45  1   
 45  20  46  1   
 46  20  47  1   
 47  21  22  1   
 48  21  48  1   
 49  21  49  1   
 50  22  23  2   
 51  22  50  1   
 52  23  51  1   
 53  23  52  1   
@<TRIPOS>SUBSTRUCTURE
  1 ****   3 GROUP 4 **** **** 0

# MOE 2024.06 (io_trps.svl 2023.06)
