@<TRIPOS>MOLECULE
NONAME
42 44 1 0 0 
SMALL
USER_CHARGES


@<TRIPOS>ATOM
  1 F       -2.4160    -0.5180     2.4630 F     1 <1>  -0.3400 
  2 C       -2.3020     0.3400     1.4510 C.3   1 <1>   1.0810 
  3 F       -1.9950    -0.4050     0.3860 F     1 <1>  -0.3400 
  4 F       -1.2150     1.0690     1.7010 F     1 <1>  -0.3400 
  5 C       -3.5930     1.1990     1.2100 C.2   1 <1>   0.5690 
  6 O       -4.0140     1.9150     2.0950 O.2   1 <1>  -0.5700 
  7 N       -4.2650     1.1410     0.0060 N.am  1 <1>  -0.7300 
  8 C       -5.5070     1.9070    -0.3900 C.3   1 <1>   0.2810 
  9 C       -5.5280     3.3670     0.1360 C.2   1 <1>   0.6590 
 10 C       -6.7900     1.0360    -0.1740 C.3   1 <1>   0.0000 
 11 O       -6.4100     3.8460     0.8050 O.2   1 <1>  -0.5700 
 12 O       -4.4810     4.1030    -0.2370 O.3   1 <1>  -0.4300 
 13 C       -6.6220    -0.3480    -0.8680 C.3   1 <1>  -0.1600 
 14 C       -8.0320     1.7150    -0.8140 C.3   1 <1>  -0.1600 
 15 C       -7.0880     0.7760     1.3270 C.3   1 <1>  -0.1600 
 16 C       -4.3160     5.4340     0.2060 C.3   1 <1>   0.0400 
 17 C       -7.8790    -1.2220    -0.7010 C.3   1 <1>  -0.0800 
 18 C       -9.2970     0.8550    -0.6410 C.3   1 <1>  -0.0800 
 19 C       -8.3520    -0.0880     1.5000 C.3   1 <1>  -0.0800 
 20 C       -9.0850    -0.5040    -1.3300 C.3   1 <1>  -0.1600 
 21 C       -8.1430    -1.4420     0.7990 C.3   1 <1>  -0.1600 
 22 C       -9.5520     0.6340     0.8610 C.3   1 <1>  -0.1600 
 23 H       -3.9260     0.4980    -0.7150 H     1 <1>   0.3700 
 24 H       -5.4320     2.0340    -1.4550 H     1 <1>   0.0800 
 25 H       -5.7930    -0.8850    -0.4450 H     1 <1>   0.0800 
 26 H       -6.4250    -0.2120    -1.9170 H     1 <1>   0.0800 
 27 H       -7.8620     1.8860    -1.8630 H     1 <1>   0.0800 
 28 H       -8.2230     2.6710    -0.3610 H     1 <1>   0.0800 
 29 H       -6.2580     0.2760     1.7910 H     1 <1>   0.0800 
 30 H       -7.2300     1.7050     1.8490 H     1 <1>   0.0800 
 31 H       -3.4040     5.8220    -0.2100 H     1 <1>   0.0800 
 32 H       -4.2650     5.4360     1.2810 H     1 <1>   0.0800 
 33 H       -5.1560     6.0190    -0.1260 H     1 <1>   0.0800 
 34 H       -7.7310    -2.1720    -1.1860 H     1 <1>   0.0800 
 35 H      -10.1410     1.3570    -1.0810 H     1 <1>   0.0800 
 36 H       -8.5400    -0.2450     2.5480 H     1 <1>   0.0800 
 37 H       -8.9170    -0.3580    -2.3830 H     1 <1>   0.0800 
 38 H       -9.9680    -1.1090    -1.2200 H     1 <1>   0.0800 
 39 H       -7.3110    -1.9580     1.2460 H     1 <1>   0.0800 
 40 H       -9.0160    -2.0570     0.9300 H     1 <1>   0.0800 
 41 H      -10.4440     0.0470     0.9960 H     1 <1>   0.0800 
 42 H       -9.7070     1.5810     1.3480 H     1 <1>   0.0800 
@<TRIPOS>BOND
  1   1   2  1   
  2   2   3  1   
  3   2   4  1   
  4   2   5  1   
  5   5   6  2   
  6   5   7  am  
  7   7   8  1   
  8   7  23  1   
  9   8   9  1   
 10   8  10  1   
 11   8  24  1   
 12   9  11  2   
 13   9  12  1   
 14  10  13  1   
 15  10  14  1   
 16  10  15  1   
 17  12  16  1   
 18  13  17  1   
 19  13  25  1   
 20  13  26  1   
 21  14  18  1   
 22  14  27  1   
 23  14  28  1   
 24  15  19  1   
 25  15  29  1   
 26  15  30  1   
 27  16  31  1   
 28  16  32  1   
 29  16  33  1   
 30  17  20  1   
 31  17  21  1   
 32  17  34  1   
 33  18  20  1   
 34  18  22  1   
 35  18  35  1   
 36  19  21  1   
 37  19  22  1   
 38  19  36  1   
 39  20  37  1   
 40  20  38  1   
 41  21  39  1   
 42  21  40  1   
 43  22  41  1   
 44  22  42  1   
@<TRIPOS>SUBSTRUCTURE
  1 ****   8 GROUP 4 **** **** 0

# MOE 2024.06 (io_trps.svl 2023.06)
