@<TRIPOS>MOLECULE
NONAME
39 40 1 0 0 
SMALL
USER_CHARGES


@<TRIPOS>ATOM
  1 O       -0.2550     0.5820     0.7570 O.2   1 <1>  -0.5700 
  2 C       -0.0750     1.5470     0.0340 C.2   1 <1>   0.7160 
  3 N       -1.1570     2.0310    -0.6600 N.am  1 <1>  -0.7300 
  4 C        1.2230     2.2010    -0.1020 C.2   1 <1>   0.2030 
  5 C       -2.5100     1.4240    -0.6590 C.3   1 <1>   0.1400 
  6 N        2.4120     1.6300    -0.0290 N.2   1 <1>  -0.7070 
  7 C        1.3760     3.5730    -0.3480 C.2   1 <1>  -0.1500 
  8 C       -3.3650     2.0520     0.4410 C.3   1 <1>  -0.0170 
  9 N        3.3050     2.6070    -0.2160 N.pl3 1 <1>   0.3140 
 10 C        2.7020     3.7930    -0.4160 C.2   1 <1>  -0.3020 
 11 C       -4.7740     1.4850     0.3980 C.ar  1 <1>  -0.1430 
 12 C        4.7600     2.3520    -0.1960 C.3   1 <1>   0.0960 
 13 C       -5.0510     0.2710     1.0080 C.ar  1 <1>  -0.1500 
 14 C       -5.7910     2.1670    -0.2530 C.ar  1 <1>  -0.1500 
 15 C        5.3840     2.8060     1.1300 C.3   1 <1>  -0.2400 
 16 C       -6.3310    -0.2530     0.9660 C.ar  1 <1>  -0.1500 
 17 C       -7.0720     1.6440    -0.2970 C.ar  1 <1>  -0.1500 
 18 C       -7.3490     0.4250     0.3160 C.ar  1 <1>   0.0830 
 19 O       -8.5730    -0.1580     0.3200 O.3   1 <1>  -0.3620 
 20 C       -9.6790     0.4550    -0.3040 C.3   1 <1>   0.0400 
 21 H       -0.9960     2.7710    -1.3420 H     1 <1>   0.3700 
 22 H       -2.4330     0.3620    -0.4920 H     1 <1>   0.0800 
 23 H       -2.9740     1.5790    -1.6180 H     1 <1>   0.0800 
 24 H        0.5790     4.2880    -0.4490 H     1 <1>   0.1500 
 25 H       -3.3990     3.1190     0.3130 H     1 <1>   0.0800 
 26 H       -2.9230     1.8400     1.3990 H     1 <1>   0.0800 
 27 H        3.2440     4.7050    -0.5860 H     1 <1>   0.1500 
 28 H        5.2100     2.8730    -1.0200 H     1 <1>   0.0800 
 29 H        4.9160     1.2960    -0.3310 H     1 <1>   0.0800 
 30 H       -4.2720    -0.2700     1.5170 H     1 <1>   0.1500 
 31 H       -5.5900     3.1100    -0.7300 H     1 <1>   0.1500 
 32 H        5.2480     3.8630     1.2690 H     1 <1>   0.0800 
 33 H        6.4370     2.5920     1.1290 H     1 <1>   0.0800 
 34 H        4.9280     2.2770     1.9490 H     1 <1>   0.0800 
 35 H       -6.5490    -1.1940     1.4380 H     1 <1>   0.1500 
 36 H       -7.8370     2.1960    -0.8080 H     1 <1>   0.1500 
 37 H      -10.5340    -0.1820    -0.1690 H     1 <1>   0.0800 
 38 H       -9.4680     0.5670    -1.3530 H     1 <1>   0.0800 
 39 H       -9.8560     1.4090     0.1600 H     1 <1>   0.0800 
@<TRIPOS>BOND
  1   1   2  2   
  2   2   3  am  
  3   2   4  1   
  4   3   5  1   
  5   3  21  1   
  6   4   6  2   
  7   4   7  1   
  8   5   8  1   
  9   5  22  1   
 10   5  23  1   
 11   6   9  1   
 12   7  10  2   
 13   7  24  1   
 14   8  11  1   
 15   8  25  1   
 16   8  26  1   
 17   9  10  1   
 18   9  12  1   
 19  10  27  1   
 20  11  13  ar  
 21  11  14  ar  
 22  12  15  1   
 23  12  28  1   
 24  12  29  1   
 25  13  16  ar  
 26  13  30  1   
 27  14  17  ar  
 28  14  31  1   
 29  15  32  1   
 30  15  33  1   
 31  15  34  1   
 32  16  18  ar  
 33  16  35  1   
 34  17  18  ar  
 35  17  36  1   
 36  18  19  1   
 37  19  20  1   
 38  20  37  1   
 39  20  38  1   
 40  20  39  1   
@<TRIPOS>SUBSTRUCTURE
  1 ****   5 GROUP 4 **** **** 0

# MOE 2024.06 (io_trps.svl 2023.06)
