@<TRIPOS>MOLECULE
NONAME
25 26 1 0 0 
SMALL
USER_CHARGES


@<TRIPOS>ATOM
  1 CL       0.2010     0.2580     0.5990 Cl    1 <1>  -0.1770 
  2 C        1.6780     1.0650     0.1580 C.ar  1 <1>   0.7970 
  3 N        2.7590     0.3150     0.2120 N.ar  1 <1>  -0.6200 
  4 N        1.5420     2.3300    -0.1830 N.ar  1 <1>  -0.6200 
  5 C        3.8760     0.9330    -0.1190 C.ar  1 <1>   0.4100 
  6 C        2.6650     2.9140    -0.5140 C.ar  1 <1>   0.4100 
  7 N        5.0510     0.2110    -0.0700 N.pl3 1 <1>  -0.8380 
  8 C        3.8670     2.2540    -0.5020 C.ar  1 <1>  -0.1500 
  9 N        2.5480     4.2140    -0.8790 N.pl3 1 <1>  -0.9000 
 10 C        5.0030    -1.2840    -0.1160 C.3   1 <1>   0.2090 
 11 C        6.1710     0.7040     0.7870 C.3   1 <1>   0.2090 
 12 C        6.3890    -1.8720    -0.4370 C.3   1 <1>   0.1200 
 13 C        7.4950     0.0140     0.4100 C.3   1 <1>   0.1200 
 14 O        7.3640    -1.3800     0.4420 O.3   1 <1>  -0.5600 
 15 H        4.7710     2.7510    -0.7850 H     1 <1>   0.1500 
 16 H        3.1710     4.5840    -1.5960 H     1 <1>   0.4000 
 17 H        1.5810     4.5370    -0.9660 H     1 <1>   0.4000 
 18 H        4.2990    -1.6000    -0.8660 H     1 <1>   0.0800 
 19 H        4.6680    -1.6610     0.8350 H     1 <1>   0.0800 
 20 H        5.9470     0.4940     1.8190 H     1 <1>   0.0800 
 21 H        6.2820     1.7680     0.6800 H     1 <1>   0.0800 
 22 H        6.6760    -1.6220    -1.4440 H     1 <1>   0.0800 
 23 H        6.3680    -2.9420    -0.3390 H     1 <1>   0.0800 
 24 H        8.2670     0.2870     1.1070 H     1 <1>   0.0800 
 25 H        7.8020     0.3080    -0.5790 H     1 <1>   0.0800 
@<TRIPOS>BOND
  1   1   2  1   
  2   2   3  ar  
  3   2   4  ar  
  4   3   5  ar  
  5   4   6  ar  
  6   5   7  1   
  7   5   8  ar  
  8   6   8  ar  
  9   6   9  1   
 10   7  10  1   
 11   7  11  1   
 12   8  15  1   
 13   9  16  1   
 14   9  17  1   
 15  10  12  1   
 16  10  18  1   
 17  10  19  1   
 18  11  13  1   
 19  11  20  1   
 20  11  21  1   
 21  12  14  1   
 22  12  22  1   
 23  12  23  1   
 24  13  14  1   
 25  13  24  1   
 26  13  25  1   
@<TRIPOS>SUBSTRUCTURE
  1 ****   5 GROUP 4 **** **** 0

# MOE 2024.06 (io_trps.svl 2023.06)
