@<TRIPOS>MOLECULE
NONAME
26 26 1 0 0 
SMALL
USER_CHARGES


@<TRIPOS>ATOM
  1 CL      -0.1110    -0.3210    -0.0120 Cl    1 <1>  -0.1770 
  2 C        1.5330    -0.9270    -0.0910 C.ar  1 <1>   0.1770 
  3 C        1.7490    -2.2500    -0.4570 C.ar  1 <1>  -0.1440 
  4 C        2.5850    -0.0730     0.2130 C.ar  1 <1>  -0.1440 
  5 C        3.0520    -2.7160    -0.5150 C.ar  1 <1>  -0.1500 
  6 C        0.5890    -3.1770    -0.7890 C.3   1 <1>  -0.0960 
  7 C        3.8820    -0.5590     0.1490 C.ar  1 <1>  -0.1500 
  8 C        2.3300     1.3740     0.6120 C.3   1 <1>  -0.0960 
  9 C        4.1190    -1.8830    -0.2160 C.ar  1 <1>   0.0830 
 10 O        5.3580    -2.4310    -0.3020 O.3   1 <1>  -0.3630 
 11 C        6.5220    -1.6650    -0.0160 C.3   1 <1>   0.1810 
 12 C        7.7940    -2.4900    -0.1790 C.2   1 <1>   0.5690 
 13 O        8.8610    -1.9730     0.0310 O.2   1 <1>  -0.5700 
 14 N        7.7350    -3.7850    -0.5530 N.am  1 <1>  -0.8000 
 15 H        3.2550    -3.7340    -0.7950 H     1 <1>   0.1500 
 16 H        0.0300    -2.7840    -1.6190 H     1 <1>   0.0800 
 17 H       -0.0660    -3.2640     0.0600 H     1 <1>   0.0800 
 18 H        0.9410    -4.1590    -1.0490 H     1 <1>   0.0800 
 19 H        4.6920     0.1030     0.3840 H     1 <1>   0.1500 
 20 H        1.7200     1.4080     1.4980 H     1 <1>   0.0800 
 21 H        1.8170     1.8880    -0.1810 H     1 <1>   0.0800 
 22 H        3.2500     1.8910     0.8130 H     1 <1>   0.0800 
 23 H        6.4580    -1.3150     0.9980 H     1 <1>   0.0800 
 24 H        6.5560    -0.8310    -0.6920 H     1 <1>   0.0800 
 25 H        8.5890    -4.3320    -0.6600 H     1 <1>   0.3700 
 26 H        6.8450    -4.2510    -0.7380 H     1 <1>   0.3700 
@<TRIPOS>BOND
  1   1   2  1   
  2   2   3  ar  
  3   2   4  ar  
  4   3   5  ar  
  5   3   6  1   
  6   4   7  ar  
  7   4   8  1   
  8   5   9  ar  
  9   5  15  1   
 10   6  16  1   
 11   6  17  1   
 12   6  18  1   
 13   7   9  ar  
 14   7  19  1   
 15   8  20  1   
 16   8  21  1   
 17   8  22  1   
 18   9  10  1   
 19  10  11  1   
 20  11  12  1   
 21  11  23  1   
 22  11  24  1   
 23  12  13  2   
 24  12  14  am  
 25  14  25  1   
 26  14  26  1   
@<TRIPOS>SUBSTRUCTURE
  1 ****   9 GROUP 4 **** **** 0

# MOE 2024.06 (io_trps.svl 2023.06)
