@<TRIPOS>MOLECULE
NONAME
35 36 1 0 0 
SMALL
USER_CHARGES


@<TRIPOS>ATOM
  1 S       -0.0880    -0.0680    -1.2730 S.3   1 <1>  -0.3710 
  2 C        0.0480     1.6250    -0.6870 C.2   1 <1>   0.5050 
  3 C        1.6580    -0.5880    -1.5850 C.3   1 <1>  -0.0100 
  4 N        1.2200     2.1080    -0.6030 N.2   1 <1>  -0.6960 
  5 C       -1.1920     2.3030    -0.3520 C.ar  1 <1>   0.0860 
  6 C        1.3960     3.4840    -0.1470 C.3   1 <1>   0.2460 
  7 C       -1.1510     3.6880    -0.2230 C.ar  1 <1>  -0.1440 
  8 C       -2.4150     1.6700    -0.1300 C.ar  1 <1>  -0.1500 
  9 C        0.1790     4.3780    -0.4960 C.3   1 <1>  -0.0160 
 10 C        2.6510     4.0220    -0.8340 C.3   1 <1>  -0.2400 
 11 C        1.6260     3.4320     1.3660 C.3   1 <1>  -0.2400 
 12 C       -2.2810     4.4080     0.1180 C.ar  1 <1>  -0.1500 
 13 C       -3.5550     2.3810     0.2110 C.ar  1 <1>  -0.1430 
 14 C       -3.4880     3.7640     0.3380 C.ar  1 <1>  -0.1430 
 15 C       -4.8570     1.6260     0.4400 C.3   1 <1>  -0.0970 
 16 C       -4.7110     4.5900     0.7120 C.3   1 <1>  -0.0970 
 17 H        1.6440    -1.6020    -1.9400 H     1 <1>   0.0800 
 18 H        2.1950    -0.5090    -0.6570 H     1 <1>   0.0800 
 19 H        2.0710     0.0770    -2.3220 H     1 <1>   0.0800 
 20 H       -2.4740     0.6010    -0.2190 H     1 <1>   0.1500 
 21 H        0.2130     4.6260    -1.5420 H     1 <1>   0.0800 
 22 H        0.2400     5.3000     0.0540 H     1 <1>   0.0800 
 23 H        2.5250     4.0130    -1.9020 H     1 <1>   0.0800 
 24 H        3.5010     3.4140    -0.5830 H     1 <1>   0.0800 
 25 H        2.8480     5.0310    -0.5200 H     1 <1>   0.0800 
 26 H        1.8320     4.4150     1.7480 H     1 <1>   0.0800 
 27 H        0.7550     3.0500     1.8670 H     1 <1>   0.0800 
 28 H        2.4630     2.7960     1.5930 H     1 <1>   0.0800 
 29 H       -2.2210     5.4780     0.2090 H     1 <1>   0.1500 
 30 H       -4.7230     0.5690     0.2920 H     1 <1>   0.0800 
 31 H       -5.6070     1.9690    -0.2490 H     1 <1>   0.0800 
 32 H       -5.2020     1.7840     1.4450 H     1 <1>   0.0800 
 33 H       -4.4680     5.6350     0.7690 H     1 <1>   0.0800 
 34 H       -5.0870     4.2790     1.6700 H     1 <1>   0.0800 
 35 H       -5.4810     4.4620    -0.0270 H     1 <1>   0.0800 
@<TRIPOS>BOND
  1   1   2  1   
  2   1   3  1   
  3   2   4  2   
  4   2   5  1   
  5   3  17  1   
  6   3  18  1   
  7   3  19  1   
  8   4   6  1   
  9   5   7  ar  
 10   5   8  ar  
 11   6   9  1   
 12   6  10  1   
 13   6  11  1   
 14   7   9  1   
 15   7  12  ar  
 16   8  13  ar  
 17   8  20  1   
 18   9  21  1   
 19   9  22  1   
 20  10  23  1   
 21  10  24  1   
 22  10  25  1   
 23  11  26  1   
 24  11  27  1   
 25  11  28  1   
 26  12  14  ar  
 27  12  29  1   
 28  13  14  ar  
 29  13  15  1   
 30  14  16  1   
 31  15  30  1   
 32  15  31  1   
 33  15  32  1   
 34  16  33  1   
 35  16  34  1   
 36  16  35  1   
@<TRIPOS>SUBSTRUCTURE
  1 ****   5 GROUP 4 **** **** 0

# MOE 2024.06 (io_trps.svl 2023.06)
