@<TRIPOS>MOLECULE
NONAME
48 50 1 0 0 
SMALL
USER_CHARGES


@<TRIPOS>ATOM
  1 S        0.4260     0.0270    -1.6060 S.o2  1 <1>   1.4470 
  2 O        1.2470    -0.1230    -2.7900 O.2   1 <1>  -0.6500 
  3 O       -0.8550     0.6910    -1.7110 O.2   1 <1>  -0.6500 
  4 N        1.3400     0.8990    -0.4780 N.am  1 <1>  -0.8490 
  5 C        0.2030    -1.5790    -0.7910 C.ar  1 <1>  -0.0090 
  6 C        2.7220     0.4010    -0.3680 C.3   1 <1>   0.1960 
  7 C        1.3770     2.3310    -0.8120 C.3   1 <1>   0.1960 
  8 C       -0.4430    -1.6700     0.4360 C.ar  1 <1>  -0.1500 
  9 C        0.6790    -2.7540    -1.3600 C.ar  1 <1>  -0.1500 
 10 C        3.5100     1.1760     0.7040 C.3   1 <1>   0.1100 
 11 C        2.1590     3.1360     0.2430 C.3   1 <1>   0.1100 
 12 C       -0.6070    -2.8870     1.0740 C.ar  1 <1>  -0.1500 
 13 C        0.5200    -3.9750    -0.7280 C.ar  1 <1>  -0.1500 
 14 N        3.5370     2.6220     0.4130 N.3   1 <1>  -0.8100 
 15 C       -0.1260    -4.0480     0.4950 C.ar  1 <1>  -0.1430 
 16 C        4.2830     3.3590     1.4380 C.3   1 <1>   0.2530 
 17 C       -0.3030    -5.3850     1.1920 C.3   1 <1>  -0.0970 
 18 C        4.4910     4.8100     1.0060 C.ar  1 <1>  -0.1430 
 19 C        5.1880     5.1750    -0.1550 C.ar  1 <1>  -0.1430 
 20 C        3.9410     5.7920     1.8190 C.ar  1 <1>  -0.1500 
 21 C        5.2900     6.5330    -0.4590 C.ar  1 <1>  -0.1500 
 22 C        5.8380     4.1540    -1.1220 C.3   1 <1>   1.1630 
 23 C        4.0610     7.1300     1.5010 C.ar  1 <1>  -0.1500 
 24 C        4.7360     7.5010     0.3570 C.ar  1 <1>  -0.1500 
 25 F        4.9780     3.6500    -2.0000 F     1 <1>  -0.3400 
 26 F        6.4230     3.1250    -0.5170 F     1 <1>  -0.3400 
 27 F        6.8020     4.7070    -1.8550 F     1 <1>  -0.3400 
 28 H        3.2310     0.5010    -1.3130 H     1 <1>   0.0800 
 29 H        2.7110    -0.6420    -0.1020 H     1 <1>   0.0800 
 30 H        0.3730     2.7170    -0.8620 H     1 <1>   0.0800 
 31 H        1.8360     2.4740    -1.7770 H     1 <1>   0.0800 
 32 H       -0.8220    -0.7730     0.8950 H     1 <1>   0.1500 
 33 H        1.1810    -2.7150    -2.3130 H     1 <1>   0.1500 
 34 H        4.5180     0.8010     0.7310 H     1 <1>   0.0800 
 35 H        3.0570     1.0010     1.6650 H     1 <1>   0.0800 
 36 H        1.6290     3.0880     1.1790 H     1 <1>   0.0800 
 37 H        2.1920     4.1640    -0.0710 H     1 <1>   0.0800 
 38 H       -1.1110    -2.9260     2.0240 H     1 <1>   0.1500 
 39 H        0.9000    -4.8680    -1.1930 H     1 <1>   0.1500 
 40 H        5.2400     2.8950     1.6000 H     1 <1>   0.0800 
 41 H        3.7450     3.3160     2.3700 H     1 <1>   0.0800 
 42 H       -1.2170    -5.3940     1.7600 H     1 <1>   0.0800 
 43 H        0.5220    -5.5600     1.8590 H     1 <1>   0.0800 
 44 H       -0.3450    -6.1830     0.4740 H     1 <1>   0.0800 
 45 H        3.4060     5.5210     2.7130 H     1 <1>   0.1500 
 46 H        5.8060     6.8600    -1.3470 H     1 <1>   0.1500 
 47 H        3.6290     7.8800     2.1410 H     1 <1>   0.1500 
 48 H        4.8300     8.5420     0.1010 H     1 <1>   0.1500 
@<TRIPOS>BOND
  1   1   2  2   
  2   1   3  2   
  3   1   4  am  
  4   1   5  1   
  5   4   6  1   
  6   4   7  1   
  7   5   8  ar  
  8   5   9  ar  
  9   6  10  1   
 10   6  28  1   
 11   6  29  1   
 12   7  11  1   
 13   7  30  1   
 14   7  31  1   
 15   8  12  ar  
 16   8  32  1   
 17   9  13  ar  
 18   9  33  1   
 19  10  14  1   
 20  10  34  1   
 21  10  35  1   
 22  11  14  1   
 23  11  36  1   
 24  11  37  1   
 25  12  15  ar  
 26  12  38  1   
 27  13  15  ar  
 28  13  39  1   
 29  14  16  1   
 30  15  17  1   
 31  16  18  1   
 32  16  40  1   
 33  16  41  1   
 34  17  42  1   
 35  17  43  1   
 36  17  44  1   
 37  18  19  ar  
 38  18  20  ar  
 39  19  21  ar  
 40  19  22  1   
 41  20  23  ar  
 42  20  45  1   
 43  21  24  ar  
 44  21  46  1   
 45  22  25  1   
 46  22  26  1   
 47  22  27  1   
 48  23  24  ar  
 49  23  47  1   
 50  24  48  1   
@<TRIPOS>SUBSTRUCTURE
  1 ****   6 GROUP 4 **** **** 0

# MOE 2024.06 (io_trps.svl 2023.06)
