@<TRIPOS>MOLECULE
NONAME
50 50 1 0 0 
SMALL
USER_CHARGES


@<TRIPOS>ATOM
  1 O       -2.5530     5.6450     0.0130 O.3   1 <1>  -0.3630 
  2 C       -3.7610     5.0200     0.0750 C.ar  1 <1>   0.0830 
  3 C       -1.3380     4.9330     0.0820 C.3   1 <1>   0.1200 
  4 C       -4.9120     5.8080     0.0260 C.ar  1 <1>  -0.1440 
  5 C       -3.8720     3.6360     0.1920 C.ar  1 <1>  -0.1500 
  6 C       -0.1980     5.9440    -0.0010 C.3   1 <1>   0.1200 
  7 C       -6.1620     5.2000     0.1130 C.ar  1 <1>  -0.1440 
  8 C       -4.8000     7.3280    -0.1130 C.3   1 <1>  -0.0960 
  9 C       -5.1140     3.0340     0.2650 C.ar  1 <1>  -0.1430 
 10 O        1.0200     5.2600     0.0650 O.3   1 <1>  -0.5600 
 11 C       -6.2500     3.8210     0.2290 C.ar  1 <1>  -0.1500 
 12 C       -7.4560     6.0040     0.0900 C.3   1 <1>  -0.0970 
 13 C       -5.2320     1.5260     0.3920 C.3   1 <1>  -0.0970 
 14 C        2.1370     6.0800     0.0010 C.3   1 <1>   0.1200 
 15 C        3.3690     5.1740     0.0860 C.3   1 <1>   0.3430 
 16 N        4.6430     5.9590     0.0270 N.4   1 <1>  -0.9060 
 17 C        5.8850     5.1850     0.1000 C.3   1 <1>   0.5030 
 18 C        5.9510     4.4340     1.4300 C.3   1 <1>  -0.2400 
 19 C        7.0230     6.1970     0.0210 C.3   1 <1>  -0.2400 
 20 C        5.9660     4.2200    -1.0820 C.3   1 <1>  -0.2400 
 21 H       -1.2980     4.2510    -0.7490 H     1 <1>   0.0800 
 22 H       -1.3080     4.4050     1.0180 H     1 <1>   0.0800 
 23 H       -3.0030     3.0110     0.2280 H     1 <1>   0.1500 
 24 H       -0.2590     6.6290     0.8280 H     1 <1>   0.0800 
 25 H       -0.2500     6.4760    -0.9350 H     1 <1>   0.0800 
 26 H       -3.8610     7.6180    -0.5460 H     1 <1>   0.0800 
 27 H       -4.8850     7.7840     0.8560 H     1 <1>   0.0800 
 28 H       -5.5720     7.7130    -0.7520 H     1 <1>   0.0800 
 29 H       -7.2150     3.3510     0.2920 H     1 <1>   0.1500 
 30 H       -7.4070     6.8060     0.8030 H     1 <1>   0.0800 
 31 H       -8.2990     5.3870     0.3410 H     1 <1>   0.0800 
 32 H       -7.6140     6.4120    -0.8920 H     1 <1>   0.0800 
 33 H       -4.3970     1.0410    -0.0800 H     1 <1>   0.0800 
 34 H       -6.1350     1.1800    -0.0790 H     1 <1>   0.0800 
 35 H       -5.2540     1.2500     1.4310 H     1 <1>   0.0800 
 36 H        2.1030     6.7640     0.8320 H     1 <1>   0.0800 
 37 H        2.1130     6.6130    -0.9340 H     1 <1>   0.0800 
 38 H        3.3320     4.4730    -0.7320 H     1 <1>   0.0800 
 39 H        3.3220     4.6220     1.0110 H     1 <1>   0.0800 
 40 H        4.6670     6.6350     0.7970 H     1 <1>   0.4500 
 41 H        4.6760     6.4940    -0.8460 H     1 <1>   0.4500 
 42 H        5.8430     5.1070     2.2630 H     1 <1>   0.0800 
 43 H        6.9070     3.9490     1.5240 H     1 <1>   0.0800 
 44 H        5.2000     3.6670     1.4910 H     1 <1>   0.0800 
 45 H        6.9980     6.7410    -0.9070 H     1 <1>   0.0800 
 46 H        7.9700     5.6860     0.0700 H     1 <1>   0.0800 
 47 H        6.9870     6.8910     0.8420 H     1 <1>   0.0800 
 48 H        6.9220     3.7260    -1.0800 H     1 <1>   0.0800 
 49 H        5.2150     3.4520    -1.0210 H     1 <1>   0.0800 
 50 H        5.8680     4.7410    -2.0170 H     1 <1>   0.0800 
@<TRIPOS>BOND
  1   1   2  1   
  2   1   3  1   
  3   2   4  ar  
  4   2   5  ar  
  5   3   6  1   
  6   3  21  1   
  7   3  22  1   
  8   4   7  ar  
  9   4   8  1   
 10   5   9  ar  
 11   5  23  1   
 12   6  10  1   
 13   6  24  1   
 14   6  25  1   
 15   7  11  ar  
 16   7  12  1   
 17   8  26  1   
 18   8  27  1   
 19   8  28  1   
 20   9  11  ar  
 21   9  13  1   
 22  10  14  1   
 23  11  29  1   
 24  12  30  1   
 25  12  31  1   
 26  12  32  1   
 27  13  33  1   
 28  13  34  1   
 29  13  35  1   
 30  14  15  1   
 31  14  36  1   
 32  14  37  1   
 33  15  16  1   
 34  15  38  1   
 35  15  39  1   
 36  16  17  1   
 37  16  40  1   
 38  16  41  1   
 39  17  18  1   
 40  17  19  1   
 41  17  20  1   
 42  18  42  1   
 43  18  43  1   
 44  18  44  1   
 45  19  45  1   
 46  19  46  1   
 47  19  47  1   
 48  20  48  1   
 49  20  49  1   
 50  20  50  1   
@<TRIPOS>SUBSTRUCTURE
  1 ****   3 GROUP 4 **** **** 0

# MOE 2024.06 (io_trps.svl 2023.06)
