@<TRIPOS>MOLECULE
NONAME
39 39 1 0 0 
SMALL
USER_CHARGES


@<TRIPOS>ATOM
  1 O       -0.0440    -1.2890    -1.7120 O.2   1 <1>  -0.5700 
  2 C        0.0960    -1.9440    -0.7060 C.2   1 <1>   0.5690 
  3 N        1.3240    -2.1540    -0.1760 N.am  1 <1>  -0.7300 
  4 C       -1.1210    -2.5510    -0.0090 C.3   1 <1>  -0.0190 
  5 C        2.5610    -1.6240    -0.7540 C.3   1 <1>   0.2010 
  6 C       -1.8510    -3.5530    -0.9240 C.3   1 <1>  -0.1600 
  7 C       -2.0910    -1.4580     0.4810 C.3   1 <1>  -0.1600 
  8 C        3.8250    -2.0220     0.0330 C.2   1 <1>   0.5690 
  9 C       -3.0810    -4.1580    -0.2310 C.3   1 <1>  -0.1600 
 10 C       -3.3200    -2.0640     1.1740 C.3   1 <1>  -0.1600 
 11 O        3.7300    -2.7030     1.0520 O.2   1 <1>  -0.5700 
 12 N        5.0370    -1.6060    -0.4280 N.am  1 <1>  -0.7300 
 13 C       -4.0370    -3.0620     0.2560 C.3   1 <1>  -0.1600 
 14 C        6.3310    -1.8940     0.2270 C.3   1 <1>   0.1400 
 15 C        7.1600    -0.6120     0.2850 C.3   1 <1>  -0.1600 
 16 C        8.4930    -0.8690     0.9860 C.3   1 <1>   0.1200 
 17 O        9.2010     0.3160     1.0220 O.3   1 <1>  -0.6800 
 18 H        1.4350    -2.7020     0.6660 H     1 <1>   0.3700 
 19 H       -0.7720    -3.0900     0.8540 H     1 <1>   0.0800 
 20 H        2.5060    -0.5360    -0.7860 H     1 <1>   0.0800 
 21 H        2.6640    -1.9870    -1.7760 H     1 <1>   0.0800 
 22 H       -1.1750    -4.3390    -1.2090 H     1 <1>   0.0800 
 23 H       -2.1640    -3.0470    -1.8230 H     1 <1>   0.0800 
 24 H       -2.4130    -0.8690    -0.3610 H     1 <1>   0.0800 
 25 H       -1.5790    -0.8020     1.1640 H     1 <1>   0.0800 
 26 H       -2.7620    -4.7530     0.6080 H     1 <1>   0.0800 
 27 H       -3.5970    -4.8070    -0.9180 H     1 <1>   0.0800 
 28 H       -4.0010    -1.2770     1.4500 H     1 <1>   0.0800 
 29 H       -3.0120    -2.5650     2.0750 H     1 <1>   0.0800 
 30 H        5.0940    -1.0570    -1.2880 H     1 <1>   0.3700 
 31 H       -4.8610    -3.5110     0.7840 H     1 <1>   0.0800 
 32 H       -4.4380    -2.5370    -0.5950 H     1 <1>   0.0800 
 33 H        6.8520    -2.6510    -0.3360 H     1 <1>   0.0800 
 34 H        6.1620    -2.2670     1.2240 H     1 <1>   0.0800 
 35 H        6.6150     0.1320     0.8390 H     1 <1>   0.0800 
 36 H        7.3430    -0.2600    -0.7140 H     1 <1>   0.0800 
 37 H        9.0840    -1.6010     0.4610 H     1 <1>   0.0800 
 38 H        8.3400    -1.1930     2.0020 H     1 <1>   0.0800 
 39 H        9.3900     0.6390     0.1200 H     1 <1>   0.4000 
@<TRIPOS>BOND
  1   1   2  2   
  2   2   3  am  
  3   2   4  1   
  4   3   5  1   
  5   3  18  1   
  6   4   6  1   
  7   4   7  1   
  8   4  19  1   
  9   5   8  1   
 10   5  20  1   
 11   5  21  1   
 12   6   9  1   
 13   6  22  1   
 14   6  23  1   
 15   7  10  1   
 16   7  24  1   
 17   7  25  1   
 18   8  11  2   
 19   8  12  am  
 20   9  13  1   
 21   9  26  1   
 22   9  27  1   
 23  10  13  1   
 24  10  28  1   
 25  10  29  1   
 26  12  14  1   
 27  12  30  1   
 28  13  31  1   
 29  13  32  1   
 30  14  15  1   
 31  14  33  1   
 32  14  34  1   
 33  15  16  1   
 34  15  35  1   
 35  15  36  1   
 36  16  17  1   
 37  16  37  1   
 38  16  38  1   
 39  17  39  1   
@<TRIPOS>SUBSTRUCTURE
  1 ****   3 GROUP 4 **** **** 0

# MOE 2024.06 (io_trps.svl 2023.06)
