@<TRIPOS>MOLECULE
NONAME
61 65 1 0 0 
SMALL
USER_CHARGES


@<TRIPOS>ATOM
  1 O       -0.2720     2.6090     1.4010 O.2   1 <1>  -0.5700 
  2 C       -0.3340     2.4980     0.1920 C.2   1 <1>   0.5440 
  3 N        0.7920     2.1160    -0.4740 N.am  1 <1>  -0.7300 
  4 C       -1.5650     2.7810    -0.5270 C.ar  1 <1>   0.0860 
  5 C        2.1280     1.8750     0.1530 C.3   1 <1>   0.2810 
  6 C       -2.5330     3.6280     0.0150 C.ar  1 <1>  -0.1500 
  7 C       -1.8350     2.2240    -1.7800 C.ar  1 <1>  -0.1500 
  8 C        3.1740     2.8430    -0.4310 C.2   1 <1>   0.5690 
  9 C        2.5350     0.3730     0.0580 C.3   1 <1>   0.0000 
 10 C       -3.7050     3.9170    -0.6600 C.ar  1 <1>  -0.1500 
 11 C       -3.0050     2.5090    -2.4610 C.ar  1 <1>  -0.1500 
 12 O        3.2300     2.9900    -1.6320 O.2   1 <1>  -0.5700 
 13 N        3.9950     3.5110     0.4440 N.am  1 <1>  -0.5470 
 14 C        3.9200     0.1440     0.7220 C.3   1 <1>  -0.1600 
 15 C        2.6160    -0.1350    -1.4070 C.3   1 <1>  -0.1600 
 16 C        1.4990    -0.5010     0.8140 C.3   1 <1>  -0.1600 
 17 C       -3.9420     3.3580    -1.9020 C.ar  1 <1>  -0.1500 
 18 C        5.0600     4.3980     0.2200 C.ar  1 <1>   0.1170 
 19 C        4.3190    -1.3420     0.6830 C.3   1 <1>  -0.0800 
 20 C        3.0090    -1.6240    -1.4540 C.3   1 <1>  -0.0800 
 21 C        1.8870    -1.9900     0.7750 C.3   1 <1>  -0.0800 
 22 C        6.0150     4.5510     1.2190 C.ar  1 <1>  -0.1500 
 23 C        5.2000     5.1450    -0.9460 C.ar  1 <1>  -0.1500 
 24 C        4.3830    -1.8070    -0.7840 C.3   1 <1>  -0.1600 
 25 C        3.2650    -2.1720     1.4350 C.3   1 <1>  -0.1600 
 26 C        1.9590    -2.4520    -0.6920 C.3   1 <1>  -0.1600 
 27 C        7.0810     5.4160     1.0550 C.ar  1 <1>  -0.1500 
 28 C        6.2650     6.0110    -1.1170 C.ar  1 <1>  -0.1500 
 29 C        7.2170     6.1510    -0.1110 C.ar  1 <1>   0.0830 
 30 O        8.2940     6.9760    -0.1930 O.3   1 <1>  -0.3630 
 31 C        8.5280     7.7490    -1.3480 C.3   1 <1>   0.0400 
 32 H        0.8470     2.2370    -1.4880 H     1 <1>   0.3700 
 33 H        2.0490     2.1070     1.1990 H     1 <1>   0.0800 
 34 H       -2.3570     4.0650     0.9830 H     1 <1>   0.1500 
 35 H       -1.1250     1.5520    -2.2270 H     1 <1>   0.1500 
 36 H       -4.4320     4.5760    -0.2180 H     1 <1>   0.1500 
 37 H       -3.1890     2.0680    -3.4260 H     1 <1>   0.1500 
 38 H        3.8230     3.3150     1.4290 H     1 <1>   0.3700 
 39 H        3.8960     0.4740     1.7460 H     1 <1>   0.0800 
 40 H        4.6790     0.7100     0.2110 H     1 <1>   0.0800 
 41 H        3.3440     0.4320    -1.9600 H     1 <1>   0.0800 
 42 H        1.6670    -0.0090    -1.8960 H     1 <1>   0.0800 
 43 H        0.5250    -0.3880     0.3730 H     1 <1>   0.0800 
 44 H        1.4230    -0.1780     1.8380 H     1 <1>   0.0800 
 45 H       -4.8530     3.5820    -2.4300 H     1 <1>   0.1500 
 46 H        5.2830    -1.4730     1.1460 H     1 <1>   0.0800 
 47 H        3.0590    -1.9540    -2.4780 H     1 <1>   0.0800 
 48 H        1.1510    -2.5710     1.3030 H     1 <1>   0.0800 
 49 H        5.9320     3.9900     2.1310 H     1 <1>   0.1500 
 50 H        4.4720     5.0560    -1.7320 H     1 <1>   0.1500 
 51 H        4.6730    -2.8420    -0.8250 H     1 <1>   0.0800 
 52 H        5.1260    -1.2380    -1.3150 H     1 <1>   0.0800 
 53 H        3.5410    -3.2120     1.4190 H     1 <1>   0.0800 
 54 H        3.2200    -1.8620     2.4640 H     1 <1>   0.0800 
 55 H        2.2200    -3.4960    -0.7320 H     1 <1>   0.0800 
 56 H        0.9960    -2.3380    -1.1580 H     1 <1>   0.0800 
 57 H        7.8180     5.5290     1.8300 H     1 <1>   0.1500 
 58 H        6.3350     6.5640    -2.0330 H     1 <1>   0.1500 
 59 H        9.4300     8.3130    -1.1950 H     1 <1>   0.0800 
 60 H        7.6990     8.4190    -1.4940 H     1 <1>   0.0800 
 61 H        8.6460     7.0910    -2.1910 H     1 <1>   0.0800 
@<TRIPOS>BOND
  1   1   2  2   
  2   2   3  am  
  3   2   4  1   
  4   3   5  1   
  5   3  32  1   
  6   4   6  ar  
  7   4   7  ar  
  8   5   8  1   
  9   5   9  1   
 10   5  33  1   
 11   6  10  ar  
 12   6  34  1   
 13   7  11  ar  
 14   7  35  1   
 15   8  12  2   
 16   8  13  am  
 17   9  14  1   
 18   9  15  1   
 19   9  16  1   
 20  10  17  ar  
 21  10  36  1   
 22  11  17  ar  
 23  11  37  1   
 24  13  18  1   
 25  13  38  1   
 26  14  19  1   
 27  14  39  1   
 28  14  40  1   
 29  15  20  1   
 30  15  41  1   
 31  15  42  1   
 32  16  21  1   
 33  16  43  1   
 34  16  44  1   
 35  17  45  1   
 36  18  22  ar  
 37  18  23  ar  
 38  19  24  1   
 39  19  25  1   
 40  19  46  1   
 41  20  24  1   
 42  20  26  1   
 43  20  47  1   
 44  21  25  1   
 45  21  26  1   
 46  21  48  1   
 47  22  27  ar  
 48  22  49  1   
 49  23  28  ar  
 50  23  50  1   
 51  24  51  1   
 52  24  52  1   
 53  25  53  1   
 54  25  54  1   
 55  26  55  1   
 56  26  56  1   
 57  27  29  ar  
 58  27  57  1   
 59  28  29  ar  
 60  28  58  1   
 61  29  30  1   
 62  30  31  1   
 63  31  59  1   
 64  31  60  1   
 65  31  61  1   
@<TRIPOS>SUBSTRUCTURE
  1 ****   5 GROUP 4 **** **** 0

# MOE 2024.06 (io_trps.svl 2023.06)
