@<TRIPOS>MOLECULE
NONAME
62 66 1 0 0 
SMALL
USER_CHARGES


@<TRIPOS>ATOM
  1 O        0.2020    -1.8160    -1.2290 O.2   1 <1>  -0.5700 
  2 C       -0.2950    -2.0040    -0.1410 C.2   1 <1>   0.5690 
  3 N        0.5310    -2.3490     0.8990 N.am  1 <1>  -0.6600 
  4 C       -1.8300    -1.8860     0.0240 C.3   1 <1>   0.0610 
  5 C        0.4990    -3.7410     1.4300 C.3   1 <1>   0.1400 
  6 C        1.9020    -1.7620     0.9160 C.3   1 <1>   0.1400 
  7 C       -2.5310    -3.1310    -0.5710 C.3   1 <1>  -0.1600 
  8 C       -2.2620    -1.7290     1.5060 C.3   1 <1>  -0.1600 
  9 C       -2.3450    -0.6420    -0.7460 C.3   1 <1>  -0.1600 
 10 C        1.4700    -4.6340     0.6280 C.3   1 <1>   0.3430 
 11 C        2.8680    -2.6440     0.1020 C.3   1 <1>   0.3430 
 12 C       -4.0750    -3.0460    -0.4680 C.3   1 <1>   0.1440 
 13 C       -3.7900    -1.6170     1.6220 C.3   1 <1>  -0.0800 
 14 C       -3.8740    -0.5170    -0.6410 C.3   1 <1>  -0.0800 
 15 N        2.8720    -4.0760     0.5870 N.4   1 <1>  -0.9590 
 16 C       -4.7870    -4.2890    -1.0510 C.ar  1 <1>  -0.1440 
 17 C       -4.4370    -2.8810     1.0280 C.3   1 <1>  -0.1600 
 18 C       -4.5270    -1.7800    -1.2310 C.3   1 <1>  -0.1600 
 19 C       -4.2700    -0.3830     0.8390 C.3   1 <1>  -0.1600 
 20 C        3.7430    -4.9360    -0.2560 C.3   1 <1>   0.3430 
 21 C       -4.1080    -5.3430    -1.6570 C.ar  1 <1>  -0.1500 
 22 C       -6.1740    -4.3780    -0.9820 C.ar  1 <1>  -0.1500 
 23 C        5.2060    -4.6080     0.0150 C.3   1 <1>  -0.2400 
 24 C       -4.7860    -6.4390    -2.1620 C.ar  1 <1>  -0.1500 
 25 C       -6.8550    -5.4720    -1.4850 C.ar  1 <1>  -0.1500 
 26 C       -6.1640    -6.5120    -2.0800 C.ar  1 <1>  -0.1440 
 27 C       -6.9070    -7.7150    -2.6310 C.3   1 <1>  -0.0970 
 28 H       -0.4930    -4.1470     1.3550 H     1 <1>   0.0800 
 29 H        0.7710    -3.7350     2.4720 H     1 <1>   0.0800 
 30 H        2.2450    -1.6660     1.9320 H     1 <1>   0.0800 
 31 H        1.8750    -0.7750     0.4840 H     1 <1>   0.0800 
 32 H       -2.1970    -4.0120    -0.0580 H     1 <1>   0.0800 
 33 H       -2.2490    -3.2190    -1.6060 H     1 <1>   0.0800 
 34 H       -1.9410    -2.5710     2.0890 H     1 <1>   0.0800 
 35 H       -1.8040    -0.8510     1.9260 H     1 <1>   0.0800 
 36 H       -2.0720    -0.7120    -1.7850 H     1 <1>   0.0800 
 37 H       -1.8810     0.2460    -0.3530 H     1 <1>   0.0800 
 38 H        1.0910    -4.7200    -0.3770 H     1 <1>   0.0800 
 39 H        1.4820    -5.6200     1.0620 H     1 <1>   0.0800 
 40 H        3.8590    -2.2280     0.1640 H     1 <1>   0.0800 
 41 H        2.5590    -2.6100    -0.9310 H     1 <1>   0.0800 
 42 H       -4.0700    -1.5180     2.6580 H     1 <1>   0.0800 
 43 H       -4.2050     0.3510    -1.1860 H     1 <1>   0.0800 
 44 H        3.2460    -4.0840     1.5440 H     1 <1>   0.4500 
 45 H       -4.1150    -3.7510     1.5730 H     1 <1>   0.0800 
 46 H       -5.5010    -2.8060     1.1500 H     1 <1>   0.0800 
 47 H       -4.2650    -1.8750    -2.2700 H     1 <1>   0.0800 
 48 H       -5.5950    -1.6760    -1.1780 H     1 <1>   0.0800 
 49 H       -3.8320     0.5080     1.2550 H     1 <1>   0.0800 
 50 H       -5.3390    -0.2900     0.9230 H     1 <1>   0.0800 
 51 H        3.5140    -4.7870    -1.3000 H     1 <1>   0.0800 
 52 H        3.5700    -5.9730    -0.0180 H     1 <1>   0.0800 
 53 H       -3.0410    -5.3430    -1.7570 H     1 <1>   0.1500 
 54 H       -6.7490    -3.5890    -0.5340 H     1 <1>   0.1500 
 55 H        5.4530    -3.6100    -0.2990 H     1 <1>   0.0800 
 56 H        5.8260    -5.2860    -0.5470 H     1 <1>   0.0800 
 57 H        5.4430    -4.7330     1.0560 H     1 <1>   0.0800 
 58 H       -4.2330    -7.2380    -2.6230 H     1 <1>   0.1500 
 59 H       -7.9270    -5.5090    -1.4110 H     1 <1>   0.1500 
 60 H       -6.3810    -8.1280    -3.4730 H     1 <1>   0.0800 
 61 H       -7.8930    -7.4330    -2.9540 H     1 <1>   0.0800 
 62 H       -6.9930    -8.4690    -1.8690 H     1 <1>   0.0800 
@<TRIPOS>BOND
  1   1   2  2   
  2   2   3  am  
  3   2   4  1   
  4   3   5  1   
  5   3   6  1   
  6   4   7  1   
  7   4   8  1   
  8   4   9  1   
  9   5  10  1   
 10   5  28  1   
 11   5  29  1   
 12   6  11  1   
 13   6  30  1   
 14   6  31  1   
 15   7  12  1   
 16   7  32  1   
 17   7  33  1   
 18   8  13  1   
 19   8  34  1   
 20   8  35  1   
 21   9  14  1   
 22   9  36  1   
 23   9  37  1   
 24  10  15  1   
 25  10  38  1   
 26  10  39  1   
 27  11  15  1   
 28  11  40  1   
 29  11  41  1   
 30  12  16  1   
 31  12  17  1   
 32  12  18  1   
 33  13  17  1   
 34  13  19  1   
 35  13  42  1   
 36  14  18  1   
 37  14  19  1   
 38  14  43  1   
 39  15  20  1   
 40  15  44  1   
 41  16  21  ar  
 42  16  22  ar  
 43  17  45  1   
 44  17  46  1   
 45  18  47  1   
 46  18  48  1   
 47  19  49  1   
 48  19  50  1   
 49  20  23  1   
 50  20  51  1   
 51  20  52  1   
 52  21  24  ar  
 53  21  53  1   
 54  22  25  ar  
 55  22  54  1   
 56  23  55  1   
 57  23  56  1   
 58  23  57  1   
 59  24  26  ar  
 60  24  58  1   
 61  25  26  ar  
 62  25  59  1   
 63  26  27  1   
 64  27  60  1   
 65  27  61  1   
 66  27  62  1   
@<TRIPOS>SUBSTRUCTURE
  1 ****   7 GROUP 4 **** **** 0

# MOE 2024.06 (io_trps.svl 2023.06)
