@<TRIPOS>MOLECULE
NONAME
43 45 1 0 0 
SMALL
USER_CHARGES


@<TRIPOS>ATOM
  1 F        2.0960     0.4870    -2.8920 F     1 <1>  -0.3400 
  2 C        2.9140    -0.4600    -2.4480 C.3   1 <1>   1.1640 
  3 F        2.1850    -1.5620    -2.3380 F     1 <1>  -0.3400 
  4 F        3.7840    -0.6850    -3.4280 F     1 <1>  -0.3400 
  5 C        3.5930    -0.0830    -1.1220 C.ar  1 <1>  -0.1440 
  6 C        4.9080    -0.4520    -0.8560 C.ar  1 <1>  -0.1500 
  7 C        2.8950     0.6310    -0.1540 C.ar  1 <1>  -0.1500 
  8 C        5.5320    -0.1210     0.3410 C.ar  1 <1>   0.1170 
  9 C        3.5020     0.9700     1.0420 C.ar  1 <1>  -0.1500 
 10 N        6.8650    -0.5080     0.5340 N.am  1 <1>  -0.5470 
 11 C        4.8100     0.5990     1.2850 C.ar  1 <1>  -0.1500 
 12 C        7.5990    -0.6750     1.6820 C.2   1 <1>   0.5690 
 13 O        7.1210    -0.5870     2.7880 O.2   1 <1>  -0.5700 
 14 C        9.0780    -1.0630     1.5440 C.3   1 <1>   0.1710 
 15 N       10.0360     0.0370     1.2260 N.3   1 <1>  -0.8100 
 16 C       11.4180    -0.4600     1.3410 C.3   1 <1>   0.1100 
 17 C        9.7970     0.6720    -0.0820 C.3   1 <1>   0.1100 
 18 C       12.4090     0.6940     1.2040 C.3   1 <1>  -0.1600 
 19 C       10.7370     1.8630    -0.2690 C.3   1 <1>  -0.1600 
 20 C       12.1910     1.4240    -0.1120 C.3   1 <1>   0.5600 
 21 O       13.0450     2.5140    -0.1800 O.3   1 <1>  -0.5600 
 22 O       12.5640     0.5960    -1.1670 O.3   1 <1>  -0.5600 
 23 C       13.4390     2.6950    -1.4900 C.3   1 <1>   0.1200 
 24 C       13.1810     1.3530    -2.1460 C.3   1 <1>   0.1200 
 25 H        5.4650    -1.0130    -1.5860 H     1 <1>   0.1500 
 26 H        1.8730     0.9290    -0.3240 H     1 <1>   0.1500 
 27 H        2.9560     1.5240     1.7870 H     1 <1>   0.1500 
 28 H        7.3860    -0.6830    -0.3210 H     1 <1>   0.3700 
 29 H        5.2680     0.8770     2.2170 H     1 <1>   0.1500 
 30 H        9.1620    -1.8340     0.8000 H     1 <1>   0.0800 
 31 H        9.3650    -1.4970     2.4860 H     1 <1>   0.0800 
 32 H       11.6090    -1.1970     0.5780 H     1 <1>   0.0800 
 33 H       11.5580    -0.9220     2.3040 H     1 <1>   0.0800 
 34 H        8.7890     1.0420    -0.1340 H     1 <1>   0.0800 
 35 H        9.9520    -0.0440    -0.8730 H     1 <1>   0.0800 
 36 H       13.4160     0.3250     1.2470 H     1 <1>   0.0800 
 37 H       12.2570     1.3770     2.0190 H     1 <1>   0.0800 
 38 H       10.5100     2.5970     0.4820 H     1 <1>   0.0800 
 39 H       10.5810     2.3030    -1.2350 H     1 <1>   0.0800 
 40 H       14.4800     2.9670    -1.5110 H     1 <1>   0.0800 
 41 H       12.8400     3.4730    -1.9300 H     1 <1>   0.0800 
 42 H       12.5220     1.4430    -2.9920 H     1 <1>   0.0800 
 43 H       14.0960     0.8670    -2.4360 H     1 <1>   0.0800 
@<TRIPOS>BOND
  1   1   2  1   
  2   2   3  1   
  3   2   4  1   
  4   2   5  1   
  5   5   6  ar  
  6   5   7  ar  
  7   6   8  ar  
  8   6  25  1   
  9   7   9  ar  
 10   7  26  1   
 11   8  10  1   
 12   8  11  ar  
 13   9  11  ar  
 14   9  27  1   
 15  10  12  am  
 16  10  28  1   
 17  11  29  1   
 18  12  13  2   
 19  12  14  1   
 20  14  15  1   
 21  14  30  1   
 22  14  31  1   
 23  15  16  1   
 24  15  17  1   
 25  16  18  1   
 26  16  32  1   
 27  16  33  1   
 28  17  19  1   
 29  17  34  1   
 30  17  35  1   
 31  18  20  1   
 32  18  36  1   
 33  18  37  1   
 34  19  20  1   
 35  19  38  1   
 36  19  39  1   
 37  20  21  1   
 38  20  22  1   
 39  21  23  1   
 40  22  24  1   
 41  23  24  1   
 42  23  40  1   
 43  23  41  1   
 44  24  42  1   
 45  24  43  1   
@<TRIPOS>SUBSTRUCTURE
  1 ****  10 GROUP 4 **** **** 0

# MOE 2024.06 (io_trps.svl 2023.06)
