@<TRIPOS>MOLECULE
NONAME
56 58 1 0 0 
SMALL
USER_CHARGES


@<TRIPOS>ATOM
  1 O       -1.6350    -0.3500     2.3210 O.2   1 <1>  -0.5700 
  2 C       -2.4730    -0.9930     1.7210 C.2   1 <1>   0.7060 
  3 O       -3.7360    -0.5840     1.8210 O.3   1 <1>  -0.2320 
  4 C       -2.1850    -2.1630     0.9330 C.2   1 <1>  -0.1240 
  5 C       -4.7650    -1.2320     1.2440 C.ar  1 <1>   0.0830 
  6 C       -3.1870    -2.8420     0.3110 C.2   1 <1>  -0.1670 
  7 C       -0.7060    -2.5580     0.8400 C.3   1 <1>   0.0390 
  8 C       -4.5420    -2.3830     0.4750 C.ar  1 <1>   0.0280 
  9 C       -6.0370    -0.7200     1.4440 C.ar  1 <1>  -0.1500 
 10 C       -2.9630    -4.0680    -0.5790 C.3   1 <1>  -0.1020 
 11 C       -0.0800    -2.0470    -0.4400 C.2   1 <1>   0.6590 
 12 C       -5.6700    -3.0020    -0.0790 C.ar  1 <1>  -0.1500 
 13 C       -7.1350    -1.3510     0.8800 C.ar  1 <1>   0.0830 
 14 O        0.3530    -2.8030    -1.2710 O.2   1 <1>  -0.5700 
 15 O       -0.0410    -0.7290    -0.5940 O.3   1 <1>  -0.4300 
 16 C       -6.9380    -2.4950     0.1200 C.ar  1 <1>  -0.1500 
 17 O       -8.4070    -0.9200     1.0240 O.3   1 <1>  -0.3630 
 18 C        0.5090    -0.1280    -1.7470 C.3   1 <1>   0.0400 
 19 C       -8.7090     0.2510     1.7770 C.3   1 <1>   0.1810 
 20 C      -10.2030     0.5440     1.7860 C.2   1 <1>   0.5690 
 21 O      -10.5900     1.5380     2.3520 O.2   1 <1>  -0.5700 
 22 N      -11.0560    -0.3120     1.1640 N.am  1 <1>  -0.7300 
 23 C      -12.5220    -0.1510     1.0420 C.3   1 <1>   0.1400 
 24 C      -12.9460    -0.1600    -0.4350 C.3   1 <1>  -0.0800 
 25 C      -14.4580     0.1110    -0.5430 C.3   1 <1>  -0.1600 
 26 C      -12.5860    -1.4850    -1.1380 C.3   1 <1>  -0.1600 
 27 C      -14.9330     0.0980    -2.0020 C.3   1 <1>  -0.1600 
 28 C      -13.0680    -1.5010    -2.5960 C.3   1 <1>  -0.1600 
 29 C      -14.5740    -1.2250    -2.6890 C.3   1 <1>  -0.1600 
 30 H       -0.6010    -3.6250     0.8790 H     1 <1>   0.0800 
 31 H       -0.1420    -2.1720     1.6680 H     1 <1>   0.0800 
 32 H       -6.1330     0.1650     2.0420 H     1 <1>   0.1500 
 33 H       -3.4360    -4.9300    -0.1420 H     1 <1>   0.0800 
 34 H       -1.9280    -4.3020    -0.7310 H     1 <1>   0.0800 
 35 H       -3.3890    -3.8950    -1.5510 H     1 <1>   0.0800 
 36 H       -5.5650    -3.8900    -0.6730 H     1 <1>   0.1500 
 37 H       -7.7920    -2.9830    -0.3150 H     1 <1>   0.1500 
 38 H        0.4310     0.9390    -1.6450 H     1 <1>   0.0800 
 39 H       -0.0430    -0.4610    -2.6100 H     1 <1>   0.0800 
 40 H        1.5420    -0.4190    -1.8320 H     1 <1>   0.0800 
 41 H       -8.1910     1.0820     1.3340 H     1 <1>   0.0800 
 42 H       -8.3740     0.1020     2.7860 H     1 <1>   0.0800 
 43 H      -10.6520    -1.1270     0.6960 H     1 <1>   0.3700 
 44 H      -12.8190     0.7790     1.4980 H     1 <1>   0.0800 
 45 H      -13.0090    -0.9530     1.5700 H     1 <1>   0.0800 
 46 H      -12.4300     0.6460    -0.9300 H     1 <1>   0.0800 
 47 H      -14.6860     1.0680    -0.1080 H     1 <1>   0.0800 
 48 H      -14.9980    -0.6400     0.0080 H     1 <1>   0.0800 
 49 H      -13.0390    -2.3060    -0.6090 H     1 <1>   0.0800 
 50 H      -11.5210    -1.6320    -1.1300 H     1 <1>   0.0800 
 51 H      -14.4730     0.9130    -2.5340 H     1 <1>   0.0800 
 52 H      -15.9990     0.2430    -2.0350 H     1 <1>   0.0800 
 53 H      -12.8500    -2.4580    -3.0380 H     1 <1>   0.0800 
 54 H      -12.5350    -0.7510    -3.1540 H     1 <1>   0.0800 
 55 H      -14.8700    -1.1870    -3.7230 H     1 <1>   0.0800 
 56 H      -15.1140    -2.0300    -2.2190 H     1 <1>   0.0800 
@<TRIPOS>BOND
  1   1   2  2   
  2   2   3  1   
  3   2   4  1   
  4   3   5  1   
  5   4   6  2   
  6   4   7  1   
  7   5   8  ar  
  8   5   9  ar  
  9   6   8  1   
 10   6  10  1   
 11   7  11  1   
 12   7  30  1   
 13   7  31  1   
 14   8  12  ar  
 15   9  13  ar  
 16   9  32  1   
 17  10  33  1   
 18  10  34  1   
 19  10  35  1   
 20  11  14  2   
 21  11  15  1   
 22  12  16  ar  
 23  12  36  1   
 24  13  16  ar  
 25  13  17  1   
 26  15  18  1   
 27  16  37  1   
 28  17  19  1   
 29  18  38  1   
 30  18  39  1   
 31  18  40  1   
 32  19  20  1   
 33  19  41  1   
 34  19  42  1   
 35  20  21  2   
 36  20  22  am  
 37  22  23  1   
 38  22  43  1   
 39  23  24  1   
 40  23  44  1   
 41  23  45  1   
 42  24  25  1   
 43  24  26  1   
 44  24  46  1   
 45  25  27  1   
 46  25  47  1   
 47  25  48  1   
 48  26  28  1   
 49  26  49  1   
 50  26  50  1   
 51  27  29  1   
 52  27  51  1   
 53  27  52  1   
 54  28  29  1   
 55  28  53  1   
 56  28  54  1   
 57  29  55  1   
 58  29  56  1   
@<TRIPOS>SUBSTRUCTURE
  1 ****  13 GROUP 4 **** **** 0

# MOE 2024.06 (io_trps.svl 2023.06)
