@<TRIPOS>MOLECULE
NONAME
47 48 1 0 0 
SMALL
USER_CHARGES


@<TRIPOS>ATOM
  1 O        0.7190    -0.3250    -0.1460 O.3   1 <1>  -0.3630 
  2 C       -0.5270    -0.8330     0.0250 C.ar  1 <1>   0.0830 
  3 C        1.8650    -1.1110     0.0670 C.3   1 <1>   0.1200 
  4 C       -1.5880     0.0250    -0.2150 C.ar  1 <1>  -0.1500 
  5 C       -0.7850    -2.1430     0.4190 C.ar  1 <1>  -0.1500 
  6 C        3.0840    -0.2290    -0.2150 C.3   1 <1>  -0.1600 
  7 C       -2.8920    -0.4120    -0.0640 C.ar  1 <1>  -0.1500 
  8 C       -2.0920    -2.5760     0.5680 C.ar  1 <1>  -0.1500 
  9 C        4.4020    -0.9920    -0.0190 C.3   1 <1>  -0.1600 
 10 C       -3.1510    -1.7150     0.3300 C.ar  1 <1>  -0.1430 
 11 C        5.5940    -0.0750    -0.3040 C.3   1 <1>   0.3430 
 12 C       -4.5810    -2.1950     0.4930 C.3   1 <1>  -0.0970 
 13 N        6.8770    -0.7740    -0.0180 N.4   1 <1>  -0.9590 
 14 C        7.9920     0.2120     0.0910 C.3   1 <1>   0.3430 
 15 C        7.1890    -1.8300    -1.0280 C.3   1 <1>   0.3430 
 16 C        9.2710    -0.5000     0.5320 C.3   1 <1>  -0.1600 
 17 C        8.4510    -2.5860    -0.6130 C.3   1 <1>  -0.1600 
 18 C        9.6450    -1.6370    -0.4300 C.3   1 <1>  -0.0800 
 19 C       10.8680    -2.4020     0.0860 C.3   1 <1>  -0.2400 
 20 H        1.8290    -1.9500    -0.6060 H     1 <1>   0.0800 
 21 H        1.8580    -1.4480     1.0900 H     1 <1>   0.0800 
 22 H       -1.3850     1.0350    -0.5190 H     1 <1>   0.1500 
 23 H        0.0080    -2.8380     0.6130 H     1 <1>   0.1500 
 24 H        3.0510     0.6180     0.4500 H     1 <1>   0.0800 
 25 H        3.0180     0.1280    -1.2290 H     1 <1>   0.0800 
 26 H       -3.7030     0.2680    -0.2560 H     1 <1>   0.1500 
 27 H       -2.2830    -3.5910     0.8720 H     1 <1>   0.1500 
 28 H        4.4110    -1.8360    -0.6850 H     1 <1>   0.0800 
 29 H        4.4520    -1.3460     0.9970 H     1 <1>   0.0800 
 30 H        5.5120     0.7970     0.3250 H     1 <1>   0.0800 
 31 H        5.5700     0.2510    -1.3320 H     1 <1>   0.0800 
 32 H       -5.2210    -1.3800     0.7820 H     1 <1>   0.0800 
 33 H       -4.6390    -2.9540     1.2520 H     1 <1>   0.0800 
 34 H       -4.9360    -2.6030    -0.4360 H     1 <1>   0.0800 
 35 H        6.7960    -1.2370     0.8970 H     1 <1>   0.4500 
 36 H        7.7430     0.9750     0.8120 H     1 <1>   0.0800 
 37 H        8.1550     0.6860    -0.8630 H     1 <1>   0.0800 
 38 H        7.3420    -1.3780    -1.9940 H     1 <1>   0.0800 
 39 H        6.3700    -2.5270    -1.1060 H     1 <1>   0.0800 
 40 H        9.1400    -0.8820     1.5300 H     1 <1>   0.0800 
 41 H       10.0740     0.2160     0.5650 H     1 <1>   0.0800 
 42 H        8.6860    -3.3120    -1.3720 H     1 <1>   0.0800 
 43 H        8.2590    -3.1250     0.2990 H     1 <1>   0.0800 
 44 H        9.8960    -1.2100    -1.3880 H     1 <1>   0.0800 
 45 H       10.6700    -2.8490     1.0450 H     1 <1>   0.0800 
 46 H       11.7100    -1.7380     0.1880 H     1 <1>   0.0800 
 47 H       11.1420    -3.1820    -0.6030 H     1 <1>   0.0800 
@<TRIPOS>BOND
  1   1   2  1   
  2   1   3  1   
  3   2   4  ar  
  4   2   5  ar  
  5   3   6  1   
  6   3  20  1   
  7   3  21  1   
  8   4   7  ar  
  9   4  22  1   
 10   5   8  ar  
 11   5  23  1   
 12   6   9  1   
 13   6  24  1   
 14   6  25  1   
 15   7  10  ar  
 16   7  26  1   
 17   8  10  ar  
 18   8  27  1   
 19   9  11  1   
 20   9  28  1   
 21   9  29  1   
 22  10  12  1   
 23  11  13  1   
 24  11  30  1   
 25  11  31  1   
 26  12  32  1   
 27  12  33  1   
 28  12  34  1   
 29  13  14  1   
 30  13  15  1   
 31  13  35  1   
 32  14  16  1   
 33  14  36  1   
 34  14  37  1   
 35  15  17  1   
 36  15  38  1   
 37  15  39  1   
 38  16  18  1   
 39  16  40  1   
 40  16  41  1   
 41  17  18  1   
 42  17  42  1   
 43  17  43  1   
 44  18  19  1   
 45  18  44  1   
 46  19  45  1   
 47  19  46  1   
 48  19  47  1   
@<TRIPOS>SUBSTRUCTURE
  1 ****   6 GROUP 4 **** **** 0

# MOE 2024.06 (io_trps.svl 2023.06)
