@<TRIPOS>MOLECULE
NONAME
45 46 1 0 0 
SMALL
USER_CHARGES


@<TRIPOS>ATOM
  1 BR       1.5010    -0.8080    -1.8400 Br    1 <1>  -0.1110 
  2 C        0.3910    -2.1990    -1.0920 C.ar  1 <1>   0.1110 
  3 C        0.7730    -2.8330     0.0820 C.ar  1 <1>   0.0820 
  4 C       -0.7700    -2.5190    -1.7670 C.ar  1 <1>  -0.1500 
  5 O        1.9340    -2.4450     0.6740 O.3   1 <1>  -0.3630 
  6 C       -0.0560    -3.8290     0.5890 C.ar  1 <1>  -0.1500 
  7 C       -1.5930    -3.5100    -1.2520 C.ar  1 <1>  -0.1430 
  8 C        2.4270    -3.0710     1.8370 C.3   1 <1>   0.0400 
  9 C       -1.2350    -4.1670    -0.0760 C.ar  1 <1>   0.0830 
 10 C       -2.8810    -3.8760    -1.9650 C.3   1 <1>   0.4870 
 11 O       -2.0880    -5.1260     0.3760 O.3   1 <1>  -0.3630 
 12 N       -4.0240    -3.5280    -1.0840 N.4   1 <1>  -0.9590 
 13 C       -1.7280    -5.9940     1.4330 C.3   1 <1>   0.0400 
 14 C       -5.2990    -4.1340    -1.5210 C.3   1 <1>   0.3430 
 15 C       -4.1420    -2.0820    -0.8030 C.3   1 <1>   0.3430 
 16 C       -5.5950    -5.3340    -0.6260 C.3   1 <1>  -0.1600 
 17 C       -4.2840    -1.8750     0.7050 C.3   1 <1>  -0.1600 
 18 C       -6.1970    -4.9730     0.7450 C.3   1 <1>  -0.1600 
 19 C       -5.5100    -2.5450     1.3570 C.3   1 <1>  -0.1600 
 20 C       -5.3600    -4.0530     1.6520 C.3   1 <1>  -0.1600 
 21 H       -1.0070    -1.9930    -2.6760 H     1 <1>   0.1500 
 22 H        0.2160    -4.3310     1.4950 H     1 <1>   0.1500 
 23 H        3.3620    -2.6060     2.0940 H     1 <1>   0.0800 
 24 H        2.5850    -4.1160     1.6330 H     1 <1>   0.0800 
 25 H        1.7210    -2.9340     2.6360 H     1 <1>   0.0800 
 26 H       -2.8790    -4.9360    -2.1610 H     1 <1>   0.0800 
 27 H       -2.9550    -3.3500    -2.9030 H     1 <1>   0.0800 
 28 H       -3.7860    -3.9690    -0.1800 H     1 <1>   0.4500 
 29 H       -1.6180    -5.4220     2.3380 H     1 <1>   0.0800 
 30 H       -0.8080    -6.4930     1.1800 H     1 <1>   0.0800 
 31 H       -2.5120    -6.7200     1.5570 H     1 <1>   0.0800 
 32 H       -5.2250    -4.4500    -2.5490 H     1 <1>   0.0800 
 33 H       -6.1060    -3.4230    -1.4400 H     1 <1>   0.0800 
 34 H       -4.9950    -1.6670    -1.3170 H     1 <1>   0.0800 
 35 H       -3.2600    -1.5630    -1.1410 H     1 <1>   0.0800 
 36 H       -4.7110    -5.9350    -0.5010 H     1 <1>   0.0800 
 37 H       -6.3160    -5.9480    -1.1380 H     1 <1>   0.0800 
 38 H       -4.3680    -0.8140     0.8660 H     1 <1>   0.0800 
 39 H       -3.3810    -2.1850     1.2010 H     1 <1>   0.0800 
 40 H       -6.3480    -5.9000     1.2750 H     1 <1>   0.0800 
 41 H       -7.1770    -4.5450     0.6080 H     1 <1>   0.0800 
 42 H       -6.3980    -2.3470     0.7810 H     1 <1>   0.0800 
 43 H       -5.6570    -2.0550     2.3070 H     1 <1>   0.0800 
 44 H       -4.3290    -4.3570     1.6700 H     1 <1>   0.0800 
 45 H       -5.7250    -4.2060     2.6550 H     1 <1>   0.0800 
@<TRIPOS>BOND
  1   1   2  1   
  2   2   3  ar  
  3   2   4  ar  
  4   3   5  1   
  5   3   6  ar  
  6   4   7  ar  
  7   4  21  1   
  8   5   8  1   
  9   6   9  ar  
 10   6  22  1   
 11   7   9  ar  
 12   7  10  1   
 13   8  23  1   
 14   8  24  1   
 15   8  25  1   
 16   9  11  1   
 17  10  12  1   
 18  10  26  1   
 19  10  27  1   
 20  11  13  1   
 21  12  14  1   
 22  12  15  1   
 23  12  28  1   
 24  13  29  1   
 25  13  30  1   
 26  13  31  1   
 27  14  16  1   
 28  14  32  1   
 29  14  33  1   
 30  15  17  1   
 31  15  34  1   
 32  15  35  1   
 33  16  18  1   
 34  16  36  1   
 35  16  37  1   
 36  17  19  1   
 37  17  38  1   
 38  17  39  1   
 39  18  20  1   
 40  18  40  1   
 41  18  41  1   
 42  19  20  1   
 43  19  42  1   
 44  19  43  1   
 45  20  44  1   
 46  20  45  1   
@<TRIPOS>SUBSTRUCTURE
  1 ****   9 GROUP 4 **** **** 0

# MOE 2024.06 (io_trps.svl 2023.06)
