@<TRIPOS>MOLECULE
NONAME
27 27 1 0 0 
SMALL
USER_CHARGES


@<TRIPOS>ATOM
  1 BR       0.1840    -0.1020    -0.1790 Br    1 <1>  -0.1110 
  2 C       -1.3040     1.1280    -0.1850 C.ar  1 <1>   0.1110 
  3 C       -2.6030     0.6670    -0.3520 C.ar  1 <1>  -0.1440 
  4 C       -1.0030     2.4650    -0.0170 C.ar  1 <1>  -0.1500 
  5 C       -3.6250     1.6060    -0.3450 C.ar  1 <1>  -0.1500 
  6 C       -2.9420    -0.8040    -0.5430 C.3   1 <1>   0.2640 
  7 C       -2.0350     3.3970    -0.0120 C.ar  1 <1>   0.0830 
  8 C       -3.3550     2.9640    -0.1760 C.ar  1 <1>   0.0830 
  9 O       -3.7700    -1.1930     0.4930 O.3   1 <1>  -0.6800 
 10 O       -1.8100     4.7330     0.1490 O.3   1 <1>  -0.3630 
 11 O       -4.3420     3.9070    -0.1620 O.3   1 <1>  -0.3630 
 12 C       -0.5110     5.2560     0.3040 C.3   1 <1>   0.0400 
 13 C       -5.7030     3.5610    -0.2490 C.3   1 <1>   0.1200 
 14 C       -6.5210     4.8450    -0.1590 C.3   1 <1>  -0.2400 
 15 H        0.0240     2.7490     0.1050 H     1 <1>   0.1500 
 16 H       -4.6310     1.2540    -0.4720 H     1 <1>   0.1500 
 17 H       -2.0760    -1.4400    -0.5310 H     1 <1>   0.0800 
 18 H       -3.4730    -0.9550    -1.4670 H     1 <1>   0.0800 
 19 H       -3.3870    -0.8910     1.3390 H     1 <1>   0.4000 
 20 H       -0.5930     6.3230     0.4060 H     1 <1>   0.0800 
 21 H        0.0690     5.0170    -0.5700 H     1 <1>   0.0800 
 22 H       -0.0690     4.8380     1.1910 H     1 <1>   0.0800 
 23 H       -5.9410     2.9010     0.5670 H     1 <1>   0.0800 
 24 H       -5.8710     3.0700    -1.1920 H     1 <1>   0.0800 
 25 H       -6.3310     5.3370     0.7790 H     1 <1>   0.0800 
 26 H       -7.5690     4.6160    -0.2220 H     1 <1>   0.0800 
 27 H       -6.2620     5.5040    -0.9680 H     1 <1>   0.0800 
@<TRIPOS>BOND
  1   1   2  1   
  2   2   3  ar  
  3   2   4  ar  
  4   3   5  ar  
  5   3   6  1   
  6   4   7  ar  
  7   4  15  1   
  8   5   8  ar  
  9   5  16  1   
 10   6   9  1   
 11   6  17  1   
 12   6  18  1   
 13   7   8  ar  
 14   7  10  1   
 15   8  11  1   
 16   9  19  1   
 17  10  12  1   
 18  11  13  1   
 19  12  20  1   
 20  12  21  1   
 21  12  22  1   
 22  13  14  1   
 23  13  23  1   
 24  13  24  1   
 25  14  25  1   
 26  14  26  1   
 27  14  27  1   
@<TRIPOS>SUBSTRUCTURE
  1 ****   8 GROUP 4 **** **** 0

# MOE 2024.06 (io_trps.svl 2023.06)
