@<TRIPOS>MOLECULE
NONAME
26 26 1 0 0 
SMALL
USER_CHARGES


@<TRIPOS>ATOM
  1 O        1.7670     0.2430    -1.6290 O.co2 1 <1>  -0.9000 
  2 C        1.5030     0.5270    -0.4520 C.2   1 <1>   0.9060 
  3 O        0.3610     0.9030    -0.1420 O.co2 1 <1>  -0.9000 
  4 C        2.5000     0.2700     0.6910 C.3   1 <1>  -0.1860 
  5 C        3.9170     0.9170     0.5670 C.3   1 <1>  -0.1860 
  6 C        2.6620    -1.2380     1.0120 C.3   1 <1>   0.0580 
  7 C        3.9300     2.4460     0.6310 C.2   1 <1>   0.9060 
  8 C        4.7230     0.3110    -0.6060 C.3   1 <1>   0.0580 
  9 C        3.7060    -1.8950     0.1170 C.2   1 <1>  -0.2880 
 10 C        1.3420    -2.0160     0.9420 C.3   1 <1>  -0.2400 
 11 O        3.7950     2.9690     1.7490 O.co2 1 <1>  -0.9000 
 12 O        4.1960     3.1400    -0.3600 O.co2 1 <1>  -0.9000 
 13 C        4.5990    -1.2110    -0.6070 C.2   1 <1>  -0.2880 
 14 C        6.2140     0.6700    -0.5140 C.3   1 <1>  -0.2400 
 15 H        2.0420     0.7210     1.5520 H     1 <1>   0.0800 
 16 H        4.4410     0.6300     1.4580 H     1 <1>   0.0800 
 17 H        3.0230    -1.3120     2.0220 H     1 <1>   0.0800 
 18 H        4.3270     0.6930    -1.5330 H     1 <1>   0.0800 
 19 H        3.6500    -2.9670     0.1110 H     1 <1>   0.1500 
 20 H        1.0000    -2.0710    -0.0780 H     1 <1>   0.0800 
 21 H        0.5900    -1.5140     1.5250 H     1 <1>   0.0800 
 22 H        1.4730    -3.0120     1.3180 H     1 <1>   0.0800 
 23 H        5.2990    -1.6890    -1.2650 H     1 <1>   0.1500 
 24 H        6.6290     0.2980     0.4050 H     1 <1>   0.0800 
 25 H        6.3400     1.7370    -0.5440 H     1 <1>   0.0800 
 26 H        6.7470     0.2450    -1.3430 H     1 <1>   0.0800 
@<TRIPOS>BOND
  1   1   2  ar  
  2   2   3  ar  
  3   2   4  1   
  4   4   5  1   
  5   4   6  1   
  6   4  15  1   
  7   5   7  1   
  8   5   8  1   
  9   5  16  1   
 10   6   9  1   
 11   6  10  1   
 12   6  17  1   
 13   7  11  ar  
 14   7  12  ar  
 15   8  13  1   
 16   8  14  1   
 17   8  18  1   
 18   9  13  2   
 19   9  19  1   
 20  10  20  1   
 21  10  21  1   
 22  10  22  1   
 23  13  23  1   
 24  14  24  1   
 25  14  25  1   
 26  14  26  1   
@<TRIPOS>SUBSTRUCTURE
  1 ****   4 GROUP 4 **** **** 0

# MOE 2024.06 (io_trps.svl 2023.06)
