@<TRIPOS>MOLECULE
NONAME
40 40 1 0 0 
SMALL
USER_CHARGES


@<TRIPOS>ATOM
  1 O       -1.7660    -0.6530     1.5030 O.3   1 <1>  -0.3630 
  2 C       -2.1990     0.3000     0.6420 C.ar  1 <1>   0.0830 
  3 C       -0.4630    -0.6150     2.0440 C.3   1 <1>   0.0400 
  4 C       -3.4600     0.1140     0.1040 C.ar  1 <1>  -0.1500 
  5 C       -1.4580     1.4220     0.2850 C.ar  1 <1>  -0.1500 
  6 C       -3.9990     1.0400    -0.7770 C.ar  1 <1>  -0.1430 
  7 C       -1.9870     2.3410    -0.6030 C.ar  1 <1>  -0.1500 
  8 C       -3.2510     2.1530    -1.1340 C.ar  1 <1>  -0.1500 
  9 C       -5.3920     0.8340    -1.3320 C.3   1 <1>   0.4860 
 10 N       -6.3700     1.0710    -0.2210 N.4   1 <1>  -0.9590 
 11 C       -7.7340     0.5300    -0.5720 C.3   1 <1>   0.3430 
 12 C       -6.3610     2.5290     0.1520 C.3   1 <1>   0.2630 
 13 C       -8.7590     0.5490     0.6020 C.3   1 <1>   0.3430 
 14 N      -10.1250    -0.0020     0.2580 N.4   1 <1>  -0.9590 
 15 C      -11.0830     0.2430     1.3910 C.3   1 <1>   0.2630 
 16 C      -10.1180    -1.4720    -0.0550 C.3   1 <1>   0.2630 
 17 H       -0.3330    -1.4820     2.6660 H     1 <1>   0.0800 
 18 H       -0.3540     0.2770     2.6360 H     1 <1>   0.0800 
 19 H        0.2510    -0.6330     1.2400 H     1 <1>   0.0800 
 20 H       -3.9930    -0.7750     0.3900 H     1 <1>   0.1500 
 21 H       -0.4760     1.5930     0.6840 H     1 <1>   0.1500 
 22 H       -1.4070     3.2060    -0.8820 H     1 <1>   0.1500 
 23 H       -3.6320     2.8850    -1.8270 H     1 <1>   0.1500 
 24 H       -5.4730    -0.1780    -1.6980 H     1 <1>   0.0800 
 25 H       -5.5710     1.5120    -2.1510 H     1 <1>   0.0800 
 26 H       -5.9560     0.5550     0.5740 H     1 <1>   0.4500 
 27 H       -7.6220    -0.4900    -0.9040 H     1 <1>   0.0800 
 28 H       -8.1350     1.1050    -1.3910 H     1 <1>   0.0800 
 29 H       -6.7060     3.1340    -0.6720 H     1 <1>   0.0800 
 30 H       -5.3600     2.8430     0.4060 H     1 <1>   0.0800 
 31 H       -6.9920     2.7120     1.0060 H     1 <1>   0.0800 
 32 H       -8.8750     1.5690     0.9300 H     1 <1>   0.0800 
 33 H       -8.3540    -0.0180     1.4240 H     1 <1>   0.0800 
 34 H      -10.5180     0.4980    -0.5600 H     1 <1>   0.4500 
 35 H      -10.7540    -0.2670     2.2830 H     1 <1>   0.0800 
 36 H      -12.0660    -0.1200     1.1360 H     1 <1>   0.0800 
 37 H      -11.1580     1.2970     1.6050 H     1 <1>   0.0800 
 38 H       -9.7460    -2.0370     0.7850 H     1 <1>   0.0800 
 39 H       -9.5010    -1.6800    -0.9140 H     1 <1>   0.0800 
 40 H      -11.1200    -1.8110    -0.2720 H     1 <1>   0.0800 
@<TRIPOS>BOND
  1   1   2  1   
  2   1   3  1   
  3   2   4  ar  
  4   2   5  ar  
  5   3  17  1   
  6   3  18  1   
  7   3  19  1   
  8   4   6  ar  
  9   4  20  1   
 10   5   7  ar  
 11   5  21  1   
 12   6   8  ar  
 13   6   9  1   
 14   7   8  ar  
 15   7  22  1   
 16   8  23  1   
 17   9  10  1   
 18   9  24  1   
 19   9  25  1   
 20  10  11  1   
 21  10  12  1   
 22  10  26  1   
 23  11  13  1   
 24  11  27  1   
 25  11  28  1   
 26  12  29  1   
 27  12  30  1   
 28  12  31  1   
 29  13  14  1   
 30  13  32  1   
 31  13  33  1   
 32  14  15  1   
 33  14  16  1   
 34  14  34  1   
 35  15  35  1   
 36  15  36  1   
 37  15  37  1   
 38  16  38  1   
 39  16  39  1   
 40  16  40  1   
@<TRIPOS>SUBSTRUCTURE
  1 ****  10 GROUP 4 **** **** 0

# MOE 2024.06 (io_trps.svl 2023.06)
