@<TRIPOS>MOLECULE
NONAME
41 42 1 0 0 
SMALL
USER_CHARGES


@<TRIPOS>ATOM
  1 CL      -0.1770    -0.5200     0.9680 Cl    1 <1>  -0.1770 
  2 C        1.3330    -1.1520     0.3460 C.ar  1 <1>   0.1770 
  3 C        1.4450    -2.5030     0.0360 C.ar  1 <1>   0.0830 
  4 C        2.3930    -0.2820     0.1780 C.ar  1 <1>  -0.1500 
  5 O        0.3560    -3.2960     0.2310 O.3   1 <1>  -0.3630 
  6 C        2.6600    -2.9740    -0.4550 C.ar  1 <1>  -0.1500 
  7 C        3.5990    -0.7570    -0.3120 C.ar  1 <1>  -0.1430 
  8 C        0.3910    -4.6810     0.0030 C.3   1 <1>   0.1200 
  9 C        3.7240    -2.1020    -0.6240 C.ar  1 <1>  -0.1500 
 10 C        4.7750     0.1850    -0.5020 C.3   1 <1>  -0.0960 
 11 C       -1.0000    -5.2210     0.3520 C.3   1 <1>   0.3430 
 12 N       -1.1060    -6.7070     0.1780 N.4   1 <1>  -0.9590 
 13 C       -2.5320    -7.1310     0.2230 C.3   1 <1>   0.3430 
 14 C       -0.3260    -7.4540     1.2010 C.3   1 <1>   0.3430 
 15 C       -2.7430    -8.4350    -0.5520 C.3   1 <1>  -0.1600 
 16 C        0.4130    -8.6240     0.5520 C.3   1 <1>  -0.1600 
 17 C       -1.8680    -9.6300    -0.1270 C.3   1 <1>  -0.1600 
 18 C       -0.3840    -9.4460    -0.4780 C.3   1 <1>  -0.1600 
 19 H        2.2670     0.7550     0.4300 H     1 <1>   0.1500 
 20 H        2.8050    -4.0050    -0.7130 H     1 <1>   0.1500 
 21 H        1.1490    -5.1020     0.6390 H     1 <1>   0.0800 
 22 H        0.6190    -4.8450    -1.0350 H     1 <1>   0.0800 
 23 H        4.6610    -2.4760    -1.0030 H     1 <1>   0.1500 
 24 H        4.4350     1.1980    -0.6230 H     1 <1>   0.0800 
 25 H        5.3370    -0.0900    -1.3770 H     1 <1>   0.0800 
 26 H        5.4220     0.1370     0.3550 H     1 <1>   0.0800 
 27 H       -1.7140    -4.7350    -0.2930 H     1 <1>   0.0800 
 28 H       -1.2330    -4.9580     1.3710 H     1 <1>   0.0800 
 29 H       -0.7440    -6.9740    -0.7470 H     1 <1>   0.4500 
 30 H       -3.1540    -6.3700    -0.2210 H     1 <1>   0.0800 
 31 H       -2.8460    -7.2590     1.2470 H     1 <1>   0.0800 
 32 H       -0.9920    -7.8290     1.9620 H     1 <1>   0.0800 
 33 H        0.3910    -6.8080     1.6820 H     1 <1>   0.0800 
 34 H       -2.6110    -8.2470    -1.6030 H     1 <1>   0.0800 
 35 H       -3.7740    -8.7190    -0.4230 H     1 <1>   0.0800 
 36 H        0.7210    -9.2830     1.3460 H     1 <1>   0.0800 
 37 H        1.3150    -8.2630     0.0910 H     1 <1>   0.0800 
 38 H       -2.2250   -10.4960    -0.6620 H     1 <1>   0.0800 
 39 H       -1.9890    -9.8440     0.9220 H     1 <1>   0.0800 
 40 H        0.0740   -10.4190    -0.5470 H     1 <1>   0.0800 
 41 H       -0.2980    -9.0020    -1.4550 H     1 <1>   0.0800 
@<TRIPOS>BOND
  1   1   2  1   
  2   2   3  ar  
  3   2   4  ar  
  4   3   5  1   
  5   3   6  ar  
  6   4   7  ar  
  7   4  19  1   
  8   5   8  1   
  9   6   9  ar  
 10   6  20  1   
 11   7   9  ar  
 12   7  10  1   
 13   8  11  1   
 14   8  21  1   
 15   8  22  1   
 16   9  23  1   
 17  10  24  1   
 18  10  25  1   
 19  10  26  1   
 20  11  12  1   
 21  11  27  1   
 22  11  28  1   
 23  12  13  1   
 24  12  14  1   
 25  12  29  1   
 26  13  15  1   
 27  13  30  1   
 28  13  31  1   
 29  14  16  1   
 30  14  32  1   
 31  14  33  1   
 32  15  17  1   
 33  15  34  1   
 34  15  35  1   
 35  16  18  1   
 36  16  36  1   
 37  16  37  1   
 38  17  18  1   
 39  17  38  1   
 40  17  39  1   
 41  18  40  1   
 42  18  41  1   
@<TRIPOS>SUBSTRUCTURE
  1 ****   8 GROUP 4 **** **** 0

# MOE 2024.06 (io_trps.svl 2023.06)
