@<TRIPOS>MOLECULE
NONAME
42 44 1 0 0 
SMALL
USER_CHARGES


@<TRIPOS>ATOM
  1 O        0.6770    -1.2730     0.0950 O.2   1 <1>  -0.5700 
  2 C        0.5550    -2.4560    -0.1360 C.2   1 <1>   0.5690 
  3 N       -0.5700    -3.0640    -0.6170 N.am  1 <1>  -0.4770 
  4 C        1.6230    -3.5170     0.2030 C.3   1 <1>   0.4850 
  5 C       -0.4370    -4.4480    -0.5130 C.ar  1 <1>   0.1170 
  6 C       -1.8060    -2.3440    -0.9920 C.3   1 <1>   0.1400 
  7 O        2.0140    -3.4410     1.5380 O.3   1 <1>  -0.6800 
  8 C        0.8070    -4.7840    -0.0080 C.ar  1 <1>  -0.1430 
  9 C        2.8630    -3.5220    -0.6910 C.3   1 <1>  -0.0990 
 10 C       -1.3570    -5.4410    -0.8190 C.ar  1 <1>  -0.1500 
 11 C       -2.7650    -2.2940     0.2020 C.3   1 <1>  -0.1600 
 12 C        1.1490    -6.1050     0.2180 C.ar  1 <1>  -0.1500 
 13 C        3.5300    -2.1670    -0.7690 C.2   1 <1>   0.5940 
 14 C       -1.0170    -6.7660    -0.6030 C.ar  1 <1>  -0.1500 
 15 C       -4.0670    -1.5700    -0.1610 C.3   1 <1>  -0.1600 
 16 C        0.2280    -7.0970    -0.0850 C.ar  1 <1>  -0.1500 
 17 O        3.2590    -1.5030    -1.7390 O.2   1 <1>  -0.5700 
 18 C        4.4700    -1.7690     0.2500 C.2   1 <1>   0.0550 
 19 C       -5.0210    -1.5250     1.0350 C.3   1 <1>  -0.2400 
 20 O        5.0560    -0.5760     0.1980 O.3   1 <1>  -0.2800 
 21 C        4.9390    -2.4160     1.3580 C.2   1 <1>  -0.1500 
 22 C        5.8660    -0.4450     1.2210 C.2   1 <1>  -0.0100 
 23 C        5.8410    -1.5570     1.9840 C.2   1 <1>  -0.1500 
 24 H       -2.2680    -2.8420    -1.8260 H     1 <1>   0.0800 
 25 H       -1.5520    -1.3420    -1.2960 H     1 <1>   0.0800 
 26 H        1.7230    -2.5720     1.8880 H     1 <1>   0.4000 
 27 H        2.5630    -3.7980    -1.6860 H     1 <1>   0.0800 
 28 H        3.5590    -4.2640    -0.3500 H     1 <1>   0.0800 
 29 H       -2.3220    -5.1830    -1.2150 H     1 <1>   0.1500 
 30 H       -2.2840    -1.7760     1.0140 H     1 <1>   0.0800 
 31 H       -2.9920    -3.2960     0.5220 H     1 <1>   0.0800 
 32 H        2.1120    -6.3600     0.6240 H     1 <1>   0.1500 
 33 H       -1.7220    -7.5450    -0.8350 H     1 <1>   0.1500 
 34 H       -4.5500    -2.0770    -0.9800 H     1 <1>   0.0800 
 35 H       -3.8450    -0.5630    -0.4750 H     1 <1>   0.0800 
 36 H        0.4790    -8.1300     0.0850 H     1 <1>   0.1500 
 37 H       -5.2730    -2.5210     1.3550 H     1 <1>   0.0800 
 38 H       -5.9280    -1.0130     0.7640 H     1 <1>   0.0800 
 39 H       -4.5670    -1.0010     1.8580 H     1 <1>   0.0800 
 40 H        4.6840    -3.3990     1.7150 H     1 <1>   0.1500 
 41 H        6.4220     0.4700     1.3330 H     1 <1>   0.1500 
 42 H        6.3880    -1.7620     2.8880 H     1 <1>   0.1500 
@<TRIPOS>BOND
  1   1   2  2   
  2   2   3  am  
  3   2   4  1   
  4   3   5  1   
  5   3   6  1   
  6   4   7  1   
  7   4   8  1   
  8   4   9  1   
  9   5   8  ar  
 10   5  10  ar  
 11   6  11  1   
 12   6  24  1   
 13   6  25  1   
 14   7  26  1   
 15   8  12  ar  
 16   9  13  1   
 17   9  27  1   
 18   9  28  1   
 19  10  14  ar  
 20  10  29  1   
 21  11  15  1   
 22  11  30  1   
 23  11  31  1   
 24  12  16  ar  
 25  12  32  1   
 26  13  17  2   
 27  13  18  1   
 28  14  16  ar  
 29  14  33  1   
 30  15  19  1   
 31  15  34  1   
 32  15  35  1   
 33  16  36  1   
 34  18  20  1   
 35  18  21  2   
 36  19  37  1   
 37  19  38  1   
 38  19  39  1   
 39  20  22  1   
 40  21  23  1   
 41  21  40  1   
 42  22  23  2   
 43  22  41  1   
 44  23  42  1   
@<TRIPOS>SUBSTRUCTURE
  1 ****   4 GROUP 4 **** **** 0

# MOE 2024.06 (io_trps.svl 2023.06)
