@<TRIPOS>MOLECULE
NONAME
44 45 1 0 0 
SMALL
USER_CHARGES


@<TRIPOS>ATOM
  1 S        0.5630    -0.3120    -1.1030 S.o2  1 <1>   1.4470 
  2 O       -0.4600     0.6000    -1.5690 O.2   1 <1>  -0.6500 
  3 O        1.1350    -1.2500    -2.0450 O.2   1 <1>  -0.6500 
  4 N       -0.1410    -1.2430     0.1250 N.am  1 <1>  -0.8490 
  5 C        1.8880     0.6000    -0.2380 C.ar  1 <1>  -0.0090 
  6 C        0.6890    -2.3280     0.6190 C.3   1 <1>   0.1960 
  7 C       -1.3860    -1.8640    -0.2860 C.3   1 <1>   0.1960 
  8 C        1.6400     1.5680     0.7390 C.ar  1 <1>  -0.1440 
  9 C        3.2150     0.3160    -0.5430 C.ar  1 <1>  -0.1500 
 10 C       -0.2780    -3.2130     1.3930 C.3   1 <1>  -0.1600 
 11 C       -1.6460    -2.9370     0.7670 C.3   1 <1>  -0.1600 
 12 C        2.6960     2.2130     1.3620 C.ar  1 <1>  -0.1500 
 13 C        0.2220     1.9530     1.1490 C.3   1 <1>  -0.0970 
 14 C        4.2960     0.9420     0.0760 C.ar  1 <1>   0.0860 
 15 C        4.0020     1.9070     1.0340 C.ar  1 <1>  -0.1500 
 16 C        5.6640     0.5920    -0.2720 C.2   1 <1>   0.5440 
 17 O        5.9310     0.1510    -1.3720 O.2   1 <1>  -0.5700 
 18 N        6.6790     0.7410     0.6320 N.am  1 <1>  -0.7300 
 19 C        8.0920     0.3350     0.3980 C.3   1 <1>   0.1400 
 20 C        8.7990     1.3380    -0.5140 C.3   1 <1>   0.1200 
 21 O       10.1630     1.0500    -0.5140 O.3   1 <1>  -0.5600 
 22 C       10.9020     1.8400    -1.3880 C.3   1 <1>   0.0400 
 23 H        1.4850    -1.9580     1.2430 H     1 <1>   0.0800 
 24 H        1.1050    -2.8880    -0.2040 H     1 <1>   0.0800 
 25 H       -1.2640    -2.3240    -1.2540 H     1 <1>   0.0800 
 26 H       -2.1820    -1.1390    -0.3320 H     1 <1>   0.0800 
 27 H        3.4290    -0.4240    -1.2960 H     1 <1>   0.1500 
 28 H       -0.2790    -2.9230     2.4300 H     1 <1>   0.0800 
 29 H        0.0030    -4.2490     1.3170 H     1 <1>   0.0800 
 30 H       -2.0680    -3.8160     0.3140 H     1 <1>   0.0800 
 31 H       -2.3290    -2.5600     1.5080 H     1 <1>   0.0800 
 32 H        2.5060     2.9660     2.1080 H     1 <1>   0.1500 
 33 H       -0.2950     2.4030     0.3200 H     1 <1>   0.0800 
 34 H        0.2290     2.6600     1.9580 H     1 <1>   0.0800 
 35 H       -0.3270     1.0870     1.4730 H     1 <1>   0.0800 
 36 H        4.7990     2.4350     1.5260 H     1 <1>   0.1500 
 37 H        6.4580     1.0200     1.5880 H     1 <1>   0.3700 
 38 H        8.1110    -0.6370    -0.0650 H     1 <1>   0.0800 
 39 H        8.6060     0.2850     1.3410 H     1 <1>   0.0800 
 40 H        8.6660     2.3400    -0.1480 H     1 <1>   0.0800 
 41 H        8.4210     1.2510    -1.5190 H     1 <1>   0.0800 
 42 H       11.9340     1.5490    -1.3120 H     1 <1>   0.0800 
 43 H       10.7950     2.8740    -1.1090 H     1 <1>   0.0800 
 44 H       10.5530     1.6800    -2.3930 H     1 <1>   0.0800 
@<TRIPOS>BOND
  1   1   2  2   
  2   1   3  2   
  3   1   4  am  
  4   1   5  1   
  5   4   6  1   
  6   4   7  1   
  7   5   8  ar  
  8   5   9  ar  
  9   6  10  1   
 10   6  23  1   
 11   6  24  1   
 12   7  11  1   
 13   7  25  1   
 14   7  26  1   
 15   8  12  ar  
 16   8  13  1   
 17   9  14  ar  
 18   9  27  1   
 19  10  11  1   
 20  10  28  1   
 21  10  29  1   
 22  11  30  1   
 23  11  31  1   
 24  12  15  ar  
 25  12  32  1   
 26  13  33  1   
 27  13  34  1   
 28  13  35  1   
 29  14  15  ar  
 30  14  16  1   
 31  15  36  1   
 32  16  17  2   
 33  16  18  am  
 34  18  19  1   
 35  18  37  1   
 36  19  20  1   
 37  19  38  1   
 38  19  39  1   
 39  20  21  1   
 40  20  40  1   
 41  20  41  1   
 42  21  22  1   
 43  22  42  1   
 44  22  43  1   
 45  22  44  1   
@<TRIPOS>SUBSTRUCTURE
  1 ****   9 GROUP 4 **** **** 0

# MOE 2024.06 (io_trps.svl 2023.06)
