@<TRIPOS>MOLECULE
NONAME
37 40 1 0 0 
SMALL
USER_CHARGES


@<TRIPOS>ATOM
  1 O       -0.6090     5.9150     0.0030 O.3   1 <1>  -0.2800 
  2 C       -0.3840     4.5930    -0.1510 C.ar  1 <1>   0.1400 
  3 C       -1.9280     6.0640     0.1810 C.ar  1 <1>   0.1400 
  4 C        0.8060     3.8890    -0.3600 C.ar  1 <1>   0.4100 
  5 C       -1.5530     3.8900    -0.0700 C.ar  1 <1>   0.2560 
  6 C       -2.5770     4.8420     0.1450 C.ar  1 <1>   0.0000 
  7 C       -2.6150     7.2510     0.3790 C.ar  1 <1>  -0.1500 
  8 N        0.7630     2.5720    -0.4710 N.ar  1 <1>  -0.6200 
  9 N        2.0500     4.5010    -0.4680 N.pl3 1 <1>  -0.8380 
 10 N       -1.6110     2.5640    -0.1840 N.ar  1 <1>  -0.5660 
 11 C       -3.9590     4.7930     0.3110 C.ar  1 <1>  -0.1500 
 12 C       -3.9870     7.1970     0.5430 C.ar  1 <1>  -0.1500 
 13 C       -0.4390     2.0000    -0.3770 C.ar  1 <1>   0.4700 
 14 C        2.1990     5.7740    -1.2210 C.3   1 <1>   0.2090 
 15 C        3.3010     3.7710    -0.1240 C.3   1 <1>   0.2090 
 16 C       -4.6550     5.9710     0.5080 C.ar  1 <1>  -0.1500 
 17 C        2.5370     6.9070    -0.2500 C.3   1 <1>  -0.1600 
 18 C        4.2140     4.5990     0.7890 C.3   1 <1>  -0.1600 
 19 C        4.0350     7.0750     0.0600 C.3   1 <1>  -0.1600 
 20 C        4.8790     5.7900     0.0800 C.3   1 <1>  -0.1600 
 21 H       -2.0790     8.1820     0.4020 H     1 <1>   0.1500 
 22 H       -4.4600     3.8410     0.2830 H     1 <1>   0.1500 
 23 H       -4.5480     8.1020     0.6980 H     1 <1>   0.1500 
 24 H       -0.4420     0.9270    -0.4730 H     1 <1>   0.1500 
 25 H        1.2750     6.0010    -1.7260 H     1 <1>   0.0800 
 26 H        2.9600     5.6740    -1.9750 H     1 <1>   0.0800 
 27 H        3.8170     3.5050    -1.0300 H     1 <1>   0.0800 
 28 H        3.0580     2.8590     0.3920 H     1 <1>   0.0800 
 29 H       -5.7240     5.9480     0.6380 H     1 <1>   0.1500 
 30 H        1.9920     6.7460     0.6640 H     1 <1>   0.0800 
 31 H        2.1770     7.8300    -0.6670 H     1 <1>   0.0800 
 32 H        4.9940     3.9420     1.1300 H     1 <1>   0.0800 
 33 H        3.6680     4.9220     1.6570 H     1 <1>   0.0800 
 34 H        4.1220     7.5610     1.0170 H     1 <1>   0.0800 
 35 H        4.4660     7.7400    -0.6690 H     1 <1>   0.0800 
 36 H        5.1320     5.5080    -0.9280 H     1 <1>   0.0800 
 37 H        5.8050     6.0150     0.5810 H     1 <1>   0.0800 
@<TRIPOS>BOND
  1   1   2  1   
  2   1   3  1   
  3   2   4  ar  
  4   2   5  ar  
  5   3   6  ar  
  6   3   7  ar  
  7   4   8  ar  
  8   4   9  1   
  9   5   6  1   
 10   5  10  ar  
 11   6  11  ar  
 12   7  12  ar  
 13   7  21  1   
 14   8  13  ar  
 15   9  14  1   
 16   9  15  1   
 17  10  13  ar  
 18  11  16  ar  
 19  11  22  1   
 20  12  16  ar  
 21  12  23  1   
 22  13  24  1   
 23  14  17  1   
 24  14  25  1   
 25  14  26  1   
 26  15  18  1   
 27  15  27  1   
 28  15  28  1   
 29  16  29  1   
 30  17  19  1   
 31  17  30  1   
 32  17  31  1   
 33  18  20  1   
 34  18  32  1   
 35  18  33  1   
 36  19  20  1   
 37  19  34  1   
 38  19  35  1   
 39  20  36  1   
 40  20  37  1   
@<TRIPOS>SUBSTRUCTURE
  1 ****   2 GROUP 4 **** **** 0

# MOE 2024.06 (io_trps.svl 2023.06)
