@<TRIPOS>MOLECULE
NONAME
42 43 1 0 0 
SMALL
USER_CHARGES


@<TRIPOS>ATOM
  1 S       -0.9260    -0.0920     0.2200 S.3   1 <1>  -0.3320 
  2 C       -1.3650     1.6170    -0.1910 C.ar  1 <1>   0.1020 
  3 C        0.8860    -0.1470     0.5760 C.3   1 <1>   0.0700 
  4 C       -2.6350     1.9140    -0.7130 C.ar  1 <1>   0.0860 
  5 C       -0.4190     2.6120     0.0160 C.ar  1 <1>  -0.1500 
  6 C        1.2820    -1.6120     0.7640 C.3   1 <1>  -0.1600 
  7 C       -3.6940     0.9450    -0.9440 C.2   1 <1>   0.5440 
  8 C       -2.8840     3.2510    -1.0320 C.ar  1 <1>  -0.1500 
  9 C       -0.7070     3.9250    -0.3050 C.ar  1 <1>  -0.1500 
 10 C        2.7780    -1.7490     1.0630 C.3   1 <1>  -0.2400 
 11 O       -4.4160     1.0520    -1.9180 O.2   1 <1>  -0.5700 
 12 N       -3.9400    -0.0700    -0.0660 N.am  1 <1>  -0.7300 
 13 C       -1.9430     4.2430    -0.8340 C.ar  1 <1>  -0.1500 
 14 C       -4.9440    -1.1320    -0.2280 C.3   1 <1>   0.2200 
 15 C       -5.7060    -1.2960     1.0910 C.3   1 <1>  -0.1600 
 16 C       -4.2290    -2.4280    -0.6230 C.3   1 <1>  -0.1600 
 17 C       -6.6920    -2.4710     1.0200 C.3   1 <1>  -0.1600 
 18 C       -5.2110    -3.6060    -0.6960 C.3   1 <1>  -0.1600 
 19 C       -5.9780    -3.7710     0.6230 C.3   1 <1>  -0.1600 
 20 H        1.0590     0.4250     1.4710 H     1 <1>   0.0800 
 21 H        1.3940     0.2930    -0.2640 H     1 <1>   0.0800 
 22 H        0.5460     2.3920     0.4270 H     1 <1>   0.1500 
 23 H        1.0450    -2.1610    -0.1310 H     1 <1>   0.0800 
 24 H        0.7150    -2.0320     1.5770 H     1 <1>   0.0800 
 25 H       -3.8430     3.5120    -1.4470 H     1 <1>   0.1500 
 26 H        0.0270     4.6970    -0.1470 H     1 <1>   0.1500 
 27 H        3.3630    -1.3530     0.2520 H     1 <1>   0.0800 
 28 H        3.0320    -2.7870     1.1910 H     1 <1>   0.0800 
 29 H        3.0320    -1.2230     1.9660 H     1 <1>   0.0800 
 30 H       -3.2210    -0.2670     0.6330 H     1 <1>   0.3700 
 31 H       -2.1720     5.2630    -1.0920 H     1 <1>   0.1500 
 32 H       -5.6400    -0.8600    -1.0050 H     1 <1>   0.0800 
 33 H       -6.2460    -0.3900     1.3020 H     1 <1>   0.0800 
 34 H       -5.0070    -1.4730     1.8900 H     1 <1>   0.0800 
 35 H       -3.4640    -2.6520     0.1000 H     1 <1>   0.0800 
 36 H       -3.7610    -2.2930    -1.5820 H     1 <1>   0.0800 
 37 H       -7.4570    -2.2500     0.2950 H     1 <1>   0.0800 
 38 H       -7.1710    -2.5990     1.9760 H     1 <1>   0.0800 
 39 H       -4.6730    -4.5110    -0.9180 H     1 <1>   0.0800 
 40 H       -5.9110    -3.4340    -1.4960 H     1 <1>   0.0800 
 41 H       -6.7010    -4.5630     0.5230 H     1 <1>   0.0800 
 42 H       -5.2900    -4.0510     1.4020 H     1 <1>   0.0800 
@<TRIPOS>BOND
  1   1   2  1   
  2   1   3  1   
  3   2   4  ar  
  4   2   5  ar  
  5   3   6  1   
  6   3  20  1   
  7   3  21  1   
  8   4   7  1   
  9   4   8  ar  
 10   5   9  ar  
 11   5  22  1   
 12   6  10  1   
 13   6  23  1   
 14   6  24  1   
 15   7  11  2   
 16   7  12  am  
 17   8  13  ar  
 18   8  25  1   
 19   9  13  ar  
 20   9  26  1   
 21  10  27  1   
 22  10  28  1   
 23  10  29  1   
 24  12  14  1   
 25  12  30  1   
 26  13  31  1   
 27  14  15  1   
 28  14  16  1   
 29  14  32  1   
 30  15  17  1   
 31  15  33  1   
 32  15  34  1   
 33  16  18  1   
 34  16  35  1   
 35  16  36  1   
 36  17  19  1   
 37  17  37  1   
 38  17  38  1   
 39  18  19  1   
 40  18  39  1   
 41  18  40  1   
 42  19  41  1   
 43  19  42  1   
@<TRIPOS>SUBSTRUCTURE
  1 ****  12 GROUP 4 **** **** 0

# MOE 2024.06 (io_trps.svl 2023.06)
