@<TRIPOS>MOLECULE
NONAME
47 50 1 0 0 
SMALL
USER_CHARGES


@<TRIPOS>ATOM
  1 O       -4.1480    -2.7880    -0.7540 O.2   1 <1>  -0.5700 
  2 C       -3.4800    -2.5310     0.2180 C.2   1 <1>   0.5690 
  3 N       -2.7330    -3.4750     0.8770 N.am  1 <1>  -0.5470 
  4 C       -3.4910    -1.0710     0.7100 C.3   1 <1>   0.4040 
  5 C       -2.5800    -4.8230     0.5330 C.ar  1 <1>   0.1170 
  6 N       -4.6160    -0.2470     0.1230 N.4   1 <1>  -0.9590 
  7 C       -3.6600    -5.7450     0.4690 C.ar  1 <1>   0.0000 
  8 C       -1.3350    -5.3190     0.2520 C.ar  1 <1>  -0.1440 
  9 C       -4.3930     1.2210     0.2530 C.3   1 <1>   0.3430 
 10 C       -5.9490    -0.6780     0.6430 C.3   1 <1>   0.3430 
 11 C       -3.3710    -7.0810     0.0920 C.ar  1 <1>   0.3100 
 12 C       -5.0020    -5.4230     0.7780 C.ar  1 <1>  -0.1500 
 13 C       -1.1730    -6.6490    -0.0970 C.ar  1 <1>   0.1670 
 14 C       -0.0030    -4.6000     0.2350 C.3   1 <1>  -0.0170 
 15 C       -5.4790     1.9770    -0.5140 C.3   1 <1>  -0.1600 
 16 C       -7.0570     0.0520    -0.1170 C.3   1 <1>  -0.1600 
 17 N       -2.1200    -7.5250    -0.1890 N.ar  1 <1>  -0.6200 
 18 C       -4.4230    -8.0070     0.0150 C.ar  1 <1>  -0.1500 
 19 C       -6.0040    -6.3530     0.6990 C.ar  1 <1>  -0.1500 
 20 C        0.2730    -6.9690    -0.3730 C.3   1 <1>  -0.0170 
 21 C        1.0300    -5.7340     0.1440 C.3   1 <1>  -0.1600 
 22 C       -6.8870     1.5750    -0.0540 C.3   1 <1>  -0.1600 
 23 C       -5.7130    -7.6610     0.3090 C.ar  1 <1>  -0.1500 
 24 H       -2.0880    -3.1660     1.6050 H     1 <1>   0.3700 
 25 H       -2.5500    -0.6310     0.4310 H     1 <1>   0.0800 
 26 H       -3.5600    -1.0640     1.7840 H     1 <1>   0.0800 
 27 H       -4.6350    -0.4880    -0.8830 H     1 <1>   0.4500 
 28 H       -3.4260     1.4880    -0.1440 H     1 <1>   0.0800 
 29 H       -4.4260     1.5060     1.2930 H     1 <1>   0.0800 
 30 H       -6.0240    -0.4510     1.6940 H     1 <1>   0.0800 
 31 H       -6.0720    -1.7420     0.5100 H     1 <1>   0.0800 
 32 H       -5.2420    -4.4250     1.0820 H     1 <1>   0.1500 
 33 H        0.1500    -4.0090     1.1210 H     1 <1>   0.0800 
 34 H        0.0530    -3.9740    -0.6390 H     1 <1>   0.0800 
 35 H       -5.3700     1.7870    -1.5680 H     1 <1>   0.0800 
 36 H       -5.3450     3.0340    -0.3640 H     1 <1>   0.0800 
 37 H       -8.0100    -0.2180     0.3050 H     1 <1>   0.0800 
 38 H       -7.0580    -0.2760    -1.1430 H     1 <1>   0.0800 
 39 H       -4.1760    -9.0100    -0.2840 H     1 <1>   0.1500 
 40 H       -7.0220    -6.0930     0.9320 H     1 <1>   0.1500 
 41 H        0.4090    -7.0910    -1.4320 H     1 <1>   0.0800 
 42 H        0.5740    -7.8650     0.1390 H     1 <1>   0.0800 
 43 H        1.4050    -5.9470     1.1300 H     1 <1>   0.0800 
 44 H        1.8560    -5.4760    -0.4970 H     1 <1>   0.0800 
 45 H       -7.6250     2.0510    -0.6790 H     1 <1>   0.0800 
 46 H       -7.0470     1.9140     0.9560 H     1 <1>   0.0800 
 47 H       -6.5080    -8.3840     0.2450 H     1 <1>   0.1500 
@<TRIPOS>BOND
  1   1   2  2   
  2   2   3  am  
  3   2   4  1   
  4   3   5  1   
  5   3  24  1   
  6   4   6  1   
  7   4  25  1   
  8   4  26  1   
  9   5   7  ar  
 10   5   8  ar  
 11   6   9  1   
 12   6  10  1   
 13   6  27  1   
 14   7  11  ar  
 15   7  12  ar  
 16   8  13  ar  
 17   8  14  1   
 18   9  15  1   
 19   9  28  1   
 20   9  29  1   
 21  10  16  1   
 22  10  30  1   
 23  10  31  1   
 24  11  17  ar  
 25  11  18  ar  
 26  12  19  ar  
 27  12  32  1   
 28  13  17  ar  
 29  13  20  1   
 30  14  21  1   
 31  14  33  1   
 32  14  34  1   
 33  15  22  1   
 34  15  35  1   
 35  15  36  1   
 36  16  22  1   
 37  16  37  1   
 38  16  38  1   
 39  18  23  ar  
 40  18  39  1   
 41  19  23  ar  
 42  19  40  1   
 43  20  21  1   
 44  20  41  1   
 45  20  42  1   
 46  21  43  1   
 47  21  44  1   
 48  22  45  1   
 49  22  46  1   
 50  23  47  1   
@<TRIPOS>SUBSTRUCTURE
  1 ****   3 GROUP 4 **** **** 0

# MOE 2024.06 (io_trps.svl 2023.06)
