@<TRIPOS>MOLECULE
NONAME
52 54 1 0 0 
SMALL
USER_CHARGES


@<TRIPOS>ATOM
  1 O       -0.2570     1.2370     2.0370 O.2   1 <1>  -0.5700 
  2 C       -0.8730     1.4620     1.0260 C.2   1 <1>   0.5690 
  3 N       -0.6910     2.5370     0.2150 N.am  1 <1>  -0.4200 
  4 C       -1.9600     0.5540     0.4860 C.3   1 <1>  -0.0190 
  5 C       -1.5240     2.5010    -0.8590 C.2   1 <1>   0.5690 
  6 C        0.2920     3.6110     0.4740 C.3   1 <1>   0.1400 
  7 C       -2.4060     1.2690    -0.8190 C.3   1 <1>  -0.0190 
  8 C       -3.0600     0.2800     1.5300 C.3   1 <1>  -0.0220 
  9 O       -1.5680     3.3220    -1.7390 O.2   1 <1>  -0.5700 
 10 C        1.6890     3.1500     0.0490 C.3   1 <1>  -0.1600 
 11 C       -3.9020     1.6210    -0.9300 C.3   1 <1>  -0.0220 
 12 C       -4.3770    -0.0480     0.8550 C.2   1 <1>  -0.2880 
 13 C        2.7550     4.1990     0.4030 C.3   1 <1>  -0.0990 
 14 C       -4.7610     0.5630    -0.2660 C.2   1 <1>  -0.2880 
 15 C        4.1470     3.7380     0.0220 C.2   1 <1>   0.5690 
 16 O        4.6830     4.2480    -0.9300 O.2   1 <1>  -0.5700 
 17 N        4.7200     2.7630     0.7760 N.am  1 <1>  -0.7300 
 18 C        6.0450     2.1330     0.5860 C.3   1 <1>   0.2200 
 19 C        7.1450     3.1650     0.8680 C.3   1 <1>  -0.1600 
 20 C        6.1120     1.4610    -0.7950 C.3   1 <1>  -0.1600 
 21 C        8.5810     2.6320     0.7260 C.3   1 <1>  -0.1600 
 22 C        7.2520     0.4350    -0.8930 C.3   1 <1>  -0.1600 
 23 C        8.9750     2.4020    -0.7400 C.3   1 <1>  -0.1600 
 24 C        8.6150     1.0180    -1.3010 C.3   1 <1>  -0.1600 
 25 H       -1.5080    -0.3850     0.2200 H     1 <1>   0.0800 
 26 H        0.2830     3.8420     1.5260 H     1 <1>   0.0800 
 27 H        0.0110     4.4960    -0.0720 H     1 <1>   0.0800 
 28 H       -2.1440     0.6450    -1.6540 H     1 <1>   0.0800 
 29 H       -3.2050     1.1410     2.1600 H     1 <1>   0.0800 
 30 H       -2.7510    -0.5380     2.1580 H     1 <1>   0.0800 
 31 H        1.7020     2.9820    -1.0150 H     1 <1>   0.0800 
 32 H        1.9260     2.2250     0.5460 H     1 <1>   0.0800 
 33 H       -4.1640     1.7110    -1.9710 H     1 <1>   0.0800 
 34 H       -4.1040     2.5680    -0.4590 H     1 <1>   0.0800 
 35 H       -4.9690    -0.7870     1.3700 H     1 <1>   0.1500 
 36 H        2.7400     4.4040     1.4580 H     1 <1>   0.0800 
 37 H        2.5460     5.1180    -0.1160 H     1 <1>   0.0800 
 38 H       -5.6990     0.3760    -0.7620 H     1 <1>   0.1500 
 39 H        4.1880     2.3840     1.5590 H     1 <1>   0.3700 
 40 H        6.1310     1.3580     1.3290 H     1 <1>   0.0800 
 41 H        7.0180     3.5170     1.8760 H     1 <1>   0.0800 
 42 H        7.0220     4.0100     0.2130 H     1 <1>   0.0800 
 43 H        6.2040     2.1990    -1.5730 H     1 <1>   0.0800 
 44 H        5.1870     0.9350    -0.9510 H     1 <1>   0.0800 
 45 H        8.7180     1.7350     1.3040 H     1 <1>   0.0800 
 46 H        9.2430     3.3790     1.1310 H     1 <1>   0.0800 
 47 H        6.9830    -0.3080    -1.6240 H     1 <1>   0.0800 
 48 H        7.3530    -0.0810     0.0470 H     1 <1>   0.0800 
 49 H       10.0400     2.5260    -0.8330 H     1 <1>   0.0800 
 50 H        8.5240     3.1640    -1.3540 H     1 <1>   0.0800 
 51 H        8.6500     1.0830    -2.3760 H     1 <1>   0.0800 
 52 H        9.3770     0.3170    -1.0070 H     1 <1>   0.0800 
@<TRIPOS>BOND
  1   1   2  2   
  2   2   3  am  
  3   2   4  1   
  4   3   5  am  
  5   3   6  1   
  6   4   7  1   
  7   4   8  1   
  8   4  25  1   
  9   5   7  1   
 10   5   9  2   
 11   6  10  1   
 12   6  26  1   
 13   6  27  1   
 14   7  11  1   
 15   7  28  1   
 16   8  12  1   
 17   8  29  1   
 18   8  30  1   
 19  10  13  1   
 20  10  31  1   
 21  10  32  1   
 22  11  14  1   
 23  11  33  1   
 24  11  34  1   
 25  12  14  2   
 26  12  35  1   
 27  13  15  1   
 28  13  36  1   
 29  13  37  1   
 30  14  38  1   
 31  15  16  2   
 32  15  17  am  
 33  17  18  1   
 34  17  39  1   
 35  18  19  1   
 36  18  20  1   
 37  18  40  1   
 38  19  21  1   
 39  19  41  1   
 40  19  42  1   
 41  20  22  1   
 42  20  43  1   
 43  20  44  1   
 44  21  23  1   
 45  21  45  1   
 46  21  46  1   
 47  22  24  1   
 48  22  47  1   
 49  22  48  1   
 50  23  24  1   
 51  23  49  1   
 52  23  50  1   
 53  24  51  1   
 54  24  52  1   
@<TRIPOS>SUBSTRUCTURE
  1 ****  10 GROUP 4 **** **** 0

# MOE 2024.06 (io_trps.svl 2023.06)
