@<TRIPOS>MOLECULE
NONAME
38 39 1 0 0 
SMALL
USER_CHARGES


@<TRIPOS>ATOM
  1 O        0.1910     1.0190    -0.3170 O.3   1 <1>  -0.3630 
  2 C       -0.3630    -0.1760     0.0000 C.ar  1 <1>   0.0830 
  3 C        1.2270     1.5490     0.4980 C.3   1 <1>   0.1200 
  4 C       -0.3680    -1.2020    -0.9470 C.ar  1 <1>  -0.1440 
  5 C       -0.8760    -0.3870     1.2720 C.ar  1 <1>  -0.1500 
  6 C        2.5860     0.9290     0.1170 C.3   1 <1>   0.3430 
  7 C       -0.8280    -2.4610    -0.5750 C.ar  1 <1>  -0.1440 
  8 C        0.1090    -0.9570    -2.3800 C.3   1 <1>  -0.0970 
  9 C       -1.3390    -1.6370     1.6290 C.ar  1 <1>  -0.1500 
 10 N        2.5410    -0.5660     0.0840 N.4   1 <1>  -0.9590 
 11 C       -1.3040    -2.6700     0.7110 C.ar  1 <1>  -0.1500 
 12 C       -0.8470    -3.6320    -1.5510 C.3   1 <1>  -0.0970 
 13 C        2.4800    -1.2320     1.4040 C.3   1 <1>   0.3430 
 14 C        3.6420    -1.2110    -0.6600 C.3   1 <1>   0.3430 
 15 C        2.7910    -2.6870     1.0880 C.3   1 <1>  -0.1600 
 16 C        3.5760    -2.6700    -0.2290 C.3   1 <1>  -0.1600 
 17 H        1.0020     1.3820     1.5340 H     1 <1>   0.0800 
 18 H        1.2550     2.6110     0.3280 H     1 <1>   0.0800 
 19 H       -0.9270     0.4180     1.9820 H     1 <1>   0.1500 
 20 H        3.3420     1.2610     0.8080 H     1 <1>   0.0800 
 21 H        2.8520     1.2980    -0.8600 H     1 <1>   0.0800 
 22 H        0.3520     0.0740    -2.5600 H     1 <1>   0.0800 
 23 H       -0.6740    -1.2210    -3.0690 H     1 <1>   0.0800 
 24 H        0.9730    -1.5570    -2.5980 H     1 <1>   0.0800 
 25 H       -1.7380    -1.8080     2.6150 H     1 <1>   0.1500 
 26 H        1.6510    -0.8160    -0.3890 H     1 <1>   0.4500 
 27 H       -1.6690    -3.6390     1.0040 H     1 <1>   0.1500 
 28 H        0.1350    -3.8050    -1.9530 H     1 <1>   0.0800 
 29 H       -1.5250    -3.4250    -2.3590 H     1 <1>   0.0800 
 30 H       -1.1730    -4.5350    -1.0670 H     1 <1>   0.0800 
 31 H        1.5100    -1.1260     1.8630 H     1 <1>   0.0800 
 32 H        3.2390    -0.8300     2.0560 H     1 <1>   0.0800 
 33 H        4.5860    -0.7860    -0.3580 H     1 <1>   0.0800 
 34 H        3.5210    -1.1030    -1.7260 H     1 <1>   0.0800 
 35 H        1.8690    -3.2300     0.9660 H     1 <1>   0.0800 
 36 H        3.3520    -3.1390     1.8880 H     1 <1>   0.0800 
 37 H        4.5680    -3.0700    -0.1080 H     1 <1>   0.0800 
 38 H        3.0620    -3.2500    -0.9770 H     1 <1>   0.0800 
@<TRIPOS>BOND
  1   1   2  1   
  2   1   3  1   
  3   2   4  ar  
  4   2   5  ar  
  5   3   6  1   
  6   3  17  1   
  7   3  18  1   
  8   4   7  ar  
  9   4   8  1   
 10   5   9  ar  
 11   5  19  1   
 12   6  10  1   
 13   6  20  1   
 14   6  21  1   
 15   7  11  ar  
 16   7  12  1   
 17   8  22  1   
 18   8  23  1   
 19   8  24  1   
 20   9  11  ar  
 21   9  25  1   
 22  10  13  1   
 23  10  14  1   
 24  10  26  1   
 25  11  27  1   
 26  12  28  1   
 27  12  29  1   
 28  12  30  1   
 29  13  15  1   
 30  13  31  1   
 31  13  32  1   
 32  14  16  1   
 33  14  33  1   
 34  14  34  1   
 35  15  16  1   
 36  15  35  1   
 37  15  36  1   
 38  16  37  1   
 39  16  38  1   
@<TRIPOS>SUBSTRUCTURE
  1 ****   2 GROUP 4 **** **** 0

# MOE 2024.06 (io_trps.svl 2023.06)
