@<TRIPOS>MOLECULE
NONAME
26 26 1 0 0 
SMALL
USER_CHARGES


@<TRIPOS>ATOM
  1 CL       0.4340     0.5930     2.4210 Cl    1 <1>  -0.1770 
  2 C        0.4390     1.9590     1.3230 C.ar  1 <1>   0.1770 
  3 C        1.3010     1.9820     0.2300 C.ar  1 <1>   0.0830 
  4 C       -0.4320     3.0020     1.5750 C.ar  1 <1>  -0.1500 
  5 O        2.1320     0.9210     0.0420 O.3   1 <1>  -0.3630 
  6 C        1.2730     3.0870    -0.6160 C.ar  1 <1>  -0.1500 
  7 C       -0.4480     4.0940     0.7250 C.ar  1 <1>  -0.1500 
  8 C        3.0490     0.8770    -1.0290 C.3   1 <1>   0.0400 
  9 C        0.4070     4.1460    -0.3700 C.ar  1 <1>   0.1170 
 10 N        0.3970     5.2470    -1.2290 N.am  1 <1>  -0.5470 
 11 C        0.7820     6.5310    -1.0060 C.2   1 <1>   0.5690 
 12 O        0.6920     7.3390    -1.8930 O.2   1 <1>  -0.5700 
 13 C        1.3440     6.9670     0.3400 C.3   1 <1>  -0.0990 
 14 C        2.7900     6.4950     0.5660 C.3   1 <1>  -0.2400 
 15 H       -1.0880     2.9530     2.4250 H     1 <1>   0.1500 
 16 H        1.9190     3.1510    -1.4690 H     1 <1>   0.1500 
 17 H       -1.1270     4.9070     0.9080 H     1 <1>   0.1500 
 18 H        3.5950    -0.0470    -0.9620 H     1 <1>   0.0800 
 19 H        3.7280     1.7080    -0.9440 H     1 <1>   0.0800 
 20 H        2.5070     0.9130    -1.9570 H     1 <1>   0.0800 
 21 H        0.1120     5.0830    -2.1950 H     1 <1>   0.3700 
 22 H        0.7140     6.6020     1.1280 H     1 <1>   0.0800 
 23 H        1.3190     8.0420     0.3800 H     1 <1>   0.0800 
 24 H        2.8410     5.4210     0.5730 H     1 <1>   0.0800 
 25 H        3.1550     6.8620     1.5090 H     1 <1>   0.0800 
 26 H        3.4270     6.8670    -0.2180 H     1 <1>   0.0800 
@<TRIPOS>BOND
  1   1   2  1   
  2   2   3  ar  
  3   2   4  ar  
  4   3   5  1   
  5   3   6  ar  
  6   4   7  ar  
  7   4  15  1   
  8   5   8  1   
  9   6   9  ar  
 10   6  16  1   
 11   7   9  ar  
 12   7  17  1   
 13   8  18  1   
 14   8  19  1   
 15   8  20  1   
 16   9  10  1   
 17  10  11  am  
 18  10  21  1   
 19  11  12  2   
 20  11  13  1   
 21  13  14  1   
 22  13  22  1   
 23  13  23  1   
 24  14  24  1   
 25  14  25  1   
 26  14  26  1   
@<TRIPOS>SUBSTRUCTURE
  1 ****   9 GROUP 4 **** **** 0

# MOE 2024.06 (io_trps.svl 2023.06)
