@<TRIPOS>MOLECULE
NONAME
35 36 1 0 0 
SMALL
USER_CHARGES


@<TRIPOS>ATOM
  1 O        0.9450    -0.3140    -0.7670 O.2   1 <1>  -0.5200 
  2 N        1.3840    -1.2960    -1.3940 N.pl3 1 <1>   0.8360 
  3 O        1.9560    -1.1140    -2.4880 O.2   1 <1>  -0.5200 
  4 C        1.4190    -2.5620    -0.7920 C.2   1 <1>   0.2190 
  5 C        2.6080    -3.1340    -0.4100 C.2   1 <1>  -0.0380 
  6 C        0.1520    -3.1790    -0.6100 C.2   1 <1>   0.4950 
  7 N        3.8440    -2.5540    -0.6010 N.pl3 1 <1>  -0.6000 
  8 C        2.6050    -4.5070     0.2720 C.3   1 <1>  -0.0220 
  9 O       -0.8950    -2.7530    -1.0380 O.2   1 <1>  -0.5700 
 10 C        0.0880    -4.4810     0.1690 C.3   1 <1>  -0.0990 
 11 C        5.0950    -2.9720    -0.1350 C.ar  1 <1>   0.1000 
 12 C        1.3460    -5.3430    -0.0410 C.3   1 <1>   0.0000 
 13 C        6.1050    -3.2710    -1.0400 C.ar  1 <1>  -0.1500 
 14 C        5.3550    -3.0840     1.2250 C.ar  1 <1>  -0.1500 
 15 C        1.4000    -5.8570    -1.4920 C.3   1 <1>  -0.2400 
 16 C        1.2910    -6.5600     0.8960 C.3   1 <1>  -0.2400 
 17 C        7.3480    -3.6850    -0.5950 C.ar  1 <1>  -0.1500 
 18 C        6.5970    -3.4980     1.6730 C.ar  1 <1>  -0.1500 
 19 C        7.5950    -3.8010     0.7630 C.ar  1 <1>  -0.1500 
 20 H        3.9040    -1.7330    -1.2260 H     1 <1>   0.4000 
 21 H        2.6840    -4.3530     1.3330 H     1 <1>   0.0800 
 22 H        3.4710    -5.0700    -0.0340 H     1 <1>   0.0800 
 23 H       -0.7860    -5.0300    -0.1340 H     1 <1>   0.0800 
 24 H       -0.0250    -4.2380     1.2100 H     1 <1>   0.0800 
 25 H        5.9140    -3.1840    -2.0940 H     1 <1>   0.1500 
 26 H        4.5840    -2.8370     1.9310 H     1 <1>   0.1500 
 27 H        1.4690    -5.0530    -2.2020 H     1 <1>   0.0800 
 28 H        0.5200    -6.4320    -1.7230 H     1 <1>   0.0800 
 29 H        2.2570    -6.4930    -1.6340 H     1 <1>   0.0800 
 30 H        1.2450    -6.2510     1.9260 H     1 <1>   0.0800 
 31 H        2.1650    -7.1750     0.7690 H     1 <1>   0.0800 
 32 H        0.4240    -7.1620     0.6870 H     1 <1>   0.0800 
 33 H        8.1250    -3.9170    -1.3040 H     1 <1>   0.1500 
 34 H        6.7890    -3.5830     2.7290 H     1 <1>   0.1500 
 35 H        8.5620    -4.1230     1.1090 H     1 <1>   0.1500 
@<TRIPOS>BOND
  1   1   2  2   
  2   2   3  2   
  3   2   4  1   
  4   4   5  2   
  5   4   6  1   
  6   5   7  1   
  7   5   8  1   
  8   6   9  2   
  9   6  10  1   
 10   7  11  1   
 11   7  20  1   
 12   8  12  1   
 13   8  21  1   
 14   8  22  1   
 15  10  12  1   
 16  10  23  1   
 17  10  24  1   
 18  11  13  ar  
 19  11  14  ar  
 20  12  15  1   
 21  12  16  1   
 22  13  17  ar  
 23  13  25  1   
 24  14  18  ar  
 25  14  26  1   
 26  15  27  1   
 27  15  28  1   
 28  15  29  1   
 29  16  30  1   
 30  16  31  1   
 31  16  32  1   
 32  17  19  ar  
 33  17  33  1   
 34  18  19  ar  
 35  18  34  1   
 36  19  35  1   
@<TRIPOS>SUBSTRUCTURE
  1 ****   5 GROUP 4 **** **** 0

# MOE 2024.06 (io_trps.svl 2023.06)
