@<TRIPOS>MOLECULE
NONAME
45 48 1 0 0 
SMALL
USER_CHARGES


@<TRIPOS>ATOM
  1 BR      -0.3270     0.1550    -1.9930 Br    1 <1>  -0.1110 
  2 C        1.3280     1.1210    -1.8080 C.ar  1 <1>   0.1110 
  3 C        1.3670     2.4870    -1.5440 C.ar  1 <1>  -0.0090 
  4 C        2.4710     0.3560    -1.9510 C.ar  1 <1>  -0.1500 
  5 S       -0.1050     3.5240    -1.3170 S.o2  1 <1>   1.4470 
  6 C        2.6310     3.0530    -1.4180 C.ar  1 <1>  -0.1500 
  7 C        3.7060     0.9580    -1.8190 C.ar  1 <1>  -0.1500 
  8 O       -1.2500     3.0500    -2.0620 O.2   1 <1>  -0.6500 
  9 O        0.2860     4.9060    -1.4910 O.2   1 <1>  -0.6500 
 10 N       -0.4620     3.3500     0.3320 N.am  1 <1>  -0.8490 
 11 C        3.8120     2.3200    -1.5420 C.ar  1 <1>   0.0860 
 12 C       -1.1620     2.1280     0.6940 C.3   1 <1>   0.1960 
 13 C       -1.2890     4.4300     0.8410 C.3   1 <1>   0.1960 
 14 C        5.1050     2.9570    -1.3920 C.2   1 <1>   0.5440 
 15 C       -1.7040     2.4000     2.0920 C.3   1 <1>  -0.1600 
 16 C       -1.8090     3.9220     2.1810 C.3   1 <1>  -0.1600 
 17 O        5.3680     3.9390    -2.0600 O.2   1 <1>  -0.5700 
 18 N        6.0650     2.4670    -0.5290 N.am  1 <1>  -0.4770 
 19 C        5.9690     1.5660     0.5370 C.ar  1 <1>   0.1170 
 20 C        7.4970     2.8110    -0.7330 C.3   1 <1>   0.1400 
 21 C        7.2150     1.1370     0.9400 C.ar  1 <1>  -0.1430 
 22 C        4.8410     1.1050     1.2070 C.ar  1 <1>  -0.1500 
 23 C        8.2890     1.8050     0.1170 C.3   1 <1>  -0.0170 
 24 C        7.3710     0.2320     1.9720 C.ar  1 <1>  -0.1500 
 25 C        4.9830     0.1960     2.2430 C.ar  1 <1>  -0.1500 
 26 C        6.2430    -0.2440     2.6210 C.ar  1 <1>  -0.1500 
 27 H        2.3940    -0.6970    -2.1610 H     1 <1>   0.1500 
 28 H        2.7160     4.1090    -1.2140 H     1 <1>   0.1500 
 29 H        4.6040     0.3730    -1.9260 H     1 <1>   0.1500 
 30 H       -0.4970     1.2810     0.6870 H     1 <1>   0.0800 
 31 H       -1.9850     1.9500     0.0200 H     1 <1>   0.0800 
 32 H       -2.1150     4.6070     0.1700 H     1 <1>   0.0800 
 33 H       -0.7160     5.3370     0.9480 H     1 <1>   0.0800 
 34 H       -1.0100     2.0320     2.8260 H     1 <1>   0.0800 
 35 H       -2.6560     1.9190     2.2340 H     1 <1>   0.0800 
 36 H       -2.8200     4.2510     2.3440 H     1 <1>   0.0800 
 37 H       -1.1850     4.2940     2.9750 H     1 <1>   0.0800 
 38 H        7.6670     3.8170    -0.3910 H     1 <1>   0.0800 
 39 H        7.7570     2.7360    -1.7750 H     1 <1>   0.0800 
 40 H        3.8620     1.4530     0.9390 H     1 <1>   0.1500 
 41 H        9.0100     2.3060     0.7360 H     1 <1>   0.0800 
 42 H        8.7830     1.0860    -0.5120 H     1 <1>   0.0800 
 43 H        8.3520    -0.0980     2.2690 H     1 <1>   0.1500 
 44 H        4.1130    -0.1680     2.7600 H     1 <1>   0.1500 
 45 H        6.3450    -0.9510     3.4260 H     1 <1>   0.1500 
@<TRIPOS>BOND
  1   1   2  1   
  2   2   3  ar  
  3   2   4  ar  
  4   3   5  1   
  5   3   6  ar  
  6   4   7  ar  
  7   4  27  1   
  8   5   8  2   
  9   5   9  2   
 10   5  10  am  
 11   6  11  ar  
 12   6  28  1   
 13   7  11  ar  
 14   7  29  1   
 15  10  12  1   
 16  10  13  1   
 17  11  14  1   
 18  12  15  1   
 19  12  30  1   
 20  12  31  1   
 21  13  16  1   
 22  13  32  1   
 23  13  33  1   
 24  14  17  2   
 25  14  18  am  
 26  15  16  1   
 27  15  34  1   
 28  15  35  1   
 29  16  36  1   
 30  16  37  1   
 31  18  19  1   
 32  18  20  1   
 33  19  21  ar  
 34  19  22  ar  
 35  20  23  1   
 36  20  38  1   
 37  20  39  1   
 38  21  23  1   
 39  21  24  ar  
 40  22  25  ar  
 41  22  40  1   
 42  23  41  1   
 43  23  42  1   
 44  24  26  ar  
 45  24  43  1   
 46  25  26  ar  
 47  25  44  1   
 48  26  45  1   
@<TRIPOS>SUBSTRUCTURE
  1 ****   6 GROUP 4 **** **** 0

# MOE 2024.06 (io_trps.svl 2023.06)
