@<TRIPOS>MOLECULE
NONAME
31 31 1 0 0 
SMALL
USER_CHARGES


@<TRIPOS>ATOM
  1 BR       0.0280    -1.5910     3.4850 Br    1 <1>  -0.1110 
  2 C        0.3900    -2.5170     1.8390 C.ar  1 <1>   0.1110 
  3 C        1.6660    -2.9930     1.6120 C.ar  1 <1>  -0.1500 
  4 C       -0.6360    -2.6790     0.9300 C.ar  1 <1>  -0.1500 
  5 C        1.9700    -3.6660     0.4250 C.ar  1 <1>   0.0860 
  6 C       -0.3610    -3.3510    -0.2470 C.ar  1 <1>  -0.1500 
  7 C        0.9160    -3.8330    -0.4860 C.ar  1 <1>   0.1770 
  8 C        3.3250    -4.1470     0.2090 C.2   1 <1>   0.5440 
  9 CL       1.1450    -4.6840    -1.9970 Cl    1 <1>  -0.1770 
 10 O        4.0220    -4.4630     1.1520 O.2   1 <1>  -0.5700 
 11 N        3.8980    -4.2110    -1.0310 N.am  1 <1>  -0.7300 
 12 C        5.1010    -5.0170    -1.4040 C.3   1 <1>   0.1400 
 13 C        6.4240    -4.2720    -1.1290 C.3   1 <1>   0.3430 
 14 N        6.6110    -4.0100     0.3290 N.4   1 <1>  -0.9590 
 15 C        7.3690    -2.7540     0.5940 C.3   1 <1>   0.2630 
 16 C        7.1940    -5.1770     1.0550 C.3   1 <1>   0.2630 
 17 H        2.4240    -2.8420     2.3610 H     1 <1>   0.1500 
 18 H       -1.6190    -2.2940     1.1420 H     1 <1>   0.1500 
 19 H       -1.1360    -3.5030    -0.9790 H     1 <1>   0.1500 
 20 H        3.2780    -4.0010    -1.8240 H     1 <1>   0.3700 
 21 H        5.0450    -5.2490    -2.4540 H     1 <1>   0.0800 
 22 H        5.0890    -5.9500    -0.8660 H     1 <1>   0.0800 
 23 H        6.3990    -3.3400    -1.6680 H     1 <1>   0.0800 
 24 H        7.2520    -4.8500    -1.5040 H     1 <1>   0.0800 
 25 H        5.6400    -3.9020     0.7080 H     1 <1>   0.4500 
 26 H        8.3740    -2.8340     0.2130 H     1 <1>   0.0800 
 27 H        7.4140    -2.5650     1.6550 H     1 <1>   0.0800 
 28 H        6.8810    -1.9180     0.1190 H     1 <1>   0.0800 
 29 H        8.1860    -5.3900     0.6940 H     1 <1>   0.0800 
 30 H        6.5740    -6.0480     0.9150 H     1 <1>   0.0800 
 31 H        7.2450    -4.9670     2.1110 H     1 <1>   0.0800 
@<TRIPOS>BOND
  1   1   2  1   
  2   2   3  ar  
  3   2   4  ar  
  4   3   5  ar  
  5   3  17  1   
  6   4   6  ar  
  7   4  18  1   
  8   5   7  ar  
  9   5   8  1   
 10   6   7  ar  
 11   6  19  1   
 12   7   9  1   
 13   8  10  2   
 14   8  11  am  
 15  11  12  1   
 16  11  20  1   
 17  12  13  1   
 18  12  21  1   
 19  12  22  1   
 20  13  14  1   
 21  13  23  1   
 22  13  24  1   
 23  14  15  1   
 24  14  16  1   
 25  14  25  1   
 26  15  26  1   
 27  15  27  1   
 28  15  28  1   
 29  16  29  1   
 30  16  30  1   
 31  16  31  1   
@<TRIPOS>SUBSTRUCTURE
  1 ****   8 GROUP 4 **** **** 0

# MOE 2024.06 (io_trps.svl 2023.06)
