@<TRIPOS>MOLECULE
NONAME
38 38 1 0 0 
SMALL
USER_CHARGES


@<TRIPOS>ATOM
  1 CL       1.1190    -0.6460     1.2450 Cl    1 <1>  -0.1770 
  2 C        2.2630    -0.1770     0.0070 C.ar  1 <1>   0.1770 
  3 C        2.7610     1.1250    -0.0390 C.ar  1 <1>   0.0830 
  4 C        2.6600    -1.1280    -0.9110 C.ar  1 <1>  -0.1500 
  5 O        2.3890     2.0280     0.8980 O.3   1 <1>  -0.3630 
  6 C        3.6790     1.4910    -1.0280 C.ar  1 <1>  -0.1440 
  7 C        3.5690    -0.7590    -1.8810 C.ar  1 <1>   0.1770 
  8 C        1.0710     2.5630     0.8370 C.3   1 <1>   0.1810 
  9 C        4.0770     0.5270    -1.9480 C.ar  1 <1>  -0.1500 
 10 C        4.2530     2.8980    -1.1750 C.3   1 <1>   0.4870 
 11 CL       4.0940    -1.9380    -3.0530 Cl    1 <1>  -0.1770 
 12 C        1.1330     4.0900     0.8570 C.2   1 <1>   0.5690 
 13 N        4.6470     3.4520     0.1350 N.4   1 <1>  -0.9060 
 14 O        2.1470     4.6480     0.5050 O.2   1 <1>  -0.5700 
 15 N        0.0730     4.8160     1.2610 N.am  1 <1>  -0.8000 
 16 C        5.6480     4.5080     0.1740 C.3   1 <1>   0.5030 
 17 C        5.6990     4.9930     1.6180 C.3   1 <1>  -0.2400 
 18 C        7.0020     3.9290    -0.2320 C.3   1 <1>  -0.2400 
 19 C        5.2420     5.6570    -0.7490 C.3   1 <1>  -0.2400 
 20 H        2.2740    -2.1310    -0.8710 H     1 <1>   0.1500 
 21 H        0.5280     2.2000     1.6910 H     1 <1>   0.0800 
 22 H        0.5890     2.2310    -0.0650 H     1 <1>   0.0800 
 23 H        4.7800     0.7530    -2.7320 H     1 <1>   0.1500 
 24 H        3.5200     3.5430    -1.6310 H     1 <1>   0.0800 
 25 H        5.1120     2.8550    -1.8230 H     1 <1>   0.0800 
 26 H        4.9110     2.6880     0.7590 H     1 <1>   0.4500 
 27 H        3.7750     3.8440     0.5360 H     1 <1>   0.4500 
 28 H        0.1290     5.8370     1.2720 H     1 <1>   0.3700 
 29 H       -0.8150     4.4270     1.5860 H     1 <1>   0.3700 
 30 H        4.7470     5.3930     1.9210 H     1 <1>   0.0800 
 31 H        6.4290     5.7770     1.7170 H     1 <1>   0.0800 
 32 H        5.9770     4.1980     2.2870 H     1 <1>   0.0800 
 33 H        7.2720     3.0990     0.3970 H     1 <1>   0.0800 
 34 H        7.7640     4.6820    -0.1250 H     1 <1>   0.0800 
 35 H        7.0070     3.6130    -1.2590 H     1 <1>   0.0800 
 36 H        5.9390     6.4700    -0.6430 H     1 <1>   0.0800 
 37 H        5.2510     5.3620    -1.7820 H     1 <1>   0.0800 
 38 H        4.2660     6.0290    -0.4920 H     1 <1>   0.0800 
@<TRIPOS>BOND
  1   1   2  1   
  2   2   3  ar  
  3   2   4  ar  
  4   3   5  1   
  5   3   6  ar  
  6   4   7  ar  
  7   4  20  1   
  8   5   8  1   
  9   6   9  ar  
 10   6  10  1   
 11   7   9  ar  
 12   7  11  1   
 13   8  12  1   
 14   8  21  1   
 15   8  22  1   
 16   9  23  1   
 17  10  13  1   
 18  10  24  1   
 19  10  25  1   
 20  12  14  2   
 21  12  15  am  
 22  13  16  1   
 23  13  26  1   
 24  13  27  1   
 25  15  28  1   
 26  15  29  1   
 27  16  17  1   
 28  16  18  1   
 29  16  19  1   
 30  17  30  1   
 31  17  31  1   
 32  17  32  1   
 33  18  33  1   
 34  18  34  1   
 35  18  35  1   
 36  19  36  1   
 37  19  37  1   
 38  19  38  1   
@<TRIPOS>SUBSTRUCTURE
  1 ****   6 GROUP 4 **** **** 0

# MOE 2024.06 (io_trps.svl 2023.06)
