@<TRIPOS>MOLECULE
NONAME
39 42 1 0 0 
SMALL
USER_CHARGES


@<TRIPOS>ATOM
  1 O       -1.5440    -0.8320    -1.4190 O.3   1 <1>  -0.6800 
  2 C       -1.1580    -2.0100    -0.8260 C.3   1 <1>   0.2800 
  3 C        0.3610    -1.9880    -0.6150 C.3   1 <1>  -0.1600 
  4 C       -1.5470    -3.1770    -1.7430 C.3   1 <1>  -0.1600 
  5 C       -1.8740    -2.1360     0.5230 C.3   1 <1>  -0.1600 
  6 C        0.8330    -3.3030     0.0570 C.3   1 <1>   0.1430 
  7 C       -1.1140    -4.4970    -1.0810 C.3   1 <1>  -0.0800 
  8 C       -1.4440    -3.4510     1.1980 C.3   1 <1>  -0.0800 
  9 C        2.3600    -3.3460     0.2990 C.ar  1 <1>  -0.1440 
 10 C        0.4120    -4.4770    -0.8620 C.3   1 <1>  -0.1600 
 11 C        0.0840    -3.4370     1.4060 C.3   1 <1>  -0.1600 
 12 C       -1.8170    -4.6350     0.2840 C.3   1 <1>  -0.1600 
 13 C        2.9300    -4.4740     0.8830 C.ar  1 <1>  -0.1500 
 14 C        3.2140    -2.2970    -0.0380 C.ar  1 <1>  -0.1500 
 15 C        4.2910    -4.5560     1.1160 C.ar  1 <1>  -0.1500 
 16 C        4.5750    -2.3790     0.1950 C.ar  1 <1>  -0.1500 
 17 C        5.1310    -3.5100     0.7700 C.ar  1 <1>   0.1000 
 18 N        6.4930    -3.5950     0.9910 N.pl3 1 <1>  -0.9000 
 19 H       -1.0990    -0.7440    -2.2810 H     1 <1>   0.4000 
 20 H        0.6130    -1.1520     0.0130 H     1 <1>   0.0800 
 21 H        0.8520    -1.8750    -1.5650 H     1 <1>   0.0800 
 22 H       -2.6120    -3.1810    -1.8960 H     1 <1>   0.0800 
 23 H       -1.0640    -3.0790    -2.6990 H     1 <1>   0.0800 
 24 H       -2.9390    -2.1340     0.3740 H     1 <1>   0.0800 
 25 H       -1.6170    -1.3020     1.1530 H     1 <1>   0.0800 
 26 H       -1.3810    -5.3270    -1.7140 H     1 <1>   0.0800 
 27 H       -1.9400    -3.5520     2.1480 H     1 <1>   0.0800 
 28 H        0.7080    -5.4150    -0.4290 H     1 <1>   0.0800 
 29 H        0.9160    -4.3890    -1.8080 H     1 <1>   0.0800 
 30 H        0.3730    -4.3430     1.9050 H     1 <1>   0.0800 
 31 H        0.3560    -2.6170     2.0480 H     1 <1>   0.0800 
 32 H       -1.5290    -5.5610     0.7510 H     1 <1>   0.0800 
 33 H       -2.8840    -4.6620     0.1430 H     1 <1>   0.0800 
 34 H        2.3170    -5.3080     1.1680 H     1 <1>   0.1500 
 35 H        2.8450    -1.3940    -0.4850 H     1 <1>   0.1500 
 36 H        4.7050    -5.4350     1.5730 H     1 <1>   0.1500 
 37 H        5.2130    -1.5560    -0.0680 H     1 <1>   0.1500 
 38 H        7.0820    -2.9910     0.4120 H     1 <1>   0.4000 
 39 H        6.8780    -4.5400     1.0720 H     1 <1>   0.4000 
@<TRIPOS>BOND
  1   1   2  1   
  2   1  19  1   
  3   2   3  1   
  4   2   4  1   
  5   2   5  1   
  6   3   6  1   
  7   3  20  1   
  8   3  21  1   
  9   4   7  1   
 10   4  22  1   
 11   4  23  1   
 12   5   8  1   
 13   5  24  1   
 14   5  25  1   
 15   6   9  1   
 16   6  10  1   
 17   6  11  1   
 18   7  10  1   
 19   7  12  1   
 20   7  26  1   
 21   8  11  1   
 22   8  12  1   
 23   8  27  1   
 24   9  13  ar  
 25   9  14  ar  
 26  10  28  1   
 27  10  29  1   
 28  11  30  1   
 29  11  31  1   
 30  12  32  1   
 31  12  33  1   
 32  13  15  ar  
 33  13  34  1   
 34  14  16  ar  
 35  14  35  1   
 36  15  17  ar  
 37  15  36  1   
 38  16  17  ar  
 39  16  37  1   
 40  17  18  1   
 41  18  38  1   
 42  18  39  1   
@<TRIPOS>SUBSTRUCTURE
  1 ****   6 GROUP 4 **** **** 0

# MOE 2024.06 (io_trps.svl 2023.06)
