@<TRIPOS>MOLECULE
NONAME
32 33 1 0 0 
SMALL
USER_CHARGES


@<TRIPOS>ATOM
  1 BR      -1.9160     1.3440    -3.7170 Br    1 <1>  -0.0580 
  2 C       -2.2260     0.4460    -2.0490 C.2   1 <1>   0.0980 
  3 S       -3.7530    -0.3870    -1.8980 S.3   1 <1>  -0.0800 
  4 C       -1.4610     0.3400    -0.9510 C.2   1 <1>  -0.1500 
  5 C       -3.3330    -0.8990    -0.2560 C.2   1 <1>  -0.0220 
  6 C       -2.1020    -0.4350     0.0680 C.2   1 <1>  -0.1500 
  7 S       -4.5240    -1.9190     0.6490 S.o2  1 <1>   1.5000 
  8 O       -4.4040    -1.6610     2.0680 O.2   1 <1>  -0.6500 
  9 O       -4.4540    -3.2840     0.1770 O.2   1 <1>  -0.6500 
 10 N       -6.0350    -1.3120     0.1850 N.am  1 <1>  -0.8490 
 11 C       -7.1120    -2.3080     0.3540 C.3   1 <1>   0.1960 
 12 C       -6.3860    -0.0360     0.8270 C.3   1 <1>   0.1960 
 13 C       -8.5400    -1.7100     0.3640 C.3   1 <1>   0.1960 
 14 C       -7.6940     0.5690     0.2600 C.3   1 <1>   0.1960 
 15 N       -8.6160    -0.4190    -0.3390 N.am  1 <1>  -0.8490 
 16 S      -10.1870     0.1800    -0.5120 S.o2  1 <1>   1.3330 
 17 O      -10.9850    -0.3770     0.5560 O.2   1 <1>  -0.6500 
 18 O      -10.1010     1.6120    -0.6830 O.2   1 <1>  -0.6500 
 19 C      -10.6960    -0.5330    -2.0610 C.3   1 <1>  -0.1350 
 20 H       -0.4830     0.7690    -0.8180 H     1 <1>   0.1500 
 21 H       -1.6100    -0.6160     1.0090 H     1 <1>   0.1500 
 22 H       -6.9690    -2.8520     1.2730 H     1 <1>   0.0800 
 23 H       -7.0410    -3.0200    -0.4510 H     1 <1>   0.0800 
 24 H       -5.5900     0.6760     0.6940 H     1 <1>   0.0800 
 25 H       -6.5080    -0.1910     1.8870 H     1 <1>   0.0800 
 26 H       -8.8530    -1.5740     1.3870 H     1 <1>   0.0800 
 27 H       -9.2160    -2.4160    -0.0860 H     1 <1>   0.0800 
 28 H       -7.4420     1.2950    -0.4940 H     1 <1>   0.0800 
 29 H       -8.1910     1.0970     1.0570 H     1 <1>   0.0800 
 30 H      -10.6810    -1.6030    -2.0010 H     1 <1>   0.0800 
 31 H      -10.0320    -0.2200    -2.8430 H     1 <1>   0.0800 
 32 H      -11.6900    -0.2130    -2.3030 H     1 <1>   0.0800 
@<TRIPOS>BOND
  1   1   2  1   
  2   2   3  1   
  3   2   4  2   
  4   3   5  1   
  5   4   6  1   
  6   4  20  1   
  7   5   6  2   
  8   5   7  1   
  9   6  21  1   
 10   7   8  2   
 11   7   9  2   
 12   7  10  am  
 13  10  11  1   
 14  10  12  1   
 15  11  13  1   
 16  11  22  1   
 17  11  23  1   
 18  12  14  1   
 19  12  24  1   
 20  12  25  1   
 21  13  15  1   
 22  13  26  1   
 23  13  27  1   
 24  14  15  1   
 25  14  28  1   
 26  14  29  1   
 27  15  16  am  
 28  16  17  2   
 29  16  18  2   
 30  16  19  1   
 31  19  30  1   
 32  19  31  1   
 33  19  32  1   
@<TRIPOS>SUBSTRUCTURE
  1 ****  10 GROUP 4 **** **** 0

# MOE 2024.06 (io_trps.svl 2023.06)
