@<TRIPOS>MOLECULE
NONAME
34 34 1 0 0 
SMALL
USER_CHARGES


@<TRIPOS>ATOM
  1 S        0.1500     0.2370    -0.6600 S.3   1 <1>  -0.4600 
  2 C       -1.5590     0.8130    -0.8460 C.3   1 <1>   0.1500 
  3 C        0.8720     1.4790     0.4290 C.3   1 <1>   0.1500 
  4 C       -1.5030     2.2700    -1.3790 C.3   1 <1>  -0.0800 
  5 C       -2.2960     0.5000     0.4740 C.3   1 <1>  -0.1600 
  6 C        0.7870     2.8160    -0.3080 C.3   1 <1>  -0.1600 
  7 C        2.3100     1.0480     0.7050 C.3   1 <1>  -0.2400 
  8 C       -0.6600     3.2720    -0.5510 C.3   1 <1>   0.2000 
  9 C       -2.8980     2.8500    -1.6730 C.3   1 <1>  -0.2400 
 10 C       -3.8010     0.2510     0.2970 C.3   1 <1>  -0.2400 
 11 O       -1.2780     3.4980     0.6990 O.3   1 <1>  -0.4300 
 12 C       -1.2140     4.6000     1.4350 C.2   1 <1>   0.6590 
 13 O       -1.5530     4.5740     2.5850 O.2   1 <1>  -0.5700 
 14 C       -0.7320     5.8940     0.8160 C.3   1 <1>  -0.1790 
 15 H       -1.9680     0.1820    -1.6160 H     1 <1>   0.0800 
 16 H        0.2960     1.4900     1.3390 H     1 <1>   0.0800 
 17 H       -1.0120     2.1960    -2.3350 H     1 <1>   0.0800 
 18 H       -2.1440     1.2760     1.1990 H     1 <1>   0.0800 
 19 H       -1.8790    -0.4020     0.8880 H     1 <1>   0.0800 
 20 H        1.2900     2.7240    -1.2550 H     1 <1>   0.0800 
 21 H        1.3060     3.5670     0.2580 H     1 <1>   0.0800 
 22 H        2.8670     0.9830    -0.2120 H     1 <1>   0.0800 
 23 H        2.3150     0.0840     1.1830 H     1 <1>   0.0800 
 24 H        2.7910     1.7540     1.3570 H     1 <1>   0.0800 
 25 H       -0.6420     4.2000    -1.0930 H     1 <1>   0.0800 
 26 H       -3.4230     3.0670    -0.7590 H     1 <1>   0.0800 
 27 H       -3.4800     2.1550    -2.2520 H     1 <1>   0.0800 
 28 H       -2.8120     3.7640    -2.2320 H     1 <1>   0.0800 
 29 H       -4.3140     1.1390    -0.0180 H     1 <1>   0.0800 
 30 H       -4.2270    -0.0620     1.2340 H     1 <1>   0.0800 
 31 H       -3.9710    -0.5250    -0.4280 H     1 <1>   0.0800 
 32 H        0.2910     5.8020     0.5070 H     1 <1>   0.0800 
 33 H       -0.8010     6.6820     1.5430 H     1 <1>   0.0800 
 34 H       -1.3500     6.1490    -0.0240 H     1 <1>   0.0800 
@<TRIPOS>BOND
  1   1   2  1   
  2   1   3  1   
  3   2   4  1   
  4   2   5  1   
  5   2  15  1   
  6   3   6  1   
  7   3   7  1   
  8   3  16  1   
  9   4   8  1   
 10   4   9  1   
 11   4  17  1   
 12   5  10  1   
 13   5  18  1   
 14   5  19  1   
 15   6   8  1   
 16   6  20  1   
 17   6  21  1   
 18   7  22  1   
 19   7  23  1   
 20   7  24  1   
 21   8  11  1   
 22   8  25  1   
 23   9  26  1   
 24   9  27  1   
 25   9  28  1   
 26  10  29  1   
 27  10  30  1   
 28  10  31  1   
 29  11  12  1   
 30  12  13  2   
 31  12  14  1   
 32  14  32  1   
 33  14  33  1   
 34  14  34  1   
@<TRIPOS>SUBSTRUCTURE
  1 ****   8 GROUP 4 **** **** 0

# MOE 2024.06 (io_trps.svl 2023.06)
