@<TRIPOS>MOLECULE
NONAME
46 49 1 0 0 
SMALL
USER_CHARGES


@<TRIPOS>ATOM
  1 O       -0.1040    -0.3370     0.3340 O.2   1 <1>  -0.5700 
  2 C        0.1200    -1.5140     0.5650 C.2   1 <1>   0.7150 
  3 N       -0.9540    -2.3250     0.9120 N.am  1 <1>  -0.6600 
  4 C        1.4960    -1.9580     0.4420 C.2   1 <1>   0.0550 
  5 C       -2.3370    -1.7440     0.9300 C.3   1 <1>   0.2780 
  6 C       -0.8280    -3.7390     1.4130 C.3   1 <1>   0.1400 
  7 O        2.0660    -2.8260     1.2760 O.3   1 <1>  -0.2800 
  8 C        2.4330    -1.5740    -0.4700 C.2   1 <1>  -0.1500 
  9 C       -3.3560    -2.6580     0.2700 C.2   1 <1>  -0.1240 
 10 C       -0.9890    -4.8060     0.3130 C.3   1 <1>   0.2000 
 11 C        3.3160    -3.0110     0.9150 C.2   1 <1>  -0.0100 
 12 C        3.6090    -2.2610    -0.1670 C.2   1 <1>  -0.1500 
 13 C       -3.3660    -2.7170    -1.1620 C.2   1 <1>   0.6160 
 14 C       -4.2290    -3.4030     0.9960 C.2   1 <1>  -0.1780 
 15 O       -0.7430    -6.0630     0.8530 O.3   1 <1>  -0.5600 
 16 C       -0.0310    -4.7160    -0.8650 C.3   1 <1>  -0.1600 
 17 O       -2.6260    -2.0760    -1.8840 O.2   1 <1>  -0.5700 
 18 N       -4.2610    -3.5520    -1.7570 N.am  1 <1>  -0.5470 
 19 C       -5.1650    -4.2740     0.3520 C.ar  1 <1>   0.0280 
 20 C       -0.4000    -6.9680    -0.1510 C.3   1 <1>   0.1200 
 21 C       -0.0320    -6.1410    -1.3820 C.3   1 <1>  -0.1600 
 22 C       -5.1640    -4.3380    -1.0510 C.ar  1 <1>   0.1170 
 23 C       -6.0720    -5.0660     1.0590 C.ar  1 <1>  -0.1500 
 24 C       -6.0590    -5.1780    -1.7080 C.ar  1 <1>  -0.1500 
 25 C       -6.9530    -5.8950     0.3960 C.ar  1 <1>  -0.1500 
 26 C       -6.9470    -5.9510    -0.9910 C.ar  1 <1>  -0.1500 
 27 H       -2.3680    -0.7930     0.4260 H     1 <1>   0.0800 
 28 H       -2.6160    -1.5710     1.9540 H     1 <1>   0.0800 
 29 H       -1.5850    -3.9110     2.1570 H     1 <1>   0.0800 
 30 H        0.1150    -3.8850     1.9000 H     1 <1>   0.0800 
 31 H        2.3010    -0.8710    -1.2740 H     1 <1>   0.1500 
 32 H       -2.0010    -4.8270    -0.0460 H     1 <1>   0.0800 
 33 H        3.9280    -3.6910     1.4810 H     1 <1>   0.1500 
 34 H        4.5380    -2.1840    -0.7020 H     1 <1>   0.1500 
 35 H       -4.2450    -3.3750     2.0720 H     1 <1>   0.1500 
 36 H        0.9520    -4.4570    -0.5190 H     1 <1>   0.0800 
 37 H       -0.3590    -3.9990    -1.5980 H     1 <1>   0.0800 
 38 H       -4.2370    -3.5550    -2.7750 H     1 <1>   0.3700 
 39 H       -1.2470    -7.6060    -0.3410 H     1 <1>   0.0800 
 40 H        0.4320    -7.5530     0.2000 H     1 <1>   0.0800 
 41 H        0.9230    -6.4280    -1.7850 H     1 <1>   0.0800 
 42 H       -0.7870    -6.2690    -2.1370 H     1 <1>   0.0800 
 43 H       -6.0800    -5.0270     2.1330 H     1 <1>   0.1500 
 44 H       -6.0540    -5.2210    -2.7820 H     1 <1>   0.1500 
 45 H       -7.6490    -6.5020     0.9510 H     1 <1>   0.1500 
 46 H       -7.6380    -6.6010    -1.5010 H     1 <1>   0.1500 
@<TRIPOS>BOND
  1   1   2  2   
  2   2   3  am  
  3   2   4  1   
  4   3   5  1   
  5   3   6  1   
  6   4   7  1   
  7   4   8  2   
  8   5   9  1   
  9   5  27  1   
 10   5  28  1   
 11   6  10  1   
 12   6  29  1   
 13   6  30  1   
 14   7  11  1   
 15   8  12  1   
 16   8  31  1   
 17   9  13  1   
 18   9  14  2   
 19  10  15  1   
 20  10  16  1   
 21  10  32  1   
 22  11  12  2   
 23  11  33  1   
 24  12  34  1   
 25  13  17  2   
 26  13  18  am  
 27  14  19  1   
 28  14  35  1   
 29  15  20  1   
 30  16  21  1   
 31  16  36  1   
 32  16  37  1   
 33  18  22  1   
 34  18  38  1   
 35  19  22  ar  
 36  19  23  ar  
 37  20  21  1   
 38  20  39  1   
 39  20  40  1   
 40  21  41  1   
 41  21  42  1   
 42  22  24  ar  
 43  23  25  ar  
 44  23  43  1   
 45  24  26  ar  
 46  24  44  1   
 47  25  26  ar  
 48  25  45  1   
 49  26  46  1   
@<TRIPOS>SUBSTRUCTURE
  1 ****  10 GROUP 4 **** **** 0

# MOE 2024.06 (io_trps.svl 2023.06)
