@<TRIPOS>MOLECULE
NONAME
39 40 1 0 0 
SMALL
USER_CHARGES


@<TRIPOS>ATOM
  1 O       -1.4980     2.2880     1.1720 O.3   1 <1>  -0.5600 
  2 C       -1.1010     1.7860    -0.0760 C.3   1 <1>   0.1200 
  3 C       -2.0520     1.3250     2.0280 C.3   1 <1>   0.1200 
  4 C       -2.2760     1.0890    -0.8020 C.3   1 <1>   0.3430 
  5 C       -3.3060     0.6770     1.3970 C.3   1 <1>   0.3430 
  6 N       -3.5440     1.1810    -0.0020 N.4   1 <1>  -0.9590 
  7 C       -4.7010     0.5330    -0.7010 C.3   1 <1>   0.3430 
  8 C       -6.0460     0.8640    -0.0500 C.3   1 <1>   0.1200 
  9 O       -7.0340     0.1730    -0.7690 O.3   1 <1>  -0.3630 
 10 C       -8.3430     0.2180    -0.4050 C.ar  1 <1>   0.0820 
 11 C       -9.2330    -0.5890    -1.1070 C.ar  1 <1>  -0.1430 
 12 C       -8.8140     1.0280     0.6280 C.ar  1 <1>  -0.1500 
 13 C      -10.5760    -0.5790    -0.7670 C.ar  1 <1>  -0.1500 
 14 C       -8.7540    -1.4820    -2.2430 C.3   1 <1>  -0.0970 
 15 C      -10.1570     1.0310     0.9630 C.ar  1 <1>  -0.1430 
 16 C      -11.0350     0.2240     0.2600 C.ar  1 <1>  -0.1500 
 17 C      -10.6780     1.9110     2.0860 C.3   1 <1>  -0.0970 
 18 H       -0.2830     1.1010     0.0710 H     1 <1>   0.0800 
 19 H       -0.7420     2.6150    -0.6620 H     1 <1>   0.0800 
 20 H       -2.3100     1.8150     2.9510 H     1 <1>   0.0800 
 21 H       -1.3020     0.5810     2.2410 H     1 <1>   0.0800 
 22 H       -2.0200     0.0560    -0.9690 H     1 <1>   0.0800 
 23 H       -2.4120     1.5480    -1.7680 H     1 <1>   0.0800 
 24 H       -4.1580     0.8950     2.0190 H     1 <1>   0.0800 
 25 H       -3.1780    -0.3930     1.3880 H     1 <1>   0.0800 
 26 H       -3.7120     2.1950     0.0980 H     1 <1>   0.4500 
 27 H       -4.5690    -0.5370    -0.7000 H     1 <1>   0.0800 
 28 H       -4.7350     0.8700    -1.7240 H     1 <1>   0.0800 
 29 H       -6.2580     1.9170    -0.1180 H     1 <1>   0.0800 
 30 H       -6.0850     0.5240     0.9700 H     1 <1>   0.0800 
 31 H       -8.1550     1.6660     1.1810 H     1 <1>   0.1500 
 32 H      -11.2760    -1.1980    -1.3010 H     1 <1>   0.1500 
 33 H       -8.2970    -0.8830    -3.0100 H     1 <1>   0.0800 
 34 H       -9.5720    -2.0270    -2.6790 H     1 <1>   0.0800 
 35 H       -8.0330    -2.1880    -1.8740 H     1 <1>   0.0800 
 36 H      -12.0820     0.2190     0.5090 H     1 <1>   0.1500 
 37 H       -9.8810     2.2110     2.7420 H     1 <1>   0.0800 
 38 H      -11.4110     1.3780     2.6650 H     1 <1>   0.0800 
 39 H      -11.1370     2.7920     1.6730 H     1 <1>   0.0800 
@<TRIPOS>BOND
  1   1   2  1   
  2   1   3  1   
  3   2   4  1   
  4   2  18  1   
  5   2  19  1   
  6   3   5  1   
  7   3  20  1   
  8   3  21  1   
  9   4   6  1   
 10   4  22  1   
 11   4  23  1   
 12   5   6  1   
 13   5  24  1   
 14   5  25  1   
 15   6   7  1   
 16   6  26  1   
 17   7   8  1   
 18   7  27  1   
 19   7  28  1   
 20   8   9  1   
 21   8  29  1   
 22   8  30  1   
 23   9  10  1   
 24  10  11  ar  
 25  10  12  ar  
 26  11  13  ar  
 27  11  14  1   
 28  12  15  ar  
 29  12  31  1   
 30  13  16  ar  
 31  13  32  1   
 32  14  33  1   
 33  14  34  1   
 34  14  35  1   
 35  15  16  ar  
 36  15  17  1   
 37  16  36  1   
 38  17  37  1   
 39  17  38  1   
 40  17  39  1   
@<TRIPOS>SUBSTRUCTURE
  1 ****   8 GROUP 4 **** **** 0

# MOE 2024.06 (io_trps.svl 2023.06)
