@<TRIPOS>MOLECULE
NONAME
44 46 1 0 0 
SMALL
USER_CHARGES


@<TRIPOS>ATOM
  1 BR       0.5380     0.3950     0.6410 Br    1 <1>  -0.1110 
  2 C       -0.0930    -1.3940     0.2880 C.ar  1 <1>   0.1110 
  3 C        0.6140    -2.2290    -0.5660 C.ar  1 <1>   0.0820 
  4 C       -1.2630    -1.7980     0.9020 C.ar  1 <1>  -0.1500 
  5 O        1.7450    -1.8270    -1.1830 O.3   1 <1>  -0.3630 
  6 C        0.1230    -3.5010    -0.8090 C.ar  1 <1>  -0.1500 
  7 C       -1.7540    -3.0730     0.6500 C.ar  1 <1>  -0.1430 
  8 C        2.9450    -1.9940    -0.4620 C.3   1 <1>   0.0400 
  9 C       -1.0510    -3.9210    -0.2010 C.ar  1 <1>  -0.1500 
 10 C       -3.0510    -3.5300     1.2900 C.3   1 <1>   0.4870 
 11 N       -4.1270    -3.4910     0.2650 N.4   1 <1>  -0.9590 
 12 C       -4.3800    -2.0820    -0.2200 C.3   1 <1>   0.3430 
 13 C       -5.3990    -4.1150     0.7790 C.3   1 <1>   0.3430 
 14 C       -5.5060    -2.0000    -1.2730 C.3   1 <1>   0.2090 
 15 C       -6.5480    -4.0780    -0.2530 C.3   1 <1>   0.2090 
 16 N       -6.7430    -2.7160    -0.8360 N.pl3 1 <1>  -0.8380 
 17 C       -7.7890    -1.9380    -0.3180 C.ar  1 <1>   0.1000 
 18 C       -7.7800    -1.3260     0.9410 C.ar  1 <1>   0.1900 
 19 C       -8.9230    -1.7490    -1.0980 C.ar  1 <1>  -0.1500 
 20 F       -6.7340    -1.4700     1.7220 F     1 <1>  -0.1900 
 21 C       -8.8310    -0.5660     1.4140 C.ar  1 <1>  -0.1500 
 22 C       -9.9890    -0.9900    -0.6420 C.ar  1 <1>  -0.1500 
 23 C       -9.9480    -0.3980     0.6110 C.ar  1 <1>  -0.1500 
 24 H       -1.7670    -1.1120     1.5610 H     1 <1>   0.1500 
 25 H        0.6640    -4.1520    -1.4730 H     1 <1>   0.1500 
 26 H        3.7550    -1.6340    -1.0710 H     1 <1>   0.0800 
 27 H        3.0810    -3.0380    -0.2460 H     1 <1>   0.0800 
 28 H        2.8910    -1.4240     0.4490 H     1 <1>   0.0800 
 29 H       -1.4020    -4.9190    -0.4040 H     1 <1>   0.1500 
 30 H       -3.3020    -2.8860     2.1180 H     1 <1>   0.0800 
 31 H       -2.9280    -4.5340     1.6630 H     1 <1>   0.0800 
 32 H       -3.8010    -4.0300    -0.5460 H     1 <1>   0.4500 
 33 H       -3.4790    -1.6740    -0.6490 H     1 <1>   0.0800 
 34 H       -4.6550    -1.4590     0.6130 H     1 <1>   0.0800 
 35 H       -5.7270    -3.5870     1.6590 H     1 <1>   0.0800 
 36 H       -5.2200    -5.1390     1.0610 H     1 <1>   0.0800 
 37 H       -5.1650    -2.4260    -2.2010 H     1 <1>   0.0800 
 38 H       -5.7390    -0.9650    -1.4610 H     1 <1>   0.0800 
 39 H       -7.4610    -4.3970     0.2220 H     1 <1>   0.0800 
 40 H       -6.3420    -4.7720    -1.0500 H     1 <1>   0.0800 
 41 H       -8.9650    -2.2040    -2.0710 H     1 <1>   0.1500 
 42 H       -8.7820    -0.1140     2.3890 H     1 <1>   0.1500 
 43 H      -10.8570    -0.8590    -1.2650 H     1 <1>   0.1500 
 44 H      -10.7810     0.1910     0.9580 H     1 <1>   0.1500 
@<TRIPOS>BOND
  1   1   2  1   
  2   2   3  ar  
  3   2   4  ar  
  4   3   5  1   
  5   3   6  ar  
  6   4   7  ar  
  7   4  24  1   
  8   5   8  1   
  9   6   9  ar  
 10   6  25  1   
 11   7   9  ar  
 12   7  10  1   
 13   8  26  1   
 14   8  27  1   
 15   8  28  1   
 16   9  29  1   
 17  10  11  1   
 18  10  30  1   
 19  10  31  1   
 20  11  12  1   
 21  11  13  1   
 22  11  32  1   
 23  12  14  1   
 24  12  33  1   
 25  12  34  1   
 26  13  15  1   
 27  13  35  1   
 28  13  36  1   
 29  14  16  1   
 30  14  37  1   
 31  14  38  1   
 32  15  16  1   
 33  15  39  1   
 34  15  40  1   
 35  16  17  1   
 36  17  18  ar  
 37  17  19  ar  
 38  18  20  1   
 39  18  21  ar  
 40  19  22  ar  
 41  19  41  1   
 42  21  23  ar  
 43  21  42  1   
 44  22  23  ar  
 45  22  43  1   
 46  23  44  1   
@<TRIPOS>SUBSTRUCTURE
  1 ****  12 GROUP 4 **** **** 0

# MOE 2024.06 (io_trps.svl 2023.06)
