@<TRIPOS>MOLECULE
NONAME
49 51 1 0 0 
SMALL
USER_CHARGES


@<TRIPOS>ATOM
  1 S       -0.3310    -0.5730    -1.3070 S.3   1 <1>  -0.0800 
  2 C        0.5630     0.7190    -0.5200 C.2   1 <1>   0.1040 
  3 C       -1.8560     0.1020    -0.7870 C.2   1 <1>  -0.1400 
  4 N        1.9490     0.7360    -0.5770 N.am  1 <1>  -0.4940 
  5 C       -0.2860     1.6090     0.0900 C.2   1 <1>  -0.0860 
  6 C       -1.6740     1.2150    -0.0600 C.2   1 <1>  -0.1810 
  7 C       -3.1480    -0.5840    -1.1700 C.3   1 <1>   0.0200 
  8 C        2.8900    -0.0670    -1.1730 C.2   1 <1>   0.5690 
  9 C        0.1880     2.7870     0.7730 C.2   1 <1>   0.8060 
 10 C       -2.8820     1.9440     0.5230 C.3   1 <1>   0.0210 
 11 C       -4.3250     0.3610    -0.8760 C.3   1 <1>  -0.1600 
 12 O        2.6340    -1.0390    -1.8400 O.2   1 <1>  -0.5700 
 13 C        4.3550     0.2980    -0.9810 C.3   1 <1>   0.1810 
 14 O        1.3680     2.9930     1.0000 O.2   1 <1>  -0.5700 
 15 O       -0.6930     3.7150     1.1650 O.3   1 <1>  -0.4300 
 16 C       -4.1600     1.0730     0.4820 C.3   1 <1>  -0.0800 
 17 O        4.4900     1.4710    -0.1910 O.3   1 <1>  -0.3630 
 18 C       -0.2900     4.8960     1.8220 C.3   1 <1>   0.1200 
 19 C       -5.4000     1.9180     0.8030 C.3   1 <1>  -0.2400 
 20 C        5.7070     1.9820     0.1170 C.ar  1 <1>   0.0820 
 21 C       -1.5420     5.7100     2.1330 C.3   1 <1>  -0.2400 
 22 C        5.7190     3.1200     0.9070 C.ar  1 <1>  -0.1500 
 23 C        6.9110     1.4310    -0.3140 C.ar  1 <1>  -0.1500 
 24 C        6.9180     3.7080     1.2700 C.ar  1 <1>  -0.1500 
 25 C        8.1090     2.0220     0.0500 C.ar  1 <1>  -0.1500 
 26 C        8.1140     3.1590     0.8400 C.ar  1 <1>  -0.1500 
 27 H        2.3760     1.5150    -0.0580 H     1 <1>   0.3700 
 28 H       -3.2440    -1.4880    -0.5960 H     1 <1>   0.0800 
 29 H       -3.1340    -0.8400    -2.2150 H     1 <1>   0.0800 
 30 H       -3.0360     2.8490    -0.0370 H     1 <1>   0.0800 
 31 H       -2.6900     2.2070     1.5480 H     1 <1>   0.0800 
 32 H       -5.2410    -0.2030    -0.8940 H     1 <1>   0.0800 
 33 H       -4.3770     1.1020    -1.6550 H     1 <1>   0.0800 
 34 H        4.8040     0.4800    -1.9410 H     1 <1>   0.0800 
 35 H        4.8590    -0.5090    -0.4830 H     1 <1>   0.0800 
 36 H       -4.0660     0.3150     1.2420 H     1 <1>   0.0800 
 37 H        0.3730     5.4410     1.1710 H     1 <1>   0.0800 
 38 H        0.2290     4.6250     2.7260 H     1 <1>   0.0800 
 39 H       -5.5430     2.6810     0.0570 H     1 <1>   0.0800 
 40 H       -5.2920     2.3910     1.7630 H     1 <1>   0.0800 
 41 H       -6.2780     1.2970     0.8300 H     1 <1>   0.0800 
 42 H       -2.0560     5.9630     1.2230 H     1 <1>   0.0800 
 43 H       -1.2670     6.6200     2.6340 H     1 <1>   0.0800 
 44 H       -2.1990     5.1510     2.7750 H     1 <1>   0.0800 
 45 H        4.7850     3.5400     1.2370 H     1 <1>   0.1500 
 46 H        6.9400     0.5510    -0.9270 H     1 <1>   0.1500 
 47 H        6.9200     4.5920     1.8840 H     1 <1>   0.1500 
 48 H        9.0410     1.5980    -0.2820 H     1 <1>   0.1500 
 49 H        9.0470     3.6160     1.1210 H     1 <1>   0.1500 
@<TRIPOS>BOND
  1   1   2  1   
  2   1   3  1   
  3   2   4  1   
  4   2   5  2   
  5   3   6  2   
  6   3   7  1   
  7   4   8  am  
  8   4  27  1   
  9   5   6  1   
 10   5   9  1   
 11   6  10  1   
 12   7  11  1   
 13   7  28  1   
 14   7  29  1   
 15   8  12  2   
 16   8  13  1   
 17   9  14  2   
 18   9  15  1   
 19  10  16  1   
 20  10  30  1   
 21  10  31  1   
 22  11  16  1   
 23  11  32  1   
 24  11  33  1   
 25  13  17  1   
 26  13  34  1   
 27  13  35  1   
 28  15  18  1   
 29  16  19  1   
 30  16  36  1   
 31  17  20  1   
 32  18  21  1   
 33  18  37  1   
 34  18  38  1   
 35  19  39  1   
 36  19  40  1   
 37  19  41  1   
 38  20  22  ar  
 39  20  23  ar  
 40  21  42  1   
 41  21  43  1   
 42  21  44  1   
 43  22  24  ar  
 44  22  45  1   
 45  23  25  ar  
 46  23  46  1   
 47  24  26  ar  
 48  24  47  1   
 49  25  26  ar  
 50  25  48  1   
 51  26  49  1   
@<TRIPOS>SUBSTRUCTURE
  1 ****   4 GROUP 4 **** **** 0

# MOE 2024.06 (io_trps.svl 2023.06)
