@<TRIPOS>MOLECULE
NONAME
43 44 1 0 0 
SMALL
USER_CHARGES


@<TRIPOS>ATOM
  1 CL      -4.9310     2.2800    -2.1740 Cl    1 <1>  -0.1770 
  2 C       -3.2310     2.6880    -2.0850 C.ar  1 <1>   0.1770 
  3 C       -2.7340     3.4160    -1.0040 C.ar  1 <1>   0.0820 
  4 C       -2.4000     2.2730    -3.1080 C.ar  1 <1>  -0.1500 
  5 O       -3.5460     3.8240    -0.0020 O.3   1 <1>  -0.3630 
  6 C       -1.3840     3.7450    -0.9540 C.ar  1 <1>  -0.1500 
  7 C       -1.0620     2.6090    -3.0270 C.ar  1 <1>   0.1900 
  8 C       -3.5460     3.0260     1.1780 C.3   1 <1>   0.2610 
  9 C       -0.5370     3.3370    -1.9730 C.ar  1 <1>  -0.1500 
 10 F       -0.2610     2.2250    -3.9850 F     1 <1>  -0.1900 
 11 C       -4.8960     2.3030     1.3430 C.2   1 <1>   0.5690 
 12 C       -3.1590     3.9110     2.3710 C.3   1 <1>  -0.2400 
 13 O       -4.8500     1.1040     1.4850 O.2   1 <1>  -0.5700 
 14 N       -6.1190     2.9460     1.2920 N.am  1 <1>  -0.6600 
 15 C       -6.3390     4.3800     0.9380 C.3   1 <1>   0.1400 
 16 C       -7.3770     2.1490     1.1970 C.3   1 <1>   0.1400 
 17 C       -6.8720     4.4860    -0.5050 C.3   1 <1>   0.3430 
 18 C       -7.8880     2.1940    -0.2530 C.3   1 <1>   0.3430 
 19 N       -8.0770     3.6090    -0.7540 N.4   1 <1>  -0.9590 
 20 C       -8.4340     3.6250    -2.1880 C.3   1 <1>   0.4810 
 21 C       -9.8620     3.1440    -2.2960 C.2   1 <1>  -0.2880 
 22 C      -10.9240     3.9270    -2.5160 C.2   1 <1>  -0.3000 
 23 H       -2.7750     1.7070    -3.9400 H     1 <1>   0.1500 
 24 H       -1.0000     4.3170    -0.1280 H     1 <1>   0.1500 
 25 H       -2.7890     2.2680     1.0680 H     1 <1>   0.0800 
 26 H        0.5110     3.5770    -1.9560 H     1 <1>   0.1500 
 27 H       -3.8800     4.6870     2.5400 H     1 <1>   0.0800 
 28 H       -2.1920     4.3510     2.2070 H     1 <1>   0.0800 
 29 H       -3.1050     3.3050     3.2580 H     1 <1>   0.0800 
 30 H       -5.4350     4.9510     1.0220 H     1 <1>   0.0800 
 31 H       -7.0510     4.8090     1.6210 H     1 <1>   0.0800 
 32 H       -8.1150     2.5540     1.8670 H     1 <1>   0.0800 
 33 H       -7.2090     1.1250     1.4840 H     1 <1>   0.0800 
 34 H       -6.0750     4.2050    -1.1710 H     1 <1>   0.0800 
 35 H       -7.1190     5.5140    -0.7130 H     1 <1>   0.0800 
 36 H       -8.8190     1.6560    -0.3130 H     1 <1>   0.0800 
 37 H       -7.1710     1.6820    -0.8730 H     1 <1>   0.0800 
 38 H       -8.8840     4.0100    -0.2590 H     1 <1>   0.4500 
 39 H       -7.7680     2.9990    -2.7620 H     1 <1>   0.0800 
 40 H       -8.3740     4.6320    -2.5680 H     1 <1>   0.0800 
 41 H       -9.9580     2.0770    -2.1870 H     1 <1>   0.1500 
 42 H      -11.9340     3.5570    -2.5960 H     1 <1>   0.1500 
 43 H      -10.8920     4.9980    -2.6430 H     1 <1>   0.1500 
@<TRIPOS>BOND
  1   1   2  1   
  2   2   3  ar  
  3   2   4  ar  
  4   3   5  1   
  5   3   6  ar  
  6   4   7  ar  
  7   4  23  1   
  8   5   8  1   
  9   6   9  ar  
 10   6  24  1   
 11   7   9  ar  
 12   7  10  1   
 13   8  11  1   
 14   8  12  1   
 15   8  25  1   
 16   9  26  1   
 17  11  13  2   
 18  11  14  am  
 19  12  27  1   
 20  12  28  1   
 21  12  29  1   
 22  14  15  1   
 23  14  16  1   
 24  15  17  1   
 25  15  30  1   
 26  15  31  1   
 27  16  18  1   
 28  16  32  1   
 29  16  33  1   
 30  17  19  1   
 31  17  34  1   
 32  17  35  1   
 33  18  19  1   
 34  18  36  1   
 35  18  37  1   
 36  19  20  1   
 37  19  38  1   
 38  20  21  1   
 39  20  39  1   
 40  20  40  1   
 41  21  22  2   
 42  21  41  1   
 43  22  42  1   
 44  22  43  1   
@<TRIPOS>SUBSTRUCTURE
  1 ****   1 GROUP 4 **** **** 0

# MOE 2024.06 (io_trps.svl 2023.06)
