@<TRIPOS>MOLECULE
NONAME
31 32 1 0 0 
SMALL
USER_CHARGES


@<TRIPOS>ATOM
  1 O        0.0930     0.2960    -0.6320 O.2   1 <1>  -0.5700 
  2 C       -0.0500     1.4710    -0.3490 C.2   1 <1>   0.6900 
  3 N        1.0380     2.3000    -0.2970 N.am  1 <1>  -0.6600 
  4 N       -1.2830     2.0010    -0.0940 N.am  1 <1>  -0.5470 
  5 C        2.4120     1.8010    -0.5250 C.3   1 <1>   0.1400 
  6 C        1.0560     3.6850     0.2200 C.3   1 <1>   0.1400 
  7 C       -2.5530     1.4150     0.0160 C.ar  1 <1>   0.1170 
  8 C        3.3160     2.8350     0.1350 C.3   1 <1>  -0.1600 
  9 C        2.5100     4.1300     0.1000 C.3   1 <1>  -0.1600 
 10 C       -3.6750     2.2150    -0.1640 C.ar  1 <1>  -0.1500 
 11 C       -2.7430     0.0700     0.3180 C.ar  1 <1>  -0.1500 
 12 C       -4.9550     1.6980    -0.0520 C.ar  1 <1>  -0.1440 
 13 C       -4.0170    -0.4560     0.4300 C.ar  1 <1>  -0.1500 
 14 C       -5.1220     0.3550     0.2450 C.ar  1 <1>  -0.1500 
 15 C       -6.1730     2.5810    -0.2550 C.3   1 <1>  -0.0970 
 16 H       -1.2680     3.0110    -0.0540 H     1 <1>   0.3700 
 17 H        2.5950     1.7550    -1.5850 H     1 <1>   0.0800 
 18 H        2.5470     0.8230    -0.0940 H     1 <1>   0.0800 
 19 H        0.7500     3.6800     1.2530 H     1 <1>   0.0800 
 20 H        0.4070     4.3220    -0.3560 H     1 <1>   0.0800 
 21 H        4.2600     2.9230    -0.3730 H     1 <1>   0.0800 
 22 H        3.4930     2.5410     1.1550 H     1 <1>   0.0800 
 23 H        2.7880     4.8090     0.8870 H     1 <1>   0.0800 
 24 H        2.6480     4.6190    -0.8490 H     1 <1>   0.0800 
 25 H       -3.5430     3.2540    -0.4000 H     1 <1>   0.1500 
 26 H       -1.8950    -0.5710     0.4690 H     1 <1>   0.1500 
 27 H       -4.1460    -1.4990     0.6600 H     1 <1>   0.1500 
 28 H       -6.1090    -0.0620     0.3330 H     1 <1>   0.1500 
 29 H       -5.8990     3.6200    -0.2570 H     1 <1>   0.0800 
 30 H       -6.8830     2.4180     0.5360 H     1 <1>   0.0800 
 31 H       -6.6400     2.3450    -1.1950 H     1 <1>   0.0800 
@<TRIPOS>BOND
  1   1   2  2   
  2   2   3  am  
  3   2   4  am  
  4   3   5  1   
  5   3   6  1   
  6   4   7  1   
  7   4  16  1   
  8   5   8  1   
  9   5  17  1   
 10   5  18  1   
 11   6   9  1   
 12   6  19  1   
 13   6  20  1   
 14   7  10  ar  
 15   7  11  ar  
 16   8   9  1   
 17   8  21  1   
 18   8  22  1   
 19   9  23  1   
 20   9  24  1   
 21  10  12  ar  
 22  10  25  1   
 23  11  13  ar  
 24  11  26  1   
 25  12  14  ar  
 26  12  15  1   
 27  13  14  ar  
 28  13  27  1   
 29  14  28  1   
 30  15  29  1   
 31  15  30  1   
 32  15  31  1   
@<TRIPOS>SUBSTRUCTURE
  1 ****   4 GROUP 4 **** **** 0

# MOE 2024.06 (io_trps.svl 2023.06)
