@<TRIPOS>MOLECULE
NONAME
49 50 1 0 0 
SMALL
USER_CHARGES


@<TRIPOS>ATOM
  1 O       -2.2830     0.5220    -2.5590 O.2   1 <1>  -0.5700 
  2 C       -2.1900     1.5520    -1.9340 C.2   1 <1>   0.6900 
  3 N       -1.2850     1.6710    -0.9330 N.am  1 <1>  -0.5390 
  4 N       -2.9950     2.5910    -2.1980 N.am  1 <1>  -0.7300 
  5 C       -1.1560     2.7810    -0.1230 C.2   1 <1>  -0.0290 
  6 C       -3.1010     3.7800    -1.3320 C.3   1 <1>   0.5020 
  7 C       -2.0070     3.8380    -0.2580 C.2   1 <1>  -0.1240 
  8 C       -0.0070     2.6680     0.8680 C.3   1 <1>  -0.1020 
  9 C       -4.4870     3.7470    -0.6940 C.ar  1 <1>  -0.1440 
 10 C       -2.0460     5.0470     0.5100 C.2   1 <1>   0.7060 
 11 C       -5.4000     4.7580    -0.9540 C.ar  1 <1>  -0.1500 
 12 C       -4.8450     2.7110     0.1580 C.ar  1 <1>  -0.1500 
 13 O       -1.5590     5.1660     1.6170 O.2   1 <1>  -0.5700 
 14 O       -2.6660     6.1100    -0.0180 O.3   1 <1>  -0.4300 
 15 C       -6.6550     4.7500    -0.3710 C.ar  1 <1>   0.0830 
 16 C       -6.1070     2.6750     0.7430 C.ar  1 <1>   0.0830 
 17 C       -2.8120     7.3160     0.6990 C.3   1 <1>   0.1200 
 18 O       -7.4680     5.7930    -0.6850 O.3   1 <1>  -0.3630 
 19 C       -7.0160     3.6950     0.4710 C.ar  1 <1>   0.0830 
 20 O       -6.5070     1.6690     1.5700 O.3   1 <1>  -0.3630 
 21 C       -3.6550     8.2660    -0.1440 C.3   1 <1>  -0.2400 
 22 C       -8.2060     6.4370     0.3340 C.3   1 <1>   0.0400 
 23 O       -8.2570     3.6400     1.0250 O.3   1 <1>  -0.2320 
 24 C       -5.6180     0.6540     1.9840 C.3   1 <1>   0.0400 
 25 C       -9.2650     2.9480     0.5060 C.2   1 <1>   0.6590 
 26 O      -10.3560     2.9950     1.0080 O.2   1 <1>  -0.5700 
 27 C       -9.0390     2.1180    -0.7430 C.3   1 <1>  -0.1790 
 28 H       -0.6780     0.8580    -0.8310 H     1 <1>   0.3700 
 29 H       -3.7590     2.4270    -2.8480 H     1 <1>   0.3700 
 30 H       -3.0130     4.6450    -1.9680 H     1 <1>   0.0800 
 31 H       -0.2840     2.0130     1.6740 H     1 <1>   0.0800 
 32 H        0.2710     3.6180     1.2810 H     1 <1>   0.0800 
 33 H        0.8640     2.2670     0.3810 H     1 <1>   0.0800 
 34 H       -5.1460     5.5740    -1.6080 H     1 <1>   0.1500 
 35 H       -4.1270     1.9350     0.3510 H     1 <1>   0.1500 
 36 H       -1.8320     7.7230     0.8850 H     1 <1>   0.0800 
 37 H       -3.2980     7.1000     1.6370 H     1 <1>   0.0800 
 38 H       -3.1710     8.4580    -1.0850 H     1 <1>   0.0800 
 39 H       -3.7740     9.2000     0.3750 H     1 <1>   0.0800 
 40 H       -4.6290     7.8450    -0.3160 H     1 <1>   0.0800 
 41 H       -8.4150     7.4420     0.0130 H     1 <1>   0.0800 
 42 H       -7.6240     6.4540     1.2390 H     1 <1>   0.0800 
 43 H       -9.1310     5.9100     0.4870 H     1 <1>   0.0800 
 44 H       -6.1440     0.0070     2.6630 H     1 <1>   0.0800 
 45 H       -4.7800     1.1050     2.4850 H     1 <1>   0.0800 
 46 H       -5.2980     0.0950     1.1220 H     1 <1>   0.0800 
 47 H       -8.3240     1.3430    -0.5420 H     1 <1>   0.0800 
 48 H       -8.6820     2.7440    -1.5400 H     1 <1>   0.0800 
 49 H       -9.9650     1.6650    -1.0450 H     1 <1>   0.0800 
@<TRIPOS>BOND
  1   1   2  2   
  2   2   3  am  
  3   2   4  am  
  4   3   5  1   
  5   3  28  1   
  6   4   6  1   
  7   4  29  1   
  8   5   7  2   
  9   5   8  1   
 10   6   7  1   
 11   6   9  1   
 12   6  30  1   
 13   7  10  1   
 14   8  31  1   
 15   8  32  1   
 16   8  33  1   
 17   9  11  ar  
 18   9  12  ar  
 19  10  13  2   
 20  10  14  1   
 21  11  15  ar  
 22  11  34  1   
 23  12  16  ar  
 24  12  35  1   
 25  14  17  1   
 26  15  18  1   
 27  15  19  ar  
 28  16  19  ar  
 29  16  20  1   
 30  17  21  1   
 31  17  36  1   
 32  17  37  1   
 33  18  22  1   
 34  19  23  1   
 35  20  24  1   
 36  21  38  1   
 37  21  39  1   
 38  21  40  1   
 39  22  41  1   
 40  22  42  1   
 41  22  43  1   
 42  23  25  1   
 43  24  44  1   
 44  24  45  1   
 45  24  46  1   
 46  25  26  2   
 47  25  27  1   
 48  27  47  1   
 49  27  48  1   
 50  27  49  1   
@<TRIPOS>SUBSTRUCTURE
  1 ****   9 GROUP 4 **** **** 0

# MOE 2024.06 (io_trps.svl 2023.06)
