@<TRIPOS>MOLECULE
NONAME
50 51 1 0 0 
SMALL
USER_CHARGES


@<TRIPOS>ATOM
  1 O       -3.4830     6.9600    -1.7290 O.2   1 <1>  -0.5700 
  2 C       -3.6320     6.6860    -0.5630 C.2   1 <1>   0.5690 
  3 N       -4.7730     6.9730     0.1120 N.am  1 <1>  -0.7300 
  4 C       -2.4870     5.9890     0.1680 C.3   1 <1>  -0.0190 
  5 C       -5.9670     7.6220    -0.4810 C.3   1 <1>   0.1400 
  6 C       -1.2410     6.8950     0.2120 C.3   1 <1>  -0.1600 
  7 C       -2.1480     4.6460    -0.5080 C.3   1 <1>  -0.1600 
  8 C       -7.2200     6.7640    -0.2450 C.3   1 <1>  -0.0800 
  9 C       -0.0260     6.1850     0.8060 C.3   1 <1>   0.3430 
 10 C       -0.9150     3.9840     0.1020 C.3   1 <1>   0.3430 
 11 C       -8.4320     7.4150    -0.9240 C.3   1 <1>  -0.2400 
 12 C       -7.5190     6.5610     1.2500 C.3   1 <1>  -0.2400 
 13 N        0.2330     4.9270     0.0460 N.4   1 <1>  -0.9590 
 14 C        1.5020     4.2740     0.4710 C.3   1 <1>   0.4860 
 15 C        2.6540     5.2200     0.1980 C.ar  1 <1>  -0.1440 
 16 C        3.0760     5.4580    -1.1020 C.ar  1 <1>  -0.1500 
 17 C        3.2940     5.8610     1.2490 C.ar  1 <1>  -0.1500 
 18 C        4.1150     6.3380    -1.3470 C.ar  1 <1>  -0.1500 
 19 C        4.3330     6.7400     1.0000 C.ar  1 <1>  -0.1500 
 20 C        4.7450     6.9860    -0.2990 C.ar  1 <1>  -0.1440 
 21 C        5.8880     7.9490    -0.5710 C.3   1 <1>  -0.0970 
 22 H       -4.8770     6.7310     1.0970 H     1 <1>   0.3700 
 23 H       -2.8000     5.7920     1.1780 H     1 <1>   0.0800 
 24 H       -5.8190     7.7590    -1.5390 H     1 <1>   0.0800 
 25 H       -6.0970     8.5940    -0.0360 H     1 <1>   0.0800 
 26 H       -1.4570     7.7720     0.7970 H     1 <1>   0.0800 
 27 H       -0.9960     7.2320    -0.7810 H     1 <1>   0.0800 
 28 H       -1.9780     4.7980    -1.5610 H     1 <1>   0.0800 
 29 H       -2.9890     3.9810    -0.4170 H     1 <1>   0.0800 
 30 H       -7.0620     5.8030    -0.7050 H     1 <1>   0.0800 
 31 H       -0.2070     5.9570     1.8440 H     1 <1>   0.0800 
 32 H        0.8300     6.8390     0.7450 H     1 <1>   0.0800 
 33 H       -0.6850     3.0850    -0.4490 H     1 <1>   0.0800 
 34 H       -1.1180     3.7130     1.1260 H     1 <1>   0.0800 
 35 H       -8.6350     8.3820    -0.4970 H     1 <1>   0.0800 
 36 H       -9.3050     6.7970    -0.8030 H     1 <1>   0.0800 
 37 H       -8.2510     7.5350    -1.9780 H     1 <1>   0.0800 
 38 H       -7.6340     7.5090     1.7460 H     1 <1>   0.0800 
 39 H       -6.7300     6.0110     1.7290 H     1 <1>   0.0800 
 40 H       -8.4300     6.0000     1.3720 H     1 <1>   0.0800 
 41 H        0.3690     5.2110    -0.9340 H     1 <1>   0.4500 
 42 H        1.6560     3.3630    -0.0850 H     1 <1>   0.0800 
 43 H        1.4660     4.0330     1.5200 H     1 <1>   0.0800 
 44 H        2.6110     4.9650    -1.9390 H     1 <1>   0.1500 
 45 H        2.9990     5.6870     2.2700 H     1 <1>   0.1500 
 46 H        4.4370     6.5170    -2.3590 H     1 <1>   0.1500 
 47 H        4.8260     7.2320     1.8210 H     1 <1>   0.1500 
 48 H        6.8190     7.4120    -0.5920 H     1 <1>   0.0800 
 49 H        5.9390     8.7020     0.1960 H     1 <1>   0.0800 
 50 H        5.7490     8.4400    -1.5170 H     1 <1>   0.0800 
@<TRIPOS>BOND
  1   1   2  2   
  2   2   3  am  
  3   2   4  1   
  4   3   5  1   
  5   3  22  1   
  6   4   6  1   
  7   4   7  1   
  8   4  23  1   
  9   5   8  1   
 10   5  24  1   
 11   5  25  1   
 12   6   9  1   
 13   6  26  1   
 14   6  27  1   
 15   7  10  1   
 16   7  28  1   
 17   7  29  1   
 18   8  11  1   
 19   8  12  1   
 20   8  30  1   
 21   9  13  1   
 22   9  31  1   
 23   9  32  1   
 24  10  13  1   
 25  10  33  1   
 26  10  34  1   
 27  11  35  1   
 28  11  36  1   
 29  11  37  1   
 30  12  38  1   
 31  12  39  1   
 32  12  40  1   
 33  13  14  1   
 34  13  41  1   
 35  14  15  1   
 36  14  42  1   
 37  14  43  1   
 38  15  16  ar  
 39  15  17  ar  
 40  16  18  ar  
 41  16  44  1   
 42  17  19  ar  
 43  17  45  1   
 44  18  20  ar  
 45  18  46  1   
 46  19  20  ar  
 47  19  47  1   
 48  20  21  1   
 49  21  48  1   
 50  21  49  1   
 51  21  50  1   
@<TRIPOS>SUBSTRUCTURE
  1 ****   6 GROUP 4 **** **** 0

# MOE 2024.06 (io_trps.svl 2023.06)
