@<TRIPOS>MOLECULE
NONAME
48 49 1 0 0 
SMALL
USER_CHARGES


@<TRIPOS>ATOM
  1 CL      -2.8310     0.6510     1.6470 Cl    1 <1>  -0.1770 
  2 C       -1.7200     1.9250     1.1850 C.ar  1 <1>   0.1770 
  3 C       -1.9540     2.6980     0.0510 C.ar  1 <1>   0.0830 
  4 C       -0.6050     2.1370     1.9740 C.ar  1 <1>  -0.1500 
  5 O       -3.0460     2.4900    -0.7220 O.3   1 <1>  -0.3630 
  6 C       -1.0420     3.6880    -0.3060 C.ar  1 <1>  -0.1440 
  7 C        0.2940     3.1300     1.6250 C.ar  1 <1>  -0.1500 
  8 C       -4.2860     2.9290    -0.2090 C.3   1 <1>   0.1200 
  9 C        0.0750     3.8970     0.4910 C.ar  1 <1>  -0.1500 
 10 C       -1.2590     4.5340    -1.5510 C.3   1 <1>  -0.0960 
 11 C       -5.3520     1.9240    -0.6310 C.3   1 <1>   0.1200 
 12 O       -6.5780     2.3170    -0.0900 O.3   1 <1>  -0.5600 
 13 C       -7.6070     1.4110    -0.2970 C.3   1 <1>   0.1200 
 14 C       -8.8490     1.9650     0.4110 C.3   1 <1>   0.3430 
 15 N      -10.0210     1.0320     0.3500 N.4   1 <1>  -0.9590 
 16 C      -10.5520     0.8790    -1.0390 C.3   1 <1>   0.3430 
 17 C      -11.0870     1.4950     1.2860 C.3   1 <1>   0.3430 
 18 C      -11.6750    -0.1580    -1.0500 C.3   1 <1>  -0.1600 
 19 C      -12.2210     0.4700     1.3250 C.3   1 <1>  -0.1600 
 20 C      -12.8000     0.2140    -0.0740 C.3   1 <1>  -0.0800 
 21 C      -13.8610    -0.8900    -0.0260 C.3   1 <1>  -0.2400 
 22 H       -0.4450     1.5320     2.8480 H     1 <1>   0.1500 
 23 H        1.1660     3.3050     2.2320 H     1 <1>   0.1500 
 24 H       -4.4870     3.9020    -0.6200 H     1 <1>   0.0800 
 25 H       -4.2300     2.9850     0.8640 H     1 <1>   0.0800 
 26 H        0.7870     4.6610     0.2310 H     1 <1>   0.1500 
 27 H       -2.1470     5.1290    -1.4380 H     1 <1>   0.0800 
 28 H       -1.3770     3.8960    -2.4090 H     1 <1>   0.0800 
 29 H       -0.4260     5.1900    -1.7260 H     1 <1>   0.0800 
 30 H       -5.0980     0.9490    -0.2500 H     1 <1>   0.0800 
 31 H       -5.4360     1.8990    -1.7040 H     1 <1>   0.0800 
 32 H       -7.3170     0.4650     0.1280 H     1 <1>   0.0800 
 33 H       -7.7670     1.3200    -1.3580 H     1 <1>   0.0800 
 34 H       -9.1110     2.9100    -0.0330 H     1 <1>   0.0800 
 35 H       -8.5870     2.1380     1.4420 H     1 <1>   0.0800 
 36 H       -9.7230     0.1030     0.6760 H     1 <1>   0.4500 
 37 H       -9.7680     0.5600    -1.7070 H     1 <1>   0.0800 
 38 H      -10.9330     1.8250    -1.3910 H     1 <1>   0.0800 
 39 H      -11.4740     2.4470     0.9590 H     1 <1>   0.0800 
 40 H      -10.6810     1.6160     2.2780 H     1 <1>   0.0800 
 41 H      -11.2690    -1.1240    -0.8020 H     1 <1>   0.0800 
 42 H      -12.0760    -0.2250    -2.0470 H     1 <1>   0.0800 
 43 H      -12.9990     0.8380     1.9710 H     1 <1>   0.0800 
 44 H      -11.8560    -0.4480     1.7530 H     1 <1>   0.0800 
 45 H      -13.2730     1.1190    -0.4220 H     1 <1>   0.0800 
 46 H      -13.4390    -1.8190     0.3170 H     1 <1>   0.0800 
 47 H      -14.2830    -1.0490    -1.0030 H     1 <1>   0.0800 
 48 H      -14.6600    -0.6140     0.6400 H     1 <1>   0.0800 
@<TRIPOS>BOND
  1   1   2  1   
  2   2   3  ar  
  3   2   4  ar  
  4   3   5  1   
  5   3   6  ar  
  6   4   7  ar  
  7   4  22  1   
  8   5   8  1   
  9   6   9  ar  
 10   6  10  1   
 11   7   9  ar  
 12   7  23  1   
 13   8  11  1   
 14   8  24  1   
 15   8  25  1   
 16   9  26  1   
 17  10  27  1   
 18  10  28  1   
 19  10  29  1   
 20  11  12  1   
 21  11  30  1   
 22  11  31  1   
 23  12  13  1   
 24  13  14  1   
 25  13  32  1   
 26  13  33  1   
 27  14  15  1   
 28  14  34  1   
 29  14  35  1   
 30  15  16  1   
 31  15  17  1   
 32  15  36  1   
 33  16  18  1   
 34  16  37  1   
 35  16  38  1   
 36  17  19  1   
 37  17  39  1   
 38  17  40  1   
 39  18  20  1   
 40  18  41  1   
 41  18  42  1   
 42  19  20  1   
 43  19  43  1   
 44  19  44  1   
 45  20  21  1   
 46  20  45  1   
 47  21  46  1   
 48  21  47  1   
 49  21  48  1   
@<TRIPOS>SUBSTRUCTURE
  1 ****  12 GROUP 4 **** **** 0

# MOE 2024.06 (io_trps.svl 2023.06)
