@<TRIPOS>MOLECULE
NONAME
50 54 1 0 0 
SMALL
USER_CHARGES


@<TRIPOS>ATOM
  1 O        0.6430    -0.9390    -0.4760 O.2   1 <1>  -0.5700 
  2 C       -0.4700    -1.1700    -0.0720 C.2   1 <1>   0.6300 
  3 N       -1.1670    -0.2370     0.6590 N.am  1 <1>  -0.6600 
  4 C       -1.0960    -2.5220    -0.4040 C.3   1 <1>  -0.1000 
  5 C       -0.5520     1.0790     1.0030 C.3   1 <1>   0.1400 
  6 C       -2.5890    -0.3690     1.0850 C.3   1 <1>   0.1400 
  7 C       -0.7880    -3.2240    -1.6960 C.3   1 <1>  -0.2000 
  8 C       -2.1520    -2.6560    -1.4670 C.3   1 <1>  -0.2000 
  9 C       -1.4000     2.2320     0.4400 C.3   1 <1>   0.3430 
 10 C       -3.4270     0.8040     0.5350 C.3   1 <1>   0.3430 
 11 N       -2.8470     2.1600     0.8820 N.4   1 <1>  -0.9590 
 12 C       -3.6820     3.3160     0.4080 C.3   1 <1>   0.5030 
 13 C       -3.0620     4.6430     0.9090 C.3   1 <1>  -0.1600 
 14 C       -5.1080     3.2020     1.0000 C.3   1 <1>  -0.1600 
 15 C       -3.7820     3.3610    -1.1340 C.3   1 <1>  -0.1600 
 16 C       -3.9200     5.8450     0.4720 C.3   1 <1>  -0.0800 
 17 C       -5.9770     4.3960     0.5630 C.3   1 <1>  -0.0800 
 18 C       -4.6450     4.5590    -1.5770 C.3   1 <1>  -0.0800 
 19 C       -5.3330     5.7010     1.0600 C.3   1 <1>  -0.1600 
 20 C       -4.0090     5.8650    -1.0650 C.3   1 <1>  -0.1600 
 21 C       -6.0560     4.4220    -0.9750 C.3   1 <1>  -0.1600 
 22 H       -1.1590    -3.1490     0.4670 H     1 <1>   0.1000 
 23 H        0.4450     1.1530     0.6020 H     1 <1>   0.0800 
 24 H       -0.4740     1.1680     2.0730 H     1 <1>   0.0800 
 25 H       -2.6370    -0.3760     2.1610 H     1 <1>   0.0800 
 26 H       -3.0140    -1.2930     0.7380 H     1 <1>   0.0800 
 27 H       -0.6550    -4.2920    -1.6800 H     1 <1>   0.1000 
 28 H       -0.1270    -2.7400    -2.3960 H     1 <1>   0.1000 
 29 H       -2.4330    -1.8000    -2.0560 H     1 <1>   0.1000 
 30 H       -2.9660    -3.3440    -1.3180 H     1 <1>   0.1000 
 31 H       -1.3440     2.1950    -0.6360 H     1 <1>   0.0800 
 32 H       -0.9570     3.1590     0.7610 H     1 <1>   0.0800 
 33 H       -4.4250     0.7160     0.9300 H     1 <1>   0.0800 
 34 H       -3.4860     0.7000    -0.5350 H     1 <1>   0.0800 
 35 H       -2.8460     2.2320     1.9040 H     1 <1>   0.4500 
 36 H       -2.0800     4.7930     0.5020 H     1 <1>   0.0800 
 37 H       -2.9900     4.6390     1.9820 H     1 <1>   0.0800 
 38 H       -5.0640     3.1780     2.0740 H     1 <1>   0.0800 
 39 H       -5.6020     2.3130     0.6580 H     1 <1>   0.0800 
 40 H       -2.8080     3.4650    -1.5770 H     1 <1>   0.0800 
 41 H       -4.2320     2.4620    -1.5140 H     1 <1>   0.0800 
 42 H       -3.4750     6.7620     0.8210 H     1 <1>   0.0800 
 43 H       -6.9680     4.3020     0.9760 H     1 <1>   0.0800 
 44 H       -4.7120     4.5870    -2.6520 H     1 <1>   0.0800 
 45 H       -5.2900     5.7070     2.1360 H     1 <1>   0.0800 
 46 H       -5.9380     6.5410     0.7600 H     1 <1>   0.0800 
 47 H       -3.0280     5.9900    -1.4920 H     1 <1>   0.0800 
 48 H       -4.6040     6.7050    -1.3820 H     1 <1>   0.0800 
 49 H       -6.6660     5.2530    -1.2910 H     1 <1>   0.0800 
 50 H       -6.5280     3.5250    -1.3370 H     1 <1>   0.0800 
@<TRIPOS>BOND
  1   1   2  2   
  2   2   3  am  
  3   2   4  1   
  4   3   5  1   
  5   3   6  1   
  6   4   7  1   
  7   4   8  1   
  8   4  22  1   
  9   5   9  1   
 10   5  23  1   
 11   5  24  1   
 12   6  10  1   
 13   6  25  1   
 14   6  26  1   
 15   7   8  1   
 16   7  27  1   
 17   7  28  1   
 18   8  29  1   
 19   8  30  1   
 20   9  11  1   
 21   9  31  1   
 22   9  32  1   
 23  10  11  1   
 24  10  33  1   
 25  10  34  1   
 26  11  12  1   
 27  11  35  1   
 28  12  13  1   
 29  12  14  1   
 30  12  15  1   
 31  13  16  1   
 32  13  36  1   
 33  13  37  1   
 34  14  17  1   
 35  14  38  1   
 36  14  39  1   
 37  15  18  1   
 38  15  40  1   
 39  15  41  1   
 40  16  19  1   
 41  16  20  1   
 42  16  42  1   
 43  17  19  1   
 44  17  21  1   
 45  17  43  1   
 46  18  20  1   
 47  18  21  1   
 48  18  44  1   
 49  19  45  1   
 50  19  46  1   
 51  20  47  1   
 52  20  48  1   
 53  21  49  1   
 54  21  50  1   
@<TRIPOS>SUBSTRUCTURE
  1 ****  11 GROUP 4 **** **** 0

# MOE 2024.06 (io_trps.svl 2023.06)
