@<TRIPOS>MOLECULE
NONAME
35 36 1 0 0 
SMALL
USER_CHARGES


@<TRIPOS>ATOM
  1 CL       0.5040     0.1800     1.6870 Cl    1 <1>  -0.1770 
  2 C        1.7960    -0.8400     1.1350 C.ar  1 <1>   0.7970 
  3 N        2.9750    -0.2900     1.1090 N.ar  1 <1>  -0.6200 
  4 N        1.4580    -2.0470     0.8010 N.ar  1 <1>  -0.6200 
  5 C        3.9000    -1.1120     0.6890 C.ar  1 <1>   0.7200 
  6 C        2.4790    -2.7540     0.3930 C.ar  1 <1>   0.7200 
  7 N        3.7130    -2.3490     0.3140 N.ar  1 <1>  -0.6200 
  8 N        5.1480    -0.5660     0.6410 N.pl3 1 <1>  -0.6000 
  9 N        2.2760    -4.0290     0.0070 N.pl3 1 <1>  -0.8690 
 10 C        6.4030    -1.1010     0.3240 C.ar  1 <1>   0.1000 
 11 C        1.0040    -4.7430    -0.1110 C.3   1 <1>   0.2890 
 12 C        7.3370    -0.2940    -0.3120 C.ar  1 <1>  -0.1500 
 13 C        6.7650    -2.4050     0.6430 C.ar  1 <1>  -0.1500 
 14 C        1.1340    -6.0560     0.6500 C.3   1 <1>  -0.2400 
 15 C        0.7370    -4.9840    -1.5910 C.3   1 <1>  -0.2400 
 16 C        8.5940    -0.7760    -0.6300 C.ar  1 <1>  -0.1500 
 17 C        8.0220    -2.8900     0.3260 C.ar  1 <1>  -0.1500 
 18 C        8.9450    -2.0780    -0.3120 C.ar  1 <1>  -0.1430 
 19 C       10.3230    -2.6100    -0.6620 C.3   1 <1>  -0.0970 
 20 H        5.1220     0.4330     0.8240 H     1 <1>   0.4000 
 21 H        3.1000    -4.5030    -0.3570 H     1 <1>   0.4000 
 22 H        0.2010    -4.1610     0.3120 H     1 <1>   0.0800 
 23 H        7.0790     0.7170    -0.5680 H     1 <1>   0.1500 
 24 H        6.0650    -3.0460     1.1460 H     1 <1>   0.1500 
 25 H        1.9250    -6.6580     0.2420 H     1 <1>   0.0800 
 26 H        0.2140    -6.6080     0.5870 H     1 <1>   0.0800 
 27 H        1.3370    -5.8560     1.6870 H     1 <1>   0.0800 
 28 H        1.5240    -5.5680    -2.0310 H     1 <1>   0.0800 
 29 H        0.6630    -4.0420    -2.1040 H     1 <1>   0.0800 
 30 H       -0.1930    -5.5090    -1.7140 H     1 <1>   0.0800 
 31 H        9.3000    -0.1340    -1.1270 H     1 <1>   0.1500 
 32 H        8.2770    -3.9040     0.5800 H     1 <1>   0.1500 
 33 H       11.0500    -1.8180    -0.6340 H     1 <1>   0.0800 
 34 H       10.3070    -3.0340    -1.6490 H     1 <1>   0.0800 
 35 H       10.6220    -3.3690     0.0380 H     1 <1>   0.0800 
@<TRIPOS>BOND
  1   1   2  1   
  2   2   3  ar  
  3   2   4  ar  
  4   3   5  ar  
  5   4   6  ar  
  6   5   7  ar  
  7   5   8  1   
  8   6   7  ar  
  9   6   9  1   
 10   8  10  1   
 11   8  20  1   
 12   9  11  1   
 13   9  21  1   
 14  10  12  ar  
 15  10  13  ar  
 16  11  14  1   
 17  11  15  1   
 18  11  22  1   
 19  12  16  ar  
 20  12  23  1   
 21  13  17  ar  
 22  13  24  1   
 23  14  25  1   
 24  14  26  1   
 25  14  27  1   
 26  15  28  1   
 27  15  29  1   
 28  15  30  1   
 29  16  18  ar  
 30  16  31  1   
 31  17  18  ar  
 32  17  32  1   
 33  18  19  1   
 34  19  33  1   
 35  19  34  1   
 36  19  35  1   
@<TRIPOS>SUBSTRUCTURE
  1 ****   7 GROUP 4 **** **** 0

# MOE 2024.06 (io_trps.svl 2023.06)
