@<TRIPOS>MOLECULE
NONAME
39 41 1 0 0 
SMALL
USER_CHARGES


@<TRIPOS>ATOM
  1 O       -2.3240    -0.0620    -2.5060 O.2   1 <1>  -0.5700 
  2 C       -2.7740    -0.8200    -1.6720 C.2   1 <1>   0.7060 
  3 O       -4.0790    -0.7700    -1.4060 O.3   1 <1>  -0.2330 
  4 C       -1.9770    -1.7680    -0.9660 C.2   1 <1>  -0.1360 
  5 C       -4.6690    -1.5820    -0.5000 C.ar  1 <1>   0.0820 
  6 C       -2.5010    -2.6130    -0.0450 C.2   1 <1>  -0.1670 
  7 C       -3.9160    -2.5300     0.2130 C.ar  1 <1>   0.0280 
  8 C       -6.0340    -1.4420    -0.3040 C.ar  1 <1>  -0.1500 
  9 C       -1.6720    -3.6410     0.7310 C.3   1 <1>  -0.0220 
 10 C       -4.6060    -3.3310     1.1310 C.ar  1 <1>  -0.1500 
 11 C       -6.6940    -2.2550     0.6050 C.ar  1 <1>   0.0830 
 12 C       -0.1770    -3.6590     0.3930 C.3   1 <1>  -0.2400 
 13 C       -5.9650    -3.1940     1.3210 C.ar  1 <1>  -0.1500 
 14 O       -8.0240    -2.2040     0.8490 O.3   1 <1>  -0.3620 
 15 C       -8.9200    -1.4230     0.0730 C.3   1 <1>   0.2610 
 16 C       -8.9040     0.0660     0.4520 C.2   1 <1>   0.4480 
 17 C      -10.3190    -2.0250     0.2690 C.3   1 <1>  -0.1600 
 18 O       -8.1020     0.5770     1.1780 O.2   1 <1>  -0.5700 
 19 C      -10.0000     0.9010    -0.1880 C.3   1 <1>  -0.0990 
 20 C      -11.3980    -1.2020    -0.4530 C.3   1 <1>  -0.1600 
 21 C      -11.3830     0.2620     0.0090 C.3   1 <1>  -0.1600 
 22 H       -0.9390    -1.7470    -1.2300 H     1 <1>   0.1500 
 23 H       -6.5480    -0.6870    -0.8650 H     1 <1>   0.1500 
 24 H       -2.0720    -4.6220     0.5380 H     1 <1>   0.0800 
 25 H       -1.7760    -3.4440     1.7840 H     1 <1>   0.0800 
 26 H       -4.0830    -4.0700     1.7080 H     1 <1>   0.1500 
 27 H       -0.0280    -3.8940    -0.6470 H     1 <1>   0.0800 
 28 H        0.3200    -4.4090     0.9830 H     1 <1>   0.0800 
 29 H        0.2710    -2.7060     0.6110 H     1 <1>   0.0800 
 30 H       -6.4820    -3.8150     2.0310 H     1 <1>   0.1500 
 31 H       -8.6420    -1.5300    -0.9590 H     1 <1>   0.0800 
 32 H      -10.5430    -2.0500     1.3220 H     1 <1>   0.0800 
 33 H      -10.3270    -3.0340    -0.1040 H     1 <1>   0.0800 
 34 H       -9.7880     0.9970    -1.2380 H     1 <1>   0.0800 
 35 H       -9.9910     1.8860     0.2430 H     1 <1>   0.0800 
 36 H      -12.3660    -1.6300    -0.2520 H     1 <1>   0.0800 
 37 H      -11.2370    -1.2480    -1.5170 H     1 <1>   0.0800 
 38 H      -12.1220     0.8240    -0.5390 H     1 <1>   0.0800 
 39 H      -11.6460     0.3070     1.0530 H     1 <1>   0.0800 
@<TRIPOS>BOND
  1   1   2  2   
  2   2   3  1   
  3   2   4  1   
  4   3   5  1   
  5   4   6  2   
  6   4  22  1   
  7   5   7  ar  
  8   5   8  ar  
  9   6   7  1   
 10   6   9  1   
 11   7  10  ar  
 12   8  11  ar  
 13   8  23  1   
 14   9  12  1   
 15   9  24  1   
 16   9  25  1   
 17  10  13  ar  
 18  10  26  1   
 19  11  13  ar  
 20  11  14  1   
 21  12  27  1   
 22  12  28  1   
 23  12  29  1   
 24  13  30  1   
 25  14  15  1   
 26  15  16  1   
 27  15  17  1   
 28  15  31  1   
 29  16  18  2   
 30  16  19  1   
 31  17  20  1   
 32  17  32  1   
 33  17  33  1   
 34  19  21  1   
 35  19  34  1   
 36  19  35  1   
 37  20  21  1   
 38  20  36  1   
 39  20  37  1   
 40  21  38  1   
 41  21  39  1   
@<TRIPOS>SUBSTRUCTURE
  1 ****   8 GROUP 4 **** **** 0

# MOE 2024.06 (io_trps.svl 2023.06)
