@<TRIPOS>MOLECULE
NONAME
34 35 1 0 0 
SMALL
USER_CHARGES


@<TRIPOS>ATOM
  1 S        0.1220     0.3990    -0.6290 S.o2  1 <1>   1.3330 
  2 O        1.3330     1.1240    -0.9260 O.2   1 <1>  -0.6500 
  3 O       -1.1260     0.7430    -1.2660 O.2   1 <1>  -0.6500 
  4 N        0.3970    -1.2890    -0.9330 N.am  1 <1>  -0.6930 
  5 C       -0.1400     0.4040     1.1310 C.3   1 <1>  -0.1350 
  6 C        1.5250    -1.9600    -0.4830 C.ar  1 <1>   0.1990 
  7 C       -0.6880    -2.0370    -1.6150 C.3   1 <1>   0.1160 
  8 C        2.8050    -1.5540    -0.8420 C.ar  1 <1>  -0.1500 
  9 C        1.4070    -3.0680     0.3490 C.ar  1 <1>  -0.1500 
 10 C        3.9230    -2.2220    -0.3830 C.ar  1 <1>  -0.1500 
 11 C        2.5260    -3.7390     0.8050 C.ar  1 <1>  -0.1500 
 12 C        3.8170    -3.3400     0.4500 C.ar  1 <1>   0.0860 
 13 C        4.9780    -4.0630     0.9320 C.2   1 <1>   0.5440 
 14 O        4.9230    -4.6970     1.9700 O.2   1 <1>  -0.5700 
 15 N        6.1480    -4.0550     0.2210 N.am  1 <1>  -0.5790 
 16 C        7.3960    -4.7300     0.6040 C.3   1 <1>   0.0490 
 17 C        8.6870    -4.0920     0.2100 C.3   1 <1>  -0.2000 
 18 C        8.2230    -5.3410    -0.4780 C.3   1 <1>  -0.2000 
 19 H       -0.3450     1.4010     1.4680 H     1 <1>   0.0800 
 20 H        0.7350     0.0430     1.6360 H     1 <1>   0.0800 
 21 H       -0.9710    -0.2230     1.3840 H     1 <1>   0.0800 
 22 H       -0.9160    -1.5610    -2.5550 H     1 <1>   0.0800 
 23 H       -1.5730    -2.0390    -1.0030 H     1 <1>   0.0800 
 24 H       -0.3840    -3.0510    -1.8080 H     1 <1>   0.0800 
 25 H        2.9210    -0.7030    -1.4900 H     1 <1>   0.1500 
 26 H        0.4290    -3.4020     0.6450 H     1 <1>   0.1500 
 27 H        4.8940    -1.8600    -0.6720 H     1 <1>   0.1500 
 28 H        2.4090    -4.5920     1.4520 H     1 <1>   0.1500 
 29 H        6.1690    -3.6080    -0.6940 H     1 <1>   0.3700 
 30 H        7.3370    -5.2330     1.5570 H     1 <1>   0.1000 
 31 H        9.5220    -4.1640     0.8850 H     1 <1>   0.1000 
 32 H        8.6630    -3.1570    -0.3210 H     1 <1>   0.1000 
 33 H        7.8740    -5.2830    -1.4940 H     1 <1>   0.1000 
 34 H        8.7430    -6.2590    -0.2700 H     1 <1>   0.1000 
@<TRIPOS>BOND
  1   1   2  2   
  2   1   3  2   
  3   1   4  am  
  4   1   5  1   
  5   4   6  1   
  6   4   7  1   
  7   5  19  1   
  8   5  20  1   
  9   5  21  1   
 10   6   8  ar  
 11   6   9  ar  
 12   7  22  1   
 13   7  23  1   
 14   7  24  1   
 15   8  10  ar  
 16   8  25  1   
 17   9  11  ar  
 18   9  26  1   
 19  10  12  ar  
 20  10  27  1   
 21  11  12  ar  
 22  11  28  1   
 23  12  13  1   
 24  13  14  2   
 25  13  15  am  
 26  15  16  1   
 27  15  29  1   
 28  16  17  1   
 29  16  18  1   
 30  16  30  1   
 31  17  18  1   
 32  17  31  1   
 33  17  32  1   
 34  18  33  1   
 35  18  34  1   
@<TRIPOS>SUBSTRUCTURE
  1 ****  10 GROUP 4 **** **** 0

# MOE 2024.06 (io_trps.svl 2023.06)
