@<TRIPOS>MOLECULE
NONAME
47 49 1 0 0 
SMALL
USER_CHARGES


@<TRIPOS>ATOM
  1 S       -0.2040    -0.5540    -0.0570 S.3   1 <1>  -0.3710 
  2 C       -1.5640     0.6000     0.0630 C.2   1 <1>   0.6510 
  3 C       -0.9240    -2.1600     0.5650 C.3   1 <1>   0.1310 
  4 N       -2.6660     0.1360     0.5170 N.2   1 <1>  -0.6290 
  5 N       -1.3360     1.9000    -0.3420 N.am  1 <1>  -0.4200 
  6 C        0.0880    -3.2980     0.5360 C.2   1 <1>   0.5690 
  7 C       -3.7410     0.9900     0.6190 C.ar  1 <1>   0.1790 
  8 C       -2.3840     2.7940    -0.2670 C.2   1 <1>   0.5440 
  9 C       -0.0150     2.3640    -0.8590 C.3   1 <1>   0.1400 
 10 O       -0.2620    -4.3820     0.9350 O.2   1 <1>  -0.5700 
 11 N        1.3440    -3.0750     0.0690 N.am  1 <1>  -0.7300 
 12 C       -3.6480     2.3330     0.2370 C.ar  1 <1>   0.0860 
 13 C       -4.9460     0.5010     1.1140 C.ar  1 <1>  -0.1500 
 14 O       -2.2300     3.9510    -0.6250 O.2   1 <1>  -0.5700 
 15 C        0.0660     2.1370    -2.3690 C.3   1 <1>  -0.2400 
 16 C        2.4220    -4.0720    -0.0180 C.3   1 <1>   0.2200 
 17 C       -4.7760     3.1500     0.3630 C.ar  1 <1>  -0.1500 
 18 C       -6.0500     1.3190     1.2330 C.ar  1 <1>  -0.1500 
 19 C        3.5920    -3.6130     0.8580 C.3   1 <1>  -0.1600 
 20 C        2.8450    -4.2160    -1.4840 C.3   1 <1>  -0.1600 
 21 C       -5.9640     2.6510     0.8550 C.ar  1 <1>  -0.1500 
 22 C        4.7930    -4.5610     0.7210 C.3   1 <1>  -0.1600 
 23 C        4.0450    -5.1640    -1.6250 C.3   1 <1>  -0.1600 
 24 C        5.2180    -4.7090    -0.7470 C.3   1 <1>  -0.1600 
 25 H       -1.7620    -2.3990    -0.0620 H     1 <1>   0.0800 
 26 H       -1.2600    -1.9920     1.5710 H     1 <1>   0.0800 
 27 H        0.7890     1.8540    -0.3590 H     1 <1>   0.0800 
 28 H        0.1090     3.4130    -0.6510 H     1 <1>   0.0800 
 29 H        1.5820    -2.1350    -0.2520 H     1 <1>   0.3700 
 30 H       -5.0030    -0.5330     1.4040 H     1 <1>   0.1500 
 31 H       -0.0320     1.0920    -2.6040 H     1 <1>   0.0800 
 32 H        1.0170     2.4800    -2.7350 H     1 <1>   0.0800 
 33 H       -0.7080     2.6920    -2.8690 H     1 <1>   0.0800 
 34 H        2.0650    -5.0240     0.3410 H     1 <1>   0.0800 
 35 H       -4.7070     4.1840     0.0700 H     1 <1>   0.1500 
 36 H       -6.9770     0.9290     1.6170 H     1 <1>   0.1500 
 37 H        3.2760    -3.5880     1.8860 H     1 <1>   0.0800 
 38 H        3.8940    -2.6230     0.5670 H     1 <1>   0.0800 
 39 H        3.1140    -3.2520    -1.8780 H     1 <1>   0.0800 
 40 H        2.0190    -4.6010    -2.0550 H     1 <1>   0.0800 
 41 H       -6.8260     3.2910     0.9470 H     1 <1>   0.1500 
 42 H        4.5290    -5.5290     1.1130 H     1 <1>   0.0800 
 43 H        5.6190    -4.1850     1.3000 H     1 <1>   0.0800 
 44 H        4.3570    -5.2020    -2.6540 H     1 <1>   0.0800 
 45 H        3.7480    -6.1580    -1.3340 H     1 <1>   0.0800 
 46 H        6.0200    -5.4240    -0.8190 H     1 <1>   0.0800 
 47 H        5.5880    -3.7640    -1.1080 H     1 <1>   0.0800 
@<TRIPOS>BOND
  1   1   2  1   
  2   1   3  1   
  3   2   4  2   
  4   2   5  1   
  5   3   6  1   
  6   3  25  1   
  7   3  26  1   
  8   4   7  1   
  9   5   8  am  
 10   5   9  1   
 11   6  10  2   
 12   6  11  am  
 13   7  12  ar  
 14   7  13  ar  
 15   8  12  1   
 16   8  14  2   
 17   9  15  1   
 18   9  27  1   
 19   9  28  1   
 20  11  16  1   
 21  11  29  1   
 22  12  17  ar  
 23  13  18  ar  
 24  13  30  1   
 25  15  31  1   
 26  15  32  1   
 27  15  33  1   
 28  16  19  1   
 29  16  20  1   
 30  16  34  1   
 31  17  21  ar  
 32  17  35  1   
 33  18  21  ar  
 34  18  36  1   
 35  19  22  1   
 36  19  37  1   
 37  19  38  1   
 38  20  23  1   
 39  20  39  1   
 40  20  40  1   
 41  21  41  1   
 42  22  24  1   
 43  22  42  1   
 44  22  43  1   
 45  23  24  1   
 46  23  44  1   
 47  23  45  1   
 48  24  46  1   
 49  24  47  1   
@<TRIPOS>SUBSTRUCTURE
  1 ****   1 GROUP 4 **** **** 0

# MOE 2024.06 (io_trps.svl 2023.06)
