@<TRIPOS>MOLECULE
NONAME
40 41 1 0 0 
SMALL
USER_CHARGES


@<TRIPOS>ATOM
  1 O        0.4670    -0.6990     0.5620 O.3   1 <1>  -0.3630 
  2 C       -0.8030    -1.0160     0.2240 C.ar  1 <1>   0.0820 
  3 C        1.3820    -0.6100    -0.5090 C.3   1 <1>   0.1200 
  4 C       -1.7060    -0.0020    -0.0880 C.ar  1 <1>  -0.1440 
  5 C       -1.1970    -2.3520     0.2040 C.ar  1 <1>  -0.1440 
  6 C        2.7320    -0.1710     0.0440 C.3   1 <1>   0.1200 
  7 C       -2.9990    -0.3400    -0.4520 C.ar  1 <1>  -0.1500 
  8 C       -1.3030     1.4650    -0.0330 C.3   1 <1>  -0.0960 
  9 C       -2.4950    -2.6670    -0.1620 C.ar  1 <1>  -0.1500 
 10 C       -0.2320    -3.4680     0.5810 C.3   1 <1>  -0.0960 
 11 O        3.6520    -0.1160    -1.0250 O.3   1 <1>  -0.3630 
 12 C       -3.3920    -1.6660    -0.4920 C.ar  1 <1>  -0.1500 
 13 C        4.9420     0.1510    -0.7030 C.ar  1 <1>   0.0820 
 14 C        5.3530     1.3990    -0.2220 C.ar  1 <1>   0.0820 
 15 C        5.8630    -0.8660    -0.8860 C.ar  1 <1>  -0.1500 
 16 O        4.4230     2.3890    -0.0890 O.3   1 <1>  -0.3630 
 17 C        6.6970     1.5880     0.0920 C.ar  1 <1>  -0.1500 
 18 C        7.1960    -0.6650    -0.5750 C.ar  1 <1>  -0.1500 
 19 C        4.7940     3.7100     0.2360 C.3   1 <1>   0.0400 
 20 C        7.6100     0.5610    -0.0830 C.ar  1 <1>  -0.1500 
 21 H        1.0120     0.1120    -1.2150 H     1 <1>   0.0800 
 22 H        1.4570    -1.5770    -0.9710 H     1 <1>   0.0800 
 23 H        3.0950    -0.8800     0.7650 H     1 <1>   0.0800 
 24 H        2.6510     0.8050     0.4860 H     1 <1>   0.0800 
 25 H       -3.7090     0.4280    -0.7040 H     1 <1>   0.1500 
 26 H       -0.6830     1.6480     0.8270 H     1 <1>   0.0800 
 27 H       -2.1700     2.0970     0.0380 H     1 <1>   0.0800 
 28 H       -0.7550     1.7280    -0.9190 H     1 <1>   0.0800 
 29 H       -2.8170    -3.6930    -0.1900 H     1 <1>   0.1500 
 30 H        0.4380    -3.6630    -0.2360 H     1 <1>   0.0800 
 31 H       -0.7650    -4.3710     0.8150 H     1 <1>   0.0800 
 32 H        0.3440    -3.1830     1.4430 H     1 <1>   0.0800 
 33 H       -4.3980    -1.9190    -0.7760 H     1 <1>   0.1500 
 34 H        5.5320    -1.8130    -1.2720 H     1 <1>   0.1500 
 35 H        7.0560     2.5250     0.4720 H     1 <1>   0.1500 
 36 H        7.9090    -1.4590    -0.7160 H     1 <1>   0.1500 
 37 H        3.9070     4.3180     0.2200 H     1 <1>   0.0800 
 38 H        5.4950     4.0670    -0.4980 H     1 <1>   0.0800 
 39 H        5.2250     3.7200     1.2210 H     1 <1>   0.0800 
 40 H        8.6470     0.7160     0.1610 H     1 <1>   0.1500 
@<TRIPOS>BOND
  1   1   2  1   
  2   1   3  1   
  3   2   4  ar  
  4   2   5  ar  
  5   3   6  1   
  6   3  21  1   
  7   3  22  1   
  8   4   7  ar  
  9   4   8  1   
 10   5   9  ar  
 11   5  10  1   
 12   6  11  1   
 13   6  23  1   
 14   6  24  1   
 15   7  12  ar  
 16   7  25  1   
 17   8  26  1   
 18   8  27  1   
 19   8  28  1   
 20   9  12  ar  
 21   9  29  1   
 22  10  30  1   
 23  10  31  1   
 24  10  32  1   
 25  11  13  1   
 26  12  33  1   
 27  13  14  ar  
 28  13  15  ar  
 29  14  16  1   
 30  14  17  ar  
 31  15  18  ar  
 32  15  34  1   
 33  16  19  1   
 34  17  20  ar  
 35  17  35  1   
 36  18  20  ar  
 37  18  36  1   
 38  19  37  1   
 39  19  38  1   
 40  19  39  1   
 41  20  40  1   
@<TRIPOS>SUBSTRUCTURE
  1 ****   6 GROUP 4 **** **** 0

# MOE 2024.06 (io_trps.svl 2023.06)
