@<TRIPOS>MOLECULE
NONAME
30 30 1 0 0 
SMALL
USER_CHARGES


@<TRIPOS>ATOM
  1 O        2.3210     4.9660     1.5880 O.2   1 <1>  -0.5700 
  2 C        2.5380     4.3360     0.5680 C.2   1 <1>   0.8060 
  3 O        1.6090     4.3490    -0.4030 O.3   1 <1>  -0.4300 
  4 C        3.7350     3.5530     0.3270 C.2   1 <1>   0.1410 
  5 C        0.3690     5.0240    -0.3080 C.3   1 <1>   0.1200 
  6 N        4.9950     4.0610     0.4260 N.2   1 <1>  -0.5650 
  7 C        3.8110     2.2300    -0.0510 C.2   1 <1>  -0.2370 
  8 C       -0.9970     5.7130    -0.3150 C.3   1 <1>  -0.2400 
  9 C        5.7780     3.0910     0.1020 C.2   1 <1>   0.0060 
 10 N        5.1210     1.9610    -0.2020 N.pl3 1 <1>   0.0330 
 11 C        2.8040     1.2380    -0.2490 C.2   1 <1>   0.8050 
 12 C        7.2870     3.2030     0.0670 C.3   1 <1>  -0.0600 
 13 O        3.0610     0.1460    -0.7130 O.2   1 <1>  -0.5700 
 14 O        1.5540     1.5210     0.1140 O.3   1 <1>  -0.4300 
 15 C        0.5050     0.5960    -0.0520 C.3   1 <1>   0.1200 
 16 C       -0.7880     1.2710     0.3950 C.3   1 <1>  -0.2400 
 17 H        0.8390     5.9700    -0.0920 H     1 <1>   0.0800 
 18 H        0.1050     4.5240     0.6100 H     1 <1>   0.0800 
 19 H       -1.0570     6.4140    -1.1290 H     1 <1>   0.0800 
 20 H       -1.7810     4.9870    -0.4350 H     1 <1>   0.0800 
 21 H       -1.1610     6.2450     0.6070 H     1 <1>   0.0800 
 22 H        5.5200     1.0600    -0.4870 H     1 <1>   0.2700 
 23 H        7.5830     4.1980     0.3500 H     1 <1>   0.0800 
 24 H        7.6500     3.0050    -0.9250 H     1 <1>   0.0800 
 25 H        7.7260     2.5050     0.7560 H     1 <1>   0.0800 
 26 H        0.7170    -0.2730     0.5480 H     1 <1>   0.0800 
 27 H        0.4540     0.3170    -1.0920 H     1 <1>   0.0800 
 28 H       -0.7150     1.5660     1.4270 H     1 <1>   0.0800 
 29 H       -0.9830     2.1360    -0.2140 H     1 <1>   0.0800 
 30 H       -1.6100     0.5870     0.2910 H     1 <1>   0.0800 
@<TRIPOS>BOND
  1   1   2  2   
  2   2   3  1   
  3   2   4  1   
  4   3   5  1   
  5   4   6  1   
  6   4   7  2   
  7   5   8  1   
  8   5  17  1   
  9   5  18  1   
 10   6   9  2   
 11   7  10  1   
 12   7  11  1   
 13   8  19  1   
 14   8  20  1   
 15   8  21  1   
 16   9  10  1   
 17   9  12  1   
 18  10  22  1   
 19  11  13  2   
 20  11  14  1   
 21  12  23  1   
 22  12  24  1   
 23  12  25  1   
 24  14  15  1   
 25  15  16  1   
 26  15  26  1   
 27  15  27  1   
 28  16  28  1   
 29  16  29  1   
 30  16  30  1   
@<TRIPOS>SUBSTRUCTURE
  1 ****   4 GROUP 4 **** **** 0

# MOE 2024.06 (io_trps.svl 2023.06)
