@<TRIPOS>MOLECULE
NONAME
35 37 1 0 0 
SMALL
USER_CHARGES


@<TRIPOS>ATOM
  1 O       -0.3370    -0.1990     0.8950 O.3   1 <1>  -0.2800 
  2 C       -1.4640    -0.6450     0.3690 C.2   1 <1>  -0.0400 
  3 C        0.6180    -1.0540     0.5870 C.2   1 <1>  -0.0100 
  4 C       -1.2420    -1.8070    -0.2880 C.2   1 <1>  -0.1500 
  5 C       -2.7390     0.1660     0.5790 C.3   1 <1>   0.3700 
  6 C        0.1250    -2.0730    -0.1460 C.2   1 <1>  -0.1500 
  7 N       -3.8550    -0.4680    -0.1370 N.3   1 <1>  -0.9000 
  8 C       -2.5640     1.6400     0.1640 C.3   1 <1>  -0.0190 
  9 C       -5.0370     0.3720    -0.3980 C.3   1 <1>   0.3700 
 10 C       -3.8580     2.4030     0.4700 C.2   1 <1>   0.3280 
 11 C       -2.1220     1.8180    -1.3080 C.3   1 <1>  -0.2400 
 12 C       -6.2990    -0.4740    -0.3200 C.2   1 <1>  -0.0400 
 13 C       -5.1120     1.5520     0.5680 C.3   1 <1>  -0.0990 
 14 N       -3.9400     3.6540     0.6480 N.2   1 <1>  -0.5130 
 15 O       -7.4430     0.0530    -0.7200 O.3   1 <1>  -0.2800 
 16 C       -6.4940    -1.7420     0.1050 C.2   1 <1>  -0.1500 
 17 O       -2.8740     4.4350     0.5730 O.3   1 <1>  -0.3370 
 18 C       -8.3820    -0.8570    -0.5600 C.2   1 <1>  -0.0100 
 19 C       -7.8620    -1.9940    -0.0520 C.2   1 <1>  -0.1500 
 20 H        1.6190    -0.8610     0.9310 H     1 <1>   0.1500 
 21 H       -1.9440    -2.4290    -0.8140 H     1 <1>   0.1500 
 22 H       -2.9620     0.1410     1.6330 H     1 <1>   0.0800 
 23 H        0.6410    -2.9260    -0.5500 H     1 <1>   0.1500 
 24 H       -3.5020    -0.7930    -1.0420 H     1 <1>   0.3600 
 25 H       -1.7890     2.0460     0.7900 H     1 <1>   0.0800 
 26 H       -4.9680     0.7610    -1.4000 H     1 <1>   0.0800 
 27 H       -2.8320     1.3810    -1.9860 H     1 <1>   0.0800 
 28 H       -1.1660     1.3530    -1.4730 H     1 <1>   0.0800 
 29 H       -2.0300     2.8620    -1.5520 H     1 <1>   0.0800 
 30 H       -5.2330     1.1890     1.5710 H     1 <1>   0.0800 
 31 H       -5.9710     2.1540     0.3320 H     1 <1>   0.0800 
 32 H       -5.7640    -2.4330     0.4900 H     1 <1>   0.1500 
 33 H       -2.0360     4.0100     0.3040 H     1 <1>   0.4000 
 34 H       -9.3940    -0.6130    -0.8330 H     1 <1>   0.1500 
 35 H       -8.3600    -2.9160     0.1920 H     1 <1>   0.1500 
@<TRIPOS>BOND
  1   1   2  1   
  2   1   3  1   
  3   2   4  2   
  4   2   5  1   
  5   3   6  2   
  6   3  20  1   
  7   4   6  1   
  8   4  21  1   
  9   5   7  1   
 10   5   8  1   
 11   5  22  1   
 12   6  23  1   
 13   7   9  1   
 14   7  24  1   
 15   8  10  1   
 16   8  11  1   
 17   8  25  1   
 18   9  12  1   
 19   9  13  1   
 20   9  26  1   
 21  10  13  1   
 22  10  14  2   
 23  11  27  1   
 24  11  28  1   
 25  11  29  1   
 26  12  15  1   
 27  12  16  2   
 28  13  30  1   
 29  13  31  1   
 30  14  17  1   
 31  15  18  1   
 32  16  19  1   
 33  16  32  1   
 34  17  33  1   
 35  18  19  2   
 36  18  34  1   
 37  19  35  1   
@<TRIPOS>SUBSTRUCTURE
  1 ****   7 GROUP 4 **** **** 0

# MOE 2024.06 (io_trps.svl 2023.06)
