@<TRIPOS>MOLECULE
NONAME
29 29 1 0 0 
SMALL
USER_CHARGES


@<TRIPOS>ATOM
  1 S        0.8900    -0.3190    -0.9510 S.3   1 <1>  -0.3320 
  2 C        0.4510    -1.9040    -0.1890 C.ar  1 <1>   0.1020 
  3 C       -0.6540     0.4390    -1.6290 C.3   1 <1>  -0.0100 
  4 C        1.3950    -2.6070     0.5780 C.ar  1 <1>   0.0860 
  5 C       -0.8350    -2.3920    -0.3760 C.ar  1 <1>  -0.1500 
  6 C        2.7680    -2.1900     0.8140 C.2   1 <1>   0.5440 
  7 C        0.9640    -3.8050     1.1550 C.ar  1 <1>  -0.1500 
  8 C       -1.2200    -3.5850     0.2050 C.ar  1 <1>  -0.1500 
  9 O        3.2950    -2.4070     1.8900 O.2   1 <1>  -0.5700 
 10 N        3.5190    -1.5950    -0.1580 N.am  1 <1>  -0.7300 
 11 C       -0.3170    -4.2920     0.9750 C.ar  1 <1>  -0.1500 
 12 C        4.9170    -1.1450    -0.0120 C.3   1 <1>   0.1400 
 13 C        5.6400    -1.3230    -1.3470 C.3   1 <1>  -0.1600 
 14 C        7.1010    -0.8690    -1.2550 C.3   1 <1>  -0.2400 
 15 H       -0.4020     1.4210    -1.9860 H     1 <1>   0.0800 
 16 H       -1.3740     0.4990    -0.8320 H     1 <1>   0.0800 
 17 H       -1.0050    -0.1790    -2.4350 H     1 <1>   0.0800 
 18 H       -1.5540    -1.8650    -0.9700 H     1 <1>   0.1500 
 19 H        1.6580    -4.3660     1.7590 H     1 <1>   0.1500 
 20 H       -2.2180    -3.9640     0.0610 H     1 <1>   0.1500 
 21 H        3.0210    -1.2270    -0.9730 H     1 <1>   0.3700 
 22 H       -0.6100    -5.2200     1.4360 H     1 <1>   0.1500 
 23 H        5.4080    -1.7230     0.7540 H     1 <1>   0.0800 
 24 H        4.9250    -0.1090     0.2830 H     1 <1>   0.0800 
 25 H        5.1400    -0.7470    -2.1050 H     1 <1>   0.0800 
 26 H        5.6100    -2.3620    -1.6270 H     1 <1>   0.0800 
 27 H        7.1560     0.1720    -0.9890 H     1 <1>   0.0800 
 28 H        7.5890    -1.0080    -2.2030 H     1 <1>   0.0800 
 29 H        7.6260    -1.4450    -0.5130 H     1 <1>   0.0800 
@<TRIPOS>BOND
  1   1   2  1   
  2   1   3  1   
  3   2   4  ar  
  4   2   5  ar  
  5   3  15  1   
  6   3  16  1   
  7   3  17  1   
  8   4   6  1   
  9   4   7  ar  
 10   5   8  ar  
 11   5  18  1   
 12   6   9  2   
 13   6  10  am  
 14   7  11  ar  
 15   7  19  1   
 16   8  11  ar  
 17   8  20  1   
 18  10  12  1   
 19  10  21  1   
 20  11  22  1   
 21  12  13  1   
 22  12  23  1   
 23  12  24  1   
 24  13  14  1   
 25  13  25  1   
 26  13  26  1   
 27  14  27  1   
 28  14  28  1   
 29  14  29  1   
@<TRIPOS>SUBSTRUCTURE
  1 ****   4 GROUP 4 **** **** 0

# MOE 2024.06 (io_trps.svl 2023.06)
