@<TRIPOS>MOLECULE
NONAME
33 33 1 0 0 
SMALL
USER_CHARGES


@<TRIPOS>ATOM
  1 O        0.5030     1.2680    -1.1160 O.2   1 <1>  -0.5700 
  2 C        0.4100     1.8780    -0.0690 C.2   1 <1>   0.5440 
  3 N       -0.7400     1.7410     0.6580 N.am  1 <1>  -0.7300 
  4 C        1.4960     2.7210     0.4030 C.ar  1 <1>   0.0860 
  5 C       -1.8790     0.8690     0.2730 C.3   1 <1>   0.1400 
  6 C        2.8140     2.4480     0.0390 C.ar  1 <1>  -0.1500 
  7 C        1.2690     3.8260     1.2280 C.ar  1 <1>  -0.1500 
  8 C       -2.7710     1.5840    -0.7440 C.3   1 <1>   0.1200 
  9 C        3.8700     3.2310     0.4890 C.ar  1 <1>   0.0820 
 10 C        2.3130     4.6110     1.6830 C.ar  1 <1>  -0.1500 
 11 O       -3.8250     0.7530    -1.0940 O.3   1 <1>  -0.6800 
 12 O        5.1730     3.0150     0.1730 O.3   1 <1>  -0.3630 
 13 C        3.6110     4.3120     1.3140 C.ar  1 <1>  -0.1500 
 14 C        5.6040     1.9600    -0.6580 C.3   1 <1>   0.2000 
 15 C        5.6880     0.6770     0.1730 C.3   1 <1>  -0.2400 
 16 C        6.9760     2.3520    -1.2020 C.3   1 <1>  -0.2400 
 17 H       -0.8050     2.1770     1.5780 H     1 <1>   0.3700 
 18 H       -2.4510     0.6230     1.1510 H     1 <1>   0.0800 
 19 H       -1.4940    -0.0390    -0.1600 H     1 <1>   0.0800 
 20 H        2.9850     1.6050    -0.6030 H     1 <1>   0.1500 
 21 H        0.2650     4.0820     1.5140 H     1 <1>   0.1500 
 22 H       -2.2180     1.8250    -1.6360 H     1 <1>   0.0800 
 23 H       -3.1860     2.4800    -0.3170 H     1 <1>   0.0800 
 24 H        2.1190     5.4580     2.3190 H     1 <1>   0.1500 
 25 H       -3.5070     0.0170    -1.6530 H     1 <1>   0.4000 
 26 H        4.4310     4.9150     1.6610 H     1 <1>   0.1500 
 27 H        4.9170     1.8570    -1.4800 H     1 <1>   0.0800 
 28 H        6.3710     0.8100     0.9930 H     1 <1>   0.0800 
 29 H        6.0410    -0.1320    -0.4390 H     1 <1>   0.0800 
 30 H        4.7230     0.4090     0.5600 H     1 <1>   0.0800 
 31 H        7.6720     2.4950    -0.3950 H     1 <1>   0.0800 
 32 H        6.8970     3.2620    -1.7690 H     1 <1>   0.0800 
 33 H        7.3500     1.5790    -1.8480 H     1 <1>   0.0800 
@<TRIPOS>BOND
  1   1   2  2   
  2   2   3  am  
  3   2   4  1   
  4   3   5  1   
  5   3  17  1   
  6   4   6  ar  
  7   4   7  ar  
  8   5   8  1   
  9   5  18  1   
 10   5  19  1   
 11   6   9  ar  
 12   6  20  1   
 13   7  10  ar  
 14   7  21  1   
 15   8  11  1   
 16   8  22  1   
 17   8  23  1   
 18   9  12  1   
 19   9  13  ar  
 20  10  13  ar  
 21  10  24  1   
 22  11  25  1   
 23  12  14  1   
 24  13  26  1   
 25  14  15  1   
 26  14  16  1   
 27  14  27  1   
 28  15  28  1   
 29  15  29  1   
 30  15  30  1   
 31  16  31  1   
 32  16  32  1   
 33  16  33  1   
@<TRIPOS>SUBSTRUCTURE
  1 ****   4 GROUP 4 **** **** 0

# MOE 2024.06 (io_trps.svl 2023.06)
