@<TRIPOS>MOLECULE
NONAME
38 40 1 0 0 
SMALL
USER_CHARGES


@<TRIPOS>ATOM
  1 BR       1.0370    -3.2220    -2.0850 Br    1 <1>  -0.1110 
  2 C       -0.5080    -3.0860    -0.9440 C.ar  1 <1>   0.1110 
  3 C       -1.7600    -3.0590    -1.5200 C.ar  1 <1>  -0.1500 
  4 C       -0.3130    -3.0200     0.4260 C.ar  1 <1>  -0.1500 
  5 C       -2.8840    -2.9610    -0.7000 C.ar  1 <1>   0.0280 
  6 C       -1.4220    -2.9220     1.2440 C.ar  1 <1>  -0.1500 
  7 C       -2.6940    -2.8940     0.6860 C.ar  1 <1>   0.0830 
  8 C       -4.2180    -2.9260    -1.1910 C.2   1 <1>  -0.1780 
  9 O       -3.7640    -2.7980     1.5010 O.3   1 <1>  -0.2320 
 10 C       -5.2870    -2.8300    -0.3490 C.2   1 <1>   0.0290 
 11 C       -5.0310    -2.7590     1.0700 C.2   1 <1>   0.7060 
 12 C       -6.6450    -2.7970    -0.8510 C.2   1 <1>   0.6160 
 13 O       -5.8820    -2.6630     1.9330 O.2   1 <1>  -0.5700 
 14 O       -6.8360    -2.7600    -2.0520 O.2   1 <1>  -0.5700 
 15 N       -7.7430    -2.8030    -0.0450 N.am  1 <1>  -0.7300 
 16 C       -9.1520    -2.6940    -0.4720 C.3   1 <1>   0.2200 
 17 C       -9.6580    -1.2580    -0.1910 C.3   1 <1>   0.2000 
 18 C       -9.9240    -3.7950     0.2620 C.3   1 <1>  -0.2400 
 19 O       -9.6340    -0.9670     1.1740 O.3   1 <1>  -0.5600 
 20 C      -11.0850    -0.9430    -0.6200 C.3   1 <1>  -0.1600 
 21 C      -10.5130     0.0720     1.4760 C.3   1 <1>   0.1200 
 22 C      -11.4340     0.2370     0.2680 C.3   1 <1>  -0.1600 
 23 H       -1.8660    -3.1130    -2.5890 H     1 <1>   0.1500 
 24 H        0.6830    -3.0440     0.8330 H     1 <1>   0.1500 
 25 H       -1.3110    -2.8680     2.3140 H     1 <1>   0.1500 
 26 H       -4.3510    -2.9800    -2.2590 H     1 <1>   0.1500 
 27 H       -7.6100    -2.6610     0.9680 H     1 <1>   0.3700 
 28 H       -9.2170    -2.8760    -1.5310 H     1 <1>   0.0800 
 29 H       -8.9930    -0.5610    -0.6720 H     1 <1>   0.0800 
 30 H       -9.9280    -3.6080     1.3210 H     1 <1>   0.0800 
 31 H       -9.4680    -4.7500     0.0730 H     1 <1>   0.0800 
 32 H      -10.9390    -3.8400    -0.0820 H     1 <1>   0.0800 
 33 H      -11.7400    -1.7660    -0.4030 H     1 <1>   0.0800 
 34 H      -11.1450    -0.7060    -1.6680 H     1 <1>   0.0800 
 35 H       -9.9380     0.9620     1.6630 H     1 <1>   0.0800 
 36 H      -11.0610    -0.2050     2.3600 H     1 <1>   0.0800 
 37 H      -12.4700     0.2390     0.5560 H     1 <1>   0.0800 
 38 H      -11.2050     1.1650    -0.2270 H     1 <1>   0.0800 
@<TRIPOS>BOND
  1   1   2  1   
  2   2   3  ar  
  3   2   4  ar  
  4   3   5  ar  
  5   3  23  1   
  6   4   6  ar  
  7   4  24  1   
  8   5   7  ar  
  9   5   8  1   
 10   6   7  ar  
 11   6  25  1   
 12   7   9  1   
 13   8  10  2   
 14   8  26  1   
 15   9  11  1   
 16  10  11  1   
 17  10  12  1   
 18  11  13  2   
 19  12  14  2   
 20  12  15  am  
 21  15  16  1   
 22  15  27  1   
 23  16  17  1   
 24  16  18  1   
 25  16  28  1   
 26  17  19  1   
 27  17  20  1   
 28  17  29  1   
 29  18  30  1   
 30  18  31  1   
 31  18  32  1   
 32  19  21  1   
 33  20  22  1   
 34  20  33  1   
 35  20  34  1   
 36  21  22  1   
 37  21  35  1   
 38  21  36  1   
 39  22  37  1   
 40  22  38  1   
@<TRIPOS>SUBSTRUCTURE
  1 ****  10 GROUP 4 **** **** 0

# MOE 2024.06 (io_trps.svl 2023.06)
