@<TRIPOS>MOLECULE
NONAME
28 30 1 0 0 
SMALL
USER_CHARGES


@<TRIPOS>ATOM
  1 BR      -0.5790    -0.3880    -0.4340 Br    1 <1>  -0.1110 
  2 C       -0.1000     1.4690    -0.2440 C.ar  1 <1>   0.1110 
  3 C        1.2500     1.8030    -0.1510 C.ar  1 <1>  -0.1520 
  4 C       -1.0810     2.4280    -0.2030 C.ar  1 <1>  -0.1500 
  5 N        2.3870     1.0380    -0.1650 N.pl3 1 <1>   0.0330 
  6 C        1.6110     3.1400    -0.0130 C.ar  1 <1>   0.0000 
  7 C       -0.7180     3.7770    -0.0640 C.ar  1 <1>  -0.1440 
  8 C        3.4670     1.8720    -0.0350 C.2   1 <1>  -0.2370 
  9 C        3.0150     3.1530     0.0520 C.2   1 <1>  -0.1810 
 10 C        0.6130     4.1260     0.0300 C.ar  1 <1>  -0.1500 
 11 C       -1.8110     4.8290    -0.0200 C.3   1 <1>  -0.0970 
 12 C        4.8360     1.4710     0.0070 C.2   1 <1>   0.5940 
 13 C        3.9520     4.3370     0.1990 C.3   1 <1>   0.0210 
 14 O        5.2060     0.3310    -0.1000 O.2   1 <1>  -0.5700 
 15 C        5.8510     2.5870     0.2200 C.3   1 <1>  -0.0990 
 16 C        5.3600     3.9580    -0.3100 C.3   1 <1>  -0.1600 
 17 H       -2.1160     2.1490    -0.2770 H     1 <1>   0.1500 
 18 H        2.4320     0.0170    -0.2540 H     1 <1>   0.2700 
 19 H        0.9140     5.1510     0.1370 H     1 <1>   0.1500 
 20 H       -2.3840     4.7990    -0.9290 H     1 <1>   0.0800 
 21 H       -1.3930     5.8130     0.0900 H     1 <1>   0.0800 
 22 H       -2.4670     4.6400     0.8120 H     1 <1>   0.0800 
 23 H        3.9980     4.6170     1.2370 H     1 <1>   0.0800 
 24 H        3.5750     5.1730    -0.3620 H     1 <1>   0.0800 
 25 H        6.7680     2.3190    -0.2710 H     1 <1>   0.0800 
 26 H        6.0460     2.6570     1.2740 H     1 <1>   0.0800 
 27 H        6.0620     4.7280    -0.0410 H     1 <1>   0.0800 
 28 H        5.3240     3.9100    -1.3860 H     1 <1>   0.0800 
@<TRIPOS>BOND
  1   1   2  1   
  2   2   3  ar  
  3   2   4  ar  
  4   3   5  1   
  5   3   6  ar  
  6   4   7  ar  
  7   4  17  1   
  8   5   8  1   
  9   5  18  1   
 10   6   9  1   
 11   6  10  ar  
 12   7  10  ar  
 13   7  11  1   
 14   8   9  2   
 15   8  12  1   
 16   9  13  1   
 17  10  19  1   
 18  11  20  1   
 19  11  21  1   
 20  11  22  1   
 21  12  14  2   
 22  12  15  1   
 23  13  16  1   
 24  13  23  1   
 25  13  24  1   
 26  15  16  1   
 27  15  25  1   
 28  15  26  1   
 29  16  27  1   
 30  16  28  1   
@<TRIPOS>SUBSTRUCTURE
  1 ****   6 GROUP 4 **** **** 0

# MOE 2024.06 (io_trps.svl 2023.06)
