@<TRIPOS>MOLECULE
NONAME
33 35 1 0 0 
SMALL
USER_CHARGES


@<TRIPOS>ATOM
  1 BR       0.4450     0.3900    -0.5740 Br    1 <1>  -0.1110 
  2 C        1.3960    -1.2150    -0.0910 C.ar  1 <1>   0.1110 
  3 C        0.7670    -2.4320    -0.2340 C.ar  1 <1>  -0.1500 
  4 C        2.6870    -1.1020     0.3870 C.ar  1 <1>  -0.1500 
  5 C        1.4400    -3.6060     0.1060 C.ar  1 <1>   0.0000 
  6 C        3.3580    -2.2590     0.7310 C.ar  1 <1>  -0.1500 
  7 C        0.8070    -4.8950    -0.0320 C.ar  1 <1>   0.3100 
  8 C        2.7540    -3.5070     0.5940 C.ar  1 <1>   0.1000 
  9 N       -0.4820    -5.0250     0.3000 N.ar  1 <1>  -0.3100 
 10 C        1.5080    -5.9980    -0.5260 C.ar  1 <1>   0.3920 
 11 N        3.4700    -4.6320     0.9840 N.pl3 1 <1>  -0.8690 
 12 N       -1.0280    -6.2020     0.1400 N.ar  1 <1>  -0.3100 
 13 O        2.7870    -5.8880    -0.9010 O.3   1 <1>  -0.3630 
 14 N        0.9700    -7.1880    -0.7060 N.ar  1 <1>  -0.6200 
 15 C        3.7940    -5.7260     0.0610 C.3   1 <1>   0.6490 
 16 C       -0.2890    -7.2050    -0.3450 C.ar  1 <1>   0.7220 
 17 C        5.0730    -5.3710    -0.6800 C.3   1 <1>  -0.2400 
 18 C        3.9500    -7.0140     0.8590 C.3   1 <1>  -0.2400 
 19 S       -1.1140    -8.7810    -0.5310 S.3   1 <1>  -0.3310 
 20 C       -2.8440    -8.4950     0.0580 C.3   1 <1>  -0.0100 
 21 H       -0.2420    -2.4700    -0.6070 H     1 <1>   0.1500 
 22 H        3.1460    -0.1350     0.4880 H     1 <1>   0.1500 
 23 H        4.3620    -2.1950     1.1100 H     1 <1>   0.1500 
 24 H        4.2900    -4.4310     1.5590 H     1 <1>   0.4000 
 25 H        4.9350    -4.4600    -1.2340 H     1 <1>   0.0800 
 26 H        5.3270    -6.1600    -1.3640 H     1 <1>   0.0800 
 27 H        5.8850    -5.2450     0.0110 H     1 <1>   0.0800 
 28 H        3.0590    -7.2150     1.4250 H     1 <1>   0.0800 
 29 H        4.7780    -6.9340     1.5370 H     1 <1>   0.0800 
 30 H        4.1340    -7.8360     0.1920 H     1 <1>   0.0800 
 31 H       -3.3780    -9.4240    -0.0330 H     1 <1>   0.0800 
 32 H       -3.2850    -7.7350    -0.5620 H     1 <1>   0.0800 
 33 H       -2.7970    -8.1770     1.0840 H     1 <1>   0.0800 
@<TRIPOS>BOND
  1   1   2  1   
  2   2   3  ar  
  3   2   4  ar  
  4   3   5  ar  
  5   3  21  1   
  6   4   6  ar  
  7   4  22  1   
  8   5   7  1   
  9   5   8  ar  
 10   6   8  ar  
 11   6  23  1   
 12   7   9  ar  
 13   7  10  ar  
 14   8  11  1   
 15   9  12  ar  
 16  10  13  1   
 17  10  14  ar  
 18  11  15  1   
 19  11  24  1   
 20  12  16  ar  
 21  13  15  1   
 22  14  16  ar  
 23  15  17  1   
 24  15  18  1   
 25  16  19  1   
 26  17  25  1   
 27  17  26  1   
 28  17  27  1   
 29  18  28  1   
 30  18  29  1   
 31  18  30  1   
 32  19  20  1   
 33  20  31  1   
 34  20  32  1   
 35  20  33  1   
@<TRIPOS>SUBSTRUCTURE
  1 ****   7 GROUP 4 **** **** 0

# MOE 2024.06 (io_trps.svl 2023.06)
