@<TRIPOS>MOLECULE
NONAME
47 47 1 0 0 
SMALL
USER_CHARGES


@<TRIPOS>ATOM
  1 P       -0.4840     0.2550    -0.7090 P.3   1 <1>   1.2420 
  2 O       -0.7550     0.8240    -2.0310 O.2   1 <1>  -0.7000 
  3 O       -1.4580     0.8090     0.4530 O.3   1 <1>  -0.5510 
  4 O       -0.7480    -1.3340    -0.6800 O.3   1 <1>  -0.5510 
  5 C        1.2160     0.5550    -0.1160 C.3   1 <1>   0.3440 
  6 C       -2.7200     1.3610     0.2750 C.3   1 <1>   0.2000 
  7 C       -0.5730    -2.1160     0.4450 C.3   1 <1>   0.2000 
  8 O        1.5170     0.1430     1.1940 O.3   1 <1>  -0.6800 
  9 C        1.6510     2.0200    -0.1550 C.ar  1 <1>  -0.1440 
 10 C       -3.6210     0.4600    -0.5730 C.3   1 <1>  -0.2400 
 11 C       -2.5970     2.7770    -0.2900 C.3   1 <1>  -0.2400 
 12 C        0.6780    -2.9670     0.2350 C.3   1 <1>  -0.2400 
 13 C       -1.8080    -3.0000     0.5840 C.3   1 <1>  -0.2400 
 14 C        0.9950     2.9770     0.6100 C.ar  1 <1>  -0.1500 
 15 C        2.7080     2.4140    -0.9650 C.ar  1 <1>  -0.1500 
 16 C        1.3760     4.3060     0.5640 C.ar  1 <1>   0.0830 
 17 C        3.1090     3.7390    -1.0010 C.ar  1 <1>  -0.1500 
 18 O        0.6520     5.1850     1.2990 O.3   1 <1>  -0.3630 
 19 C        2.4630     4.6890    -0.2300 C.ar  1 <1>   0.0830 
 20 C       -0.0800     6.1480     0.5740 C.3   1 <1>   0.0400 
 21 O        2.9280     5.9610    -0.2830 O.3   1 <1>  -0.3630 
 22 C        3.4870     6.4750     0.9050 C.3   1 <1>   0.0400 
 23 H        1.8870     0.0000    -0.7430 H     1 <1>   0.0800 
 24 H       -3.1500     1.4340     1.2600 H     1 <1>   0.0800 
 25 H       -0.4760    -1.4890     1.3170 H     1 <1>   0.0800 
 26 H        1.3120     0.8790     1.8040 H     1 <1>   0.4000 
 27 H       -3.2840     0.4130    -1.5930 H     1 <1>   0.0800 
 28 H       -4.6200     0.8560    -0.5770 H     1 <1>   0.0800 
 29 H       -3.6560    -0.5300    -0.1600 H     1 <1>   0.0800 
 30 H       -2.1980     2.7680    -1.2880 H     1 <1>   0.0800 
 31 H       -1.9700     3.3770     0.3420 H     1 <1>   0.0800 
 32 H       -3.5690     3.2330    -0.3290 H     1 <1>   0.0800 
 33 H        0.5740    -3.5750    -0.6460 H     1 <1>   0.0800 
 34 H        0.8240    -3.6130     1.0810 H     1 <1>   0.0800 
 35 H        1.5500    -2.3480     0.1380 H     1 <1>   0.0800 
 36 H       -1.9590    -3.5790    -0.3100 H     1 <1>   0.0800 
 37 H       -2.6760    -2.3950     0.7680 H     1 <1>   0.0800 
 38 H       -1.6880    -3.6720     1.4130 H     1 <1>   0.0800 
 39 H        0.1700     2.7110     1.2460 H     1 <1>   0.1500 
 40 H        3.2290     1.6950    -1.5730 H     1 <1>   0.1500 
 41 H        3.9300     4.0420    -1.6260 H     1 <1>   0.1500 
 42 H       -0.6900     5.6450    -0.1560 H     1 <1>   0.0800 
 43 H        0.6010     6.8230     0.0880 H     1 <1>   0.0800 
 44 H       -0.7010     6.6890     1.2650 H     1 <1>   0.0800 
 45 H        3.9040     7.4420     0.6900 H     1 <1>   0.0800 
 46 H        4.2600     5.8070     1.2430 H     1 <1>   0.0800 
 47 H        2.7190     6.5650     1.6520 H     1 <1>   0.0800 
@<TRIPOS>BOND
  1   1   2  2   
  2   1   3  1   
  3   1   4  1   
  4   1   5  1   
  5   3   6  1   
  6   4   7  1   
  7   5   8  1   
  8   5   9  1   
  9   5  23  1   
 10   6  10  1   
 11   6  11  1   
 12   6  24  1   
 13   7  12  1   
 14   7  13  1   
 15   7  25  1   
 16   8  26  1   
 17   9  14  ar  
 18   9  15  ar  
 19  10  27  1   
 20  10  28  1   
 21  10  29  1   
 22  11  30  1   
 23  11  31  1   
 24  11  32  1   
 25  12  33  1   
 26  12  34  1   
 27  12  35  1   
 28  13  36  1   
 29  13  37  1   
 30  13  38  1   
 31  14  16  ar  
 32  14  39  1   
 33  15  17  ar  
 34  15  40  1   
 35  16  18  1   
 36  16  19  ar  
 37  17  19  ar  
 38  17  41  1   
 39  18  20  1   
 40  19  21  1   
 41  20  42  1   
 42  20  43  1   
 43  20  44  1   
 44  21  22  1   
 45  22  45  1   
 46  22  46  1   
 47  22  47  1   
@<TRIPOS>SUBSTRUCTURE
  1 ****   9 GROUP 4 **** **** 0

# MOE 2024.06 (io_trps.svl 2023.06)
