@<TRIPOS>MOLECULE
NONAME
41 42 1 0 0 
SMALL
USER_CHARGES


@<TRIPOS>ATOM
  1 O       -0.1820    -1.1770     0.5590 O.2   1 <1>  -0.5700 
  2 C       -0.5390    -2.2740     0.1710 C.2   1 <1>   0.7800 
  3 O        0.3680    -3.2400     0.0080 O.3   1 <1>  -0.4300 
  4 N       -1.8480    -2.5700    -0.1120 N.am  1 <1>  -0.6600 
  5 C        1.7310    -3.0040     0.2770 C.3   1 <1>   0.1200 
  6 C       -2.2950    -3.9040    -0.5950 C.3   1 <1>   0.1400 
  7 C       -2.9230    -1.5520     0.0380 C.3   1 <1>   0.1400 
  8 C        2.4990    -4.2920    -0.0040 C.3   1 <1>  -0.2400 
  9 C       -3.3810    -4.4470     0.3360 C.3   1 <1>  -0.1600 
 10 C       -4.0140    -2.0900     0.9650 C.3   1 <1>  -0.1600 
 11 C       -4.5250    -3.4420     0.4730 C.3   1 <1>   0.2890 
 12 N       -5.5060    -3.9570     1.4420 N.pl3 1 <1>  -0.8690 
 13 C       -6.5140    -4.7920     0.9810 C.ar  1 <1>   0.1000 
 14 C       -7.4220    -4.3670     0.0200 C.ar  1 <1>  -0.1500 
 15 C       -6.6330    -6.0810     1.4830 C.ar  1 <1>  -0.1500 
 16 C       -8.4140    -5.2130    -0.4410 C.ar  1 <1>  -0.1500 
 17 C       -7.6240    -6.9300     1.0250 C.ar  1 <1>  -0.1500 
 18 C       -8.5210    -6.5020     0.0580 C.ar  1 <1>  -0.1440 
 19 C       -9.6080    -7.4330    -0.4470 C.3   1 <1>  -0.0970 
 20 H        1.8300    -2.7110     1.3090 H     1 <1>   0.0800 
 21 H        2.0710    -2.2040    -0.3600 H     1 <1>   0.0800 
 22 H       -1.4750    -4.6000    -0.6310 H     1 <1>   0.0800 
 23 H       -2.6860    -3.8010    -1.5930 H     1 <1>   0.0800 
 24 H       -3.3370    -1.3360    -0.9320 H     1 <1>   0.0800 
 25 H       -2.5280    -0.6360     0.4430 H     1 <1>   0.0800 
 26 H        2.1420    -5.0820     0.6330 H     1 <1>   0.0800 
 27 H        3.5450    -4.1410     0.1920 H     1 <1>   0.0800 
 28 H        2.3790    -4.5770    -1.0340 H     1 <1>   0.0800 
 29 H       -2.9440    -4.6450     1.2980 H     1 <1>   0.0800 
 30 H       -3.7610    -5.3690    -0.0650 H     1 <1>   0.0800 
 31 H       -4.8300    -1.3910     0.9980 H     1 <1>   0.0800 
 32 H       -3.6100    -2.1870     1.9570 H     1 <1>   0.0800 
 33 H       -4.9960    -3.3120    -0.4870 H     1 <1>   0.0800 
 34 H       -5.0360    -4.3010     2.2830 H     1 <1>   0.4000 
 35 H       -7.3520    -3.3650    -0.3580 H     1 <1>   0.1500 
 36 H       -5.9440    -6.4210     2.2330 H     1 <1>   0.1500 
 37 H       -9.1050    -4.8650    -1.1870 H     1 <1>   0.1500 
 38 H       -7.6960    -7.9260     1.4230 H     1 <1>   0.1500 
 39 H      -10.4780    -6.8720    -0.7350 H     1 <1>   0.0800 
 40 H       -9.8940    -8.1290     0.3210 H     1 <1>   0.0800 
 41 H       -9.2500    -7.9820    -1.2990 H     1 <1>   0.0800 
@<TRIPOS>BOND
  1   1   2  2   
  2   2   3  1   
  3   2   4  am  
  4   3   5  1   
  5   4   6  1   
  6   4   7  1   
  7   5   8  1   
  8   5  20  1   
  9   5  21  1   
 10   6   9  1   
 11   6  22  1   
 12   6  23  1   
 13   7  10  1   
 14   7  24  1   
 15   7  25  1   
 16   8  26  1   
 17   8  27  1   
 18   8  28  1   
 19   9  11  1   
 20   9  29  1   
 21   9  30  1   
 22  10  11  1   
 23  10  31  1   
 24  10  32  1   
 25  11  12  1   
 26  11  33  1   
 27  12  13  1   
 28  12  34  1   
 29  13  14  ar  
 30  13  15  ar  
 31  14  16  ar  
 32  14  35  1   
 33  15  17  ar  
 34  15  36  1   
 35  16  18  ar  
 36  16  37  1   
 37  17  18  ar  
 38  17  38  1   
 39  18  19  1   
 40  19  39  1   
 41  19  40  1   
 42  19  41  1   
@<TRIPOS>SUBSTRUCTURE
  1 ****   9 GROUP 4 **** **** 0

# MOE 2024.06 (io_trps.svl 2023.06)
