@<TRIPOS>MOLECULE
NONAME
49 51 1 0 0 
SMALL
USER_CHARGES


@<TRIPOS>ATOM
  1 O       -0.4290     1.3800     1.9490 O.2   1 <1>  -0.5700 
  2 C       -0.8330     2.1360     1.0950 C.2   1 <1>   0.5690 
  3 N       -0.0590     2.7740     0.1630 N.am  1 <1>  -0.2370 
  4 C       -2.3070     2.5590     0.9830 C.3   1 <1>   0.2510 
  5 C        1.3130     2.5170    -0.0650 C.ar  1 <1>   0.1170 
  6 C       -0.8150     3.7060    -0.4930 C.2   1 <1>   0.5690 
  7 N       -3.2490     1.5300     0.4520 N.3   1 <1>  -0.8100 
  8 C       -2.2390     3.7330    -0.0030 C.3   1 <1>  -0.0990 
  9 C        2.2270     3.5590    -0.1880 C.ar  1 <1>  -0.1500 
 10 C        1.7810     1.2120    -0.1720 C.ar  1 <1>  -0.1500 
 11 O       -0.4380     4.4660    -1.3480 O.2   1 <1>  -0.5700 
 12 C       -3.0250     0.1920     1.0490 C.3   1 <1>   0.1100 
 13 C       -4.6570     1.9340     0.5930 C.3   1 <1>   0.1100 
 14 C        3.5700     3.3100    -0.4110 C.ar  1 <1>  -0.1430 
 15 C        3.1220     0.9480    -0.3930 C.ar  1 <1>  -0.1430 
 16 C       -4.1710    -0.7910     0.7520 C.3   1 <1>  -0.1600 
 17 C       -5.5400     1.0500    -0.2990 C.3   1 <1>  -0.1600 
 18 C        4.0130     2.0010    -0.5110 C.ar  1 <1>  -0.1500 
 19 C        4.5530     4.4590    -0.5450 C.3   1 <1>  -0.0970 
 20 C        3.6190    -0.4820    -0.5000 C.3   1 <1>  -0.0970 
 21 C       -4.9750    -0.3750    -0.4920 C.3   1 <1>  -0.0190 
 22 C       -6.0600    -1.3850    -0.8490 C.2   1 <1>   0.6590 
 23 O       -6.0770    -1.9430    -1.9160 O.2   1 <1>  -0.5700 
 24 O       -6.9820    -1.6170     0.0800 O.3   1 <1>  -0.4300 
 25 C       -8.0350    -2.5340    -0.1350 C.3   1 <1>   0.0400 
 26 H       -2.6390     2.8910     1.9510 H     1 <1>   0.0800 
 27 H       -2.4220     4.6660     0.4960 H     1 <1>   0.0800 
 28 H       -2.9050     3.6190    -0.8380 H     1 <1>   0.0800 
 29 H        1.8820     4.5740    -0.1120 H     1 <1>   0.1500 
 30 H        1.0880     0.3960    -0.0740 H     1 <1>   0.1500 
 31 H       -2.9000     0.2750     2.1170 H     1 <1>   0.0800 
 32 H       -2.1140    -0.2140     0.6410 H     1 <1>   0.0800 
 33 H       -4.7970     2.9640     0.3110 H     1 <1>   0.0800 
 34 H       -4.9550     1.8280     1.6240 H     1 <1>   0.0800 
 35 H       -4.8270    -0.8270     1.6050 H     1 <1>   0.0800 
 36 H       -3.7650    -1.7780     0.6200 H     1 <1>   0.0800 
 37 H       -5.6460     1.5130    -1.2640 H     1 <1>   0.0800 
 38 H       -6.5200     1.0080     0.1430 H     1 <1>   0.0800 
 39 H        5.0560     1.8020    -0.6790 H     1 <1>   0.1500 
 40 H        4.0480     5.3510    -0.8720 H     1 <1>   0.0800 
 41 H        5.3140     4.2180    -1.2650 H     1 <1>   0.0800 
 42 H        5.0190     4.6510     0.4050 H     1 <1>   0.0800 
 43 H        2.8110    -1.1490    -0.7410 H     1 <1>   0.0800 
 44 H        4.0520    -0.7860     0.4350 H     1 <1>   0.0800 
 45 H        4.3640    -0.5600    -1.2720 H     1 <1>   0.0800 
 46 H       -4.2870    -0.3450    -1.3190 H     1 <1>   0.0800 
 47 H       -8.6530    -2.5570     0.7450 H     1 <1>   0.0800 
 48 H       -7.6150    -3.5070    -0.3210 H     1 <1>   0.0800 
 49 H       -8.6100    -2.2090    -0.9850 H     1 <1>   0.0800 
@<TRIPOS>BOND
  1   1   2  2   
  2   2   3  am  
  3   2   4  1   
  4   3   5  1   
  5   3   6  am  
  6   4   7  1   
  7   4   8  1   
  8   4  26  1   
  9   5   9  ar  
 10   5  10  ar  
 11   6   8  1   
 12   6  11  2   
 13   7  12  1   
 14   7  13  1   
 15   8  27  1   
 16   8  28  1   
 17   9  14  ar  
 18   9  29  1   
 19  10  15  ar  
 20  10  30  1   
 21  12  16  1   
 22  12  31  1   
 23  12  32  1   
 24  13  17  1   
 25  13  33  1   
 26  13  34  1   
 27  14  18  ar  
 28  14  19  1   
 29  15  18  ar  
 30  15  20  1   
 31  16  21  1   
 32  16  35  1   
 33  16  36  1   
 34  17  21  1   
 35  17  37  1   
 36  17  38  1   
 37  18  39  1   
 38  19  40  1   
 39  19  41  1   
 40  19  42  1   
 41  20  43  1   
 42  20  44  1   
 43  20  45  1   
 44  21  22  1   
 45  21  46  1   
 46  22  23  2   
 47  22  24  1   
 48  24  25  1   
 49  25  47  1   
 50  25  48  1   
 51  25  49  1   
@<TRIPOS>SUBSTRUCTURE
  1 ****   2 GROUP 4 **** **** 0

# MOE 2024.06 (io_trps.svl 2023.06)
