@<TRIPOS>MOLECULE
NONAME
54 57 1 0 0 
SMALL
USER_CHARGES


@<TRIPOS>ATOM
  1 O       -4.1490     1.7500     0.2940 O.2   1 <1>  -0.5700 
  2 C       -3.0260     2.1770     0.1620 C.2   1 <1>   0.5690 
  3 N       -1.9530     1.3470     0.1290 N.am  1 <1>  -0.7300 
  4 C       -2.8370     3.7000     0.0280 C.3   1 <1>   0.1710 
  5 C       -1.9700    -0.1260     0.2530 C.3   1 <1>   0.2200 
  6 N       -1.4500     4.2490    -0.0970 N.3   1 <1>  -0.8100 
  7 C       -1.0150    -0.6330     1.4830 C.3   1 <1>  -0.0800 
  8 C       -1.3840    -0.8090    -1.1520 C.3   1 <1>  -0.1600 
  9 C       -0.7670     3.8860    -1.3670 C.3   1 <1>   0.1100 
 10 C       -0.6120     4.0510     1.1160 C.3   1 <1>   0.1100 
 11 C       -0.6050    -1.2620     0.3740 C.3   1 <1>  -0.1600 
 12 C        0.1590    -1.6950     1.8960 C.3   1 <1>  -0.1600 
 13 C       -0.2000    -1.8640    -0.7480 C.3   1 <1>  -0.0800 
 14 C        0.6570     4.4630    -1.4640 C.3   1 <1>   0.2090 
 15 C        0.8080     4.6240     0.9600 C.3   1 <1>   0.2090 
 16 C        0.7420    -2.3830     0.4850 C.3   1 <1>  -0.1600 
 17 N        1.4540     4.0770    -0.2670 N.pl3 1 <1>  -0.8380 
 18 C        2.8380     4.2820    -0.3670 C.ar  1 <1>   0.1000 
 19 C        3.4510     5.5440    -0.4850 C.ar  1 <1>   0.0820 
 20 C        3.6420     3.1520    -0.3480 C.ar  1 <1>  -0.1500 
 21 O        2.6550     6.6590    -0.5050 O.3   1 <1>  -0.3620 
 22 C        4.8380     5.6280    -0.5780 C.ar  1 <1>  -0.1500 
 23 C        5.0180     3.2440    -0.4410 C.ar  1 <1>  -0.1500 
 24 C        3.1980     7.9540    -0.6250 C.3   1 <1>   0.0400 
 25 C        5.6170     4.4840    -0.5560 C.ar  1 <1>  -0.1500 
 26 H       -1.0310     1.7760     0.0130 H     1 <1>   0.3700 
 27 H       -3.3010     4.1530     0.8850 H     1 <1>   0.0800 
 28 H       -3.4030     4.0160    -0.8290 H     1 <1>   0.0800 
 29 H       -2.9840    -0.4580     0.4220 H     1 <1>   0.0800 
 30 H       -0.5660     0.2940     1.8130 H     1 <1>   0.0800 
 31 H       -0.9950    -0.0490    -1.8120 H     1 <1>   0.0800 
 32 H       -2.1840    -1.3150    -1.6700 H     1 <1>   0.0800 
 33 H       -1.3460     4.2580    -2.1950 H     1 <1>   0.0800 
 34 H       -0.6940     2.8210    -1.4730 H     1 <1>   0.0800 
 35 H       -0.5170     3.0080     1.3500 H     1 <1>   0.0800 
 36 H       -1.0870     4.5320     1.9530 H     1 <1>   0.0800 
 37 H        0.1700    -0.3940     0.1850 H     1 <1>   0.0800 
 38 H       -1.3920    -2.1200     0.5530 H     1 <1>   0.0800 
 39 H       -0.2430    -2.4600     2.5440 H     1 <1>   0.0800 
 40 H        0.9560    -1.2030     2.4310 H     1 <1>   0.0800 
 41 H       -0.6360    -2.7980    -1.0780 H     1 <1>   0.0800 
 42 H        0.6010     5.5350    -1.5370 H     1 <1>   0.0800 
 43 H        1.1410     4.0910    -2.3510 H     1 <1>   0.0800 
 44 H        1.4010     4.3680     1.8200 H     1 <1>   0.0800 
 45 H        0.7520     5.6970     0.8970 H     1 <1>   0.0800 
 46 H        0.7300    -3.4590     0.5570 H     1 <1>   0.0800 
 47 H        1.7660    -2.0810     0.3200 H     1 <1>   0.0800 
 48 H        3.1700     2.1910    -0.2580 H     1 <1>   0.1500 
 49 H        5.3370     6.5730    -0.6690 H     1 <1>   0.1500 
 50 H        5.6200     2.3520    -0.4230 H     1 <1>   0.1500 
 51 H        2.3860     8.6580    -0.6190 H     1 <1>   0.0800 
 52 H        3.7340     8.0230    -1.5550 H     1 <1>   0.0800 
 53 H        3.8470     8.1390     0.2130 H     1 <1>   0.0800 
 54 H        6.6880     4.5600    -0.6290 H     1 <1>   0.1500 
@<TRIPOS>BOND
  1   1   2  2   
  2   2   3  am  
  3   2   4  1   
  4   3   5  1   
  5   3  26  1   
  6   4   6  1   
  7   4  27  1   
  8   4  28  1   
  9   5   7  1   
 10   5   8  1   
 11   5  29  1   
 12   6   9  1   
 13   6  10  1   
 14   7  11  1   
 15   7  12  1   
 16   7  30  1   
 17   8  13  1   
 18   8  31  1   
 19   8  32  1   
 20   9  14  1   
 21   9  33  1   
 22   9  34  1   
 23  10  15  1   
 24  10  35  1   
 25  10  36  1   
 26  11  13  1   
 27  11  37  1   
 28  11  38  1   
 29  12  16  1   
 30  12  39  1   
 31  12  40  1   
 32  13  16  1   
 33  13  41  1   
 34  14  17  1   
 35  14  42  1   
 36  14  43  1   
 37  15  17  1   
 38  15  44  1   
 39  15  45  1   
 40  16  46  1   
 41  16  47  1   
 42  17  18  1   
 43  18  19  ar  
 44  18  20  ar  
 45  19  21  1   
 46  19  22  ar  
 47  20  23  ar  
 48  20  48  1   
 49  21  24  1   
 50  22  25  ar  
 51  22  49  1   
 52  23  25  ar  
 53  23  50  1   
 54  24  51  1   
 55  24  52  1   
 56  24  53  1   
 57  25  54  1   
@<TRIPOS>SUBSTRUCTURE
  1 ****  17 GROUP 4 **** **** 0

# MOE 2024.06 (io_trps.svl 2023.06)
