@<TRIPOS>MOLECULE
NONAME
47 49 1 0 0 
SMALL
USER_CHARGES


@<TRIPOS>ATOM
  1 O        0.3070    -1.1690     1.7530 O.2   1 <1>  -0.5700 
  2 C       -0.4660    -1.5040     0.8860 C.2   1 <1>   0.5690 
  3 N       -1.0150    -2.7630     0.8700 N.am  1 <1>  -0.6600 
  4 C       -0.7740    -0.4610    -0.1700 C.3   1 <1>  -0.0990 
  5 C       -0.6230    -3.7870     1.8840 C.3   1 <1>   0.1400 
  6 C       -2.1110    -3.2520    -0.0240 C.3   1 <1>   0.1400 
  7 C       -1.8600     0.5160     0.3050 C.3   1 <1>   0.2070 
  8 C       -0.3520    -5.1410     1.2080 C.3   1 <1>   0.1200 
  9 C       -1.7640    -4.6340    -0.6000 C.3   1 <1>   0.1200 
 10 C       -3.2050    -0.1990     0.4560 C.ar  1 <1>  -0.1440 
 11 C       -2.0030     1.7610    -0.5820 C.ar  1 <1>  -0.1440 
 12 O       -1.4430    -5.5340     0.4240 O.3   1 <1>  -0.5600 
 13 C       -4.0620    -0.3600    -0.6260 C.ar  1 <1>  -0.1500 
 14 C       -3.5800    -0.7100     1.6910 C.ar  1 <1>  -0.1500 
 15 C       -1.5510     1.8270    -1.8960 C.ar  1 <1>  -0.1500 
 16 C       -2.6280     2.8750    -0.0400 C.ar  1 <1>  -0.1500 
 17 C       -5.2660    -1.0260    -0.4810 C.ar  1 <1>  -0.1500 
 18 C       -4.7820    -1.3770     1.8380 C.ar  1 <1>  -0.1500 
 19 C       -1.7150     2.9810    -2.6420 C.ar  1 <1>  -0.1500 
 20 C       -2.7940     4.0300    -0.7840 C.ar  1 <1>  -0.1500 
 21 C       -5.6320    -1.5430     0.7580 C.ar  1 <1>   0.0820 
 22 C       -2.3360     4.0850    -2.0870 C.ar  1 <1>  -0.1500 
 23 O       -6.7890    -2.2130     0.9860 O.3   1 <1>  -0.3630 
 24 C       -7.7580    -2.3670    -0.0270 C.3   1 <1>   0.0400 
 25 H       -1.0470    -0.9210    -1.0970 H     1 <1>   0.0800 
 26 H        0.1310     0.0940    -0.3420 H     1 <1>   0.0800 
 27 H       -1.4190    -3.8990     2.5990 H     1 <1>   0.0800 
 28 H        0.2600    -3.4770     2.4150 H     1 <1>   0.0800 
 29 H       -2.2990    -2.5730    -0.8320 H     1 <1>   0.0800 
 30 H       -3.0200    -3.3330     0.5480 H     1 <1>   0.0800 
 31 H       -1.5570     0.8690     1.2770 H     1 <1>   0.0800 
 32 H       -0.1910    -5.9010     1.9520 H     1 <1>   0.0800 
 33 H        0.5210    -5.0810     0.5800 H     1 <1>   0.0800 
 34 H       -0.9270    -4.5650    -1.2720 H     1 <1>   0.0800 
 35 H       -2.6070    -5.0350    -1.1340 H     1 <1>   0.0800 
 36 H       -3.7960     0.0380    -1.5900 H     1 <1>   0.1500 
 37 H       -2.9320    -0.5990     2.5440 H     1 <1>   0.1500 
 38 H       -1.0680     0.9890    -2.3640 H     1 <1>   0.1500 
 39 H       -2.9970     2.8460     0.9710 H     1 <1>   0.1500 
 40 H       -5.9030    -1.1300    -1.3380 H     1 <1>   0.1500 
 41 H       -5.0690    -1.7750     2.7950 H     1 <1>   0.1500 
 42 H       -1.3590     3.0220    -3.6570 H     1 <1>   0.1500 
 43 H       -3.2800     4.8850    -0.3470 H     1 <1>   0.1500 
 44 H       -2.4630     4.9820    -2.6660 H     1 <1>   0.1500 
 45 H       -8.5940    -2.8980     0.3900 H     1 <1>   0.0800 
 46 H       -7.3310    -2.9330    -0.8350 H     1 <1>   0.0800 
 47 H       -8.0720    -1.3930    -0.3590 H     1 <1>   0.0800 
@<TRIPOS>BOND
  1   1   2  2   
  2   2   3  am  
  3   2   4  1   
  4   3   5  1   
  5   3   6  1   
  6   4   7  1   
  7   4  25  1   
  8   4  26  1   
  9   5   8  1   
 10   5  27  1   
 11   5  28  1   
 12   6   9  1   
 13   6  29  1   
 14   6  30  1   
 15   7  10  1   
 16   7  11  1   
 17   7  31  1   
 18   8  12  1   
 19   8  32  1   
 20   8  33  1   
 21   9  12  1   
 22   9  34  1   
 23   9  35  1   
 24  10  13  ar  
 25  10  14  ar  
 26  11  15  ar  
 27  11  16  ar  
 28  13  17  ar  
 29  13  36  1   
 30  14  18  ar  
 31  14  37  1   
 32  15  19  ar  
 33  15  38  1   
 34  16  20  ar  
 35  16  39  1   
 36  17  21  ar  
 37  17  40  1   
 38  18  21  ar  
 39  18  41  1   
 40  19  22  ar  
 41  19  42  1   
 42  20  22  ar  
 43  20  43  1   
 44  21  23  1   
 45  22  44  1   
 46  23  24  1   
 47  24  45  1   
 48  24  46  1   
 49  24  47  1   
@<TRIPOS>SUBSTRUCTURE
  1 ****  10 GROUP 4 **** **** 0

# MOE 2024.06 (io_trps.svl 2023.06)
