@<TRIPOS>MOLECULE
NONAME
46 48 1 0 0 
SMALL
USER_CHARGES


@<TRIPOS>ATOM
  1 S       -0.4230    -1.0040    -1.5440 S.o2  1 <1>   1.4470 
  2 O        0.3670    -1.6700    -2.5570 O.2   1 <1>  -0.6500 
  3 O       -0.7450     0.3960    -1.7190 O.2   1 <1>  -0.6500 
  4 N        0.4550    -1.1020    -0.0960 N.am  1 <1>  -0.8490 
  5 C       -1.9380    -1.9590    -1.1950 C.ar  1 <1>  -0.0090 
  6 C       -0.1580    -0.3270     0.9940 C.3   1 <1>   0.1960 
  7 C        1.8440    -0.6550    -0.2830 C.3   1 <1>   0.1960 
  8 C       -1.9380    -3.3300    -0.9200 C.ar  1 <1>  -0.1440 
  9 C       -3.1610    -1.2990    -1.1860 C.ar  1 <1>  -0.1500 
 10 C        0.6780    -0.4360     2.2820 C.3   1 <1>   0.1200 
 11 C        2.6380    -0.7370     1.0340 C.3   1 <1>   0.1200 
 12 C       -3.1290    -3.9860    -0.6510 C.ar  1 <1>  -0.1500 
 13 C       -0.6520    -4.1490    -0.9150 C.3   1 <1>  -0.0960 
 14 C       -4.3670    -1.9340    -0.9060 C.ar  1 <1>   0.0860 
 15 O        1.9920    -0.0190     2.0490 O.3   1 <1>  -0.5600 
 16 C       -4.3260    -3.2990    -0.6460 C.ar  1 <1>  -0.1500 
 17 C       -5.6140    -1.1920    -0.8910 C.2   1 <1>   0.5440 
 18 O       -5.9080    -0.5100    -1.8530 O.2   1 <1>  -0.5700 
 19 N       -6.4660    -1.2230     0.1930 N.am  1 <1>  -0.6600 
 20 C       -6.0610    -1.6440     1.5680 C.3   1 <1>   0.1400 
 21 C       -7.8170    -0.5820     0.1590 C.3   1 <1>   0.1400 
 22 C       -6.2670    -0.4920     2.5660 C.3   1 <1>   0.1200 
 23 C       -7.9200     0.5100     1.2350 C.3   1 <1>   0.1200 
 24 O       -7.5740     0.0000     2.4930 O.3   1 <1>  -0.5600 
 25 H       -1.1500    -0.6950     1.1880 H     1 <1>   0.0800 
 26 H       -0.2330     0.7130     0.7200 H     1 <1>   0.0800 
 27 H        1.8600     0.3600    -0.6440 H     1 <1>   0.0800 
 28 H        2.3280    -1.2760    -1.0180 H     1 <1>   0.0800 
 29 H       -3.1940    -0.2440    -1.4090 H     1 <1>   0.1500 
 30 H        0.6960    -1.4520     2.6370 H     1 <1>   0.0800 
 31 H        0.2660     0.1950     3.0500 H     1 <1>   0.0800 
 32 H        3.6180    -0.3140     0.9050 H     1 <1>   0.0800 
 33 H        2.7400    -1.7610     1.3490 H     1 <1>   0.0800 
 34 H       -3.1330    -5.0440    -0.4480 H     1 <1>   0.1500 
 35 H        0.0450    -3.7590    -0.1960 H     1 <1>   0.0800 
 36 H       -0.1950    -4.1300    -1.8890 H     1 <1>   0.0800 
 37 H       -0.8460    -5.1760    -0.6630 H     1 <1>   0.0800 
 38 H       -5.2450    -3.8220    -0.4450 H     1 <1>   0.1500 
 39 H       -5.0290    -1.9420     1.5910 H     1 <1>   0.0800 
 40 H       -6.6590    -2.4860     1.8710 H     1 <1>   0.0800 
 41 H       -8.5680    -1.3310     0.3420 H     1 <1>   0.0800 
 42 H       -8.0130    -0.1510    -0.8070 H     1 <1>   0.0800 
 43 H       -5.5850     0.3140     2.3600 H     1 <1>   0.0800 
 44 H       -6.1030    -0.8370     3.5710 H     1 <1>   0.0800 
 45 H       -8.9290     0.8780     1.2940 H     1 <1>   0.0800 
 46 H       -7.2660     1.3320     1.0000 H     1 <1>   0.0800 
@<TRIPOS>BOND
  1   1   2  2   
  2   1   3  2   
  3   1   4  am  
  4   1   5  1   
  5   4   6  1   
  6   4   7  1   
  7   5   8  ar  
  8   5   9  ar  
  9   6  10  1   
 10   6  25  1   
 11   6  26  1   
 12   7  11  1   
 13   7  27  1   
 14   7  28  1   
 15   8  12  ar  
 16   8  13  1   
 17   9  14  ar  
 18   9  29  1   
 19  10  15  1   
 20  10  30  1   
 21  10  31  1   
 22  11  15  1   
 23  11  32  1   
 24  11  33  1   
 25  12  16  ar  
 26  12  34  1   
 27  13  35  1   
 28  13  36  1   
 29  13  37  1   
 30  14  16  ar  
 31  14  17  1   
 32  16  38  1   
 33  17  18  2   
 34  17  19  am  
 35  19  20  1   
 36  19  21  1   
 37  20  22  1   
 38  20  39  1   
 39  20  40  1   
 40  21  23  1   
 41  21  41  1   
 42  21  42  1   
 43  22  24  1   
 44  22  43  1   
 45  22  44  1   
 46  23  24  1   
 47  23  45  1   
 48  23  46  1   
@<TRIPOS>SUBSTRUCTURE
  1 ****   9 GROUP 4 **** **** 0

# MOE 2024.06 (io_trps.svl 2023.06)
