@<TRIPOS>MOLECULE
NONAME
42 43 1 0 0 
SMALL
USER_CHARGES


@<TRIPOS>ATOM
  1 O        1.3170    -0.5510     1.6780 O.3   1 <1>  -0.5600 
  2 C        0.5560    -1.3610     0.8240 C.3   1 <1>   0.1200 
  3 C        1.9070     0.5560     1.0490 C.3   1 <1>   0.1200 
  4 C        1.4310    -1.9500    -0.3080 C.3   1 <1>   0.3430 
  5 C        2.7680     0.1290    -0.1630 C.3   1 <1>   0.3430 
  6 N        2.8140    -1.3680    -0.2950 N.4   1 <1>  -0.9590 
  7 C        3.6760    -1.8450    -1.4090 C.3   1 <1>   0.4860 
  8 C        5.0750    -1.2920    -1.2130 C.ar  1 <1>  -0.1440 
  9 C        5.5330    -0.2600    -2.0200 C.ar  1 <1>  -0.1500 
 10 C        5.9030    -1.8030    -0.2220 C.ar  1 <1>  -0.1500 
 11 C        6.7990     0.2620    -1.8260 C.ar  1 <1>  -0.1500 
 12 C        7.1700    -1.2800    -0.0300 C.ar  1 <1>  -0.1500 
 13 C        7.6230    -0.2380    -0.8330 C.ar  1 <1>   0.0820 
 14 O        8.8440     0.3360    -0.7110 O.3   1 <1>  -0.3620 
 15 C        9.7920    -0.1330     0.2220 C.3   1 <1>   0.1200 
 16 C       11.0620     0.7050     0.0760 C.3   1 <1>  -0.1600 
 17 C       12.1450     0.2500     1.0630 C.3   1 <1>  -0.1600 
 18 C       13.4150     1.0910     0.9110 C.3   1 <1>  -0.2400 
 19 H       -0.2490    -0.7720     0.4180 H     1 <1>   0.0800 
 20 H        0.1280    -2.1530     1.4140 H     1 <1>   0.0800 
 21 H        2.5210     1.0570     1.7780 H     1 <1>   0.0800 
 22 H        1.1290     1.2360     0.7430 H     1 <1>   0.0800 
 23 H        0.9530    -1.7550    -1.2530 H     1 <1>   0.0800 
 24 H        1.4830    -3.0200    -0.1860 H     1 <1>   0.0800 
 25 H        3.7640     0.5230    -0.0390 H     1 <1>   0.0800 
 26 H        2.3560     0.5660    -1.0580 H     1 <1>   0.0800 
 27 H        3.2410    -1.6800     0.5890 H     1 <1>   0.4500 
 28 H        3.2820    -1.5120    -2.3550 H     1 <1>   0.0800 
 29 H        3.7160    -2.9220    -1.4150 H     1 <1>   0.0800 
 30 H        4.9210     0.1490    -2.8060 H     1 <1>   0.1500 
 31 H        5.5780    -2.6120     0.4090 H     1 <1>   0.1500 
 32 H        7.1640     1.0630    -2.4460 H     1 <1>   0.1500 
 33 H        7.7900    -1.6920     0.7440 H     1 <1>   0.1500 
 34 H        9.9930    -1.1680     0.0110 H     1 <1>   0.0800 
 35 H        9.3790    -0.0250     1.2100 H     1 <1>   0.0800 
 36 H       10.8240     1.7380     0.2560 H     1 <1>   0.0800 
 37 H       11.4310     0.6070    -0.9310 H     1 <1>   0.0800 
 38 H       12.3840    -0.7850     0.8880 H     1 <1>   0.0800 
 39 H       11.7790     0.3430     2.0720 H     1 <1>   0.0800 
 40 H       13.8120     0.9970    -0.0850 H     1 <1>   0.0800 
 41 H       14.1630     0.7590     1.6100 H     1 <1>   0.0800 
 42 H       13.2050     2.1290     1.1020 H     1 <1>   0.0800 
@<TRIPOS>BOND
  1   1   2  1   
  2   1   3  1   
  3   2   4  1   
  4   2  19  1   
  5   2  20  1   
  6   3   5  1   
  7   3  21  1   
  8   3  22  1   
  9   4   6  1   
 10   4  23  1   
 11   4  24  1   
 12   5   6  1   
 13   5  25  1   
 14   5  26  1   
 15   6   7  1   
 16   6  27  1   
 17   7   8  1   
 18   7  28  1   
 19   7  29  1   
 20   8   9  ar  
 21   8  10  ar  
 22   9  11  ar  
 23   9  30  1   
 24  10  12  ar  
 25  10  31  1   
 26  11  13  ar  
 27  11  32  1   
 28  12  13  ar  
 29  12  33  1   
 30  13  14  1   
 31  14  15  1   
 32  15  16  1   
 33  15  34  1   
 34  15  35  1   
 35  16  17  1   
 36  16  36  1   
 37  16  37  1   
 38  17  18  1   
 39  17  38  1   
 40  17  39  1   
 41  18  40  1   
 42  18  41  1   
 43  18  42  1   
@<TRIPOS>SUBSTRUCTURE
  1 ****  10 GROUP 4 **** **** 0

# MOE 2024.06 (io_trps.svl 2023.06)
