@<TRIPOS>MOLECULE
NONAME
41 42 1 0 0 
SMALL
USER_CHARGES


@<TRIPOS>ATOM
  1 S        0.1120    -0.2110     0.4570 S.o2  1 <1>   1.4970 
  2 O        0.4160    -0.7440     1.7690 O.2   1 <1>  -0.6500 
  3 O        0.4060    -1.0360    -0.7010 O.2   1 <1>  -0.6500 
  4 N        0.9340     1.2380     0.2990 N.2   1 <1>  -0.6380 
  5 C       -1.6290     0.3080     0.4070 C.ar  1 <1>  -0.0090 
  6 C        2.1830     1.2220     0.0350 C.2   1 <1>   0.4860 
  7 C       -2.3130     0.6480     1.5680 C.ar  1 <1>  -0.1500 
  8 C       -2.3170     0.4050    -0.7960 C.ar  1 <1>  -0.1500 
  9 N        2.9090     0.0840    -0.2870 N.pl3 1 <1>  -0.5500 
 10 C        2.9370     2.4390     0.0510 C.2   1 <1>  -0.1360 
 11 C       -3.6330     1.0630     1.5310 C.ar  1 <1>  -0.1500 
 12 C       -3.6370     0.8190    -0.8400 C.ar  1 <1>  -0.1500 
 13 C        4.2670     0.1040    -0.5350 C.2   1 <1>  -0.0500 
 14 C        4.2730     2.4830    -0.1950 C.2   1 <1>  -0.1380 
 15 C       -4.3100     1.1530     0.3260 C.ar  1 <1>  -0.1430 
 16 C        4.9530     1.2720    -0.4900 C.2   1 <1>  -0.1500 
 17 C        5.0720     3.7740    -0.1690 C.3   1 <1>  -0.1020 
 18 C       -5.7660     1.6150     0.2980 C.3   1 <1>   0.0630 
 19 C       -6.6740     0.4880    -0.2300 C.3   1 <1>  -0.1600 
 20 C       -5.8930     2.9070    -0.5220 C.3   1 <1>  -0.2400 
 21 C       -8.1730     0.7990    -0.1080 C.3   1 <1>  -0.2400 
 22 H       -1.8050     0.5870     2.5160 H     1 <1>   0.1500 
 23 H       -1.8130     0.1530    -1.7150 H     1 <1>   0.1500 
 24 H        2.3690    -0.7790    -0.4400 H     1 <1>   0.4000 
 25 H        2.3790     3.3280     0.2780 H     1 <1>   0.1500 
 26 H       -4.1290     1.3160     2.4520 H     1 <1>   0.1500 
 27 H       -4.1370     0.8810    -1.7900 H     1 <1>   0.1500 
 28 H        4.7440    -0.8350    -0.7660 H     1 <1>   0.1500 
 29 H        6.0120     1.3080    -0.6780 H     1 <1>   0.1500 
 30 H        5.8460     3.7120     0.5750 H     1 <1>   0.0800 
 31 H        4.4380     4.6110     0.0660 H     1 <1>   0.0800 
 32 H        5.5240     3.9450    -1.1290 H     1 <1>   0.0800 
 33 H       -6.0700     1.8390     1.3060 H     1 <1>   0.0800 
 34 H       -6.4660    -0.4050     0.3340 H     1 <1>   0.0800 
 35 H       -6.4390     0.2820    -1.2590 H     1 <1>   0.0800 
 36 H       -5.7090     2.7190    -1.5640 H     1 <1>   0.0800 
 37 H       -5.1780     3.6310    -0.1730 H     1 <1>   0.0800 
 38 H       -6.8750     3.3300    -0.4150 H     1 <1>   0.0800 
 39 H       -8.4290     1.0360     0.9090 H     1 <1>   0.0800 
 40 H       -8.7480    -0.0580    -0.4120 H     1 <1>   0.0800 
 41 H       -8.4470     1.6260    -0.7390 H     1 <1>   0.0800 
@<TRIPOS>BOND
  1   1   2  2   
  2   1   3  2   
  3   1   4  1   
  4   1   5  1   
  5   4   6  2   
  6   5   7  ar  
  7   5   8  ar  
  8   6   9  1   
  9   6  10  1   
 10   7  11  ar  
 11   7  22  1   
 12   8  12  ar  
 13   8  23  1   
 14   9  13  1   
 15   9  24  1   
 16  10  14  2   
 17  10  25  1   
 18  11  15  ar  
 19  11  26  1   
 20  12  15  ar  
 21  12  27  1   
 22  13  16  2   
 23  13  28  1   
 24  14  16  1   
 25  14  17  1   
 26  15  18  1   
 27  16  29  1   
 28  17  30  1   
 29  17  31  1   
 30  17  32  1   
 31  18  19  1   
 32  18  20  1   
 33  18  33  1   
 34  19  21  1   
 35  19  34  1   
 36  19  35  1   
 37  20  36  1   
 38  20  37  1   
 39  20  38  1   
 40  21  39  1   
 41  21  40  1   
 42  21  41  1   
@<TRIPOS>SUBSTRUCTURE
  1 ****   5 GROUP 4 **** **** 0

# MOE 2024.06 (io_trps.svl 2023.06)
