@<TRIPOS>MOLECULE
NONAME
40 41 1 0 0 
SMALL
USER_CHARGES


@<TRIPOS>ATOM
  1 O        0.2580     0.9800     0.5870 O.2   1 <1>  -0.5700 
  2 C        0.0330     1.1430    -0.5950 C.2   1 <1>   0.6900 
  3 N       -1.2460     1.2050    -1.0780 N.am  1 <1>  -0.5470 
  4 N        1.0480     1.2810    -1.4890 N.am  1 <1>  -0.4930 
  5 C       -2.4770     0.9890    -0.4420 C.ar  1 <1>   0.1170 
  6 C        2.4250     1.3250    -1.2850 C.2   1 <1>   0.3520 
  7 C       -3.6130     1.5850    -0.9730 C.ar  1 <1>  -0.1500 
  8 C       -2.6190     0.1870     0.6870 C.ar  1 <1>  -0.1500 
  9 N        3.2370     1.3860    -2.2800 N.2   1 <1>  -0.4100 
 10 C        3.1250     1.3190    -0.0780 C.2   1 <1>  -0.1500 
 11 C       -4.8590     1.3980    -0.4010 C.ar  1 <1>   0.0830 
 12 C       -3.8590    -0.0060     1.2690 C.ar  1 <1>  -0.1500 
 13 O        4.4400     1.4170    -1.7620 O.3   1 <1>  -0.0190 
 14 C        4.4120     1.3790    -0.4520 C.2   1 <1>  -0.0400 
 15 O       -5.9030     2.0260    -0.9980 O.3   1 <1>  -0.3630 
 16 C       -4.9820     0.5960     0.7310 C.ar  1 <1>  -0.1500 
 17 C        5.7180     1.4070     0.3410 C.3   1 <1>   0.1800 
 18 C       -7.2100     1.9270    -0.4780 C.3   1 <1>   0.0400 
 19 C        6.5740     0.1950    -0.0450 C.3   1 <1>  -0.2400 
 20 C        6.4820     2.6980     0.0220 C.3   1 <1>  -0.2400 
 21 C        5.4310     1.3570     1.8480 C.3   1 <1>  -0.2400 
 22 H       -1.3250     1.5700    -2.0210 H     1 <1>   0.3700 
 23 H        0.8050     1.2860    -2.4720 H     1 <1>   0.3700 
 24 H       -3.5410     2.2090    -1.8430 H     1 <1>   0.1500 
 25 H       -1.7590    -0.2940     1.1160 H     1 <1>   0.1500 
 26 H        2.6930     1.2750     0.9040 H     1 <1>   0.1500 
 27 H       -3.9470    -0.6270     2.1440 H     1 <1>   0.1500 
 28 H       -5.9330     0.4310     1.2010 H     1 <1>   0.1500 
 29 H       -7.8630     2.5100    -1.1020 H     1 <1>   0.0800 
 30 H       -7.2170     2.3170     0.5240 H     1 <1>   0.0800 
 31 H       -7.5140     0.8950    -0.4940 H     1 <1>   0.0800 
 32 H        6.0400    -0.7160     0.1580 H     1 <1>   0.0800 
 33 H        7.4940     0.1860     0.5120 H     1 <1>   0.0800 
 34 H        6.8110     0.2200    -1.0940 H     1 <1>   0.0800 
 35 H        6.7170     2.7460    -1.0270 H     1 <1>   0.0800 
 36 H        7.4000     2.7450     0.5800 H     1 <1>   0.0800 
 37 H        5.8820     3.5560     0.2720 H     1 <1>   0.0800 
 38 H        6.3480     1.3760     2.4090 H     1 <1>   0.0800 
 39 H        4.8330     2.2000     2.1440 H     1 <1>   0.0800 
 40 H        4.8980     0.4560     2.0980 H     1 <1>   0.0800 
@<TRIPOS>BOND
  1   1   2  2   
  2   2   3  am  
  3   2   4  am  
  4   3   5  1   
  5   3  22  1   
  6   4   6  1   
  7   4  23  1   
  8   5   7  ar  
  9   5   8  ar  
 10   6   9  2   
 11   6  10  1   
 12   7  11  ar  
 13   7  24  1   
 14   8  12  ar  
 15   8  25  1   
 16   9  13  1   
 17  10  14  2   
 18  10  26  1   
 19  11  15  1   
 20  11  16  ar  
 21  12  16  ar  
 22  12  27  1   
 23  13  14  1   
 24  14  17  1   
 25  15  18  1   
 26  16  28  1   
 27  17  19  1   
 28  17  20  1   
 29  17  21  1   
 30  18  29  1   
 31  18  30  1   
 32  18  31  1   
 33  19  32  1   
 34  19  33  1   
 35  19  34  1   
 36  20  35  1   
 37  20  36  1   
 38  20  37  1   
 39  21  38  1   
 40  21  39  1   
 41  21  40  1   
@<TRIPOS>SUBSTRUCTURE
  1 ****   2 GROUP 4 **** **** 0

# MOE 2024.06 (io_trps.svl 2023.06)
