@<TRIPOS>MOLECULE
NONAME
31 31 1 0 0 
SMALL
USER_CHARGES


@<TRIPOS>ATOM
  1 S       -0.1700    -0.0190     0.6250 S.o2  1 <1>   1.4470 
  2 O       -0.4700    -0.0240     2.0380 O.2   1 <1>  -0.6500 
  3 O       -0.2000    -1.2410    -0.1430 O.2   1 <1>  -0.6500 
  4 N       -1.3150     0.9430    -0.1310 N.am  1 <1>  -0.9140 
  5 C        1.3720     0.8860     0.3240 C.ar  1 <1>  -0.0090 
  6 C       -2.6660     0.7200     0.3810 C.3   1 <1>   0.1960 
  7 C        2.3000     0.4430    -0.6120 C.ar  1 <1>  -0.1500 
  8 C        1.6530     2.0640     1.0120 C.ar  1 <1>  -0.1500 
  9 C       -3.6650     1.5970    -0.3730 C.3   1 <1>   0.1200 
 10 C        3.4540     1.1670    -0.8330 C.ar  1 <1>   0.1900 
 11 C        2.8150     2.7870     0.7880 C.ar  1 <1>  -0.1500 
 12 O       -4.9470     1.2930     0.0760 O.3   1 <1>  -0.5600 
 13 F        4.2960     0.7110    -1.7260 F     1 <1>  -0.1900 
 14 C        3.7430     2.3440    -0.1500 C.ar  1 <1>   0.0830 
 15 C       -5.9490     2.0590    -0.5100 C.3   1 <1>   0.0400 
 16 O        4.9020     2.9990    -0.4260 O.3   1 <1>  -0.3630 
 17 C        5.2590     4.1890     0.2430 C.3   1 <1>   0.0400 
 18 H       -1.3040     0.5960    -1.0880 H     1 <1>   0.4200 
 19 H       -2.7060     0.9720     1.4280 H     1 <1>   0.0800 
 20 H       -2.9350    -0.3170     0.2610 H     1 <1>   0.0800 
 21 H        2.1280    -0.4620    -1.1690 H     1 <1>   0.1500 
 22 H        0.9430     2.4210     1.7410 H     1 <1>   0.1500 
 23 H       -3.6210     1.3990    -1.4300 H     1 <1>   0.0800 
 24 H       -3.4670     2.6370    -0.1760 H     1 <1>   0.0800 
 25 H        2.9770     3.6880     1.3500 H     1 <1>   0.1500 
 26 H       -6.8930     1.7460    -0.0990 H     1 <1>   0.0800 
 27 H       -5.9460     1.8970    -1.5740 H     1 <1>   0.0800 
 28 H       -5.7820     3.0980    -0.2830 H     1 <1>   0.0800 
 29 H        6.2110     4.5120    -0.1380 H     1 <1>   0.0800 
 30 H        5.3370     3.9880     1.2970 H     1 <1>   0.0800 
 31 H        4.5140     4.9390     0.0450 H     1 <1>   0.0800 
@<TRIPOS>BOND
  1   1   2  2   
  2   1   3  2   
  3   1   4  am  
  4   1   5  1   
  5   4   6  1   
  6   4  18  1   
  7   5   7  ar  
  8   5   8  ar  
  9   6   9  1   
 10   6  19  1   
 11   6  20  1   
 12   7  10  ar  
 13   7  21  1   
 14   8  11  ar  
 15   8  22  1   
 16   9  12  1   
 17   9  23  1   
 18   9  24  1   
 19  10  13  1   
 20  10  14  ar  
 21  11  14  ar  
 22  11  25  1   
 23  12  15  1   
 24  14  16  1   
 25  15  26  1   
 26  15  27  1   
 27  15  28  1   
 28  16  17  1   
 29  17  29  1   
 30  17  30  1   
 31  17  31  1   
@<TRIPOS>SUBSTRUCTURE
  1 ****   5 GROUP 4 **** **** 0

# MOE 2024.06 (io_trps.svl 2023.06)
