@<TRIPOS>MOLECULE
NONAME
35 37 1 0 0 
SMALL
USER_CHARGES


@<TRIPOS>ATOM
  1 O       -0.3680     0.3870    -1.2280 O.2   1 <1>  -0.5700 
  2 C       -0.1990     1.4290    -0.6090 C.2   1 <1>   0.7150 
  3 N        1.0670     1.9050    -0.3650 N.am  1 <1>  -0.4200 
  4 C       -1.2680     2.2150    -0.1190 C.2   1 <1>  -0.2370 
  5 C        1.2270     3.0870     0.3370 C.2   1 <1>   0.4500 
  6 C        2.2730     1.1380    -0.7940 C.3   1 <1>   0.2010 
  7 N       -2.6220     2.0410    -0.1910 N.pl3 1 <1>   0.0480 
  8 C       -1.0120     3.3790     0.5490 C.2   1 <1>   0.1250 
  9 N        0.2710     3.8170     0.7820 N.2   1 <1>  -0.5750 
 10 C        2.9730     0.4760     0.3820 C.2   1 <1>   0.6590 
 11 C       -3.2030     3.1050     0.4260 C.2   1 <1>  -0.3320 
 12 C       -3.3440     0.9540    -0.8980 C.3   1 <1>   0.0960 
 13 C       -2.2390     3.9580     0.8990 C.2   1 <1>   0.0190 
 14 O        3.9630     0.9590     0.8670 O.2   1 <1>  -0.5700 
 15 O        2.4320    -0.6450     0.8410 O.3   1 <1>  -0.4300 
 16 C       -4.7150     3.2380     0.5310 C.3   1 <1>   0.0200 
 17 C       -4.8460     0.9660    -0.5660 C.3   1 <1>  -0.1600 
 18 C       -2.3910     5.1940     1.6090 C.1   1 <1>   0.5380 
 19 C        2.9770    -1.3390     1.9440 C.3   1 <1>   0.0400 
 20 C       -5.4130     2.3960    -0.5460 C.3   1 <1>  -0.1600 
 21 N       -2.5660     6.1740     2.1690 N.1   1 <1>  -0.5570 
 22 H        2.2430     3.3980     0.5100 H     1 <1>   0.0600 
 23 H        2.9630     1.8110    -1.2690 H     1 <1>   0.0800 
 24 H        2.0090     0.3800    -1.5080 H     1 <1>   0.0800 
 25 H       -2.9120     0.0070    -0.6250 H     1 <1>   0.0800 
 26 H       -3.2040     1.1000    -1.9530 H     1 <1>   0.0800 
 27 H       -5.0080     4.2700     0.4370 H     1 <1>   0.0800 
 28 H       -5.0240     2.8930     1.5030 H     1 <1>   0.0800 
 29 H       -4.9950     0.5090     0.3970 H     1 <1>   0.0800 
 30 H       -5.3730     0.3720    -1.2920 H     1 <1>   0.0800 
 31 H        2.3780    -2.2130     2.1280 H     1 <1>   0.0800 
 32 H        2.9630    -0.6920     2.8040 H     1 <1>   0.0800 
 33 H        3.9890    -1.6250     1.7120 H     1 <1>   0.0800 
 34 H       -5.2630     2.8550    -1.5090 H     1 <1>   0.0800 
 35 H       -6.4710     2.3690    -0.3510 H     1 <1>   0.0800 
@<TRIPOS>BOND
  1   1   2  2   
  2   2   3  am  
  3   2   4  1   
  4   3   5  1   
  5   3   6  1   
  6   4   7  1   
  7   4   8  2   
  8   5   9  2   
  9   5  22  1   
 10   6  10  1   
 11   6  23  1   
 12   6  24  1   
 13   7  11  1   
 14   7  12  1   
 15   8   9  1   
 16   8  13  1   
 17  10  14  2   
 18  10  15  1   
 19  11  13  2   
 20  11  16  1   
 21  12  17  1   
 22  12  25  1   
 23  12  26  1   
 24  13  18  1   
 25  15  19  1   
 26  16  20  1   
 27  16  27  1   
 28  16  28  1   
 29  17  20  1   
 30  17  29  1   
 31  17  30  1   
 32  18  21  3   
 33  19  31  1   
 34  19  32  1   
 35  19  33  1   
 36  20  34  1   
 37  20  35  1   
@<TRIPOS>SUBSTRUCTURE
  1 ****   4 GROUP 4 **** **** 0

# MOE 2024.06 (io_trps.svl 2023.06)
