@<TRIPOS>MOLECULE
NONAME
53 55 1 0 0 
SMALL
USER_CHARGES


@<TRIPOS>ATOM
  1 N       -0.4840    -0.3570     0.6220 N.3   1 <1>  -0.8100 
  2 C       -1.4580    -1.3450     1.1360 C.3   1 <1>   0.1100 
  3 C       -0.1740     0.6660     1.6520 C.3   1 <1>   0.1100 
  4 C        0.7350    -1.0010     0.0870 C.3   1 <1>   0.2540 
  5 C       -2.7600    -0.6700     1.6390 C.3   1 <1>   0.3430 
  6 C       -1.4470     1.3460     2.2090 C.3   1 <1>   0.3430 
  7 C        1.6560     0.0390    -0.5440 C.ar  1 <1>  -0.1440 
  8 N       -2.6780     0.8250     1.5310 N.4   1 <1>  -0.9590 
  9 C        2.9350     0.3110    -0.0630 C.ar  1 <1>  -0.1440 
 10 C        1.1800     0.7390    -1.6440 C.ar  1 <1>  -0.1500 
 11 C       -3.9100     1.5520     1.8930 C.3   1 <1>   0.4810 
 12 C        3.7030     1.2810    -0.6900 C.ar  1 <1>  -0.1500 
 13 C        3.5320    -0.4230     1.1300 C.3   1 <1>  -0.0970 
 14 C        1.9490     1.7060    -2.2670 C.ar  1 <1>  -0.1440 
 15 C       -4.9580     1.2140     0.8610 C.2   1 <1>  -0.2880 
 16 C        3.2150     1.9740    -1.7830 C.ar  1 <1>  -0.1500 
 17 C        1.4160     2.4610    -3.4720 C.3   1 <1>  -0.0970 
 18 C       -5.3360     2.0280    -0.1390 C.2   1 <1>  -0.1780 
 19 C       -6.3270     1.7750    -1.1630 C.ar  1 <1>   0.0280 
 20 C       -6.3710     2.5780    -2.3000 C.ar  1 <1>  -0.1500 
 21 C       -7.2600     0.7450    -1.0640 C.ar  1 <1>  -0.1500 
 22 C       -7.3010     2.3600    -3.3010 C.ar  1 <1>  -0.1500 
 23 C       -8.1920     0.5210    -2.0620 C.ar  1 <1>  -0.1500 
 24 C       -8.2140     1.3280    -3.1840 C.ar  1 <1>  -0.1500 
 25 H       -1.7090    -2.0400     0.3530 H     1 <1>   0.0800 
 26 H       -1.0170    -1.9090     1.9410 H     1 <1>   0.0800 
 27 H        0.3750     0.2170     2.4630 H     1 <1>   0.0800 
 28 H        0.4540     1.4310     1.2260 H     1 <1>   0.0800 
 29 H        1.2330    -1.5450     0.8690 H     1 <1>   0.0800 
 30 H        0.4560    -1.7090    -0.6750 H     1 <1>   0.0800 
 31 H       -2.9370    -0.9600     2.6610 H     1 <1>   0.0800 
 32 H       -3.5830    -1.0340     1.0470 H     1 <1>   0.0800 
 33 H       -1.3640     2.4100     2.0550 H     1 <1>   0.0800 
 34 H       -1.5060     1.1700     3.2700 H     1 <1>   0.0800 
 35 H       -2.4950     0.9830     0.5270 H     1 <1>   0.4500 
 36 H        0.1940     0.5240    -2.0160 H     1 <1>   0.1500 
 37 H       -4.2440     1.2810     2.8820 H     1 <1>   0.0800 
 38 H       -3.7240     2.6130     1.8700 H     1 <1>   0.0800 
 39 H        4.6930     1.5050    -0.3350 H     1 <1>   0.1500 
 40 H        4.5160    -0.0550     1.3570 H     1 <1>   0.0800 
 41 H        3.6110    -1.4730     0.9120 H     1 <1>   0.0800 
 42 H        2.9150    -0.2860     1.9990 H     1 <1>   0.0800 
 43 H       -5.3860     0.2380     1.0040 H     1 <1>   0.1500 
 44 H        3.8290     2.7200    -2.2560 H     1 <1>   0.1500 
 45 H        1.7750     2.0000    -4.3740 H     1 <1>   0.0800 
 46 H        1.7470     3.4830    -3.4480 H     1 <1>   0.0800 
 47 H        0.3410     2.4510    -3.4810 H     1 <1>   0.0800 
 48 H       -4.8740     2.9960    -0.2410 H     1 <1>   0.1500 
 49 H       -5.6700     3.3850    -2.4120 H     1 <1>   0.1500 
 50 H       -7.2730     0.1090    -0.2000 H     1 <1>   0.1500 
 51 H       -7.3170     2.9930    -4.1720 H     1 <1>   0.1500 
 52 H       -8.9050    -0.2810    -1.9660 H     1 <1>   0.1500 
 53 H       -8.9390     1.1560    -3.9610 H     1 <1>   0.1500 
@<TRIPOS>BOND
  1   1   2  1   
  2   1   3  1   
  3   1   4  1   
  4   2   5  1   
  5   2  25  1   
  6   2  26  1   
  7   3   6  1   
  8   3  27  1   
  9   3  28  1   
 10   4   7  1   
 11   4  29  1   
 12   4  30  1   
 13   5   8  1   
 14   5  31  1   
 15   5  32  1   
 16   6   8  1   
 17   6  33  1   
 18   6  34  1   
 19   7   9  ar  
 20   7  10  ar  
 21   8  11  1   
 22   8  35  1   
 23   9  12  ar  
 24   9  13  1   
 25  10  14  ar  
 26  10  36  1   
 27  11  15  1   
 28  11  37  1   
 29  11  38  1   
 30  12  16  ar  
 31  12  39  1   
 32  13  40  1   
 33  13  41  1   
 34  13  42  1   
 35  14  16  ar  
 36  14  17  1   
 37  15  18  2   
 38  15  43  1   
 39  16  44  1   
 40  17  45  1   
 41  17  46  1   
 42  17  47  1   
 43  18  19  1   
 44  18  48  1   
 45  19  20  ar  
 46  19  21  ar  
 47  20  22  ar  
 48  20  49  1   
 49  21  23  ar  
 50  21  50  1   
 51  22  24  ar  
 52  22  51  1   
 53  23  24  ar  
 54  23  52  1   
 55  24  53  1   
@<TRIPOS>SUBSTRUCTURE
  1 ****   8 GROUP 4 **** **** 0

# MOE 2024.06 (io_trps.svl 2023.06)
