@<TRIPOS>MOLECULE
NONAME
47 49 1 0 0 
SMALL
USER_CHARGES


@<TRIPOS>ATOM
  1 BR       2.4370    -1.7440    -0.2230 Br    1 <1>  -0.1110 
  2 C        0.8910    -2.8880    -0.1510 C.ar  1 <1>   0.1110 
  3 C       -0.2000    -2.5770    -0.9390 C.ar  1 <1>  -0.1500 
  4 C        0.9130    -3.9880     0.6840 C.ar  1 <1>  -0.1500 
  5 C       -1.3170    -3.3980    -0.8850 C.ar  1 <1>  -0.1440 
  6 C       -0.2020    -4.8060     0.7320 C.ar  1 <1>  -0.1500 
  7 C       -1.3190    -4.5140    -0.0510 C.ar  1 <1>   0.0830 
  8 C       -2.5340    -3.0920    -1.7360 C.3   1 <1>   0.4870 
  9 O       -2.4460    -5.2730    -0.0420 O.3   1 <1>  -0.3630 
 10 N       -3.3560    -2.0570    -1.0530 N.4   1 <1>  -0.9590 
 11 C       -2.4710    -6.5370     0.5930 C.3   1 <1>   0.0400 
 12 C       -3.9450    -2.5950     0.2300 C.3   1 <1>   0.3430 
 13 C       -4.4410    -1.5220    -1.9520 C.3   1 <1>   0.3430 
 14 C       -4.8190    -1.5630     0.9720 C.3   1 <1>   0.2090 
 15 C       -5.3050    -0.4460    -1.2630 C.3   1 <1>   0.2090 
 16 N       -5.8060    -0.9080     0.0630 N.pl3 1 <1>  -0.8380 
 17 C       -7.1370    -1.3150     0.1370 C.ar  1 <1>   0.1000 
 18 C       -8.1250    -0.4490     0.6090 C.ar  1 <1>  -0.1430 
 19 C       -7.5020    -2.5960    -0.2670 C.ar  1 <1>  -0.1500 
 20 C       -9.4430    -0.8720     0.6650 C.ar  1 <1>  -0.1500 
 21 C       -7.7710     0.9590     1.0670 C.3   1 <1>  -0.0970 
 22 C       -8.8180    -3.0120    -0.2070 C.ar  1 <1>  -0.1500 
 23 C       -9.7920    -2.1480     0.2590 C.ar  1 <1>  -0.1500 
 24 H       -0.1520    -1.7110    -1.5770 H     1 <1>   0.1500 
 25 H        1.7850    -4.1960     1.2810 H     1 <1>   0.1500 
 26 H       -0.1770    -5.6600     1.3850 H     1 <1>   0.1500 
 27 H       -3.1130    -3.9890    -1.8880 H     1 <1>   0.0800 
 28 H       -2.2090    -2.7320    -2.6980 H     1 <1>   0.0800 
 29 H       -2.7310    -1.2850    -0.7940 H     1 <1>   0.4500 
 30 H       -3.4240    -6.9960     0.3970 H     1 <1>   0.0800 
 31 H       -2.3450    -6.4030     1.6530 H     1 <1>   0.0800 
 32 H       -1.6840    -7.1500     0.1890 H     1 <1>   0.0800 
 33 H       -3.1560    -2.9180     0.8890 H     1 <1>   0.0800 
 34 H       -4.5530    -3.4570     0.0110 H     1 <1>   0.0800 
 35 H       -5.0910    -2.3280    -2.2490 H     1 <1>   0.0800 
 36 H       -4.0070    -1.1020    -2.8440 H     1 <1>   0.0800 
 37 H       -4.1920    -0.8060     1.4100 H     1 <1>   0.0800 
 38 H       -5.3430    -2.0520     1.7760 H     1 <1>   0.0800 
 39 H       -6.1440    -0.2040    -1.8960 H     1 <1>   0.0800 
 40 H       -4.7320     0.4540    -1.1280 H     1 <1>   0.0800 
 41 H       -6.7570    -3.2740    -0.6310 H     1 <1>   0.1500 
 42 H      -10.2100    -0.2100     1.0270 H     1 <1>   0.1500 
 43 H       -7.0340     0.9120     1.8480 H     1 <1>   0.0800 
 44 H       -8.6350     1.4740     1.4440 H     1 <1>   0.0800 
 45 H       -7.3690     1.5190     0.2440 H     1 <1>   0.0800 
 46 H       -9.0920    -4.0040    -0.5220 H     1 <1>   0.1500 
 47 H      -10.8190    -2.4660     0.3080 H     1 <1>   0.1500 
@<TRIPOS>BOND
  1   1   2  1   
  2   2   3  ar  
  3   2   4  ar  
  4   3   5  ar  
  5   3  24  1   
  6   4   6  ar  
  7   4  25  1   
  8   5   7  ar  
  9   5   8  1   
 10   6   7  ar  
 11   6  26  1   
 12   7   9  1   
 13   8  10  1   
 14   8  27  1   
 15   8  28  1   
 16   9  11  1   
 17  10  12  1   
 18  10  13  1   
 19  10  29  1   
 20  11  30  1   
 21  11  31  1   
 22  11  32  1   
 23  12  14  1   
 24  12  33  1   
 25  12  34  1   
 26  13  15  1   
 27  13  35  1   
 28  13  36  1   
 29  14  16  1   
 30  14  37  1   
 31  14  38  1   
 32  15  16  1   
 33  15  39  1   
 34  15  40  1   
 35  16  17  1   
 36  17  18  ar  
 37  17  19  ar  
 38  18  20  ar  
 39  18  21  1   
 40  19  22  ar  
 41  19  41  1   
 42  20  23  ar  
 43  20  42  1   
 44  21  43  1   
 45  21  44  1   
 46  21  45  1   
 47  22  23  ar  
 48  22  46  1   
 49  23  47  1   
@<TRIPOS>SUBSTRUCTURE
  1 ****  12 GROUP 4 **** **** 0

# MOE 2024.06 (io_trps.svl 2023.06)
