@<TRIPOS>MOLECULE
NONAME
46 47 1 0 0 
SMALL
USER_CHARGES


@<TRIPOS>ATOM
  1 O        0.8040     0.3180     0.1920 O.2   1 <1>  -0.5700 
  2 C        0.5180     1.4810     0.0830 C.2   1 <1>   0.6590 
  3 O       -0.7130     1.9350     0.2570 O.3   1 <1>  -0.4300 
  4 C        1.5640     2.5230    -0.2720 C.3   1 <1>  -0.0190 
  5 C       -1.7770     1.0760     0.5970 C.3   1 <1>   0.1200 
  6 C        2.8110     1.8220    -0.8440 C.3   1 <1>   0.3430 
  7 C        1.9120     3.4240     0.9300 C.3   1 <1>  -0.1600 
  8 C       -3.0410     1.9190     0.7270 C.3   1 <1>  -0.2400 
  9 N        4.0850     2.5510    -0.5320 N.4   1 <1>  -0.9590 
 10 C        2.9760     4.4740     0.5480 C.3   1 <1>  -0.1600 
 11 C        3.9350     4.0320    -0.5670 C.3   1 <1>   0.3430 
 12 C        5.2200     2.0690    -1.3620 C.3   1 <1>   0.4860 
 13 C        6.5030     2.5910    -0.7480 C.ar  1 <1>  -0.1430 
 14 C        7.0370     2.0440     0.4170 C.ar  1 <1>  -0.1430 
 15 C        7.1500     3.6520    -1.3660 C.ar  1 <1>  -0.1500 
 16 C        8.1950     2.5890     0.9510 C.ar  1 <1>  -0.1500 
 17 C        6.4070     0.8570     1.1390 C.3   1 <1>  -0.0970 
 18 C        8.3050     4.1820    -0.8250 C.ar  1 <1>  -0.1500 
 19 C        8.8320     3.6540     0.3390 C.ar  1 <1>  -0.1430 
 20 C       10.1000     4.2330     0.9420 C.3   1 <1>  -0.0970 
 21 H        1.1410     3.1360    -1.0480 H     1 <1>   0.0800 
 22 H       -1.5410     0.5880     1.5280 H     1 <1>   0.0800 
 23 H       -1.8840     0.3380    -0.1810 H     1 <1>   0.0800 
 24 H        2.6900     1.7260    -1.9110 H     1 <1>   0.0800 
 25 H        2.8820     0.8260    -0.4360 H     1 <1>   0.0800 
 26 H        2.2860     2.8090     1.7310 H     1 <1>   0.0800 
 27 H        1.0270     3.9210     1.2930 H     1 <1>   0.0800 
 28 H       -2.9200     2.6560     1.5010 H     1 <1>   0.0800 
 29 H       -3.8720     1.2870     0.9870 H     1 <1>   0.0800 
 30 H       -3.2630     2.4070    -0.2050 H     1 <1>   0.0800 
 31 H        4.3540     2.3320     0.4360 H     1 <1>   0.4500 
 32 H        3.5480     4.7320     1.4240 H     1 <1>   0.0800 
 33 H        2.4890     5.3770     0.2230 H     1 <1>   0.0800 
 34 H        3.5390     4.3300    -1.5250 H     1 <1>   0.0800 
 35 H        4.8890     4.5170    -0.4280 H     1 <1>   0.0800 
 36 H        5.1220     2.4200    -2.3750 H     1 <1>   0.0800 
 37 H        5.2440     0.9910    -1.3740 H     1 <1>   0.0800 
 38 H        6.7670     4.0810    -2.2770 H     1 <1>   0.1500 
 39 H        8.6150     2.1820     1.8540 H     1 <1>   0.1500 
 40 H        5.5750     1.1790     1.7390 H     1 <1>   0.0800 
 41 H        7.1250     0.3930     1.7920 H     1 <1>   0.0800 
 42 H        6.0800     0.1070     0.4420 H     1 <1>   0.0800 
 43 H        8.7970     5.0070    -1.3130 H     1 <1>   0.1500 
 44 H       10.7040     3.4500     1.3650 H     1 <1>   0.0800 
 45 H        9.8490     4.9340     1.7170 H     1 <1>   0.0800 
 46 H       10.6810     4.7390     0.1930 H     1 <1>   0.0800 
@<TRIPOS>BOND
  1   1   2  2   
  2   2   3  1   
  3   2   4  1   
  4   3   5  1   
  5   4   6  1   
  6   4   7  1   
  7   4  21  1   
  8   5   8  1   
  9   5  22  1   
 10   5  23  1   
 11   6   9  1   
 12   6  24  1   
 13   6  25  1   
 14   7  10  1   
 15   7  26  1   
 16   7  27  1   
 17   8  28  1   
 18   8  29  1   
 19   8  30  1   
 20   9  11  1   
 21   9  12  1   
 22   9  31  1   
 23  10  11  1   
 24  10  32  1   
 25  10  33  1   
 26  11  34  1   
 27  11  35  1   
 28  12  13  1   
 29  12  36  1   
 30  12  37  1   
 31  13  14  ar  
 32  13  15  ar  
 33  14  16  ar  
 34  14  17  1   
 35  15  18  ar  
 36  15  38  1   
 37  16  19  ar  
 38  16  39  1   
 39  17  40  1   
 40  17  41  1   
 41  17  42  1   
 42  18  19  ar  
 43  18  43  1   
 44  19  20  1   
 45  20  44  1   
 46  20  45  1   
 47  20  46  1   
@<TRIPOS>SUBSTRUCTURE
  1 ****   9 GROUP 4 **** **** 0

# MOE 2024.06 (io_trps.svl 2023.06)
