@<TRIPOS>MOLECULE
NONAME
42 43 1 0 0 
SMALL
USER_CHARGES


@<TRIPOS>ATOM
  1 O       -0.4250    -0.2670    -0.7180 O.3   1 <1>  -0.3630 
  2 C       -1.5430    -0.7360    -0.1010 C.ar  1 <1>   0.0830 
  3 C        0.2030     0.9370    -0.3380 C.3   1 <1>   0.0400 
  4 C       -2.0200    -1.9970    -0.4620 C.ar  1 <1>  -0.1440 
  5 C       -2.2040     0.0010     0.8730 C.ar  1 <1>  -0.1500 
  6 C       -3.1500    -2.5230     0.1690 C.ar  1 <1>  -0.1430 
  7 C       -1.2780    -2.7910    -1.5440 C.3   1 <1>  -0.0960 
  8 C       -3.3330    -0.5080     1.4780 C.ar  1 <1>  -0.1500 
  9 C       -3.8180    -1.7580     1.1270 C.ar  1 <1>  -0.1440 
 10 C       -3.6230    -3.9340    -0.1950 C.3   1 <1>  -0.0970 
 11 C       -5.0920    -2.2240     1.8060 C.3   1 <1>   0.4860 
 12 N       -6.1980    -2.1440     0.8120 N.4   1 <1>  -0.9590 
 13 C       -6.4590    -0.7300     0.3990 C.3   1 <1>   0.3430 
 14 C       -7.4210    -2.8500     1.2900 C.3   1 <1>   0.3430 
 15 C       -7.5110    -0.6980    -0.7060 C.3   1 <1>  -0.1600 
 16 C       -8.4830    -2.8470     0.1930 C.3   1 <1>  -0.1600 
 17 C       -8.7770    -1.4160    -0.2490 C.3   1 <1>   0.2000 
 18 O       -9.6650    -1.4530    -1.2940 O.3   1 <1>  -0.6800 
 19 H        1.0860     1.0550    -0.9400 H     1 <1>   0.0800 
 20 H        0.4760     0.8770     0.7010 H     1 <1>   0.0800 
 21 H       -0.4710     1.7560    -0.5160 H     1 <1>   0.0800 
 22 H       -1.8540     0.9710     1.1710 H     1 <1>   0.1500 
 23 H       -0.7150    -2.1490    -2.1950 H     1 <1>   0.0800 
 24 H       -1.9600    -3.3370    -2.1690 H     1 <1>   0.0800 
 25 H       -0.5950    -3.4810    -1.0820 H     1 <1>   0.0800 
 26 H       -3.8240     0.0890     2.2280 H     1 <1>   0.1500 
 27 H       -4.1030    -3.9250    -1.1570 H     1 <1>   0.0800 
 28 H       -4.2960    -4.3540     0.5260 H     1 <1>   0.0800 
 29 H       -2.7790    -4.6000    -0.2440 H     1 <1>   0.0800 
 30 H       -5.3090    -1.6000     2.6580 H     1 <1>   0.0800 
 31 H       -4.9650    -3.2370     2.1510 H     1 <1>   0.0800 
 32 H       -5.8370    -2.6240    -0.0230 H     1 <1>   0.4500 
 33 H       -5.5500    -0.2750     0.0360 H     1 <1>   0.0800 
 34 H       -6.8090    -0.1600     1.2450 H     1 <1>   0.0800 
 35 H       -7.8100    -2.3540     2.1650 H     1 <1>   0.0800 
 36 H       -7.1830    -3.8680     1.5550 H     1 <1>   0.0800 
 37 H       -7.1090    -1.1580    -1.5910 H     1 <1>   0.0800 
 38 H       -7.7460     0.3270    -0.9340 H     1 <1>   0.0800 
 39 H       -9.3840    -3.2910     0.5780 H     1 <1>   0.0800 
 40 H       -8.1400    -3.4390    -0.6370 H     1 <1>   0.0800 
 41 H       -9.2490    -0.8680     0.5510 H     1 <1>   0.0800 
 42 H       -9.2970    -1.9110    -2.0750 H     1 <1>   0.4000 
@<TRIPOS>BOND
  1   1   2  1   
  2   1   3  1   
  3   2   4  ar  
  4   2   5  ar  
  5   3  19  1   
  6   3  20  1   
  7   3  21  1   
  8   4   6  ar  
  9   4   7  1   
 10   5   8  ar  
 11   5  22  1   
 12   6   9  ar  
 13   6  10  1   
 14   7  23  1   
 15   7  24  1   
 16   7  25  1   
 17   8   9  ar  
 18   8  26  1   
 19   9  11  1   
 20  10  27  1   
 21  10  28  1   
 22  10  29  1   
 23  11  12  1   
 24  11  30  1   
 25  11  31  1   
 26  12  13  1   
 27  12  14  1   
 28  12  32  1   
 29  13  15  1   
 30  13  33  1   
 31  13  34  1   
 32  14  16  1   
 33  14  35  1   
 34  14  36  1   
 35  15  17  1   
 36  15  37  1   
 37  15  38  1   
 38  16  17  1   
 39  16  39  1   
 40  16  40  1   
 41  17  18  1   
 42  17  41  1   
 43  18  42  1   
@<TRIPOS>SUBSTRUCTURE
  1 ****   9 GROUP 4 **** **** 0

# MOE 2024.06 (io_trps.svl 2023.06)
