@<TRIPOS>MOLECULE
NONAME
50 51 1 0 0 
SMALL
USER_CHARGES


@<TRIPOS>ATOM
  1 S        0.8850     0.9440     1.4060 S.o2  1 <1>   1.3330 
  2 O        2.2090     1.0650     1.9730 O.2   1 <1>  -0.6500 
  3 O        0.3590    -0.3520     1.0620 O.2   1 <1>  -0.6500 
  4 N        0.8660     1.9170    -0.0200 N.am  1 <1>  -0.6930 
  5 C       -0.2680     1.7890     2.4670 C.3   1 <1>  -0.1350 
  6 C       -0.2740     1.9790    -0.8230 C.ar  1 <1>   0.1990 
  7 C        1.9060     2.9850    -0.1660 C.3   1 <1>   0.2570 
  8 C       -1.2060     3.0230    -0.7150 C.ar  1 <1>   0.0830 
  9 C       -0.4910     0.9760    -1.7570 C.ar  1 <1>  -0.1500 
 10 C        3.2090     2.5010    -0.8110 C.2   1 <1>   0.5690 
 11 O       -0.9760     3.9860     0.2290 O.3   1 <1>  -0.3630 
 12 C       -2.3200     3.0410    -1.5490 C.ar  1 <1>  -0.1500 
 13 C       -1.6010     0.9990    -2.5810 C.ar  1 <1>  -0.1500 
 14 O        3.6070     3.0570    -1.8080 O.2   1 <1>  -0.5700 
 15 N        3.9060     1.4840    -0.2370 N.am  1 <1>  -0.7300 
 16 C       -1.7670     5.1500     0.2950 C.3   1 <1>   0.1200 
 17 C       -2.5140     2.0320    -2.4790 C.ar  1 <1>  -0.1500 
 18 C        5.1520     0.8820    -0.7600 C.3   1 <1>   0.1400 
 19 C       -1.1870     6.0470     1.3840 C.3   1 <1>  -0.2400 
 20 C        6.3290     1.2760     0.1300 C.3   1 <1>  -0.0170 
 21 C        7.6120     0.6360    -0.3770 C.ar  1 <1>  -0.1430 
 22 C        8.3360     1.2400    -1.3930 C.ar  1 <1>  -0.1500 
 23 C        8.0650    -0.5570     0.1650 C.ar  1 <1>  -0.1500 
 24 C        9.5030     0.6590    -1.8610 C.ar  1 <1>  -0.1500 
 25 C        9.2310    -1.1390    -0.3020 C.ar  1 <1>  -0.1500 
 26 C        9.9510    -0.5310    -1.3160 C.ar  1 <1>  -0.1500 
 27 H       -0.3260     1.2940     3.4160 H     1 <1>   0.0800 
 28 H       -1.2430     1.7930     2.0210 H     1 <1>   0.0800 
 29 H        0.0430     2.8030     2.6210 H     1 <1>   0.0800 
 30 H        2.1330     3.4020     0.7980 H     1 <1>   0.0800 
 31 H        1.5130     3.7780    -0.7770 H     1 <1>   0.0800 
 32 H        0.2200     0.1720    -1.8300 H     1 <1>   0.1500 
 33 H       -3.0530     3.8240    -1.4950 H     1 <1>   0.1500 
 34 H       -1.7510     0.2120    -3.3000 H     1 <1>   0.1500 
 35 H        3.5300     1.0700     0.6310 H     1 <1>   0.3700 
 36 H       -2.7770     4.8660     0.5360 H     1 <1>   0.0800 
 37 H       -1.7330     5.6420    -0.6620 H     1 <1>   0.0800 
 38 H       -3.3770     2.0500    -3.1220 H     1 <1>   0.1500 
 39 H        5.3290     1.2220    -1.7670 H     1 <1>   0.0800 
 40 H        5.0480    -0.1890    -0.7800 H     1 <1>   0.0800 
 41 H       -1.2130     5.5440     2.3330 H     1 <1>   0.0800 
 42 H       -1.7680     6.9490     1.4580 H     1 <1>   0.0800 
 43 H       -0.1730     6.3140     1.1430 H     1 <1>   0.0800 
 44 H        6.1410     0.9600     1.1400 H     1 <1>   0.0800 
 45 H        6.4370     2.3460     0.1240 H     1 <1>   0.0800 
 46 H        7.9940     2.1650    -1.8240 H     1 <1>   0.1500 
 47 H        7.5130    -1.0380     0.9530 H     1 <1>   0.1500 
 48 H       10.0600     1.1340    -2.6500 H     1 <1>   0.1500 
 49 H        9.5770    -2.0640     0.1230 H     1 <1>   0.1500 
 50 H       10.8570    -0.9820    -1.6790 H     1 <1>   0.1500 
@<TRIPOS>BOND
  1   1   2  2   
  2   1   3  2   
  3   1   4  am  
  4   1   5  1   
  5   4   6  1   
  6   4   7  1   
  7   5  27  1   
  8   5  28  1   
  9   5  29  1   
 10   6   8  ar  
 11   6   9  ar  
 12   7  10  1   
 13   7  30  1   
 14   7  31  1   
 15   8  11  1   
 16   8  12  ar  
 17   9  13  ar  
 18   9  32  1   
 19  10  14  2   
 20  10  15  am  
 21  11  16  1   
 22  12  17  ar  
 23  12  33  1   
 24  13  17  ar  
 25  13  34  1   
 26  15  18  1   
 27  15  35  1   
 28  16  19  1   
 29  16  36  1   
 30  16  37  1   
 31  17  38  1   
 32  18  20  1   
 33  18  39  1   
 34  18  40  1   
 35  19  41  1   
 36  19  42  1   
 37  19  43  1   
 38  20  21  1   
 39  20  44  1   
 40  20  45  1   
 41  21  22  ar  
 42  21  23  ar  
 43  22  24  ar  
 44  22  46  1   
 45  23  25  ar  
 46  23  47  1   
 47  24  26  ar  
 48  24  48  1   
 49  25  26  ar  
 50  25  49  1   
 51  26  50  1   
@<TRIPOS>SUBSTRUCTURE
  1 ****  10 GROUP 4 **** **** 0

# MOE 2024.06 (io_trps.svl 2023.06)
