@<TRIPOS>MOLECULE
NONAME
40 42 1 0 0 
SMALL
USER_CHARGES


@<TRIPOS>ATOM
  1 O       -0.2680    -0.5340    -1.0890 O.2   1 <1>  -0.5700 
  2 C       -1.2980    -0.9700    -0.6320 C.2   1 <1>   0.4950 
  3 C       -1.6560    -2.3380    -0.6830 C.2   1 <1>  -0.1360 
  4 C       -2.2470    -0.0060     0.0560 C.3   1 <1>  -0.0990 
  5 C       -2.8130    -2.8660    -0.2100 C.2   1 <1>  -0.0380 
  6 C       -3.7180    -0.4670    -0.0280 C.3   1 <1>   0.0000 
  7 N       -3.0670    -4.2190    -0.2450 N.pl3 1 <1>  -0.5830 
  8 C       -3.8470    -1.9390     0.4340 C.3   1 <1>  -0.0220 
  9 C       -4.5840     0.4320     0.8700 C.3   1 <1>  -0.2400 
 10 C       -4.2270    -0.3260    -1.4760 C.3   1 <1>  -0.2400 
 11 C       -4.1830    -4.9710     0.1180 C.2   1 <1>   0.3720 
 12 N       -4.0260    -6.0370     0.8330 N.2   1 <1>  -0.7070 
 13 C       -5.5090    -4.7590    -0.2350 C.2   1 <1>  -0.1500 
 14 N       -5.2790    -6.5180     0.9780 N.pl3 1 <1>   0.3000 
 15 C       -6.2100    -5.7700     0.3380 C.2   1 <1>  -0.2050 
 16 C       -7.6220    -6.0570     0.3210 C.ar  1 <1>   0.0530 
 17 C       -8.1020    -7.3630     0.2470 C.ar  1 <1>  -0.1500 
 18 C       -8.5530    -5.0240     0.3810 C.ar  1 <1>  -0.1500 
 19 C       -9.4600    -7.6270     0.2420 C.ar  1 <1>  -0.1500 
 20 C       -9.9120    -5.2810     0.3750 C.ar  1 <1>  -0.1500 
 21 C      -10.3680    -6.5860     0.3070 C.ar  1 <1>  -0.1500 
 22 H       -0.9180    -2.9710    -1.1380 H     1 <1>   0.1500 
 23 H       -2.1380     0.9680    -0.3860 H     1 <1>   0.0800 
 24 H       -1.9430     0.0660     1.0840 H     1 <1>   0.0800 
 25 H       -2.2730    -4.8440    -0.3930 H     1 <1>   0.4000 
 26 H       -3.7170    -2.0010     1.5000 H     1 <1>   0.0800 
 27 H       -4.8430    -2.2680     0.2180 H     1 <1>   0.0800 
 28 H       -4.2630     0.3690     1.8950 H     1 <1>   0.0800 
 29 H       -5.6160     0.1330     0.8220 H     1 <1>   0.0800 
 30 H       -4.5140     1.4590     0.5580 H     1 <1>   0.0800 
 31 H       -3.6680    -0.9510    -2.1500 H     1 <1>   0.0800 
 32 H       -4.1390     0.6920    -1.8120 H     1 <1>   0.0800 
 33 H       -5.2620    -0.6120    -1.5420 H     1 <1>   0.0800 
 34 H       -5.8740    -3.9600    -0.8510 H     1 <1>   0.1500 
 35 H       -5.4820    -7.3580     1.5330 H     1 <1>   0.2700 
 36 H       -7.4100    -8.1820     0.1820 H     1 <1>   0.1500 
 37 H       -8.2060    -4.0080     0.4370 H     1 <1>   0.1500 
 38 H       -9.8130    -8.6420     0.1830 H     1 <1>   0.1500 
 39 H      -10.6160    -4.4680     0.4230 H     1 <1>   0.1500 
 40 H      -11.4250    -6.7890     0.3020 H     1 <1>   0.1500 
@<TRIPOS>BOND
  1   1   2  2   
  2   2   3  1   
  3   2   4  1   
  4   3   5  2   
  5   3  22  1   
  6   4   6  1   
  7   4  23  1   
  8   4  24  1   
  9   5   7  1   
 10   5   8  1   
 11   6   8  1   
 12   6   9  1   
 13   6  10  1   
 14   7  11  1   
 15   7  25  1   
 16   8  26  1   
 17   8  27  1   
 18   9  28  1   
 19   9  29  1   
 20   9  30  1   
 21  10  31  1   
 22  10  32  1   
 23  10  33  1   
 24  11  12  2   
 25  11  13  1   
 26  12  14  1   
 27  13  15  2   
 28  13  34  1   
 29  14  15  1   
 30  14  35  1   
 31  15  16  1   
 32  16  17  ar  
 33  16  18  ar  
 34  17  19  ar  
 35  17  36  1   
 36  18  20  ar  
 37  18  37  1   
 38  19  21  ar  
 39  19  38  1   
 40  20  21  ar  
 41  20  39  1   
 42  21  40  1   
@<TRIPOS>SUBSTRUCTURE
  1 ****  13 GROUP 4 **** **** 0

# MOE 2024.06 (io_trps.svl 2023.06)
