@<TRIPOS>MOLECULE
NONAME
39 39 1 0 0 
SMALL
USER_CHARGES


@<TRIPOS>ATOM
  1 BR      -0.2130     0.3100     1.6430 Br    1 <1>  -0.1110 
  2 C       -1.7360    -0.6040     0.9070 C.ar  1 <1>   0.1110 
  3 C       -2.4980    -1.4040     1.7360 C.ar  1 <1>  -0.1500 
  4 C       -2.0290    -0.4420    -0.4320 C.ar  1 <1>  -0.1500 
  5 C       -3.5960    -2.0580     1.2040 C.ar  1 <1>  -0.1500 
  6 C       -3.1290    -1.0990    -0.9560 C.ar  1 <1>  -0.1500 
  7 C       -3.9210    -1.9010    -0.1400 C.ar  1 <1>  -0.1430 
  8 C       -5.1390    -2.6000    -0.7120 C.3   1 <1>   0.4870 
  9 N       -6.3570    -1.8930    -0.2030 N.4   1 <1>  -0.9590 
 10 C       -7.5830    -2.7640    -0.3470 C.3   1 <1>   0.3430 
 11 C       -6.4680    -0.5490    -0.8470 C.3   1 <1>   0.3430 
 12 C       -8.8620    -2.2190     0.3550 C.3   1 <1>   0.3430 
 13 C       -6.7740     0.4860     0.2270 C.3   1 <1>  -0.2400 
 14 N      -10.0510    -3.1520     0.3180 N.4   1 <1>  -0.9590 
 15 C      -10.5880    -3.3960    -1.0650 C.3   1 <1>   0.2630 
 16 C      -11.1600    -2.6090     1.1760 C.3   1 <1>   0.2630 
 17 H       -2.2280    -1.5110     2.7730 H     1 <1>   0.1500 
 18 H       -1.4030     0.1840    -1.0460 H     1 <1>   0.1500 
 19 H       -4.1760    -2.6910     1.8540 H     1 <1>   0.1500 
 20 H       -3.3480    -0.9750    -2.0040 H     1 <1>   0.1500 
 21 H       -5.1330    -3.6270    -0.3840 H     1 <1>   0.0800 
 22 H       -5.1080    -2.5840    -1.7900 H     1 <1>   0.0800 
 23 H       -6.1330    -1.7170     0.7880 H     1 <1>   0.4500 
 24 H       -7.3630    -3.7330     0.0730 H     1 <1>   0.0800 
 25 H       -7.7930    -2.8970    -1.3950 H     1 <1>   0.0800 
 26 H       -7.2320    -0.5470    -1.6080 H     1 <1>   0.0800 
 27 H       -5.5340    -0.2800    -1.3160 H     1 <1>   0.0800 
 28 H       -9.1410    -1.2860    -0.1070 H     1 <1>   0.0800 
 29 H       -8.6190    -2.0190     1.3850 H     1 <1>   0.0800 
 30 H       -7.7120     0.3050     0.7150 H     1 <1>   0.0800 
 31 H       -6.8260     1.4580    -0.2320 H     1 <1>   0.0800 
 32 H       -5.9830     0.5190     0.9560 H     1 <1>   0.0800 
 33 H       -9.7990    -4.0690     0.7290 H     1 <1>   0.4500 
 34 H      -10.8980    -2.4680    -1.5200 H     1 <1>   0.0800 
 35 H      -11.4440    -4.0520    -1.0220 H     1 <1>   0.0800 
 36 H       -9.8430    -3.8590    -1.6910 H     1 <1>   0.0800 
 37 H      -11.5000    -1.6570     0.7990 H     1 <1>   0.0800 
 38 H      -10.8250    -2.4770     2.1920 H     1 <1>   0.0800 
 39 H      -11.9970    -3.2900     1.1820 H     1 <1>   0.0800 
@<TRIPOS>BOND
  1   1   2  1   
  2   2   3  ar  
  3   2   4  ar  
  4   3   5  ar  
  5   3  17  1   
  6   4   6  ar  
  7   4  18  1   
  8   5   7  ar  
  9   5  19  1   
 10   6   7  ar  
 11   6  20  1   
 12   7   8  1   
 13   8   9  1   
 14   8  21  1   
 15   8  22  1   
 16   9  10  1   
 17   9  11  1   
 18   9  23  1   
 19  10  12  1   
 20  10  24  1   
 21  10  25  1   
 22  11  13  1   
 23  11  26  1   
 24  11  27  1   
 25  12  14  1   
 26  12  28  1   
 27  12  29  1   
 28  13  30  1   
 29  13  31  1   
 30  13  32  1   
 31  14  15  1   
 32  14  16  1   
 33  14  33  1   
 34  15  34  1   
 35  15  35  1   
 36  15  36  1   
 37  16  37  1   
 38  16  38  1   
 39  16  39  1   
@<TRIPOS>SUBSTRUCTURE
  1 ****   9 GROUP 4 **** **** 0

# MOE 2024.06 (io_trps.svl 2023.06)
