@<TRIPOS>MOLECULE
NONAME
46 47 1 0 0 
SMALL
USER_CHARGES


@<TRIPOS>ATOM
  1 CL       0.3120     0.1140     0.6940 Cl    1 <1>  -0.1770 
  2 C        2.0440     0.2640     0.5280 C.ar  1 <1>   0.1770 
  3 C        2.8420    -0.8490     0.7130 C.ar  1 <1>  -0.1500 
  4 C        2.5890     1.4940     0.2140 C.ar  1 <1>  -0.1500 
  5 C        4.2180    -0.7380     0.5830 C.ar  1 <1>  -0.1440 
  6 C        3.9620     1.6120     0.0820 C.ar  1 <1>  -0.1500 
  7 C        4.7820     0.4980     0.2660 C.ar  1 <1>   0.0830 
  8 C        5.0900    -1.9680     0.7880 C.3   1 <1>  -0.0960 
  9 O        6.1360     0.5550     0.1490 O.3   1 <1>  -0.3630 
 10 C        6.8050     1.7480    -0.2020 C.3   1 <1>   0.1200 
 11 C        8.3110     1.4590    -0.2480 C.3   1 <1>   0.2000 
 12 O        8.6900     0.8430     0.9460 O.3   1 <1>  -0.6800 
 13 C        9.1580     2.7350    -0.4430 C.3   1 <1>   0.3430 
 14 N       10.5510     2.5170     0.0500 N.4   1 <1>  -0.9590 
 15 C       11.2610     3.7480     0.5150 C.3   1 <1>   0.3430 
 16 C       11.4200     1.6990    -0.8660 C.3   1 <1>   0.3430 
 17 C       12.5800     3.3850     1.2480 C.3   1 <1>   0.2000 
 18 C       12.9210     1.7310    -0.4700 C.3   1 <1>   0.2000 
 19 O       13.0730     2.1250     0.8670 O.3   1 <1>  -0.5600 
 20 C       12.3800     3.3150     2.7610 C.3   1 <1>  -0.2400 
 21 C       13.7770     2.6320    -1.3700 C.3   1 <1>  -0.2400 
 22 H        2.3790    -1.7880     0.9570 H     1 <1>   0.1500 
 23 H        1.9430     2.3420     0.0760 H     1 <1>   0.1500 
 24 H        4.3620     2.5770    -0.1610 H     1 <1>   0.1500 
 25 H        4.4920    -2.8390     0.9880 H     1 <1>   0.0800 
 26 H        5.7520    -1.8120     1.6210 H     1 <1>   0.0800 
 27 H        5.6760    -2.1530    -0.0940 H     1 <1>   0.0800 
 28 H        6.5820     2.4930     0.5420 H     1 <1>   0.0800 
 29 H        6.4470     2.0670    -1.1650 H     1 <1>   0.0800 
 30 H        8.5080     0.7680    -1.0490 H     1 <1>   0.0800 
 31 H        7.9980     0.1840     1.1890 H     1 <1>   0.4000 
 32 H        8.7020     3.5260     0.1300 H     1 <1>   0.0800 
 33 H        9.1580     3.0330    -1.4780 H     1 <1>   0.0800 
 34 H       10.4290     1.9180     0.8920 H     1 <1>   0.4500 
 35 H       10.6340     4.3170     1.1810 H     1 <1>   0.0800 
 36 H       11.4930     4.3720    -0.3300 H     1 <1>   0.0800 
 37 H       11.3270     2.0510    -1.8790 H     1 <1>   0.0800 
 38 H       11.0840     0.6750    -0.8490 H     1 <1>   0.0800 
 39 H       13.3350     4.1210     1.0260 H     1 <1>   0.0800 
 40 H       13.3110     0.7300    -0.5400 H     1 <1>   0.0800 
 41 H       11.6520     2.5660     3.0150 H     1 <1>   0.0800 
 42 H       12.0480     4.2650     3.1410 H     1 <1>   0.0800 
 43 H       13.3130     3.0720     3.2390 H     1 <1>   0.0800 
 44 H       13.4070     3.6390    -1.4080 H     1 <1>   0.0800 
 45 H       13.7850     2.2420    -2.3720 H     1 <1>   0.0800 
 46 H       14.7920     2.6400    -1.0130 H     1 <1>   0.0800 
@<TRIPOS>BOND
  1   1   2  1   
  2   2   3  ar  
  3   2   4  ar  
  4   3   5  ar  
  5   3  22  1   
  6   4   6  ar  
  7   4  23  1   
  8   5   7  ar  
  9   5   8  1   
 10   6   7  ar  
 11   6  24  1   
 12   7   9  1   
 13   8  25  1   
 14   8  26  1   
 15   8  27  1   
 16   9  10  1   
 17  10  11  1   
 18  10  28  1   
 19  10  29  1   
 20  11  12  1   
 21  11  13  1   
 22  11  30  1   
 23  12  31  1   
 24  13  14  1   
 25  13  32  1   
 26  13  33  1   
 27  14  15  1   
 28  14  16  1   
 29  14  34  1   
 30  15  17  1   
 31  15  35  1   
 32  15  36  1   
 33  16  18  1   
 34  16  37  1   
 35  16  38  1   
 36  17  19  1   
 37  17  20  1   
 38  17  39  1   
 39  18  19  1   
 40  18  21  1   
 41  18  40  1   
 42  20  41  1   
 43  20  42  1   
 44  20  43  1   
 45  21  44  1   
 46  21  45  1   
 47  21  46  1   
@<TRIPOS>SUBSTRUCTURE
  1 ****  11 GROUP 4 **** **** 0

# MOE 2024.06 (io_trps.svl 2023.06)
