@<TRIPOS>MOLECULE
NONAME
42 42 1 0 0 
SMALL
USER_CHARGES


@<TRIPOS>ATOM
  1 O        0.3090    -0.1420     0.2200 O.2   1 <1>  -0.5700 
  2 C        0.1380    -1.2250    -0.3090 C.2   1 <1>   0.6900 
  3 N        1.2000    -1.9250    -0.8290 N.am  1 <1>  -0.6600 
  4 N       -1.1050    -1.7880    -0.3730 N.am  1 <1>  -0.5470 
  5 C        1.0440    -2.9600    -1.8870 C.3   1 <1>   0.1400 
  6 C        2.5940    -1.4830    -0.5530 C.3   1 <1>   0.1400 
  7 C       -2.3720    -1.3050    -0.0100 C.ar  1 <1>   0.1170 
  8 C        1.1250    -4.3530    -1.2670 C.3   1 <1>  -0.2400 
  9 C        3.0410    -2.0140     0.8070 C.3   1 <1>  -0.2400 
 10 C       -2.6720     0.0510     0.0490 C.ar  1 <1>  -0.1500 
 11 C       -3.3720    -2.2200     0.2860 C.ar  1 <1>  -0.1500 
 12 C       -3.9430     0.4930     0.4020 C.ar  1 <1>   0.0820 
 13 C       -4.6440    -1.8070     0.6400 C.ar  1 <1>   0.0820 
 14 O       -4.2510     1.8210     0.4800 O.3   1 <1>  -0.3630 
 15 C       -4.9430    -0.4410     0.6830 C.ar  1 <1>   0.0820 
 16 O       -5.5360    -2.7970     0.9190 O.3   1 <1>  -0.3630 
 17 C       -3.2320     2.7930     0.5740 C.3   1 <1>   0.0400 
 18 O       -6.2000    -0.0110     0.9900 O.3   1 <1>  -0.3630 
 19 C       -6.3440    -2.6800     2.0700 C.3   1 <1>   0.0400 
 20 C       -6.9880     0.3510    -0.1210 C.3   1 <1>   0.0400 
 21 H       -1.0620    -2.7730    -0.6100 H     1 <1>   0.3700 
 22 H        1.8160    -2.8420    -2.6290 H     1 <1>   0.0800 
 23 H        0.1000    -2.8350    -2.3890 H     1 <1>   0.0800 
 24 H        2.6380    -0.4060    -0.5520 H     1 <1>   0.0800 
 25 H        3.2590    -1.8390    -1.3200 H     1 <1>   0.0800 
 26 H        2.1040    -4.5210    -0.8560 H     1 <1>   0.0800 
 27 H        0.9460    -5.0960    -2.0230 H     1 <1>   0.0800 
 28 H        0.3900    -4.4680    -0.4920 H     1 <1>   0.0800 
 29 H        2.4000    -1.6290     1.5800 H     1 <1>   0.0800 
 30 H        4.0460    -1.6920     1.0080 H     1 <1>   0.0800 
 31 H        3.0150    -3.0880     0.8230 H     1 <1>   0.0800 
 32 H       -1.9000     0.7520    -0.1940 H     1 <1>   0.1500 
 33 H       -3.1670    -3.2720     0.2510 H     1 <1>   0.1500 
 34 H       -3.6930     3.7400     0.7920 H     1 <1>   0.0800 
 35 H       -2.7120     2.8480    -0.3650 H     1 <1>   0.0800 
 36 H       -2.5610     2.5210     1.3700 H     1 <1>   0.0800 
 37 H       -6.6430    -3.6670     2.3720 H     1 <1>   0.0800 
 38 H       -7.2130    -2.0960     1.8290 H     1 <1>   0.0800 
 39 H       -5.7770    -2.2090     2.8550 H     1 <1>   0.0800 
 40 H       -7.9590     0.6420     0.2360 H     1 <1>   0.0800 
 41 H       -7.0720    -0.4980    -0.7770 H     1 <1>   0.0800 
 42 H       -6.5200     1.1750    -0.6290 H     1 <1>   0.0800 
@<TRIPOS>BOND
  1   1   2  2   
  2   2   3  am  
  3   2   4  am  
  4   3   5  1   
  5   3   6  1   
  6   4   7  1   
  7   4  21  1   
  8   5   8  1   
  9   5  22  1   
 10   5  23  1   
 11   6   9  1   
 12   6  24  1   
 13   6  25  1   
 14   7  10  ar  
 15   7  11  ar  
 16   8  26  1   
 17   8  27  1   
 18   8  28  1   
 19   9  29  1   
 20   9  30  1   
 21   9  31  1   
 22  10  12  ar  
 23  10  32  1   
 24  11  13  ar  
 25  11  33  1   
 26  12  14  1   
 27  12  15  ar  
 28  13  15  ar  
 29  13  16  1   
 30  14  17  1   
 31  15  18  1   
 32  16  19  1   
 33  17  34  1   
 34  17  35  1   
 35  17  36  1   
 36  18  20  1   
 37  19  37  1   
 38  19  38  1   
 39  19  39  1   
 40  20  40  1   
 41  20  41  1   
 42  20  42  1   
@<TRIPOS>SUBSTRUCTURE
  1 ****   7 GROUP 4 **** **** 0

# MOE 2024.06 (io_trps.svl 2023.06)
