@<TRIPOS>MOLECULE
NONAME
24 24 1 0 0 
SMALL
USER_CHARGES


@<TRIPOS>ATOM
  1 CL      -0.1160     0.5620    -0.2820 Cl    1 <1>  -0.1770 
  2 C       -1.8270     0.2370    -0.1460 C.ar  1 <1>   0.1770 
  3 C       -2.3270    -0.4120     0.9680 C.ar  1 <1>   0.1600 
  4 C       -2.6790     0.6310    -1.1540 C.ar  1 <1>  -0.1500 
  5 N       -3.6100    -0.6990     1.1540 N.ar  1 <1>  -0.6200 
  6 C       -4.0130     0.3390    -0.9710 C.ar  1 <1>  -0.1500 
  7 C       -4.4350    -0.3220     0.1870 C.ar  1 <1>   0.4270 
  8 N       -5.7400    -0.6630     0.4720 N.am  1 <1>  -0.5470 
  9 C       -6.9140    -0.4860    -0.2050 C.2   1 <1>   0.5690 
 10 O       -6.9690     0.0580    -1.2740 O.2   1 <1>  -0.5700 
 11 C       -8.1730    -0.9960     0.4180 C.3   1 <1>  -0.0190 
 12 C       -8.7990    -2.0430    -0.4540 C.3   1 <1>   1.0200 
 13 C       -9.1220     0.1370     0.6760 C.3   1 <1>   1.0200 
 14 F       -7.9320    -3.0100    -0.7230 F     1 <1>  -0.3400 
 15 F       -9.2580    -1.6280    -1.6230 F     1 <1>  -0.3400 
 16 F       -9.8150    -2.6460     0.1460 F     1 <1>  -0.3400 
 17 F       -8.5380     1.0830     1.3980 F     1 <1>  -0.3400 
 18 F      -10.1700    -0.2460     1.3890 F     1 <1>  -0.3400 
 19 F       -9.6080     0.7430    -0.3950 F     1 <1>  -0.3400 
 20 H       -1.6360    -0.7070     1.7380 H     1 <1>   0.1500 
 21 H       -2.3140     1.1380    -2.0290 H     1 <1>   0.1500 
 22 H       -4.7170     0.6250    -1.7280 H     1 <1>   0.1500 
 23 H       -5.7650    -1.1330     1.3750 H     1 <1>   0.3700 
 24 H       -7.9420    -1.4500     1.3610 H     1 <1>   0.0800 
@<TRIPOS>BOND
  1   1   2  1   
  2   2   3  ar  
  3   2   4  ar  
  4   3   5  ar  
  5   3  20  1   
  6   4   6  ar  
  7   4  21  1   
  8   5   7  ar  
  9   6   7  ar  
 10   6  22  1   
 11   7   8  1   
 12   8   9  am  
 13   8  23  1   
 14   9  10  2   
 15   9  11  1   
 16  11  12  1   
 17  11  13  1   
 18  11  24  1   
 19  12  14  1   
 20  12  15  1   
 21  12  16  1   
 22  13  17  1   
 23  13  18  1   
 24  13  19  1   
@<TRIPOS>SUBSTRUCTURE
  1 ****   9 GROUP 4 **** **** 0

# MOE 2024.06 (io_trps.svl 2023.06)
