@<TRIPOS>MOLECULE
NONAME
32 33 1 0 0 
SMALL
USER_CHARGES


@<TRIPOS>ATOM
  1 S       -1.3290    -0.0930     1.4050 S.3   1 <1>  -0.0800 
  2 C       -1.4780     0.6430    -0.1840 C.2   1 <1>  -0.1400 
  3 C        0.1870     0.7390     1.6970 C.2   1 <1>  -0.1100 
  4 C       -0.4290     1.4520    -0.4300 C.2   1 <1>  -0.1500 
  5 C       -2.7030     0.2800    -0.9930 C.3   1 <1>   0.5230 
  6 C        0.5180     1.5050     0.6420 C.2   1 <1>  -0.1500 
  7 N       -3.9080     0.6990    -0.2340 N.4   1 <1>  -0.9590 
  8 C       -5.2010     0.2360    -0.8250 C.3   1 <1>   0.3430 
  9 C       -3.9520     2.1790     0.0440 C.3   1 <1>   0.3430 
 10 C       -6.3850     0.5340     0.1340 C.3   1 <1>   0.2000 
 11 C       -5.3250     2.6460     0.5950 C.3   1 <1>   0.2000 
 12 O       -6.0730     1.5500     1.0530 O.3   1 <1>  -0.5600 
 13 C       -6.7520    -0.6890     0.9720 C.3   1 <1>  -0.2400 
 14 C       -6.1540     3.4450    -0.4190 C.3   1 <1>  -0.2400 
 15 H        0.6790     0.5630     2.6390 H     1 <1>   0.1500 
 16 H       -0.2580     2.0260    -1.3260 H     1 <1>   0.1500 
 17 H       -2.7180    -0.7860    -1.1540 H     1 <1>   0.0800 
 18 H       -2.6720     0.7740    -1.9500 H     1 <1>   0.0800 
 19 H        1.4040     2.1150     0.5710 H     1 <1>   0.1500 
 20 H       -3.8450     0.2600     0.6970 H     1 <1>   0.4500 
 21 H       -5.1700    -0.8220    -1.0280 H     1 <1>   0.0800 
 22 H       -5.3760     0.7430    -1.7590 H     1 <1>   0.0800 
 23 H       -3.7360     2.7330    -0.8540 H     1 <1>   0.0800 
 24 H       -3.1880     2.4300     0.7630 H     1 <1>   0.0800 
 25 H       -7.2470     0.8430    -0.4330 H     1 <1>   0.0800 
 26 H       -5.1510     3.2770     1.4510 H     1 <1>   0.0800 
 27 H       -5.9210    -1.0030     1.5770 H     1 <1>   0.0800 
 28 H       -7.0470    -1.5060     0.3370 H     1 <1>   0.0800 
 29 H       -7.5820    -0.4520     1.6150 H     1 <1>   0.0800 
 30 H       -6.3060     2.9050    -1.3350 H     1 <1>   0.0800 
 31 H       -5.6490     4.3650    -0.6550 H     1 <1>   0.0800 
 32 H       -7.1090     3.6950     0.0100 H     1 <1>   0.0800 
@<TRIPOS>BOND
  1   1   2  1   
  2   1   3  1   
  3   2   4  2   
  4   2   5  1   
  5   3   6  2   
  6   3  15  1   
  7   4   6  1   
  8   4  16  1   
  9   5   7  1   
 10   5  17  1   
 11   5  18  1   
 12   6  19  1   
 13   7   8  1   
 14   7   9  1   
 15   7  20  1   
 16   8  10  1   
 17   8  21  1   
 18   8  22  1   
 19   9  11  1   
 20   9  23  1   
 21   9  24  1   
 22  10  12  1   
 23  10  13  1   
 24  10  25  1   
 25  11  12  1   
 26  11  14  1   
 27  11  26  1   
 28  13  27  1   
 29  13  28  1   
 30  13  29  1   
 31  14  30  1   
 32  14  31  1   
 33  14  32  1   
@<TRIPOS>SUBSTRUCTURE
  1 ****   7 GROUP 4 **** **** 0

# MOE 2024.06 (io_trps.svl 2023.06)
