@<TRIPOS>MOLECULE
NONAME
33 34 1 0 0 
SMALL
USER_CHARGES


@<TRIPOS>ATOM
  1 CL      -1.6350    -1.3790    -2.9720 Cl    1 <1>  -0.1770 
  2 C       -1.8220    -1.3640    -1.2360 C.ar  1 <1>   0.1770 
  3 C       -0.7970    -1.8350    -0.4220 C.ar  1 <1>   0.0860 
  4 C       -3.0030    -0.8610    -0.7180 C.ar  1 <1>  -0.1500 
  5 C       -1.0100    -1.7650     0.9520 C.ar  1 <1>   0.1770 
  6 C        0.4220    -2.3700    -0.9650 C.2   1 <1>   0.5440 
  7 C       -3.1870    -0.8110     0.6530 C.ar  1 <1>  -0.1500 
  8 CL       0.2310    -2.3060     2.0580 Cl    1 <1>  -0.1770 
  9 C       -2.1820    -1.2660     1.4920 C.ar  1 <1>  -0.1500 
 10 O        0.4740    -3.5560    -1.2230 O.2   1 <1>  -0.5700 
 11 N        1.5330    -1.5770    -1.1740 N.am  1 <1>  -0.6600 
 12 C        1.5790    -0.1150    -0.9140 C.3   1 <1>   0.1400 
 13 C        2.8490    -2.1600    -1.5470 C.3   1 <1>   0.1400 
 14 C        2.5300     0.1500     0.2560 C.3   1 <1>  -0.1600 
 15 C        3.8210    -1.9480    -0.3840 C.3   1 <1>  -0.1600 
 16 C        3.9260    -0.4600     0.0090 C.3   1 <1>  -0.0190 
 17 C        4.8430    -0.2540     1.2100 C.2   1 <1>   0.5690 
 18 O        5.8110     0.4530     1.1090 O.2   1 <1>  -0.5700 
 19 N        4.5690    -0.8560     2.3830 N.am  1 <1>  -0.8000 
 20 H       -3.7710    -0.5110    -1.3860 H     1 <1>   0.1500 
 21 H       -4.1040    -0.4230     1.0650 H     1 <1>   0.1500 
 22 H       -2.3060    -1.2340     2.5600 H     1 <1>   0.1500 
 23 H        0.6020     0.2740    -0.6880 H     1 <1>   0.0800 
 24 H        1.9370     0.3860    -1.7980 H     1 <1>   0.0800 
 25 H        3.2140    -1.6720    -2.4340 H     1 <1>   0.0800 
 26 H        2.7600    -3.2120    -1.7600 H     1 <1>   0.0800 
 27 H        2.1010    -0.2630     1.1510 H     1 <1>   0.0800 
 28 H        2.6260     1.2120     0.4020 H     1 <1>   0.0800 
 29 H        4.7930    -2.3160    -0.6640 H     1 <1>   0.0800 
 30 H        3.4780    -2.5330     0.4510 H     1 <1>   0.0800 
 31 H        4.3690     0.0650    -0.8200 H     1 <1>   0.0800 
 32 H        5.1920    -0.7120     3.1780 H     1 <1>   0.3700 
 33 H        3.7690    -1.4720     2.5280 H     1 <1>   0.3700 
@<TRIPOS>BOND
  1   1   2  1   
  2   2   3  ar  
  3   2   4  ar  
  4   3   5  ar  
  5   3   6  1   
  6   4   7  ar  
  7   4  20  1   
  8   5   8  1   
  9   5   9  ar  
 10   6  10  2   
 11   6  11  am  
 12   7   9  ar  
 13   7  21  1   
 14   9  22  1   
 15  11  12  1   
 16  11  13  1   
 17  12  14  1   
 18  12  23  1   
 19  12  24  1   
 20  13  15  1   
 21  13  25  1   
 22  13  26  1   
 23  14  16  1   
 24  14  27  1   
 25  14  28  1   
 26  15  16  1   
 27  15  29  1   
 28  15  30  1   
 29  16  17  1   
 30  16  31  1   
 31  17  18  2   
 32  17  19  am  
 33  19  32  1   
 34  19  33  1   
@<TRIPOS>SUBSTRUCTURE
  1 ****  11 GROUP 4 **** **** 0

# MOE 2024.06 (io_trps.svl 2023.06)
