@<TRIPOS>MOLECULE
NONAME
30 33 1 0 0 
SMALL
USER_CHARGES


@<TRIPOS>ATOM
  1 S        0.0740    -0.1450    -0.0460 S.3   1 <1>  -0.0800 
  2 C        1.0470     1.3200     0.0210 C.2   1 <1>   0.1040 
  3 C       -1.4040     0.8090     0.0060 C.2   1 <1>  -0.1400 
  4 N        2.4350     1.3250     0.0220 N.am  1 <1>  -0.4240 
  5 C        0.2660     2.4340     0.0760 C.2   1 <1>  -0.0010 
  6 C       -1.1380     2.1240     0.0560 C.2   1 <1>  -0.1810 
  7 C       -2.7570     0.1320    -0.0090 C.3   1 <1>   0.0200 
  8 C        3.0850     2.5580     0.0850 C.2   1 <1>   0.6390 
  9 C        3.1840     0.0390    -0.0450 C.3   1 <1>   0.0600 
 10 C        0.9250     3.7060     0.1480 C.2   1 <1>   0.1870 
 11 C       -2.2510     3.1590     0.0920 C.3   1 <1>   0.0210 
 12 C       -3.8350     1.1600     0.3840 C.3   1 <1>  -0.1600 
 13 O        4.3070     2.6040     0.0850 O.2   1 <1>  -0.5700 
 14 N        2.2860     3.7450     0.1500 N.pl3 1 <1>   0.5610 
 15 N        0.4220     4.8990     0.2190 N.2   1 <1>  -0.5650 
 16 C       -3.6060     2.5280    -0.2920 C.3   1 <1>  -0.1600 
 17 N        2.6490     5.0460     0.2250 N.2   1 <1>  -0.7070 
 18 C        1.5180     5.6600     0.2630 C.2   1 <1>   0.3660 
 19 H       -2.7680    -0.6930     0.6810 H     1 <1>   0.0800 
 20 H       -2.9470    -0.2440    -0.9990 H     1 <1>   0.0800 
 21 H        2.9220    -0.4850    -0.9470 H     1 <1>   0.0800 
 22 H        2.9300    -0.5700     0.8050 H     1 <1>   0.0800 
 23 H        4.2470     0.2080    -0.0420 H     1 <1>   0.0800 
 24 H       -2.0310     3.9610    -0.5900 H     1 <1>   0.0800 
 25 H       -2.3060     3.5710     1.0850 H     1 <1>   0.0800 
 26 H       -3.8110     1.2950     1.4520 H     1 <1>   0.0800 
 27 H       -4.8060     0.7780     0.1220 H     1 <1>   0.0800 
 28 H       -3.6330     2.3940    -1.3600 H     1 <1>   0.0800 
 29 H       -4.4000     3.2040    -0.0270 H     1 <1>   0.0800 
 30 H        1.4370     6.7350     0.3260 H     1 <1>   0.1500 
@<TRIPOS>BOND
  1   1   2  1   
  2   1   3  1   
  3   2   4  1   
  4   2   5  2   
  5   3   6  2   
  6   3   7  1   
  7   4   8  am  
  8   4   9  1   
  9   5   6  1   
 10   5  10  1   
 11   6  11  1   
 12   7  12  1   
 13   7  19  1   
 14   7  20  1   
 15   8  13  2   
 16   8  14  1   
 17   9  21  1   
 18   9  22  1   
 19   9  23  1   
 20  10  14  1   
 21  10  15  2   
 22  11  16  1   
 23  11  24  1   
 24  11  25  1   
 25  12  16  1   
 26  12  26  1   
 27  12  27  1   
 28  14  17  1   
 29  15  18  1   
 30  16  28  1   
 31  16  29  1   
 32  17  18  2   
 33  18  30  1   
@<TRIPOS>SUBSTRUCTURE
  1 ****   5 GROUP 4 **** **** 0

# MOE 2024.06 (io_trps.svl 2023.06)
