@<TRIPOS>MOLECULE
NONAME
47 48 1 0 0 
SMALL
USER_CHARGES


@<TRIPOS>ATOM
  1 O       -1.9960     0.8640    -2.1410 O.2   1 <1>  -0.5700 
  2 C       -1.8830     1.2440    -1.0000 C.2   1 <1>   0.6590 
  3 O       -1.8000     0.3860     0.0140 O.3   1 <1>  -0.4300 
  4 C       -1.8250     2.7520    -0.6660 C.3   1 <1>   0.2510 
  5 C       -1.7900    -1.0050    -0.1980 C.3   1 <1>   0.1200 
  6 N       -0.4910     3.2480    -0.1960 N.3   1 <1>  -0.8100 
  7 C       -2.9060     3.1000     0.3770 C.3   1 <1>  -0.1600 
  8 C       -1.8510    -1.6940     1.1610 C.3   1 <1>  -0.2400 
  9 C       -0.4980     4.7000     0.0570 C.3   1 <1>   0.1100 
 10 C        0.5860     2.8720    -1.1450 C.3   1 <1>   0.2530 
 11 C       -2.9420     4.5980     0.6910 C.3   1 <1>  -0.1600 
 12 C       -1.5460     5.0620     1.1100 C.3   1 <1>  -0.1600 
 13 C        1.9750     3.1500    -0.5830 C.ar  1 <1>  -0.1430 
 14 C        2.6120     2.2320     0.2460 C.ar  1 <1>   0.0830 
 15 C        2.6380     4.3240    -0.9100 C.ar  1 <1>  -0.1500 
 16 O        2.0200     1.0600     0.5680 O.3   1 <1>  -0.3630 
 17 C        3.8820     2.4890     0.7380 C.ar  1 <1>  -0.1500 
 18 C        3.9050     4.5940    -0.4160 C.ar  1 <1>   0.0830 
 19 C        1.2620     1.0700     1.7560 C.3   1 <1>   0.0400 
 20 C        4.5300     3.6670     0.4140 C.ar  1 <1>  -0.1500 
 21 O        4.4640     5.7750    -0.7880 O.3   1 <1>  -0.3630 
 22 C        5.7550     6.1370    -0.3490 C.3   1 <1>   0.0400 
 23 H       -2.0680     3.2730    -1.5760 H     1 <1>   0.0800 
 24 H       -0.8860    -1.2600    -0.7250 H     1 <1>   0.0800 
 25 H       -2.6450    -1.2660    -0.7990 H     1 <1>   0.0800 
 26 H       -2.7070     2.5500     1.2810 H     1 <1>   0.0800 
 27 H       -3.8680     2.7900     0.0100 H     1 <1>   0.0800 
 28 H       -0.9950    -1.4250     1.7530 H     1 <1>   0.0800 
 29 H       -1.8510    -2.7600     1.0260 H     1 <1>   0.0800 
 30 H       -2.7500    -1.4130     1.6790 H     1 <1>   0.0800 
 31 H       -0.6970     5.2310    -0.8590 H     1 <1>   0.0800 
 32 H        0.4640     5.0100     0.4280 H     1 <1>   0.0800 
 33 H        0.4550     3.4030    -2.0720 H     1 <1>   0.0800 
 34 H        0.5370     1.8200    -1.3670 H     1 <1>   0.0800 
 35 H       -3.6460     4.7910     1.4830 H     1 <1>   0.0800 
 36 H       -3.2570     5.1440    -0.1810 H     1 <1>   0.0800 
 37 H       -1.5470     6.1280     1.2580 H     1 <1>   0.0800 
 38 H       -1.2700     4.6010     2.0430 H     1 <1>   0.0800 
 39 H        2.1750     5.0490    -1.5540 H     1 <1>   0.1500 
 40 H        4.3560     1.7600     1.3700 H     1 <1>   0.1500 
 41 H        0.4800     1.8030     1.6700 H     1 <1>   0.0800 
 42 H        1.9090     1.3110     2.5800 H     1 <1>   0.0800 
 43 H        0.8350     0.0940     1.8900 H     1 <1>   0.0800 
 44 H        5.5110     3.8420     0.8110 H     1 <1>   0.1500 
 45 H        5.9910     7.1000    -0.7660 H     1 <1>   0.0800 
 46 H        6.4610     5.4050    -0.6990 H     1 <1>   0.0800 
 47 H        5.7550     6.1940     0.7250 H     1 <1>   0.0800 
@<TRIPOS>BOND
  1   1   2  2   
  2   2   3  1   
  3   2   4  1   
  4   3   5  1   
  5   4   6  1   
  6   4   7  1   
  7   4  23  1   
  8   5   8  1   
  9   5  24  1   
 10   5  25  1   
 11   6   9  1   
 12   6  10  1   
 13   7  11  1   
 14   7  26  1   
 15   7  27  1   
 16   8  28  1   
 17   8  29  1   
 18   8  30  1   
 19   9  12  1   
 20   9  31  1   
 21   9  32  1   
 22  10  13  1   
 23  10  33  1   
 24  10  34  1   
 25  11  12  1   
 26  11  35  1   
 27  11  36  1   
 28  12  37  1   
 29  12  38  1   
 30  13  14  ar  
 31  13  15  ar  
 32  14  16  1   
 33  14  17  ar  
 34  15  18  ar  
 35  15  39  1   
 36  16  19  1   
 37  17  20  ar  
 38  17  40  1   
 39  18  20  ar  
 40  18  21  1   
 41  19  41  1   
 42  19  42  1   
 43  19  43  1   
 44  20  44  1   
 45  21  22  1   
 46  22  45  1   
 47  22  46  1   
 48  22  47  1   
@<TRIPOS>SUBSTRUCTURE
  1 ****  10 GROUP 4 **** **** 0

# MOE 2024.06 (io_trps.svl 2023.06)
