@<TRIPOS>MOLECULE
NONAME
41 42 1 0 0 
SMALL
USER_CHARGES


@<TRIPOS>ATOM
  1 O        1.8410     0.0440     2.3140 O.3   1 <1>  -0.6800 
  2 C        2.9430    -0.6970     1.9210 C.3   1 <1>   0.1200 
  3 C        3.3660    -0.2260     0.5260 C.3   1 <1>   0.1100 
  4 N        4.5380    -0.9760     0.0200 N.3   1 <1>  -0.8100 
  5 C        4.1740    -2.3400    -0.4390 C.3   1 <1>   0.1100 
  6 C        5.1930    -0.2280    -1.0800 C.3   1 <1>   0.1100 
  7 C        5.3800    -3.1140    -1.0280 C.3   1 <1>   0.3430 
  8 C        6.4270    -0.9660    -1.6550 C.3   1 <1>   0.3430 
  9 N        6.6340    -2.2930    -0.9860 N.4   1 <1>  -0.9590 
 10 C        7.8360    -3.0310    -1.4250 C.3   1 <1>   0.4810 
 11 C        9.0480    -2.2470    -0.9840 C.2   1 <1>  -0.2880 
 12 C        9.8420    -2.5810     0.0480 C.2   1 <1>  -0.1780 
 13 C       11.0180    -1.8840     0.5250 C.ar  1 <1>   0.0280 
 14 C       11.5360    -2.1760     1.7840 C.ar  1 <1>  -0.1500 
 15 C       11.6740    -0.9160    -0.2340 C.ar  1 <1>  -0.1500 
 16 C       12.6570    -1.5270     2.2710 C.ar  1 <1>  -0.1500 
 17 C       12.7940    -0.2630     0.2470 C.ar  1 <1>  -0.1500 
 18 C       13.2880    -0.5660     1.5030 C.ar  1 <1>  -0.1500 
 19 H        1.5700    -0.1850     3.2250 H     1 <1>   0.4000 
 20 H        3.7350    -0.5290     2.6300 H     1 <1>   0.0800 
 21 H        2.6590    -1.7340     1.9170 H     1 <1>   0.0800 
 22 H        3.6190     0.8180     0.6040 H     1 <1>   0.0800 
 23 H        2.5390    -0.3240    -0.1560 H     1 <1>   0.0800 
 24 H        3.7790    -2.9050     0.3880 H     1 <1>   0.0800 
 25 H        3.3990    -2.2800    -1.1850 H     1 <1>   0.0800 
 26 H        4.4860    -0.0520    -1.8740 H     1 <1>   0.0800 
 27 H        5.5110     0.7350    -0.7150 H     1 <1>   0.0800 
 28 H        5.1560    -3.3910    -2.0440 H     1 <1>   0.0800 
 29 H        5.5170    -4.0210    -0.4630 H     1 <1>   0.0800 
 30 H        7.2950    -0.3440    -1.5110 H     1 <1>   0.0800 
 31 H        6.2940    -1.1020    -2.7160 H     1 <1>   0.0800 
 32 H        6.7530    -2.0460     0.0090 H     1 <1>   0.4500 
 33 H        7.8560    -4.0020    -0.9570 H     1 <1>   0.0800 
 34 H        7.8380    -3.1640    -2.4950 H     1 <1>   0.0800 
 35 H        9.2260    -1.3760    -1.5880 H     1 <1>   0.1500 
 36 H        9.6210    -3.4620     0.6270 H     1 <1>   0.1500 
 37 H       11.0610    -2.9190     2.3980 H     1 <1>   0.1500 
 38 H       11.3200    -0.6680    -1.2160 H     1 <1>   0.1500 
 39 H       13.0390    -1.7680     3.2480 H     1 <1>   0.1500 
 40 H       13.2860     0.4820    -0.3550 H     1 <1>   0.1500 
 41 H       14.1590    -0.0590     1.8790 H     1 <1>   0.1500 
@<TRIPOS>BOND
  1   1   2  1   
  2   1  19  1   
  3   2   3  1   
  4   2  20  1   
  5   2  21  1   
  6   3   4  1   
  7   3  22  1   
  8   3  23  1   
  9   4   5  1   
 10   4   6  1   
 11   5   7  1   
 12   5  24  1   
 13   5  25  1   
 14   6   8  1   
 15   6  26  1   
 16   6  27  1   
 17   7   9  1   
 18   7  28  1   
 19   7  29  1   
 20   8   9  1   
 21   8  30  1   
 22   8  31  1   
 23   9  10  1   
 24   9  32  1   
 25  10  11  1   
 26  10  33  1   
 27  10  34  1   
 28  11  12  2   
 29  11  35  1   
 30  12  13  1   
 31  12  36  1   
 32  13  14  ar  
 33  13  15  ar  
 34  14  16  ar  
 35  14  37  1   
 36  15  17  ar  
 37  15  38  1   
 38  16  18  ar  
 39  16  39  1   
 40  17  18  ar  
 41  17  40  1   
 42  18  41  1   
@<TRIPOS>SUBSTRUCTURE
  1 ****   9 GROUP 4 **** **** 0

# MOE 2024.06 (io_trps.svl 2023.06)
