@<TRIPOS>MOLECULE
NONAME
25 25 1 0 0 
SMALL
USER_CHARGES


@<TRIPOS>ATOM
  1 CL      -0.3070     0.4710    -1.8130 Cl    1 <1>  -0.1770 
  2 C       -1.6020     1.0990    -0.8230 C.ar  1 <1>   0.1770 
  3 C       -1.3940     2.2450    -0.0690 C.ar  1 <1>  -0.1440 
  4 C       -2.8050     0.4200    -0.8050 C.ar  1 <1>  -0.1500 
  5 C       -2.4360     2.7020     0.7330 C.ar  1 <1>  -0.1500 
  6 C       -0.0380     2.9270    -0.1510 C.3   1 <1>   0.5660 
  7 C       -3.8340     0.8890    -0.0080 C.ar  1 <1>  -0.1500 
  8 C       -3.6460     2.0260     0.7590 C.ar  1 <1>  -0.1500 
  9 N        0.8080     2.3220     0.8730 N.4   1 <1>  -0.8530 
 10 C       -0.0770     4.4480     0.0520 C.3   1 <1>  -0.1600 
 11 C        1.2430     5.1520    -0.2920 C.3   1 <1>   0.1200 
 12 O        2.2720     4.5860     0.4460 O.3   1 <1>  -0.6800 
 13 H       -2.9360    -0.4640    -1.4050 H     1 <1>   0.1500 
 14 H       -2.3420     3.5820     1.3460 H     1 <1>   0.1500 
 15 H        0.3900     2.7390    -1.1230 H     1 <1>   0.0800 
 16 H       -4.7780     0.3700     0.0160 H     1 <1>   0.1500 
 17 H       -4.4520     2.3860     1.3780 H     1 <1>   0.1500 
 18 H        0.3200     2.3010     1.7690 H     1 <1>   0.4500 
 19 H        1.6420     2.9320     0.9560 H     1 <1>   0.4500 
 20 H        1.0870     1.3760     0.6020 H     1 <1>   0.4500 
 21 H       -0.3580     4.6960     1.0590 H     1 <1>   0.0800 
 22 H       -0.8350     4.8540    -0.5960 H     1 <1>   0.0800 
 23 H        1.1850     6.2010    -0.0450 H     1 <1>   0.0800 
 24 H        1.4810     5.0510    -1.3390 H     1 <1>   0.0800 
 25 H        3.0850     5.1370     0.3640 H     1 <1>   0.4000 
@<TRIPOS>BOND
  1   1   2  1   
  2   2   3  ar  
  3   2   4  ar  
  4   3   5  ar  
  5   3   6  1   
  6   4   7  ar  
  7   4  13  1   
  8   5   8  ar  
  9   5  14  1   
 10   6   9  1   
 11   6  10  1   
 12   6  15  1   
 13   7   8  ar  
 14   7  16  1   
 15   8  17  1   
 16   9  18  1   
 17   9  19  1   
 18   9  20  1   
 19  10  11  1   
 20  10  21  1   
 21  10  22  1   
 22  11  12  1   
 23  11  23  1   
 24  11  24  1   
 25  12  25  1   
@<TRIPOS>SUBSTRUCTURE
  1 ****   3 GROUP 4 **** **** 0

# MOE 2024.06 (io_trps.svl 2023.06)
