@<TRIPOS>MOLECULE
NONAME
37 38 1 0 0 
SMALL
USER_CHARGES


@<TRIPOS>ATOM
  1 F        0.6420     0.7170     1.1450 F     1 <1>  -0.1900 
  2 C        0.3230     1.9360     0.7980 C.ar  1 <1>   0.1900 
  3 C       -0.9970     2.2320     0.5370 C.ar  1 <1>  -0.1500 
  4 C        1.3260     2.8790     0.7020 C.ar  1 <1>  -0.1500 
  5 C       -1.3470     3.5260     0.1640 C.ar  1 <1>   0.1170 
  6 C        0.9820     4.1670     0.3290 C.ar  1 <1>  -0.1500 
  7 N       -2.6760     3.8670    -0.1320 N.am  1 <1>  -0.5470 
  8 C       -0.3400     4.4950     0.0610 C.ar  1 <1>  -0.1430 
  9 C       -3.8530     3.3480     0.3180 C.2   1 <1>   0.6900 
 10 C       -0.6680     5.9290    -0.3390 C.3   1 <1>  -0.0960 
 11 O       -3.8950     2.5140     1.2000 O.2   1 <1>  -0.5700 
 12 N       -4.9920     3.8090    -0.2510 N.am  1 <1>  -0.7300 
 13 C       -6.3500     3.3800     0.1180 C.3   1 <1>   0.2200 
 14 C       -6.9090     2.4870    -0.9950 C.3   1 <1>  -0.1600 
 15 C       -7.2220     4.6220     0.3270 C.3   1 <1>  -0.1600 
 16 C       -8.3680     2.0970    -0.7140 C.3   1 <1>  -0.1600 
 17 C       -8.6810     4.2350     0.6110 C.3   1 <1>  -0.1600 
 18 C       -9.2440     3.3390    -0.5010 C.3   1 <1>  -0.1600 
 19 H       -1.7390     1.4600     0.6220 H     1 <1>   0.1500 
 20 H        2.3440     2.6080     0.9130 H     1 <1>   0.1500 
 21 H        1.7570     4.9100     0.2520 H     1 <1>   0.1500 
 22 H       -2.7860     4.7200    -0.6660 H     1 <1>   0.3700 
 23 H       -1.4090     6.3370     0.3260 H     1 <1>   0.0800 
 24 H       -1.0400     5.9560    -1.3470 H     1 <1>   0.0800 
 25 H        0.2060     6.5530    -0.2850 H     1 <1>   0.0800 
 26 H       -4.9370     4.3590    -1.1030 H     1 <1>   0.3700 
 27 H       -6.3190     2.8170     1.0380 H     1 <1>   0.0800 
 28 H       -6.3110     1.5960    -1.0660 H     1 <1>   0.0800 
 29 H       -6.8610     3.0080    -1.9350 H     1 <1>   0.0800 
 30 H       -7.1910     5.2380    -0.5540 H     1 <1>   0.0800 
 31 H       -6.8380     5.1890     1.1560 H     1 <1>   0.0800 
 32 H       -8.4060     1.4790     0.1680 H     1 <1>   0.0800 
 33 H       -8.7520     1.5190    -1.5370 H     1 <1>   0.0800 
 34 H       -9.2810     5.1240     0.6970 H     1 <1>   0.0800 
 35 H       -8.7330     3.7110     1.5500 H     1 <1>   0.0800 
 36 H      -10.2440     3.0340    -0.2460 H     1 <1>   0.0800 
 37 H       -9.2960     3.8990    -1.4190 H     1 <1>   0.0800 
@<TRIPOS>BOND
  1   1   2  1   
  2   2   3  ar  
  3   2   4  ar  
  4   3   5  ar  
  5   3  19  1   
  6   4   6  ar  
  7   4  20  1   
  8   5   7  1   
  9   5   8  ar  
 10   6   8  ar  
 11   6  21  1   
 12   7   9  am  
 13   7  22  1   
 14   8  10  1   
 15   9  11  2   
 16   9  12  am  
 17  10  23  1   
 18  10  24  1   
 19  10  25  1   
 20  12  13  1   
 21  12  26  1   
 22  13  14  1   
 23  13  15  1   
 24  13  27  1   
 25  14  16  1   
 26  14  28  1   
 27  14  29  1   
 28  15  17  1   
 29  15  30  1   
 30  15  31  1   
 31  16  18  1   
 32  16  32  1   
 33  16  33  1   
 34  17  18  1   
 35  17  34  1   
 36  17  35  1   
 37  18  36  1   
 38  18  37  1   
@<TRIPOS>SUBSTRUCTURE
  1 ****   9 GROUP 4 **** **** 0

# MOE 2024.06 (io_trps.svl 2023.06)
