@<TRIPOS>MOLECULE
NONAME
40 40 1 0 0 
SMALL
USER_CHARGES


@<TRIPOS>ATOM
  1 O       -7.5080     3.7430    -0.0230 O.3   1 <1>  -0.3630 
  2 C       -6.1490     3.7710    -0.0750 C.ar  1 <1>   0.0830 
  3 C       -8.2200     2.5400     0.0990 C.3   1 <1>   0.1200 
  4 C       -5.5390     5.0160    -0.1950 C.ar  1 <1>  -0.1440 
  5 C       -5.3640     2.6210    -0.0140 C.ar  1 <1>  -0.1500 
  6 C       -9.7060     2.9030     0.1260 C.3   1 <1>   0.3430 
  7 C       -4.1580     5.0930    -0.2520 C.ar  1 <1>  -0.1500 
  8 C       -6.3640     6.2930    -0.2650 C.3   1 <1>  -0.0960 
  9 C       -3.9800     2.7000    -0.0710 C.ar  1 <1>  -0.1440 
 10 N      -10.5750     1.6940     0.2560 N.4   1 <1>  -0.9060 
 11 C       -3.3870     3.9470    -0.1900 C.ar  1 <1>  -0.1500 
 12 C       -3.1330     1.4300    -0.0020 C.3   1 <1>   0.0630 
 13 C      -12.0120     2.0460     0.2820 C.3   1 <1>   0.3430 
 14 C       -2.2210     1.4460     1.2290 C.3   1 <1>  -0.2400 
 15 C       -2.3120     1.2490    -1.2830 C.3   1 <1>  -0.2400 
 16 C      -12.8110     0.7590     0.4150 C.3   1 <1>  -0.2400 
 17 H       -7.9180     2.0670     1.0170 H     1 <1>   0.0800 
 18 H       -7.9840     1.9260    -0.7530 H     1 <1>   0.0800 
 19 H       -5.8090     1.6510     0.0780 H     1 <1>   0.1500 
 20 H       -9.9470     3.4270    -0.7850 H     1 <1>   0.0800 
 21 H       -9.8810     3.5670     0.9580 H     1 <1>   0.0800 
 22 H       -3.6700     6.0480    -0.3440 H     1 <1>   0.1500 
 23 H       -7.0190     6.2580    -1.1170 H     1 <1>   0.0800 
 24 H       -5.7330     7.1580    -0.3560 H     1 <1>   0.0800 
 25 H       -6.9560     6.3950     0.6270 H     1 <1>   0.0800 
 26 H      -10.3440     1.1840     1.1180 H     1 <1>   0.4500 
 27 H      -10.4060     1.0520    -0.5290 H     1 <1>   0.4500 
 28 H       -2.3160     4.0350    -0.2360 H     1 <1>   0.1500 
 29 H       -3.7860     0.5790     0.0880 H     1 <1>   0.0800 
 30 H      -12.2890     2.5550    -0.6290 H     1 <1>   0.0800 
 31 H      -12.2230     2.6960     1.1170 H     1 <1>   0.0800 
 32 H       -1.5070     2.2470     1.1670 H     1 <1>   0.0800 
 33 H       -1.6870     0.5160     1.3100 H     1 <1>   0.0800 
 34 H       -2.8090     1.5810     2.1190 H     1 <1>   0.0800 
 35 H       -1.6000     2.0460    -1.3980 H     1 <1>   0.0800 
 36 H       -2.9650     1.2480    -2.1380 H     1 <1>   0.0800 
 37 H       -1.7800     0.3150    -1.2570 H     1 <1>   0.0800 
 38 H      -12.6370     0.1060    -0.4220 H     1 <1>   0.0800 
 39 H      -13.8610     0.9950     0.4360 H     1 <1>   0.0800 
 40 H      -12.5710     0.2470     1.3310 H     1 <1>   0.0800 
@<TRIPOS>BOND
  1   1   2  1   
  2   1   3  1   
  3   2   4  ar  
  4   2   5  ar  
  5   3   6  1   
  6   3  17  1   
  7   3  18  1   
  8   4   7  ar  
  9   4   8  1   
 10   5   9  ar  
 11   5  19  1   
 12   6  10  1   
 13   6  20  1   
 14   6  21  1   
 15   7  11  ar  
 16   7  22  1   
 17   8  23  1   
 18   8  24  1   
 19   8  25  1   
 20   9  11  ar  
 21   9  12  1   
 22  10  13  1   
 23  10  26  1   
 24  10  27  1   
 25  11  28  1   
 26  12  14  1   
 27  12  15  1   
 28  12  29  1   
 29  13  16  1   
 30  13  30  1   
 31  13  31  1   
 32  14  32  1   
 33  14  33  1   
 34  14  34  1   
 35  15  35  1   
 36  15  36  1   
 37  15  37  1   
 38  16  38  1   
 39  16  39  1   
 40  16  40  1   
@<TRIPOS>SUBSTRUCTURE
  1 ****   2 GROUP 4 **** **** 0

# MOE 2024.06 (io_trps.svl 2023.06)
