@<TRIPOS>MOLECULE
NONAME
30 30 1 0 0 
SMALL
USER_CHARGES


@<TRIPOS>ATOM
  1 BR       0.1580     0.2230    -0.7650 Br    1 <1>  -0.1110 
  2 C       -0.9070     1.8150    -0.5270 C.ar  1 <1>   0.1110 
  3 C       -0.2790     3.0410    -0.3700 C.ar  1 <1>   0.0830 
  4 C       -2.2800     1.6750    -0.5080 C.ar  1 <1>  -0.1500 
  5 O        1.0740     3.1050    -0.3660 O.3   1 <1>  -0.3630 
  6 C       -1.0930     4.1690    -0.2220 C.ar  1 <1>   0.0830 
  7 C       -3.1000     2.7900    -0.3230 C.ar  1 <1>   0.0860 
  8 C        1.6900     3.4450     0.8560 C.3   1 <1>   0.0400 
  9 O       -0.5930     5.4240    -0.1060 O.3   1 <1>  -0.3630 
 10 C       -2.4700     4.0320    -0.1900 C.ar  1 <1>  -0.1500 
 11 C       -4.5440     2.6510    -0.2790 C.2   1 <1>   0.5440 
 12 C        0.1030     5.9350    -1.2230 C.3   1 <1>   0.0400 
 13 O       -5.0920     1.7120    -0.8220 O.2   1 <1>  -0.5700 
 14 N       -5.3160     3.5620     0.3890 N.am  1 <1>  -0.7300 
 15 C       -6.7880     3.5320     0.4720 C.3   1 <1>   0.1400 
 16 C       -7.3080     4.9620     0.3960 C.3   1 <1>  -0.2400 
 17 H       -2.7220     0.7020    -0.6320 H     1 <1>   0.1500 
 18 H        2.7550     3.3970     0.7200 H     1 <1>   0.0800 
 19 H        1.3820     2.7400     1.6070 H     1 <1>   0.0800 
 20 H        1.4000     4.4420     1.1370 H     1 <1>   0.0800 
 21 H       -3.0620     4.9210    -0.0710 H     1 <1>   0.1500 
 22 H        0.3190     6.9720    -1.0390 H     1 <1>   0.0800 
 23 H       -0.5190     5.8390    -2.0960 H     1 <1>   0.0800 
 24 H        1.0190     5.3900    -1.3560 H     1 <1>   0.0800 
 25 H       -4.8630     4.2820     0.9510 H     1 <1>   0.3700 
 26 H       -7.0840     3.0740     1.4010 H     1 <1>   0.0800 
 27 H       -7.1920     2.9490    -0.3410 H     1 <1>   0.0800 
 28 H       -6.9350     5.5450     1.2180 H     1 <1>   0.0800 
 29 H       -8.3820     4.9560     0.4420 H     1 <1>   0.0800 
 30 H       -7.0120     5.4150    -0.5340 H     1 <1>   0.0800 
@<TRIPOS>BOND
  1   1   2  1   
  2   2   3  ar  
  3   2   4  ar  
  4   3   5  1   
  5   3   6  ar  
  6   4   7  ar  
  7   4  17  1   
  8   5   8  1   
  9   6   9  1   
 10   6  10  ar  
 11   7  10  ar  
 12   7  11  1   
 13   8  18  1   
 14   8  19  1   
 15   8  20  1   
 16   9  12  1   
 17  10  21  1   
 18  11  13  2   
 19  11  14  am  
 20  12  22  1   
 21  12  23  1   
 22  12  24  1   
 23  14  15  1   
 24  14  25  1   
 25  15  16  1   
 26  15  26  1   
 27  15  27  1   
 28  16  28  1   
 29  16  29  1   
 30  16  30  1   
@<TRIPOS>SUBSTRUCTURE
  1 ****  10 GROUP 4 **** **** 0

# MOE 2024.06 (io_trps.svl 2023.06)
