@<TRIPOS>MOLECULE
NONAME
47 49 1 0 0 
SMALL
USER_CHARGES


@<TRIPOS>ATOM
  1 O        0.3500     1.9000    -1.8150 O.3   1 <1>  -0.3630 
  2 C        1.2930     1.8940    -0.8410 C.ar  1 <1>   0.0820 
  3 C       -0.9050     1.3310    -1.5050 C.3   1 <1>   0.0400 
  4 C        1.1270     2.5120     0.4010 C.ar  1 <1>   0.0820 
  5 C        2.4740     1.2310    -1.1210 C.ar  1 <1>  -0.1500 
  6 O        0.0230     3.2220     0.7340 O.3   1 <1>  -0.3630 
  7 C        2.1320     2.4150     1.3450 C.ar  1 <1>  -0.1500 
  8 C        3.4860     1.1180    -0.1720 C.ar  1 <1>  -0.1440 
  9 C       -0.1740     4.4350     0.0400 C.3   1 <1>   0.0400 
 10 C        3.3080     1.7360     1.0660 C.ar  1 <1>  -0.1440 
 11 C        4.7690     0.3470    -0.5230 C.3   1 <1>   0.5660 
 12 C        4.3940     1.7010     2.1290 C.3   1 <1>  -0.0160 
 13 N        5.6570     0.2260     0.6600 N.4   1 <1>  -0.9060 
 14 C        4.5170    -1.0860    -1.0570 C.3   1 <1>   0.0630 
 15 C        5.7590     1.4380     1.5000 C.3   1 <1>   0.3430 
 16 C        4.1510    -2.0310     0.1000 C.ar  1 <1>  -0.1440 
 17 C        5.7010    -1.5690    -1.9250 C.3   1 <1>   0.1200 
 18 C        5.0630    -2.9080     0.6800 C.ar  1 <1>  -0.1500 
 19 C        2.8590    -1.9860     0.6080 C.ar  1 <1>  -0.1500 
 20 O        6.9280    -1.2570    -1.3340 O.3   1 <1>  -0.6800 
 21 C        4.6920    -3.7070     1.7470 C.ar  1 <1>  -0.1500 
 22 C        2.4890    -2.7840     1.6750 C.ar  1 <1>  -0.1500 
 23 C        3.4060    -3.6440     2.2480 C.ar  1 <1>  -0.1500 
 24 H       -1.4370     1.9800    -0.8340 H     1 <1>   0.0800 
 25 H       -0.7510     0.3680    -1.0510 H     1 <1>   0.0800 
 26 H       -1.4590     1.2230    -2.4200 H     1 <1>   0.0800 
 27 H        2.5670     0.8050    -2.1040 H     1 <1>   0.1500 
 28 H        1.9790     2.8900     2.2990 H     1 <1>   0.1500 
 29 H       -1.0510     4.9120     0.4400 H     1 <1>   0.0800 
 30 H       -0.3130     4.2300    -1.0060 H     1 <1>   0.0800 
 31 H        0.6870     5.0630     0.1870 H     1 <1>   0.0800 
 32 H        5.2810     0.9090    -1.2880 H     1 <1>   0.0800 
 33 H        4.1680     0.9360     2.8510 H     1 <1>   0.0800 
 34 H        4.4280     2.6430     2.6490 H     1 <1>   0.0800 
 35 H        5.2600    -0.5500     1.2080 H     1 <1>   0.4500 
 36 H        6.5610    -0.1190     0.2960 H     1 <1>   0.4500 
 37 H        3.6750    -1.0750    -1.7220 H     1 <1>   0.0800 
 38 H        6.4960     1.2970     2.2740 H     1 <1>   0.0800 
 39 H        6.0490     2.2810     0.8940 H     1 <1>   0.0800 
 40 H        5.6740    -1.0880    -2.8890 H     1 <1>   0.0800 
 41 H        5.6490    -2.6360    -2.0740 H     1 <1>   0.0800 
 42 H        6.0730    -2.9940     0.3210 H     1 <1>   0.1500 
 43 H        2.1180    -1.3290     0.1830 H     1 <1>   0.1500 
 44 H        7.6630    -1.6460    -1.8630 H     1 <1>   0.4000 
 45 H        5.4030    -4.3860     2.1890 H     1 <1>   0.1500 
 46 H        1.4830    -2.7380     2.0600 H     1 <1>   0.1500 
 47 H        3.1160    -4.2670     3.0770 H     1 <1>   0.1500 
@<TRIPOS>BOND
  1   1   2  1   
  2   1   3  1   
  3   2   4  ar  
  4   2   5  ar  
  5   3  24  1   
  6   3  25  1   
  7   3  26  1   
  8   4   6  1   
  9   4   7  ar  
 10   5   8  ar  
 11   5  27  1   
 12   6   9  1   
 13   7  10  ar  
 14   7  28  1   
 15   8  10  ar  
 16   8  11  1   
 17   9  29  1   
 18   9  30  1   
 19   9  31  1   
 20  10  12  1   
 21  11  13  1   
 22  11  14  1   
 23  11  32  1   
 24  12  15  1   
 25  12  33  1   
 26  12  34  1   
 27  13  15  1   
 28  13  35  1   
 29  13  36  1   
 30  14  16  1   
 31  14  17  1   
 32  14  37  1   
 33  15  38  1   
 34  15  39  1   
 35  16  18  ar  
 36  16  19  ar  
 37  17  20  1   
 38  17  40  1   
 39  17  41  1   
 40  18  21  ar  
 41  18  42  1   
 42  19  22  ar  
 43  19  43  1   
 44  20  44  1   
 45  21  23  ar  
 46  21  45  1   
 47  22  23  ar  
 48  22  46  1   
 49  23  47  1   
@<TRIPOS>SUBSTRUCTURE
  1 ****   8 GROUP 4 **** **** 0

# MOE 2024.06 (io_trps.svl 2023.06)
