@<TRIPOS>MOLECULE
NONAME
46 46 1 0 0 
SMALL
USER_CHARGES


@<TRIPOS>ATOM
  1 N        0.0450    -0.5350    -0.0090 N.4   1 <1>  -0.9590 
  2 C        1.1760     0.4040    -0.3660 C.3   1 <1>   0.3430 
  3 C        0.2830    -1.9340    -0.4790 C.3   1 <1>   0.3430 
  4 C       -1.2570    -0.0400    -0.5560 C.3   1 <1>   0.3430 
  5 C        2.5150     0.1190     0.3790 C.3   1 <1>   0.3430 
  6 C       -0.5380    -2.8970     0.3700 C.3   1 <1>  -0.2400 
  7 C       -1.7450     1.1450     0.2690 C.3   1 <1>  -0.2400 
  8 N        3.6420     1.0670     0.0370 N.4   1 <1>  -0.9590 
  9 C        4.9260     0.5670     0.6480 C.3   1 <1>   0.3430 
 10 C        3.3630     2.4840     0.4600 C.3   1 <1>   0.2630 
 11 C        6.1620     1.3080     0.1100 C.3   1 <1>  -0.0800 
 12 C        7.2950     0.2980    -0.1650 C.3   1 <1>  -0.0220 
 13 C        6.6620     2.3990     1.0840 C.3   1 <1>  -0.1600 
 14 C        8.5940     1.0110    -0.4880 C.2   1 <1>  -0.2880 
 15 C        7.8170     3.2090     0.4730 C.3   1 <1>  -0.0220 
 16 C        8.8180     2.2990    -0.2150 C.2   1 <1>  -0.2880 
 17 H       -0.0850    -0.5770     1.0140 H     1 <1>   0.4500 
 18 H        0.8740     1.4100    -0.1300 H     1 <1>   0.0800 
 19 H        1.3480     0.3510    -1.4280 H     1 <1>   0.0800 
 20 H        1.3240    -2.1940    -0.3770 H     1 <1>   0.0800 
 21 H        0.0120    -2.0340    -1.5200 H     1 <1>   0.0800 
 22 H       -2.0010    -0.8200    -0.5010 H     1 <1>   0.0800 
 23 H       -1.1510     0.2430    -1.5920 H     1 <1>   0.0800 
 24 H        2.8270    -0.8840     0.1390 H     1 <1>   0.0800 
 25 H        2.3350     0.1660     1.4410 H     1 <1>   0.0800 
 26 H       -0.2750    -2.8200     1.4100 H     1 <1>   0.0800 
 27 H       -0.3340    -3.9050     0.0540 H     1 <1>   0.0800 
 28 H       -1.5940    -2.7330     0.2520 H     1 <1>   0.0800 
 29 H       -1.8450     0.8780     1.3060 H     1 <1>   0.0800 
 30 H       -2.7190     1.4360    -0.0860 H     1 <1>   0.0800 
 31 H       -1.1010     1.9990     0.1700 H     1 <1>   0.0800 
 32 H        3.8080     1.0680    -0.9830 H     1 <1>   0.4500 
 33 H        5.0380    -0.4790     0.4130 H     1 <1>   0.0800 
 34 H        4.8940     0.6560     1.7230 H     1 <1>   0.0800 
 35 H        3.2850     2.5500     1.5330 H     1 <1>   0.0800 
 36 H        2.4470     2.8430     0.0210 H     1 <1>   0.0800 
 37 H        4.1610     3.1330     0.1360 H     1 <1>   0.0800 
 38 H        5.9260     1.7730    -0.8320 H     1 <1>   0.0800 
 39 H        7.0270    -0.3280    -1.0000 H     1 <1>   0.0800 
 40 H        7.4630    -0.3350     0.6900 H     1 <1>   0.0800 
 41 H        7.0220     1.9290     1.9840 H     1 <1>   0.0800 
 42 H        5.8800     3.0800     1.3640 H     1 <1>   0.0800 
 43 H        9.3300     0.3780    -0.9570 H     1 <1>   0.1500 
 44 H        8.3130     3.7640     1.2510 H     1 <1>   0.0800 
 45 H        7.4390     3.9130    -0.2480 H     1 <1>   0.0800 
 46 H        9.7420     2.7960    -0.4650 H     1 <1>   0.1500 
@<TRIPOS>BOND
  1   1   2  1   
  2   1   3  1   
  3   1   4  1   
  4   1  17  1   
  5   2   5  1   
  6   2  18  1   
  7   2  19  1   
  8   3   6  1   
  9   3  20  1   
 10   3  21  1   
 11   4   7  1   
 12   4  22  1   
 13   4  23  1   
 14   5   8  1   
 15   5  24  1   
 16   5  25  1   
 17   6  26  1   
 18   6  27  1   
 19   6  28  1   
 20   7  29  1   
 21   7  30  1   
 22   7  31  1   
 23   8   9  1   
 24   8  10  1   
 25   8  32  1   
 26   9  11  1   
 27   9  33  1   
 28   9  34  1   
 29  10  35  1   
 30  10  36  1   
 31  10  37  1   
 32  11  12  1   
 33  11  13  1   
 34  11  38  1   
 35  12  14  1   
 36  12  39  1   
 37  12  40  1   
 38  13  15  1   
 39  13  41  1   
 40  13  42  1   
 41  14  16  2   
 42  14  43  1   
 43  15  16  1   
 44  15  44  1   
 45  15  45  1   
 46  16  46  1   
@<TRIPOS>SUBSTRUCTURE
  1 ****   8 GROUP 4 **** **** 0

# MOE 2024.06 (io_trps.svl 2023.06)
