@<TRIPOS>MOLECULE
NONAME
56 59 1 0 0 
SMALL
USER_CHARGES


@<TRIPOS>ATOM
  1 O       -0.0870     0.5600    -1.3840 O.2   1 <1>  -0.5700 
  2 C        0.0500    -0.0850    -0.3720 C.2   1 <1>   0.4950 
  3 C        1.2740    -0.6620     0.0720 C.2   1 <1>  -0.1240 
  4 C       -1.1910    -0.3390     0.4660 C.3   1 <1>  -0.0990 
  5 C        1.3370    -1.5960     1.0580 C.2   1 <1>  -0.0380 
  6 C        2.5580    -0.2000    -0.6300 C.3   1 <1>   0.3400 
  7 C       -1.1940    -1.7650     1.0370 C.3   1 <1>  -0.1600 
  8 N        2.5200    -2.1860     1.4310 N.pl3 1 <1>  -0.6000 
  9 C        0.0990    -2.0640     1.8110 C.3   1 <1>  -0.0220 
 10 C        3.8050    -0.9490    -0.1550 C.2   1 <1>  -0.1240 
 11 C        2.7640     1.3220    -0.4900 C.ar  1 <1>  -0.1440 
 12 C        3.7200    -1.8850     0.8270 C.2   1 <1>  -0.0380 
 13 C        4.9970    -0.5050    -0.7910 C.2   1 <1>   0.6160 
 14 C        3.1960     1.9300     0.6920 C.ar  1 <1>   0.0820 
 15 C        2.5290     2.1210    -1.6020 C.ar  1 <1>  -0.1500 
 16 C        4.9000    -2.6760     1.3650 C.3   1 <1>  -0.1020 
 17 O        5.1970    -0.7030    -1.9740 O.2   1 <1>  -0.5700 
 18 N        5.8930     0.1800    -0.0200 N.am  1 <1>  -0.5470 
 19 O        3.4410     1.1410     1.7730 O.3   1 <1>  -0.3620 
 20 C        3.3830     3.3100     0.7410 C.ar  1 <1>  -0.1500 
 21 C        2.7180     3.4880    -1.5500 C.ar  1 <1>  -0.1500 
 22 C        7.1050     0.7830    -0.2500 C.ar  1 <1>   0.4270 
 23 C        4.1310     1.6140     2.9090 C.3   1 <1>   0.0400 
 24 C        3.1470     4.0920    -0.3830 C.ar  1 <1>   0.0820 
 25 N        7.5260     1.4970     0.7860 N.ar  1 <1>  -0.6200 
 26 C        7.8270     0.6570    -1.4360 C.ar  1 <1>  -0.1500 
 27 O        3.3130     5.4390    -0.4190 O.3   1 <1>  -0.3630 
 28 C        8.6910     2.1050     0.6350 C.ar  1 <1>   0.1600 
 29 C        9.0380     1.2940    -1.5770 C.ar  1 <1>  -0.1500 
 30 C        3.8210     6.1470     0.6890 C.3   1 <1>   0.0400 
 31 C        9.4750     2.0400    -0.5020 C.ar  1 <1>  -0.1500 
 32 H       -2.0660    -0.1910    -0.1420 H     1 <1>   0.0800 
 33 H       -1.2130     0.3800     1.2640 H     1 <1>   0.0800 
 34 H        2.4410    -0.4360    -1.6740 H     1 <1>   0.0800 
 35 H       -1.2750    -2.4620     0.2190 H     1 <1>   0.0800 
 36 H       -2.0470    -1.9060     1.6780 H     1 <1>   0.0800 
 37 H        2.5140    -2.8810     2.1850 H     1 <1>   0.4000 
 38 H        0.0740    -1.5650     2.7650 H     1 <1>   0.0800 
 39 H        0.1580    -3.1230     1.9900 H     1 <1>   0.0800 
 40 H        2.1880     1.6800    -2.5240 H     1 <1>   0.1500 
 41 H        4.6950    -3.7290     1.2940 H     1 <1>   0.0800 
 42 H        5.0700    -2.4210     2.3960 H     1 <1>   0.0800 
 43 H        5.8000    -2.4770     0.8120 H     1 <1>   0.0800 
 44 H        5.5110     0.4420     0.8860 H     1 <1>   0.3700 
 45 H        3.7080     3.7750     1.6460 H     1 <1>   0.1500 
 46 H        2.5310     4.0950    -2.4170 H     1 <1>   0.1500 
 47 H        3.5220     2.3480     3.4060 H     1 <1>   0.0800 
 48 H        5.0710     2.0350     2.5990 H     1 <1>   0.0800 
 49 H        4.3020     0.7790     3.5650 H     1 <1>   0.0800 
 50 H        7.4440     0.0630    -2.2430 H     1 <1>   0.1500 
 51 H        9.0440     2.6900     1.4680 H     1 <1>   0.1500 
 52 H        9.6150     1.2150    -2.4820 H     1 <1>   0.1500 
 53 H        3.8960     7.1840     0.4160 H     1 <1>   0.0800 
 54 H        4.7950     5.7610     0.9320 H     1 <1>   0.0800 
 55 H        3.1420     6.0340     1.5160 H     1 <1>   0.0800 
 56 H       10.4130     2.5640    -0.5470 H     1 <1>   0.1500 
@<TRIPOS>BOND
  1   1   2  2   
  2   2   3  1   
  3   2   4  1   
  4   3   5  2   
  5   3   6  1   
  6   4   7  1   
  7   4  32  1   
  8   4  33  1   
  9   5   8  1   
 10   5   9  1   
 11   6  10  1   
 12   6  11  1   
 13   6  34  1   
 14   7   9  1   
 15   7  35  1   
 16   7  36  1   
 17   8  12  1   
 18   8  37  1   
 19   9  38  1   
 20   9  39  1   
 21  10  12  2   
 22  10  13  1   
 23  11  14  ar  
 24  11  15  ar  
 25  12  16  1   
 26  13  17  2   
 27  13  18  am  
 28  14  19  1   
 29  14  20  ar  
 30  15  21  ar  
 31  15  40  1   
 32  16  41  1   
 33  16  42  1   
 34  16  43  1   
 35  18  22  1   
 36  18  44  1   
 37  19  23  1   
 38  20  24  ar  
 39  20  45  1   
 40  21  24  ar  
 41  21  46  1   
 42  22  25  ar  
 43  22  26  ar  
 44  23  47  1   
 45  23  48  1   
 46  23  49  1   
 47  24  27  1   
 48  25  28  ar  
 49  26  29  ar  
 50  26  50  1   
 51  27  30  1   
 52  28  31  ar  
 53  28  51  1   
 54  29  31  ar  
 55  29  52  1   
 56  30  53  1   
 57  30  54  1   
 58  30  55  1   
 59  31  56  1   
@<TRIPOS>SUBSTRUCTURE
  1 ****  11 GROUP 4 **** **** 0

# MOE 2024.06 (io_trps.svl 2023.06)
