@<TRIPOS>MOLECULE
NONAME
56 59 1 0 0 
SMALL
USER_CHARGES


@<TRIPOS>ATOM
  1 O       -0.8250     0.3710    -0.9890 O.2   1 <1>  -0.5700 
  2 C       -1.8220     0.9960    -0.6910 C.2   1 <1>   0.6900 
  3 N       -1.7060     2.2780    -0.1630 N.am  1 <1>  -0.4200 
  4 N       -3.0740     0.4270    -0.8710 N.am  1 <1>  -0.4360 
  5 C       -2.8260     2.9890     0.2500 C.2   1 <1>   0.7030 
  6 C       -0.3410     2.8700    -0.0010 C.3   1 <1>   0.0600 
  7 C       -4.1800     1.1480    -0.4620 C.2   1 <1>   0.4260 
  8 C       -3.2250    -0.9360    -1.4600 C.3   1 <1>   0.0600 
  9 O       -2.7130     4.0930     0.7540 O.2   1 <1>  -0.5700 
 10 C       -4.1170     2.3870     0.0790 C.2   1 <1>   0.2770 
 11 N       -5.4790     0.7780    -0.5030 N.pl3 1 <1>  -0.7000 
 12 N       -5.4340     2.7760     0.3600 N.pl3 1 <1>  -0.7640 
 13 C       -6.2200     1.7590    -0.0030 C.cat 1 <1>   0.6560 
 14 C       -5.7550     4.1130     0.9490 C.3   1 <1>   0.4970 
 15 C       -7.7490     1.5820     0.0820 C.3   1 <1>   0.2540 
 16 C       -7.1960     4.5030     0.6680 C.ar  1 <1>  -0.1430 
 17 N       -8.1430     0.1560    -0.1580 N.3   1 <1>  -0.8100 
 18 C       -7.5790     4.8700    -0.6150 C.ar  1 <1>  -0.1500 
 19 C       -8.1430     4.4870     1.6830 C.ar  1 <1>  -0.1500 
 20 C       -9.5020    -0.0130    -0.7300 C.3   1 <1>   0.1900 
 21 C       -8.0110    -0.5970     1.1100 C.3   1 <1>   0.1100 
 22 C       -8.8960     5.1970    -0.8840 C.ar  1 <1>  -0.1500 
 23 C       -9.4600     4.8130     1.4120 C.ar  1 <1>  -0.1500 
 24 C       -9.7680    -1.5070    -0.9860 C.3   1 <1>  -0.1600 
 25 C       -9.6470     0.7250    -2.0680 C.3   1 <1>  -0.2400 
 26 C       -8.2070    -2.0930     0.8740 C.3   1 <1>  -0.1600 
 27 C       -9.8380     5.1650     0.1290 C.ar  1 <1>  -0.1500 
 28 C       -9.5850    -2.3620     0.2720 C.3   1 <1>  -0.1600 
 29 H        0.2790     2.6090    -0.8420 H     1 <1>   0.0800 
 30 H        0.1140     2.4870     0.8960 H     1 <1>   0.0800 
 31 H       -0.3880     3.9430     0.0610 H     1 <1>   0.0800 
 32 H       -2.3550    -1.1980    -2.0400 H     1 <1>   0.0800 
 33 H       -4.0820    -0.9700    -2.1100 H     1 <1>   0.0800 
 34 H       -3.3430    -1.6600    -0.6730 H     1 <1>   0.0800 
 35 H       -5.9270    -0.0890    -0.8250 H     1 <1>   0.4500 
 36 H       -5.1120     4.8630     0.5200 H     1 <1>   0.0800 
 37 H       -5.5710     4.0910     2.0100 H     1 <1>   0.0800 
 38 H       -8.1720     2.2300    -0.6570 H     1 <1>   0.0800 
 39 H       -8.1080     1.9030     1.0420 H     1 <1>   0.0800 
 40 H       -6.8580     4.9060    -1.4150 H     1 <1>   0.1500 
 41 H       -7.8710     4.2230     2.6920 H     1 <1>   0.1500 
 42 H      -10.2380     0.3590    -0.0350 H     1 <1>   0.0800 
 43 H       -8.7450    -0.2500     1.8190 H     1 <1>   0.0800 
 44 H       -7.0340    -0.4440     1.5370 H     1 <1>   0.0800 
 45 H       -9.1920     5.4820    -1.8800 H     1 <1>   0.1500 
 46 H      -10.1940     4.8000     2.2000 H     1 <1>   0.1500 
 47 H       -9.1000    -1.8590    -1.7530 H     1 <1>   0.0800 
 48 H      -10.7730    -1.6370    -1.3470 H     1 <1>   0.0800 
 49 H       -8.8110     0.5140    -2.7100 H     1 <1>   0.0800 
 50 H       -9.7470     1.7840    -1.9280 H     1 <1>   0.0800 
 51 H      -10.5430     0.4000    -2.5670 H     1 <1>   0.0800 
 52 H       -8.1150    -2.6200     1.8080 H     1 <1>   0.0800 
 53 H       -7.4390    -2.4560     0.2130 H     1 <1>   0.0800 
 54 H      -10.8630     5.4220    -0.0800 H     1 <1>   0.1500 
 55 H       -9.6850    -3.4050     0.0260 H     1 <1>   0.0800 
 56 H      -10.3480    -2.1120     0.9890 H     1 <1>   0.0800 
@<TRIPOS>BOND
  1   1   2  2   
  2   2   3  am  
  3   2   4  am  
  4   3   5  am  
  5   3   6  1   
  6   4   7  1   
  7   4   8  1   
  8   5   9  2   
  9   5  10  1   
 10   6  29  1   
 11   6  30  1   
 12   6  31  1   
 13   7  10  2   
 14   7  11  1   
 15   8  32  1   
 16   8  33  1   
 17   8  34  1   
 18  10  12  1   
 19  11  13  ar  
 20  11  35  1   
 21  12  13  ar  
 22  12  14  1   
 23  13  15  1   
 24  14  16  1   
 25  14  36  1   
 26  14  37  1   
 27  15  17  1   
 28  15  38  1   
 29  15  39  1   
 30  16  18  ar  
 31  16  19  ar  
 32  17  20  1   
 33  17  21  1   
 34  18  22  ar  
 35  18  40  1   
 36  19  23  ar  
 37  19  41  1   
 38  20  24  1   
 39  20  25  1   
 40  20  42  1   
 41  21  26  1   
 42  21  43  1   
 43  21  44  1   
 44  22  27  ar  
 45  22  45  1   
 46  23  27  ar  
 47  23  46  1   
 48  24  28  1   
 49  24  47  1   
 50  24  48  1   
 51  25  49  1   
 52  25  50  1   
 53  25  51  1   
 54  26  28  1   
 55  26  52  1   
 56  26  53  1   
 57  27  54  1   
 58  28  55  1   
 59  28  56  1   
@<TRIPOS>SUBSTRUCTURE
  1 ****  13 GROUP 4 **** **** 0

# MOE 2024.06 (io_trps.svl 2023.06)
