@<TRIPOS>MOLECULE
NONAME
42 42 1 0 0 
SMALL
USER_CHARGES


@<TRIPOS>ATOM
  1 N        0.0170     0.2280    -0.3920 N.4   1 <1>  -0.9590 
  2 C        1.3000    -0.5440    -0.2720 C.3   1 <1>   0.3430 
  3 C       -1.1460    -0.6420     0.0200 C.3   1 <1>   0.3430 
  4 C       -0.1200     0.7950    -1.7790 C.3   1 <1>   0.2630 
  5 C        2.5370     0.3700    -0.2970 C.3   1 <1>  -0.0800 
  6 C       -2.5040     0.1100     0.1500 C.3   1 <1>   0.3430 
  7 C        3.8000    -0.4940    -0.1230 C.3   1 <1>  -0.1600 
  8 C        2.4880     1.4680     0.7890 C.3   1 <1>  -0.1600 
  9 N       -3.6440    -0.7320     0.6770 N.4   1 <1>  -0.9590 
 10 C        5.0750     0.3600    -0.1310 C.3   1 <1>  -0.1600 
 11 C        3.7660     2.3180     0.7850 C.3   1 <1>  -0.1600 
 12 C       -4.0400    -1.8560    -0.2400 C.3   1 <1>   0.2630 
 13 C       -4.8490     0.1280     0.9350 C.3   1 <1>   0.2630 
 14 C        5.0170     1.4480     0.9460 C.3   1 <1>  -0.1600 
 15 H        0.1240     1.0160     0.2690 H     1 <1>   0.4500 
 16 H        1.3750    -1.2650    -1.0700 H     1 <1>   0.0800 
 17 H        1.3090    -1.0850     0.6620 H     1 <1>   0.0800 
 18 H       -0.9180    -1.0860     0.9750 H     1 <1>   0.0800 
 19 H       -1.2560    -1.4380    -0.6980 H     1 <1>   0.0800 
 20 H       -0.1540     0.0020    -2.5100 H     1 <1>   0.0800 
 21 H        0.7200     1.4310    -2.0090 H     1 <1>   0.0800 
 22 H       -1.0170     1.3860    -1.8660 H     1 <1>   0.0800 
 23 H        2.6110     0.8400    -1.2620 H     1 <1>   0.0800 
 24 H       -2.7800     0.5010    -0.8160 H     1 <1>   0.0800 
 25 H       -2.3610     0.9440     0.8170 H     1 <1>   0.0800 
 26 H        3.8670    -1.2190    -0.9160 H     1 <1>   0.0800 
 27 H        3.7540    -1.0310     0.8110 H     1 <1>   0.0800 
 28 H        2.3820     1.0150     1.7610 H     1 <1>   0.0800 
 29 H        1.6560     2.1290     0.6320 H     1 <1>   0.0800 
 30 H       -3.3860    -1.1440     1.5920 H     1 <1>   0.4500 
 31 H        5.1970     0.8200    -1.0980 H     1 <1>   0.0800 
 32 H        5.9330    -0.2680     0.0410 H     1 <1>   0.0800 
 33 H        3.7270     3.0360     1.5870 H     1 <1>   0.0800 
 34 H        3.8340     2.8660    -0.1400 H     1 <1>   0.0800 
 35 H       -4.3490    -1.4720    -1.1990 H     1 <1>   0.0800 
 36 H       -4.8650    -2.4090     0.1830 H     1 <1>   0.0800 
 37 H       -3.2200    -2.5400    -0.3880 H     1 <1>   0.0800 
 38 H       -5.1960     0.5790     0.0190 H     1 <1>   0.0800 
 39 H       -4.6120     0.9120     1.6370 H     1 <1>   0.0800 
 40 H       -5.6510    -0.4640     1.3470 H     1 <1>   0.0800 
 41 H        5.8970     2.0660     0.8790 H     1 <1>   0.0800 
 42 H        5.0140     0.9890     1.9200 H     1 <1>   0.0800 
@<TRIPOS>BOND
  1   1   2  1   
  2   1   3  1   
  3   1   4  1   
  4   1  15  1   
  5   2   5  1   
  6   2  16  1   
  7   2  17  1   
  8   3   6  1   
  9   3  18  1   
 10   3  19  1   
 11   4  20  1   
 12   4  21  1   
 13   4  22  1   
 14   5   7  1   
 15   5   8  1   
 16   5  23  1   
 17   6   9  1   
 18   6  24  1   
 19   6  25  1   
 20   7  10  1   
 21   7  26  1   
 22   7  27  1   
 23   8  11  1   
 24   8  28  1   
 25   8  29  1   
 26   9  12  1   
 27   9  13  1   
 28   9  30  1   
 29  10  14  1   
 30  10  31  1   
 31  10  32  1   
 32  11  14  1   
 33  11  33  1   
 34  11  34  1   
 35  12  35  1   
 36  12  36  1   
 37  12  37  1   
 38  13  38  1   
 39  13  39  1   
 40  13  40  1   
 41  14  41  1   
 42  14  42  1   
@<TRIPOS>SUBSTRUCTURE
  1 ****   1 GROUP 4 **** **** 0

# MOE 2024.06 (io_trps.svl 2023.06)
