@<TRIPOS>MOLECULE
NONAME
39 42 1 0 0 
SMALL
USER_CHARGES


@<TRIPOS>ATOM
  1 O       -0.9280    -0.3290     1.3050 O.3   1 <1>  -0.3370 
  2 N       -0.8370    -1.5360     0.7820 N.2   1 <1>  -0.5130 
  3 C       -1.8680    -2.1300     0.3470 C.2   1 <1>   0.3280 
  4 C       -1.8580    -3.5550    -0.2170 C.3   1 <1>   0.2050 
  5 C       -3.2820    -1.5670     0.4040 C.3   1 <1>  -0.0190 
  6 C       -0.4450    -4.1450    -0.4450 C.ar  1 <1>  -0.1440 
  7 C       -2.6390    -4.3850     0.8210 C.3   1 <1>   0.3430 
  8 C       -2.5740    -3.5690    -1.5820 C.3   1 <1>   0.1100 
  9 C       -4.0350    -2.3670     1.4640 C.3   1 <1>   0.3430 
 10 C       -3.9420    -1.6100    -0.9780 C.3   1 <1>   0.1100 
 11 C       -0.0520    -5.3930     0.0380 C.ar  1 <1>  -0.1500 
 12 C        0.4790    -3.4190    -1.1910 C.ar  1 <1>  -0.1500 
 13 N       -4.0000    -3.8560     1.2360 N.4   1 <1>  -0.9590 
 14 N       -3.9150    -2.9620    -1.5450 N.3   1 <1>  -0.8100 
 15 C        1.2170    -5.8860    -0.2130 C.ar  1 <1>  -0.1500 
 16 C        1.7460    -3.9100    -1.4440 C.ar  1 <1>  -0.1500 
 17 C       -5.0990    -4.3110     0.3120 C.3   1 <1>   0.3430 
 18 C       -5.0220    -3.8570    -1.1640 C.3   1 <1>   0.1100 
 19 C        2.1190    -5.1460    -0.9540 C.ar  1 <1>  -0.1500 
 20 H       -0.0670     0.0710     1.5560 H     1 <1>   0.4000 
 21 H       -3.2790    -0.5400     0.7160 H     1 <1>   0.0800 
 22 H       -2.0180    -4.4370     1.7000 H     1 <1>   0.0800 
 23 H       -2.7480    -5.3880     0.4450 H     1 <1>   0.0800 
 24 H       -2.6360    -4.5770    -1.9580 H     1 <1>   0.0800 
 25 H       -1.9820    -3.0100    -2.2880 H     1 <1>   0.0800 
 26 H       -5.0570    -2.0260     1.5120 H     1 <1>   0.0800 
 27 H       -3.5750    -2.1530     2.4150 H     1 <1>   0.0800 
 28 H       -3.3980    -0.9550    -1.6400 H     1 <1>   0.0800 
 29 H       -4.9550    -1.2480    -0.9310 H     1 <1>   0.0800 
 30 H       -0.7000    -6.0250     0.6140 H     1 <1>   0.1500 
 31 H        0.2250    -2.4490    -1.5840 H     1 <1>   0.1500 
 32 H       -4.2100    -4.2880     2.1470 H     1 <1>   0.4500 
 33 H        1.5100    -6.8500     0.1670 H     1 <1>   0.1500 
 34 H        2.4450    -3.3280    -2.0200 H     1 <1>   0.1500 
 35 H       -5.1360    -5.3880     0.3170 H     1 <1>   0.0800 
 36 H       -6.0450    -3.9770     0.7050 H     1 <1>   0.0800 
 37 H       -5.9510    -3.3710    -1.4140 H     1 <1>   0.0800 
 38 H       -4.9770    -4.7350    -1.7850 H     1 <1>   0.0800 
 39 H        3.1060    -5.5300    -1.1480 H     1 <1>   0.1500 
@<TRIPOS>BOND
  1   1   2  1   
  2   1  20  1   
  3   2   3  2   
  4   3   4  1   
  5   3   5  1   
  6   4   6  1   
  7   4   7  1   
  8   4   8  1   
  9   5   9  1   
 10   5  10  1   
 11   5  21  1   
 12   6  11  ar  
 13   6  12  ar  
 14   7  13  1   
 15   7  22  1   
 16   7  23  1   
 17   8  14  1   
 18   8  24  1   
 19   8  25  1   
 20   9  13  1   
 21   9  26  1   
 22   9  27  1   
 23  10  14  1   
 24  10  28  1   
 25  10  29  1   
 26  11  15  ar  
 27  11  30  1   
 28  12  16  ar  
 29  12  31  1   
 30  13  17  1   
 31  13  32  1   
 32  14  18  1   
 33  15  19  ar  
 34  15  33  1   
 35  16  19  ar  
 36  16  34  1   
 37  17  18  1   
 38  17  35  1   
 39  17  36  1   
 40  18  37  1   
 41  18  38  1   
 42  19  39  1   
@<TRIPOS>SUBSTRUCTURE
  1 ****   4 GROUP 4 **** **** 0

# MOE 2024.06 (io_trps.svl 2023.06)
