@<TRIPOS>MOLECULE
NONAME
35 35 1 0 0 
SMALL
USER_CHARGES


@<TRIPOS>ATOM
  1 O       -3.5560    -3.3770    -2.3810 O.co2 1 <1>  -0.9000 
  2 C       -2.5520    -2.9570    -1.7810 C.2   1 <1>   1.0320 
  3 O       -2.2880    -1.7380    -1.8050 O.co2 1 <1>  -0.9000 
  4 C       -1.6730    -3.8790    -1.0830 C.2   1 <1>  -0.0920 
  5 O       -0.6520    -3.4250    -0.3700 O.3   1 <1>  -0.2800 
  6 C       -1.6620    -5.2390    -1.0130 C.2   1 <1>  -0.1500 
  7 C        0.0260    -4.4340     0.1220 C.2   1 <1>  -0.0400 
  8 C       -0.5560    -5.6000    -0.2360 C.2   1 <1>  -0.1500 
  9 C        1.2690    -4.0770     0.9080 C.3   1 <1>   0.5230 
 10 N        1.8230    -2.8330     0.2840 N.4   1 <1>  -0.9590 
 11 C        2.9620    -3.0640    -0.6470 C.3   1 <1>   0.4230 
 12 C        1.9820    -1.7070     1.2400 C.3   1 <1>   0.4230 
 13 C        3.3310    -1.7620    -1.3620 C.3   1 <1>  -0.2400 
 14 C        2.5930    -4.1100    -1.7030 C.3   1 <1>  -0.2400 
 15 C        2.9710    -2.0600     2.3510 C.3   1 <1>  -0.2400 
 16 C        0.6230    -1.3000     1.8050 C.3   1 <1>  -0.2400 
 17 H       -2.3690    -5.9030    -1.4800 H     1 <1>   0.1500 
 18 H       -0.2690    -6.6120    -0.0120 H     1 <1>   0.1500 
 19 H        1.9840    -4.8810     0.8830 H     1 <1>   0.0800 
 20 H        0.9870    -3.8920     1.9290 H     1 <1>   0.0800 
 21 H        1.0260    -2.5520    -0.3210 H     1 <1>   0.4500 
 22 H        3.8190    -3.4130    -0.0930 H     1 <1>   0.0800 
 23 H        2.3620    -0.8500     0.7080 H     1 <1>   0.0800 
 24 H        2.4660    -1.3240    -1.8310 H     1 <1>   0.0800 
 25 H        4.0580    -1.9610    -2.1300 H     1 <1>   0.0800 
 26 H        3.7800    -1.0560    -0.6900 H     1 <1>   0.0800 
 27 H        1.6960    -3.8250    -2.2270 H     1 <1>   0.0800 
 28 H        2.4620    -5.0840    -1.2700 H     1 <1>   0.0800 
 29 H        3.3850    -4.1950    -2.4250 H     1 <1>   0.0800 
 30 H        2.6050    -2.8530     2.9760 H     1 <1>   0.0800 
 31 H        3.1200    -1.1960     2.9750 H     1 <1>   0.0800 
 32 H        3.9260    -2.3320     1.9410 H     1 <1>   0.0800 
 33 H        0.1950    -2.0570     2.4350 H     1 <1>   0.0800 
 34 H       -0.0650    -1.0760     1.0060 H     1 <1>   0.0800 
 35 H        0.7330    -0.4080     2.3950 H     1 <1>   0.0800 
@<TRIPOS>BOND
  1   1   2  ar  
  2   2   3  ar  
  3   2   4  1   
  4   4   5  1   
  5   4   6  2   
  6   5   7  1   
  7   6   8  1   
  8   6  17  1   
  9   7   8  2   
 10   7   9  1   
 11   8  18  1   
 12   9  10  1   
 13   9  19  1   
 14   9  20  1   
 15  10  11  1   
 16  10  12  1   
 17  10  21  1   
 18  11  13  1   
 19  11  14  1   
 20  11  22  1   
 21  12  15  1   
 22  12  16  1   
 23  12  23  1   
 24  13  24  1   
 25  13  25  1   
 26  13  26  1   
 27  14  27  1   
 28  14  28  1   
 29  14  29  1   
 30  15  30  1   
 31  15  31  1   
 32  15  32  1   
 33  16  33  1   
 34  16  34  1   
 35  16  35  1   
@<TRIPOS>SUBSTRUCTURE
  1 ****   5 GROUP 4 **** **** 0

# MOE 2024.06 (io_trps.svl 2023.06)
