@<TRIPOS>MOLECULE
NONAME
47 49 1 0 0 
SMALL
USER_CHARGES


@<TRIPOS>ATOM
  1 O       -3.0090     1.8470     2.0660 O.3   1 <1>  -0.5600 
  2 C       -2.6220     0.6300     1.4880 C.3   1 <1>   0.1200 
  3 C       -3.5430     2.7680     1.1530 C.3   1 <1>   0.1200 
  4 C       -1.5360     0.8570     0.4110 C.3   1 <1>   0.3430 
  5 C       -2.5400     3.0620     0.0130 C.3   1 <1>   0.3430 
  6 N       -1.2420     2.3270     0.2320 N.4   1 <1>  -0.9590 
  7 C       -0.2140     2.6580    -0.7940 C.3   1 <1>   0.3430 
  8 C        1.1830     2.2240    -0.3260 C.3   1 <1>  -0.1600 
  9 C        2.2690     2.6920    -1.3030 C.3   1 <1>   0.3430 
 10 N        3.6020     2.2850    -0.7940 N.4   1 <1>  -0.9060 
 11 C        4.7420     2.7230    -1.6340 C.3   1 <1>   0.4860 
 12 C        5.9750     2.3110    -0.8710 C.ar  1 <1>  -0.1440 
 13 C        6.3920     3.0650     0.2570 C.ar  1 <1>   0.0000 
 14 C        6.6550     1.1860    -1.2600 C.ar  1 <1>  -0.1500 
 15 C        7.4880     2.5850     1.0100 C.ar  1 <1>   0.0000 
 16 C        5.7800     4.2710     0.6810 C.ar  1 <1>  -0.1500 
 17 C        7.7600     0.7410    -0.5290 C.ar  1 <1>  -0.1500 
 18 C        8.1580     1.4230     0.5830 C.ar  1 <1>  -0.1500 
 19 C        7.8860     3.2810     2.1680 C.ar  1 <1>  -0.1500 
 20 C        6.1950     4.9290     1.8060 C.ar  1 <1>  -0.1500 
 21 C        7.2550     4.4250     2.5630 C.ar  1 <1>  -0.1500 
 22 H       -3.4920     0.1550     1.0650 H     1 <1>   0.0800 
 23 H       -2.2450    -0.0030     2.2740 H     1 <1>   0.0800 
 24 H       -3.7690     3.6710     1.6940 H     1 <1>   0.0800 
 25 H       -4.4660     2.3740     0.7610 H     1 <1>   0.0800 
 26 H       -1.8730     0.4280    -0.5190 H     1 <1>   0.0800 
 27 H       -0.6430     0.3320     0.7080 H     1 <1>   0.0800 
 28 H       -2.3660     4.1250    -0.0300 H     1 <1>   0.0800 
 29 H       -2.9810     2.7670    -0.9250 H     1 <1>   0.0800 
 30 H       -0.9440     2.6450     1.1700 H     1 <1>   0.4500 
 31 H       -0.2140     3.7250    -0.9570 H     1 <1>   0.0800 
 32 H       -0.4640     2.1770    -1.7280 H     1 <1>   0.0800 
 33 H        1.2170     1.1510    -0.2530 H     1 <1>   0.0800 
 34 H        1.3740     2.6560     0.6410 H     1 <1>   0.0800 
 35 H        2.2330     3.7660    -1.4010 H     1 <1>   0.0800 
 36 H        2.1020     2.2560    -2.2770 H     1 <1>   0.0800 
 37 H        3.6870     1.2640    -0.6980 H     1 <1>   0.4500 
 38 H        3.7900     2.6560     0.1490 H     1 <1>   0.4500 
 39 H        4.7350     3.7910    -1.7810 H     1 <1>   0.0800 
 40 H        4.7180     2.2350    -2.5950 H     1 <1>   0.0800 
 41 H        6.3670     0.6090    -2.1230 H     1 <1>   0.1500 
 42 H        4.9820     4.7080     0.1150 H     1 <1>   0.1500 
 43 H        8.2870    -0.1420    -0.8510 H     1 <1>   0.1500 
 44 H        9.0040     1.0800     1.1550 H     1 <1>   0.1500 
 45 H        8.7100     2.8940     2.7420 H     1 <1>   0.1500 
 46 H        5.7270     5.8460     2.1250 H     1 <1>   0.1500 
 47 H        7.5670     4.9530     3.4490 H     1 <1>   0.1500 
@<TRIPOS>BOND
  1   1   2  1   
  2   1   3  1   
  3   2   4  1   
  4   2  22  1   
  5   2  23  1   
  6   3   5  1   
  7   3  24  1   
  8   3  25  1   
  9   4   6  1   
 10   4  26  1   
 11   4  27  1   
 12   5   6  1   
 13   5  28  1   
 14   5  29  1   
 15   6   7  1   
 16   6  30  1   
 17   7   8  1   
 18   7  31  1   
 19   7  32  1   
 20   8   9  1   
 21   8  33  1   
 22   8  34  1   
 23   9  10  1   
 24   9  35  1   
 25   9  36  1   
 26  10  11  1   
 27  10  37  1   
 28  10  38  1   
 29  11  12  1   
 30  11  39  1   
 31  11  40  1   
 32  12  13  ar  
 33  12  14  ar  
 34  13  15  ar  
 35  13  16  ar  
 36  14  17  ar  
 37  14  41  1   
 38  15  18  ar  
 39  15  19  ar  
 40  16  20  ar  
 41  16  42  1   
 42  17  18  ar  
 43  17  43  1   
 44  18  44  1   
 45  19  21  ar  
 46  19  45  1   
 47  20  21  ar  
 48  20  46  1   
 49  21  47  1   
@<TRIPOS>SUBSTRUCTURE
  1 ****  10 GROUP 4 **** **** 0

# MOE 2024.06 (io_trps.svl 2023.06)
