@<TRIPOS>MOLECULE
NONAME
35 36 1 0 0 
SMALL
USER_CHARGES


@<TRIPOS>ATOM
  1 F       -0.5890    -0.3030     0.9270 F     1 <1>  -0.1900 
  2 C       -1.7180    -0.7330     0.4350 C.ar  1 <1>   0.1900 
  3 C       -2.2390    -1.9230     0.9010 C.ar  1 <1>  -0.1500 
  4 C       -2.3510     0.0180    -0.5360 C.ar  1 <1>  -0.1500 
  5 C       -3.4400    -2.3740     0.3780 C.ar  1 <1>  -0.1500 
  6 C       -3.5510    -0.4400    -1.0530 C.ar  1 <1>  -0.1500 
  7 C       -4.1030    -1.6320    -0.5950 C.ar  1 <1>  -0.1430 
  8 C       -5.4250    -2.1220    -1.1570 C.3   1 <1>   0.4870 
  9 N       -6.4950    -1.8880    -0.1480 N.4   1 <1>  -0.9590 
 10 C       -7.7690    -2.5580    -0.5680 C.3   1 <1>   0.3430 
 11 C       -6.6890    -0.4310     0.1170 C.3   1 <1>   0.3430 
 12 C       -8.8760    -2.3910     0.4830 C.3   1 <1>  -0.0190 
 13 C       -7.7450    -0.2390     1.2070 C.3   1 <1>  -0.1600 
 14 C      -10.1520    -3.0130    -0.0590 C.2   1 <1>   0.5690 
 15 C       -9.0790    -0.9040     0.8350 C.3   1 <1>  -0.1600 
 16 O      -10.2410    -3.2430    -1.2370 O.2   1 <1>  -0.5700 
 17 N      -11.1690    -3.3080     0.7680 N.am  1 <1>  -0.8000 
 18 H       -1.7080    -2.4800     1.6540 H     1 <1>   0.1500 
 19 H       -1.9050     0.9380    -0.8750 H     1 <1>   0.1500 
 20 H       -3.8400    -3.3080     0.7370 H     1 <1>   0.1500 
 21 H       -4.0410     0.1430    -1.8160 H     1 <1>   0.1500 
 22 H       -5.3470    -3.1740    -1.3790 H     1 <1>   0.0800 
 23 H       -5.6540    -1.5990    -2.0720 H     1 <1>   0.0800 
 24 H       -6.1680    -2.3110     0.7280 H     1 <1>   0.4500 
 25 H       -7.6010    -3.6100    -0.7350 H     1 <1>   0.0800 
 26 H       -8.1120    -2.1300    -1.4970 H     1 <1>   0.0800 
 27 H       -7.0100     0.0650    -0.7850 H     1 <1>   0.0800 
 28 H       -5.7600     0.0150     0.4370 H     1 <1>   0.0800 
 29 H       -8.5940    -2.9350     1.3660 H     1 <1>   0.0800 
 30 H       -7.9050     0.8150     1.3550 H     1 <1>   0.0800 
 31 H       -7.3770    -0.6390     2.1360 H     1 <1>   0.0800 
 32 H       -9.7730    -0.8110     1.6540 H     1 <1>   0.0800 
 33 H       -9.5070    -0.3930    -0.0120 H     1 <1>   0.0800 
 34 H      -12.0220    -3.7190     0.3790 H     1 <1>   0.3700 
 35 H      -11.1880    -3.1290     1.7730 H     1 <1>   0.3700 
@<TRIPOS>BOND
  1   1   2  1   
  2   2   3  ar  
  3   2   4  ar  
  4   3   5  ar  
  5   3  18  1   
  6   4   6  ar  
  7   4  19  1   
  8   5   7  ar  
  9   5  20  1   
 10   6   7  ar  
 11   6  21  1   
 12   7   8  1   
 13   8   9  1   
 14   8  22  1   
 15   8  23  1   
 16   9  10  1   
 17   9  11  1   
 18   9  24  1   
 19  10  12  1   
 20  10  25  1   
 21  10  26  1   
 22  11  13  1   
 23  11  27  1   
 24  11  28  1   
 25  12  14  1   
 26  12  15  1   
 27  12  29  1   
 28  13  15  1   
 29  13  30  1   
 30  13  31  1   
 31  14  16  2   
 32  14  17  am  
 33  15  32  1   
 34  15  33  1   
 35  17  34  1   
 36  17  35  1   
@<TRIPOS>SUBSTRUCTURE
  1 ****   9 GROUP 4 **** **** 0

# MOE 2024.06 (io_trps.svl 2023.06)
