@<TRIPOS>MOLECULE
NONAME
39 41 1 0 0 
SMALL
USER_CHARGES


@<TRIPOS>ATOM
  1 S        0.2230     0.2610    -0.5300 S.3   1 <1>  -0.2860 
  2 C       -1.1400     1.4160    -0.7280 C.2   1 <1>   0.2420 
  3 C        1.7080     1.2850    -0.9950 C.3   1 <1>   0.1310 
  4 N       -0.9810     2.6360    -1.1020 N.2   1 <1>  -0.3380 
  5 N       -2.4150     1.0770    -0.4940 N.pl3 1 <1>   0.3260 
  6 C        3.0030     0.4960    -0.8730 C.2   1 <1>   0.5690 
  7 N       -2.2080     3.1660    -1.1320 N.2   1 <1>  -0.3380 
  8 C       -2.9680    -0.1600    -0.0760 C.ar  1 <1>  -0.0230 
  9 C       -3.0350     2.2410    -0.7740 C.2   1 <1>   0.0060 
 10 O        4.0200     1.0090    -1.2760 O.2   1 <1>  -0.5700 
 11 N        2.9890    -0.7460    -0.3160 N.am  1 <1>  -0.5790 
 12 C       -3.0540    -1.2290    -0.9590 C.ar  1 <1>  -0.1500 
 13 C       -3.4380    -0.3200     1.2220 C.ar  1 <1>  -0.1500 
 14 C       -4.5380     2.4300    -0.6850 C.3   1 <1>  -0.0600 
 15 C        4.1510    -1.6230    -0.1260 C.3   1 <1>   0.0490 
 16 C       -3.6040    -2.4320    -0.5540 C.ar  1 <1>  -0.1500 
 17 C       -3.9890    -1.5230     1.6250 C.ar  1 <1>  -0.1500 
 18 C        3.9500    -3.0940    -0.2810 C.3   1 <1>  -0.2000 
 19 C        4.1730    -2.5030     1.0790 C.3   1 <1>  -0.2000 
 20 C       -4.0770    -2.5840     0.7390 C.ar  1 <1>  -0.1430 
 21 C       -4.6800    -3.9040     1.1860 C.3   1 <1>  -0.0970 
 22 H        1.7270     2.1360    -0.3400 H     1 <1>   0.0800 
 23 H        1.5650     1.6110    -2.0080 H     1 <1>   0.0800 
 24 H        2.0930    -1.1300    -0.0090 H     1 <1>   0.3700 
 25 H       -2.6900    -1.1250    -1.9680 H     1 <1>   0.1500 
 26 H       -3.3740     0.4950     1.9230 H     1 <1>   0.1500 
 27 H       -4.8030     3.4210    -1.0090 H     1 <1>   0.0800 
 28 H       -5.0390     1.7170    -1.3130 H     1 <1>   0.0800 
 29 H       -4.8680     2.3000     0.3300 H     1 <1>   0.0800 
 30 H        5.0770    -1.1860    -0.4680 H     1 <1>   0.1000 
 31 H       -3.6620    -3.2510    -1.2500 H     1 <1>   0.1500 
 32 H       -4.3490    -1.6330     2.6340 H     1 <1>   0.1500 
 33 H        4.7420    -3.6770    -0.7180 H     1 <1>   0.1000 
 34 H        2.9730    -3.4600    -0.5400 H     1 <1>   0.1000 
 35 H        3.3520    -2.4570     1.7720 H     1 <1>   0.1000 
 36 H        5.1160    -2.6860     1.5640 H     1 <1>   0.1000 
 37 H       -3.9260    -4.5080     1.6570 H     1 <1>   0.0800 
 38 H       -5.0800    -4.4410     0.3450 H     1 <1>   0.0800 
 39 H       -5.4770    -3.7330     1.8870 H     1 <1>   0.0800 
@<TRIPOS>BOND
  1   1   2  1   
  2   1   3  1   
  3   2   4  2   
  4   2   5  1   
  5   3   6  1   
  6   3  22  1   
  7   3  23  1   
  8   4   7  1   
  9   5   8  1   
 10   5   9  1   
 11   6  10  2   
 12   6  11  am  
 13   7   9  2   
 14   8  12  ar  
 15   8  13  ar  
 16   9  14  1   
 17  11  15  1   
 18  11  24  1   
 19  12  16  ar  
 20  12  25  1   
 21  13  17  ar  
 22  13  26  1   
 23  14  27  1   
 24  14  28  1   
 25  14  29  1   
 26  15  18  1   
 27  15  19  1   
 28  15  30  1   
 29  16  20  ar  
 30  16  31  1   
 31  17  20  ar  
 32  17  32  1   
 33  18  19  1   
 34  18  33  1   
 35  18  34  1   
 36  19  35  1   
 37  19  36  1   
 38  20  21  1   
 39  21  37  1   
 40  21  38  1   
 41  21  39  1   
@<TRIPOS>SUBSTRUCTURE
  1 ****   1 GROUP 4 **** **** 0

# MOE 2024.06 (io_trps.svl 2023.06)
