@<TRIPOS>MOLECULE
NONAME
38 39 1 0 0 
SMALL
USER_CHARGES


@<TRIPOS>ATOM
  1 S       -0.1840     0.0590     0.1340 S.o2  1 <1>   1.4470 
  2 O       -0.2850    -0.0790     1.5720 O.2   1 <1>  -0.6500 
  3 O       -0.5940    -1.0360    -0.7170 O.2   1 <1>  -0.6500 
  4 N       -1.1310     1.3940    -0.3050 N.am  1 <1>  -0.8490 
  5 C        1.4870     0.5850    -0.3300 C.ar  1 <1>  -0.0090 
  6 C       -1.0000     2.5490     0.5660 C.3   1 <1>   0.1960 
  7 C       -2.5500     1.0920    -0.3360 C.3   1 <1>   0.1960 
  8 C        2.5350     0.5680     0.5830 C.ar  1 <1>  -0.1500 
  9 C        1.7660     1.0180    -1.6210 C.ar  1 <1>  -0.1500 
 10 C       -2.1910     3.4260     0.2020 C.3   1 <1>  -0.1600 
 11 C       -3.2340     2.4540    -0.3510 C.3   1 <1>  -0.1600 
 12 C        3.8080     0.9730     0.2250 C.ar  1 <1>  -0.1500 
 13 C        3.0370     1.4250    -1.9830 C.ar  1 <1>  -0.1500 
 14 C        4.0800     1.4130    -1.0670 C.ar  1 <1>   0.1990 
 15 N        5.3320     1.8440    -1.4790 N.am  1 <1>  -0.7570 
 16 S        6.8100     1.9500    -0.6150 S.o2  1 <1>   1.3330 
 17 O        6.9340     0.7700     0.2030 O.2   1 <1>  -0.6500 
 18 O        7.7740     2.2570    -1.6410 O.2   1 <1>  -0.6500 
 19 C        6.5510     3.4050     0.4090 C.3   1 <1>  -0.0550 
 20 C        7.7550     3.7860     1.2880 C.3   1 <1>  -0.2400 
 21 H       -0.0630     3.0550     0.4070 H     1 <1>   0.0800 
 22 H       -1.0800     2.2530     1.6000 H     1 <1>   0.0800 
 23 H       -2.8290     0.5510     0.5550 H     1 <1>   0.0800 
 24 H       -2.8000     0.5030    -1.2030 H     1 <1>   0.0800 
 25 H        2.3510     0.2280     1.5890 H     1 <1>   0.1500 
 26 H        0.9700     1.0350    -2.3480 H     1 <1>   0.1500 
 27 H       -1.9000     4.1300    -0.5590 H     1 <1>   0.0800 
 28 H       -2.5500     3.9650     1.0610 H     1 <1>   0.0800 
 29 H       -4.1270     2.4360     0.2480 H     1 <1>   0.0800 
 30 H       -3.4950     2.7190    -1.3610 H     1 <1>   0.0800 
 31 H        4.5870     0.9320     0.9630 H     1 <1>   0.1500 
 32 H        3.2190     1.7550    -2.9900 H     1 <1>   0.1500 
 33 H        5.5130     1.9520    -2.4730 H     1 <1>   0.4200 
 34 H        5.7050     3.2360     1.0460 H     1 <1>   0.0800 
 35 H        6.3160     4.2380    -0.2260 H     1 <1>   0.0800 
 36 H        7.9970     2.9770     1.9560 H     1 <1>   0.0800 
 37 H        7.5300     4.6620     1.8710 H     1 <1>   0.0800 
 38 H        8.6130     3.9910     0.6720 H     1 <1>   0.0800 
@<TRIPOS>BOND
  1   1   2  2   
  2   1   3  2   
  3   1   4  am  
  4   1   5  1   
  5   4   6  1   
  6   4   7  1   
  7   5   8  ar  
  8   5   9  ar  
  9   6  10  1   
 10   6  21  1   
 11   6  22  1   
 12   7  11  1   
 13   7  23  1   
 14   7  24  1   
 15   8  12  ar  
 16   8  25  1   
 17   9  13  ar  
 18   9  26  1   
 19  10  11  1   
 20  10  27  1   
 21  10  28  1   
 22  11  29  1   
 23  11  30  1   
 24  12  14  ar  
 25  12  31  1   
 26  13  14  ar  
 27  13  32  1   
 28  14  15  1   
 29  15  16  am  
 30  15  33  1   
 31  16  17  2   
 32  16  18  2   
 33  16  19  1   
 34  19  20  1   
 35  19  34  1   
 36  19  35  1   
 37  20  36  1   
 38  20  37  1   
 39  20  38  1   
@<TRIPOS>SUBSTRUCTURE
  1 ****   5 GROUP 4 **** **** 0

# MOE 2024.06 (io_trps.svl 2023.06)
