@<TRIPOS>MOLECULE
NONAME
43 46 1 0 0 
SMALL
USER_CHARGES


@<TRIPOS>ATOM
  1 BR      -0.5270    -0.2730    -1.5510 Br    1 <1>  -0.1110 
  2 C       -0.6000     1.6190    -1.2270 C.ar  1 <1>   0.1110 
  3 C        0.4350     2.4150    -1.6750 C.ar  1 <1>  -0.1500 
  4 C       -1.6840     2.1400    -0.5490 C.ar  1 <1>  -0.1500 
  5 C        0.3710     3.7770    -1.4380 C.ar  1 <1>  -0.1500 
  6 C       -1.7300     3.5040    -0.3200 C.ar  1 <1>  -0.1500 
  7 C       -0.7100     4.3550    -0.7650 C.ar  1 <1>   0.0860 
  8 C       -0.7610     5.7880    -0.5400 C.2   1 <1>   0.5440 
  9 O        0.2680     6.4150    -0.3840 O.2   1 <1>  -0.5700 
 10 N       -1.9720     6.4320    -0.5250 N.am  1 <1>  -0.7300 
 11 C       -2.3100     7.8580    -0.2970 C.3   1 <1>   0.3000 
 12 C       -3.8490     7.8870    -0.3990 C.3   1 <1>  -0.1600 
 13 C       -1.8230     8.2720     1.1120 C.3   1 <1>  -0.1600 
 14 C       -1.6770     8.6950    -1.4300 C.3   1 <1>  -0.1600 
 15 C       -4.6260     9.1710    -0.0490 C.3   1 <1>  -0.1600 
 16 C       -1.6870     9.7910     1.3310 C.3   1 <1>  -0.0800 
 17 C       -1.6100    10.2000    -1.1370 C.3   1 <1>  -0.0800 
 18 C       -3.8510    10.4840     0.1290 C.3   1 <1>  -0.0800 
 19 C       -3.0420    10.5020     1.4370 C.3   1 <1>  -0.1600 
 20 C       -0.8770    10.4180     0.1910 C.3   1 <1>  -0.1600 
 21 C       -2.9980    10.8630    -1.0980 C.3   1 <1>  -0.1600 
 22 H        1.2700     1.9790    -2.1950 H     1 <1>   0.1500 
 23 H       -2.4700     1.4890    -0.2080 H     1 <1>   0.1500 
 24 H        1.1710     4.4150    -1.7760 H     1 <1>   0.1500 
 25 H       -2.5650     3.9150     0.2200 H     1 <1>   0.1500 
 26 H       -2.7850     5.8850    -0.7960 H     1 <1>   0.3700 
 27 H       -4.2410     7.1130     0.2380 H     1 <1>   0.0800 
 28 H       -4.1170     7.6200    -1.4060 H     1 <1>   0.0800 
 29 H       -0.8460     7.8600     1.2790 H     1 <1>   0.0800 
 30 H       -2.4720     7.8550     1.8600 H     1 <1>   0.0800 
 31 H       -0.6650     8.3710    -1.5850 H     1 <1>   0.0800 
 32 H       -2.2030     8.5300    -2.3530 H     1 <1>   0.0800 
 33 H       -5.1790     8.9910     0.8570 H     1 <1>   0.0800 
 34 H       -5.3650     9.3260    -0.8160 H     1 <1>   0.0800 
 35 H       -1.1560     9.9470     2.2550 H     1 <1>   0.0800 
 36 H       -1.0400    10.6650    -1.9240 H     1 <1>   0.0800 
 37 H       -4.6040    11.2480     0.2290 H     1 <1>   0.0800 
 38 H       -3.6170    10.0740     2.2400 H     1 <1>   0.0800 
 39 H       -2.8560    11.5290     1.7000 H     1 <1>   0.0800 
 40 H        0.1000     9.9680     0.1480 H     1 <1>   0.0800 
 41 H       -0.7460    11.4710     0.3690 H     1 <1>   0.0800 
 42 H       -3.5370    10.6460    -2.0030 H     1 <1>   0.0800 
 43 H       -2.8460    11.9280    -1.0730 H     1 <1>   0.0800 
@<TRIPOS>BOND
  1   1   2  1   
  2   2   3  ar  
  3   2   4  ar  
  4   3   5  ar  
  5   3  22  1   
  6   4   6  ar  
  7   4  23  1   
  8   5   7  ar  
  9   5  24  1   
 10   6   7  ar  
 11   6  25  1   
 12   7   8  1   
 13   8   9  2   
 14   8  10  am  
 15  10  11  1   
 16  10  26  1   
 17  11  12  1   
 18  11  13  1   
 19  11  14  1   
 20  12  15  1   
 21  12  27  1   
 22  12  28  1   
 23  13  16  1   
 24  13  29  1   
 25  13  30  1   
 26  14  17  1   
 27  14  31  1   
 28  14  32  1   
 29  15  18  1   
 30  15  33  1   
 31  15  34  1   
 32  16  19  1   
 33  16  20  1   
 34  16  35  1   
 35  17  20  1   
 36  17  21  1   
 37  17  36  1   
 38  18  19  1   
 39  18  21  1   
 40  18  37  1   
 41  19  38  1   
 42  19  39  1   
 43  20  40  1   
 44  20  41  1   
 45  21  42  1   
 46  21  43  1   
@<TRIPOS>SUBSTRUCTURE
  1 ****  10 GROUP 4 **** **** 0

# MOE 2024.06 (io_trps.svl 2023.06)
