@<TRIPOS>MOLECULE
NONAME
48 50 1 0 0 
SMALL
USER_CHARGES


@<TRIPOS>ATOM
  1 O       -0.4890     0.4340    -0.9100 O.2   1 <1>  -0.5700 
  2 C       -0.8350     1.5910    -0.7780 C.2   1 <1>   0.6340 
  3 O       -2.1450     1.8690    -0.8070 O.3   1 <1>  -0.4300 
  4 C        0.0900     2.6910    -0.5930 C.ar  1 <1>   0.0860 
  5 C       -3.1160     0.8560    -0.9820 C.3   1 <1>   0.0400 
  6 C        1.4680     2.4730    -0.4970 C.ar  1 <1>  -0.1500 
  7 C       -0.3470     4.0160    -0.5040 C.ar  1 <1>  -0.1500 
  8 C        2.3700     3.5110    -0.3220 C.ar  1 <1>   0.1170 
  9 C        0.5390     5.0610    -0.3340 C.ar  1 <1>  -0.1500 
 10 N        3.7600     3.3370    -0.2270 N.am  1 <1>  -0.5470 
 11 C        1.9050     4.8320    -0.2450 C.ar  1 <1>   0.1000 
 12 C        4.5850     2.2570    -0.0490 C.2   1 <1>   0.5440 
 13 N        2.8020     5.8930    -0.0730 N.pl3 1 <1>  -0.8380 
 14 O        4.1200     1.1430     0.0890 O.2   1 <1>  -0.5700 
 15 C        6.0180     2.4820    -0.0230 C.ar  1 <1>   0.0860 
 16 C        3.0400     6.3840     1.3190 C.3   1 <1>   0.2090 
 17 C        2.8750     6.9690    -1.1110 C.3   1 <1>   0.2090 
 18 C        6.8430     2.0520     1.0260 C.ar  1 <1>  -0.1430 
 19 C        6.6170     3.1710    -1.0800 C.ar  1 <1>  -0.1500 
 20 C        2.2810     7.6940     1.5990 C.3   1 <1>   0.1200 
 21 C        2.1590     8.2610    -0.6700 C.3   1 <1>   0.1200 
 22 C        8.2040     2.3120     0.9990 C.ar  1 <1>  -0.1500 
 23 C        6.2670     1.2930     2.2160 C.3   1 <1>  -0.0970 
 24 C        7.9740     3.4300    -1.1010 C.ar  1 <1>  -0.1500 
 25 O        2.5530     8.6520     0.6150 O.3   1 <1>  -0.5600 
 26 C        8.7710     3.0000    -0.0580 C.ar  1 <1>  -0.1500 
 27 H       -4.0900     1.3110    -0.9710 H     1 <1>   0.0800 
 28 H       -3.0270     0.1470    -0.1770 H     1 <1>   0.0800 
 29 H       -2.9430     0.3690    -1.9260 H     1 <1>   0.0800 
 30 H        1.8280     1.4630    -0.5660 H     1 <1>   0.1500 
 31 H       -1.3990     4.2310    -0.5690 H     1 <1>   0.1500 
 32 H        0.1690     6.0660    -0.2650 H     1 <1>   0.1500 
 33 H        4.2140     4.2540    -0.2020 H     1 <1>   0.3700 
 34 H        4.0930     6.5520     1.4580 H     1 <1>   0.0800 
 35 H        2.7300     5.6330     2.0250 H     1 <1>   0.0800 
 36 H        2.4400     6.6150    -2.0300 H     1 <1>   0.0800 
 37 H        3.9090     7.1950    -1.3050 H     1 <1>   0.0800 
 38 H        6.0060     3.5020    -1.9010 H     1 <1>   0.1500 
 39 H        2.5860     8.1010     2.5460 H     1 <1>   0.0800 
 40 H        1.2210     7.5160     1.6250 H     1 <1>   0.0800 
 41 H        1.0930     8.1250    -0.6740 H     1 <1>   0.0800 
 42 H        2.4020     9.0630    -1.3450 H     1 <1>   0.0800 
 43 H        8.8370     1.9780     1.8030 H     1 <1>   0.1500 
 44 H        5.4170     1.8150     2.6170 H     1 <1>   0.0800 
 45 H        6.9950     1.1820     2.9990 H     1 <1>   0.0800 
 46 H        5.9500     0.3130     1.9030 H     1 <1>   0.0800 
 47 H        8.4120     3.9630    -1.9280 H     1 <1>   0.1500 
 48 H        9.8290     3.1960    -0.0690 H     1 <1>   0.1500 
@<TRIPOS>BOND
  1   1   2  2   
  2   2   3  1   
  3   2   4  1   
  4   3   5  1   
  5   4   6  ar  
  6   4   7  ar  
  7   5  27  1   
  8   5  28  1   
  9   5  29  1   
 10   6   8  ar  
 11   6  30  1   
 12   7   9  ar  
 13   7  31  1   
 14   8  10  1   
 15   8  11  ar  
 16   9  11  ar  
 17   9  32  1   
 18  10  12  am  
 19  10  33  1   
 20  11  13  1   
 21  12  14  2   
 22  12  15  1   
 23  13  16  1   
 24  13  17  1   
 25  15  18  ar  
 26  15  19  ar  
 27  16  20  1   
 28  16  34  1   
 29  16  35  1   
 30  17  21  1   
 31  17  36  1   
 32  17  37  1   
 33  18  22  ar  
 34  18  23  1   
 35  19  24  ar  
 36  19  38  1   
 37  20  25  1   
 38  20  39  1   
 39  20  40  1   
 40  21  25  1   
 41  21  41  1   
 42  21  42  1   
 43  22  26  ar  
 44  22  43  1   
 45  23  44  1   
 46  23  45  1   
 47  23  46  1   
 48  24  26  ar  
 49  24  47  1   
 50  26  48  1   
@<TRIPOS>SUBSTRUCTURE
  1 ****   8 GROUP 4 **** **** 0

# MOE 2024.06 (io_trps.svl 2023.06)
