@<TRIPOS>MOLECULE
NONAME
47 50 1 0 0 
SMALL
USER_CHARGES


@<TRIPOS>ATOM
  1 BR       1.9140    -0.5670     2.2510 Br    1 <1>  -0.1110 
  2 C        2.6470     0.6320     0.9300 C.ar  1 <1>   0.1110 
  3 C        2.1520     1.9200     0.8050 C.ar  1 <1>   0.0830 
  4 C        3.6710     0.1610     0.1310 C.ar  1 <1>  -0.1500 
  5 O        1.1580     2.3730     1.5950 O.3   1 <1>  -0.5330 
  6 C        2.6950     2.7630    -0.1600 C.ar  1 <1>   0.0830 
  7 C        4.2280     1.0050    -0.8210 C.ar  1 <1>  -0.1430 
  8 O        2.1720     4.0180    -0.2570 O.3   1 <1>  -0.3630 
  9 C        3.7330     2.2980    -0.9680 C.ar  1 <1>  -0.1500 
 10 C        5.3790     0.5210    -1.6850 C.3   1 <1>   0.4860 
 11 C        2.4520     4.8540    -1.3600 C.3   1 <1>   0.0400 
 12 N        6.5980     0.4070    -0.8370 N.4   1 <1>  -0.9590 
 13 C        6.9610     1.7280    -0.2030 C.3   1 <1>   0.3430 
 14 C        7.7370    -0.1980    -1.5960 C.3   1 <1>   0.3430 
 15 C        8.3750     1.7510     0.4130 C.3   1 <1>   0.0580 
 16 C        9.0030    -0.3470    -0.7220 C.3   1 <1>  -0.0800 
 17 C        9.2930     2.5080    -0.5500 C.2   1 <1>  -0.0290 
 18 C        8.8840     0.3240     0.6580 C.3   1 <1>  -0.1600 
 19 C       10.1650     0.3180    -1.4660 C.3   1 <1>   0.1400 
 20 N        9.9940     1.8040    -1.5300 N.am  1 <1>  -0.4690 
 21 C        9.4010     3.8640    -0.4710 C.2   1 <1>  -0.1500 
 22 C       10.7470     2.4890    -2.4750 C.2   1 <1>   0.6160 
 23 C       10.2000     4.5830    -1.3920 C.2   1 <1>  -0.1500 
 24 O       11.2990     1.8780    -3.3820 O.2   1 <1>  -0.5700 
 25 C       10.8480     3.9020    -2.3710 C.2   1 <1>  -0.1360 
 26 H        4.0070    -0.8520     0.2690 H     1 <1>   0.1500 
 27 H        0.9280     3.2940     1.3550 H     1 <1>   0.4500 
 28 H        4.1600     2.9450    -1.7120 H     1 <1>   0.1500 
 29 H        5.5520     1.2160    -2.4910 H     1 <1>   0.0800 
 30 H        5.1290    -0.4380    -2.1090 H     1 <1>   0.0800 
 31 H        1.8480     5.7390    -1.2690 H     1 <1>   0.0800 
 32 H        2.1990     4.3350    -2.2670 H     1 <1>   0.0800 
 33 H        3.4920     5.1240    -1.3430 H     1 <1>   0.0800 
 34 H        6.3670    -0.2320    -0.0670 H     1 <1>   0.4500 
 35 H        6.2430     1.9550     0.5690 H     1 <1>   0.0800 
 36 H        6.9020     2.5130    -0.9400 H     1 <1>   0.0800 
 37 H        7.9710     0.4340    -2.4390 H     1 <1>   0.0800 
 38 H        7.4560    -1.1660    -1.9790 H     1 <1>   0.0800 
 39 H        8.3350     2.2870     1.3450 H     1 <1>   0.0800 
 40 H        9.2320    -1.3920    -0.6030 H     1 <1>   0.0800 
 41 H        8.2070    -0.2170     1.2970 H     1 <1>   0.0800 
 42 H        9.8440     0.3550     1.1470 H     1 <1>   0.0800 
 43 H       10.2400    -0.0880    -2.4610 H     1 <1>   0.0800 
 44 H       11.0930     0.1080    -0.9600 H     1 <1>   0.0800 
 45 H        8.8860     4.4360     0.2820 H     1 <1>   0.1500 
 46 H       10.2740     5.6530    -1.2970 H     1 <1>   0.1500 
 47 H       11.4630     4.3910    -3.1030 H     1 <1>   0.1500 
@<TRIPOS>BOND
  1   1   2  1   
  2   2   3  ar  
  3   2   4  ar  
  4   3   5  1   
  5   3   6  ar  
  6   4   7  ar  
  7   4  26  1   
  8   5  27  1   
  9   6   8  1   
 10   6   9  ar  
 11   7   9  ar  
 12   7  10  1   
 13   8  11  1   
 14   9  28  1   
 15  10  12  1   
 16  10  29  1   
 17  10  30  1   
 18  11  31  1   
 19  11  32  1   
 20  11  33  1   
 21  12  13  1   
 22  12  14  1   
 23  12  34  1   
 24  13  15  1   
 25  13  35  1   
 26  13  36  1   
 27  14  16  1   
 28  14  37  1   
 29  14  38  1   
 30  15  17  1   
 31  15  18  1   
 32  15  39  1   
 33  16  18  1   
 34  16  19  1   
 35  16  40  1   
 36  17  20  1   
 37  17  21  2   
 38  18  41  1   
 39  18  42  1   
 40  19  20  1   
 41  19  43  1   
 42  19  44  1   
 43  20  22  am  
 44  21  23  1   
 45  21  45  1   
 46  22  24  2   
 47  22  25  1   
 48  23  25  2   
 49  23  46  1   
 50  25  47  1   
@<TRIPOS>SUBSTRUCTURE
  1 ****  13 GROUP 4 **** **** 0

# MOE 2024.06 (io_trps.svl 2023.06)
