@<TRIPOS>MOLECULE
NONAME
39 42 1 0 0 
SMALL
USER_CHARGES


@<TRIPOS>ATOM
  1 S        0.6630    -1.6580    -0.6420 S.3   1 <1>  -0.3610 
  2 C       -0.4200    -1.2610     0.6530 C.cat 1 <1>   0.8400 
  3 C        2.2110    -1.2630     0.2630 C.3   1 <1>   0.0700 
  4 N        0.2470    -0.8590     1.7020 N.pl3 1 <1>  -0.7940 
  5 N       -1.7340    -1.3540     0.5790 N.pl3 1 <1>  -0.6850 
  6 C        1.7410    -0.8000     1.6520 C.3   1 <1>   0.3300 
  7 C       -2.5570    -1.7560    -0.4500 C.2   1 <1>   0.8900 
  8 O       -2.1250    -2.1060    -1.5090 O.2   1 <1>  -0.5700 
  9 C       -4.0810    -1.7400    -0.1820 C.3   1 <1>   0.0610 
 10 C       -4.8850    -2.2160    -1.4250 C.3   1 <1>  -0.1600 
 11 C       -4.5590    -0.3030     0.1690 C.3   1 <1>  -0.1600 
 12 C       -4.4390    -2.6820     1.0020 C.3   1 <1>  -0.1600 
 13 C       -6.4000    -2.1970    -1.1510 C.3   1 <1>  -0.0800 
 14 C       -6.0720    -0.2800     0.4530 C.3   1 <1>  -0.0800 
 15 C       -5.9510    -2.6590     1.2870 C.3   1 <1>  -0.0800 
 16 C       -6.8300    -0.7630    -0.7960 C.3   1 <1>  -0.1600 
 17 C       -6.7100    -3.1290     0.0330 C.3   1 <1>  -0.1600 
 18 C       -6.3830    -1.2220     1.6310 C.3   1 <1>  -0.1600 
 19 H        2.7250    -0.4860    -0.2760 H     1 <1>   0.0800 
 20 H        2.8100    -2.1550     0.3080 H     1 <1>   0.0800 
 21 H       -0.1790    -0.5720     2.5850 H     1 <1>   0.4500 
 22 H       -2.2590    -1.0930     1.4010 H     1 <1>   0.4500 
 23 H        2.0750     0.2090     1.8330 H     1 <1>   0.0800 
 24 H        2.1590    -1.4420     2.4110 H     1 <1>   0.0800 
 25 H       -4.5880    -3.2150    -1.6950 H     1 <1>   0.0800 
 26 H       -4.6710    -1.5810    -2.2680 H     1 <1>   0.0800 
 27 H       -4.3470     0.3610    -0.6520 H     1 <1>   0.0800 
 28 H       -4.0460     0.0750     1.0340 H     1 <1>   0.0800 
 29 H       -3.9200    -2.3910     1.8980 H     1 <1>   0.0800 
 30 H       -4.1410    -3.6900     0.7660 H     1 <1>   0.0800 
 31 H       -6.9330    -2.5310    -2.0260 H     1 <1>   0.0800 
 32 H       -6.3850     0.7220     0.6980 H     1 <1>   0.0800 
 33 H       -6.1800    -3.3140     2.1110 H     1 <1>   0.0800 
 34 H       -6.6320    -0.1060    -1.6240 H     1 <1>   0.0800 
 35 H       -7.8900    -0.7390    -0.6100 H     1 <1>   0.0800 
 36 H       -6.4270    -4.1390    -0.2120 H     1 <1>   0.0800 
 37 H       -7.7690    -3.1290     0.2270 H     1 <1>   0.0800 
 38 H       -7.4400    -1.2030     1.8380 H     1 <1>   0.0800 
 39 H       -5.8770    -0.8860     2.5180 H     1 <1>   0.0800 
@<TRIPOS>BOND
  1   1   2  1   
  2   1   3  1   
  3   2   4  ar  
  4   2   5  ar  
  5   3   6  1   
  6   3  19  1   
  7   3  20  1   
  8   4   6  1   
  9   4  21  1   
 10   5   7  1   
 11   5  22  1   
 12   6  23  1   
 13   6  24  1   
 14   7   8  2   
 15   7   9  1   
 16   9  10  1   
 17   9  11  1   
 18   9  12  1   
 19  10  13  1   
 20  10  25  1   
 21  10  26  1   
 22  11  14  1   
 23  11  27  1   
 24  11  28  1   
 25  12  15  1   
 26  12  29  1   
 27  12  30  1   
 28  13  16  1   
 29  13  17  1   
 30  13  31  1   
 31  14  16  1   
 32  14  18  1   
 33  14  32  1   
 34  15  17  1   
 35  15  18  1   
 36  15  33  1   
 37  16  34  1   
 38  16  35  1   
 39  17  36  1   
 40  17  37  1   
 41  18  38  1   
 42  18  39  1   
@<TRIPOS>SUBSTRUCTURE
  1 ****   9 GROUP 4 **** **** 0

# MOE 2024.06 (io_trps.svl 2023.06)
