@<TRIPOS>MOLECULE
NONAME
36 37 1 0 0 
SMALL
USER_CHARGES


@<TRIPOS>ATOM
  1 CL      -1.9490    -2.7310     3.6090 Cl    1 <1>  -0.1770 
  2 C       -1.0920    -3.0770     2.1220 C.ar  1 <1>   0.1770 
  3 C       -1.7290    -2.9530     0.8920 C.ar  1 <1>   0.0830 
  4 C        0.2280    -3.4740     2.2160 C.ar  1 <1>  -0.1500 
  5 O       -3.0210    -2.5330     0.8690 O.3   1 <1>  -0.3630 
  6 C       -1.0030    -3.2660    -0.2520 C.ar  1 <1>  -0.1500 
  7 C        0.9640    -3.7680     1.0730 C.ar  1 <1>  -0.0090 
  8 C       -3.6830    -2.1320    -0.3360 C.3   1 <1>   0.0140 
  9 C        0.3180    -3.6680    -0.1550 C.ar  1 <1>  -0.1500 
 10 S        2.7050    -4.2640     1.1840 S.o2  1 <1>   1.4470 
 11 C       -3.1190    -0.8770    -0.9980 C.2   1 <1>   0.9060 
 12 O        2.8120    -5.6850     0.9320 O.2   1 <1>  -0.6500 
 13 O        3.2980    -3.7210     2.3880 O.2   1 <1>  -0.6500 
 14 N        3.4380    -3.4650    -0.1190 N.am  1 <1>  -0.8490 
 15 O       -2.3280    -1.0070    -1.9430 O.co2 1 <1>  -0.9000 
 16 O       -3.5170     0.2350    -0.6290 O.co2 1 <1>  -0.9000 
 17 C        3.4320    -2.0070     0.0530 C.3   1 <1>   0.1960 
 18 C        4.7960    -3.9630    -0.3490 C.3   1 <1>   0.1960 
 19 C        3.9550    -1.3230    -1.2140 C.3   1 <1>  -0.1600 
 20 C        5.3800    -3.3450    -1.6250 C.3   1 <1>  -0.1600 
 21 C        5.3640    -1.8130    -1.5680 C.3   1 <1>  -0.1600 
 22 H        0.6850    -3.5490     3.1860 H     1 <1>   0.1500 
 23 H       -1.4470    -3.1910    -1.2290 H     1 <1>   0.1500 
 24 H       -4.7050    -1.9320    -0.0820 H     1 <1>   0.0800 
 25 H       -3.6550    -2.9470    -1.0320 H     1 <1>   0.0800 
 26 H        0.8610    -3.8970    -1.0570 H     1 <1>   0.1500 
 27 H        4.0440    -1.7320     0.8970 H     1 <1>   0.0800 
 28 H        2.4280    -1.6610     0.2390 H     1 <1>   0.0800 
 29 H        4.7770    -5.0340    -0.4640 H     1 <1>   0.0800 
 30 H        5.4200    -3.7270     0.4980 H     1 <1>   0.0800 
 31 H        3.9660    -0.2580    -1.0660 H     1 <1>   0.0800 
 32 H        3.2790    -1.5340    -2.0240 H     1 <1>   0.0800 
 33 H        4.8010    -3.6830    -2.4660 H     1 <1>   0.0800 
 34 H        6.3890    -3.6920    -1.7600 H     1 <1>   0.0800 
 35 H        6.0590    -1.4750    -0.8170 H     1 <1>   0.0800 
 36 H        5.6690    -1.4050    -2.5160 H     1 <1>   0.0800 
@<TRIPOS>BOND
  1   1   2  1   
  2   2   3  ar  
  3   2   4  ar  
  4   3   5  1   
  5   3   6  ar  
  6   4   7  ar  
  7   4  22  1   
  8   5   8  1   
  9   6   9  ar  
 10   6  23  1   
 11   7   9  ar  
 12   7  10  1   
 13   8  11  1   
 14   8  24  1   
 15   8  25  1   
 16   9  26  1   
 17  10  12  2   
 18  10  13  2   
 19  10  14  am  
 20  11  15  ar  
 21  11  16  ar  
 22  14  17  1   
 23  14  18  1   
 24  17  19  1   
 25  17  27  1   
 26  17  28  1   
 27  18  20  1   
 28  18  29  1   
 29  18  30  1   
 30  19  21  1   
 31  19  31  1   
 32  19  32  1   
 33  20  21  1   
 34  20  33  1   
 35  20  34  1   
 36  21  35  1   
 37  21  36  1   
@<TRIPOS>SUBSTRUCTURE
  1 ****   9 GROUP 4 **** **** 0

# MOE 2024.06 (io_trps.svl 2023.06)
