@<TRIPOS>MOLECULE
NONAME
31 33 1 0 0 
SMALL
USER_CHARGES


@<TRIPOS>ATOM
  1 O       -0.9180    -0.4070    -1.1570 O.2   1 <1>  -0.5700 
  2 C       -1.8640    -0.9570    -0.6770 C.2   1 <1>   0.4480 
  3 C       -2.6780    -0.3820     0.4740 C.3   1 <1>  -0.0190 
  4 C       -2.3870    -2.3040    -1.1590 C.3   1 <1>  -0.0190 
  5 C       -4.1360    -0.2060     0.0000 C.3   1 <1>  -0.1600 
  6 C       -2.6410    -1.3870     1.6450 C.3   1 <1>  -0.1600 
  7 C       -3.8500    -2.1210    -1.6110 C.3   1 <1>  -0.1600 
  8 C       -2.3410    -3.2950     0.0220 C.3   1 <1>  -0.1600 
  9 C       -4.7020    -1.5740    -0.4460 C.3   1 <1>   0.2800 
 10 C       -3.1910    -2.7580     1.1920 C.3   1 <1>  -0.0800 
 11 O       -6.0150    -1.4440    -0.9500 O.3   1 <1>  -0.4300 
 12 C       -4.6480    -2.5840     0.7200 C.3   1 <1>  -0.1600 
 13 C       -7.0840    -1.0110    -0.2940 C.2   1 <1>   0.6590 
 14 O       -7.0680    -0.6620     0.8560 O.2   1 <1>  -0.5700 
 15 C       -8.3580    -0.9830    -1.0970 C.3   1 <1>  -0.1790 
 16 H       -2.2640     0.5640     0.7750 H     1 <1>   0.0800 
 17 H       -1.7800    -2.6580    -1.9730 H     1 <1>   0.0800 
 18 H       -4.1660     0.4880    -0.8220 H     1 <1>   0.0800 
 19 H       -4.7140     0.2000     0.8100 H     1 <1>   0.0800 
 20 H       -1.6270    -1.4980     1.9900 H     1 <1>   0.0800 
 21 H       -3.2250    -1.0110     2.4680 H     1 <1>   0.0800 
 22 H       -4.2450    -3.0650    -1.9410 H     1 <1>   0.0800 
 23 H       -3.8820    -1.4320    -2.4370 H     1 <1>   0.0800 
 24 H       -1.3210    -3.4260     0.3430 H     1 <1>   0.0800 
 25 H       -2.7110    -4.2560    -0.2910 H     1 <1>   0.0800 
 26 H       -3.1570    -3.4520     2.0150 H     1 <1>   0.0800 
 27 H       -5.0440    -3.5320     0.4030 H     1 <1>   0.0800 
 28 H       -5.2370    -2.2340     1.5490 H     1 <1>   0.0800 
 29 H       -8.5900    -1.9740    -1.4370 H     1 <1>   0.0800 
 30 H       -8.2330    -0.3340    -1.9430 H     1 <1>   0.0800 
 31 H       -9.1640    -0.6190    -0.4870 H     1 <1>   0.0800 
@<TRIPOS>BOND
  1   1   2  2   
  2   2   3  1   
  3   2   4  1   
  4   3   5  1   
  5   3   6  1   
  6   3  16  1   
  7   4   7  1   
  8   4   8  1   
  9   4  17  1   
 10   5   9  1   
 11   5  18  1   
 12   5  19  1   
 13   6  10  1   
 14   6  20  1   
 15   6  21  1   
 16   7   9  1   
 17   7  22  1   
 18   7  23  1   
 19   8  10  1   
 20   8  24  1   
 21   8  25  1   
 22   9  11  1   
 23   9  12  1   
 24  10  12  1   
 25  10  26  1   
 26  11  13  1   
 27  12  27  1   
 28  12  28  1   
 29  13  14  2   
 30  13  15  1   
 31  15  29  1   
 32  15  30  1   
 33  15  31  1   
@<TRIPOS>SUBSTRUCTURE
  1 ****   9 GROUP 4 **** **** 0

# MOE 2024.06 (io_trps.svl 2023.06)
