@<TRIPOS>MOLECULE
NONAME
45 47 1 0 0 
SMALL
USER_CHARGES


@<TRIPOS>ATOM
  1 O       -1.0000     0.0140    -0.3140 O.2   1 <1>  -0.5700 
  2 C       -2.0900     0.5760    -0.2840 C.2   1 <1>   0.6900 
  3 N       -2.2920     1.9310    -0.2030 N.am  1 <1>  -0.2860 
  4 N       -3.2900    -0.0770    -0.3350 N.am  1 <1>  -0.4690 
  5 C       -1.3030     2.9240    -0.0860 C.ar  1 <1>   0.1170 
  6 C       -3.6830     2.1070    -0.2220 C.2   1 <1>  -0.0290 
  7 C       -4.2760     0.8940    -0.2820 C.2   1 <1>   0.2180 
  8 C       -3.4690    -1.5450    -0.2560 C.3   1 <1>   0.0600 
  9 C       -1.2540     3.7490     1.0320 C.ar  1 <1>  -0.1500 
 10 C       -0.3570     3.0990    -1.0880 C.ar  1 <1>  -0.1500 
 11 C       -4.2960     3.4980    -0.2120 C.3   1 <1>  -0.1020 
 12 N       -5.6210     0.5070    -0.3180 N.am  1 <1>  -0.5390 
 13 C       -0.2910     4.7360     1.1400 C.ar  1 <1>  -0.1500 
 14 C        0.6090     4.0850    -0.9840 C.ar  1 <1>  -0.1500 
 15 C       -6.6570     1.0110     0.3980 C.2   1 <1>   0.6900 
 16 C        0.6410     4.9060     0.1300 C.ar  1 <1>  -0.1500 
 17 O       -6.4890     1.8550     1.2560 O.2   1 <1>  -0.5700 
 18 N       -7.8930     0.5280     0.1340 N.am  1 <1>  -0.7300 
 19 C       -9.1270     0.9610     0.8100 C.3   1 <1>   0.2200 
 20 C       -9.9640    -0.2700     1.1330 C.3   1 <1>  -0.1600 
 21 C       -9.9920     1.7190    -0.1890 C.3   1 <1>  -0.1600 
 22 C      -10.6980    -0.6290    -0.1640 C.3   1 <1>  -0.1600 
 23 C      -10.7150     0.6480    -1.0140 C.3   1 <1>  -0.1600 
 24 H       -2.5130    -2.0250    -0.1320 H     1 <1>   0.0800 
 25 H       -3.9240    -1.9040    -1.1610 H     1 <1>   0.0800 
 26 H       -4.0920    -1.7880     0.5870 H     1 <1>   0.0800 
 27 H       -1.9730     3.6090     1.8190 H     1 <1>   0.1500 
 28 H       -0.3790     2.4550    -1.9490 H     1 <1>   0.1500 
 29 H       -3.8050     4.1240    -0.9350 H     1 <1>   0.0800 
 30 H       -4.1960     3.9370     0.7630 H     1 <1>   0.0800 
 31 H       -5.3410     3.4520    -0.4590 H     1 <1>   0.0800 
 32 H       -5.8060    -0.3740    -0.7790 H     1 <1>   0.3700 
 33 H       -0.2640     5.3690     2.0100 H     1 <1>   0.1500 
 34 H        1.3360     4.2100    -1.7670 H     1 <1>   0.1500 
 35 H        1.3910     5.6730     0.2130 H     1 <1>   0.1500 
 36 H       -8.0550    -0.0230    -0.7030 H     1 <1>   0.3700 
 37 H       -8.9030     1.5460     1.6880 H     1 <1>   0.0800 
 38 H      -10.6900     0.0020     1.8800 H     1 <1>   0.0800 
 39 H       -9.3670    -1.0800     1.5150 H     1 <1>   0.0800 
 40 H       -9.4150     2.3970    -0.7950 H     1 <1>   0.0800 
 41 H      -10.7220     2.2890     0.3590 H     1 <1>   0.0800 
 42 H      -11.6960    -0.9750     0.0450 H     1 <1>   0.0800 
 43 H      -10.1660    -1.4060    -0.6850 H     1 <1>   0.0800 
 44 H      -10.1890     0.4780    -1.9380 H     1 <1>   0.0800 
 45 H      -11.7210     0.9560    -1.2410 H     1 <1>   0.0800 
@<TRIPOS>BOND
  1   1   2  2   
  2   2   3  am  
  3   2   4  am  
  4   3   5  1   
  5   3   6  1   
  6   4   7  1   
  7   4   8  1   
  8   5   9  ar  
  9   5  10  ar  
 10   6   7  2   
 11   6  11  1   
 12   7  12  1   
 13   8  24  1   
 14   8  25  1   
 15   8  26  1   
 16   9  13  ar  
 17   9  27  1   
 18  10  14  ar  
 19  10  28  1   
 20  11  29  1   
 21  11  30  1   
 22  11  31  1   
 23  12  15  am  
 24  12  32  1   
 25  13  16  ar  
 26  13  33  1   
 27  14  16  ar  
 28  14  34  1   
 29  15  17  2   
 30  15  18  am  
 31  16  35  1   
 32  18  19  1   
 33  18  36  1   
 34  19  20  1   
 35  19  21  1   
 36  19  37  1   
 37  20  22  1   
 38  20  38  1   
 39  20  39  1   
 40  21  23  1   
 41  21  40  1   
 42  21  41  1   
 43  22  23  1   
 44  22  42  1   
 45  22  43  1   
 46  23  44  1   
 47  23  45  1   
@<TRIPOS>SUBSTRUCTURE
  1 ****   7 GROUP 4 **** **** 0

# MOE 2024.06 (io_trps.svl 2023.06)
