@<TRIPOS>MOLECULE
NONAME
31 31 1 0 0 
SMALL
USER_CHARGES


@<TRIPOS>ATOM
  1 CL      -0.9160     0.4260     2.4210 Cl    1 <1>  -0.1770 
  2 C       -1.7080     1.1870     1.0580 C.ar  1 <1>   0.1770 
  3 C       -1.0400     2.1390     0.2980 C.ar  1 <1>   0.0830 
  4 C       -3.0070     0.8150     0.7700 C.ar  1 <1>  -0.1500 
  5 O        0.2350     2.4610     0.6370 O.3   1 <1>  -0.3630 
  6 C       -1.7140     2.7150    -0.7750 C.ar  1 <1>  -0.1500 
  7 C       -3.6890     1.3890    -0.2960 C.ar  1 <1>  -0.0090 
  8 C        0.9910     3.3960    -0.1020 C.3   1 <1>   0.0400 
  9 C       -3.0170     2.3390    -1.0600 C.ar  1 <1>  -0.1500 
 10 S       -5.3950     0.9050    -0.6740 S.o2  1 <1>   1.4470 
 11 O       -6.0060     1.8660    -1.5690 O.2   1 <1>  -0.6500 
 12 O       -5.4260    -0.4960    -1.0250 O.2   1 <1>  -0.6500 
 13 N       -6.1830     1.0580     0.8220 N.am  1 <1>  -0.8490 
 14 C       -7.4110     0.2200     0.9440 C.3   1 <1>   0.2570 
 15 C       -6.4140     2.4410     1.2570 C.3   1 <1>   0.1160 
 16 C       -8.7010     0.7020     0.2470 C.2   1 <1>   0.5690 
 17 O       -9.7530     0.5370     0.8110 O.2   1 <1>  -0.5700 
 18 N       -8.6940     1.3030    -0.9610 N.am  1 <1>  -0.8000 
 19 H       -3.4900     0.0720     1.3810 H     1 <1>   0.1500 
 20 H       -1.2420     3.4530    -1.3980 H     1 <1>   0.1500 
 21 H        1.9620     3.4700     0.3520 H     1 <1>   0.0800 
 22 H        0.4980     4.3510    -0.0670 H     1 <1>   0.0800 
 23 H        1.0870     3.0460    -1.1140 H     1 <1>   0.0800 
 24 H       -3.5240     2.7950    -1.8960 H     1 <1>   0.1500 
 25 H       -7.6420     0.1330     1.9900 H     1 <1>   0.0800 
 26 H       -7.2050    -0.7780     0.6020 H     1 <1>   0.0800 
 27 H       -5.4810     2.9760     1.2970 H     1 <1>   0.0800 
 28 H       -6.8520     2.4500     2.2410 H     1 <1>   0.0800 
 29 H       -7.0750     2.9530     0.5770 H     1 <1>   0.0800 
 30 H       -9.5720     1.5920    -1.3920 H     1 <1>   0.3700 
 31 H       -7.8340     1.5440    -1.4730 H     1 <1>   0.3700 
@<TRIPOS>BOND
  1   1   2  1   
  2   2   3  ar  
  3   2   4  ar  
  4   3   5  1   
  5   3   6  ar  
  6   4   7  ar  
  7   4  19  1   
  8   5   8  1   
  9   6   9  ar  
 10   6  20  1   
 11   7   9  ar  
 12   7  10  1   
 13   8  21  1   
 14   8  22  1   
 15   8  23  1   
 16   9  24  1   
 17  10  11  2   
 18  10  12  2   
 19  10  13  am  
 20  13  14  1   
 21  13  15  1   
 22  14  16  1   
 23  14  25  1   
 24  14  26  1   
 25  15  27  1   
 26  15  28  1   
 27  15  29  1   
 28  16  17  2   
 29  16  18  am  
 30  18  30  1   
 31  18  31  1   
@<TRIPOS>SUBSTRUCTURE
  1 ****   7 GROUP 4 **** **** 0

# MOE 2024.06 (io_trps.svl 2023.06)
