@<TRIPOS>MOLECULE
NONAME
36 38 1 0 0 
SMALL
USER_CHARGES


@<TRIPOS>ATOM
  1 O       -0.0250    -0.4010     0.8900 O.2   1 <1>  -0.5700 
  2 C       -0.1040    -1.5630     0.5250 C.2   1 <1>   0.5410 
  3 C       -1.3560    -2.2590     0.3930 C.2   1 <1>   0.0290 
  4 C        1.0950    -2.3100     0.2500 C.2   1 <1>  -0.1240 
  5 C       -1.3160    -3.5920     0.0880 C.2   1 <1>  -0.0620 
  6 C       -2.6180    -1.5920     0.5810 C.2   1 <1>   0.4950 
  7 C        1.0110    -3.6340    -0.0450 C.2   1 <1>  -0.0620 
  8 C        2.4100    -1.5280     0.3210 C.3   1 <1>  -0.1020 
  9 O       -0.1780    -4.2330    -0.1040 O.3   1 <1>  -0.1530 
 10 C       -2.5470    -4.4750    -0.0550 C.3   1 <1>  -0.0220 
 11 O       -2.8090    -0.4040     0.5650 O.2   1 <1>  -0.5700 
 12 C       -3.8450    -2.4650     0.7770 C.3   1 <1>  -0.0990 
 13 C        2.1380    -4.6140    -0.3370 C.3   1 <1>  -0.1020 
 14 C       -3.8290    -3.6420    -0.2070 C.3   1 <1>   0.0640 
 15 C       -5.0750    -4.5130    -0.0660 C.ar  1 <1>  -0.1440 
 16 C       -5.9180    -4.6900    -1.1530 C.ar  1 <1>  -0.1500 
 17 C       -5.3860    -5.1390     1.1340 C.ar  1 <1>  -0.1500 
 18 C       -7.0510    -5.4770    -1.0460 C.ar  1 <1>  -0.1500 
 19 C       -6.5190    -5.9270     1.2440 C.ar  1 <1>  -0.1500 
 20 C       -7.3530    -6.0970     0.1530 C.ar  1 <1>  -0.1500 
 21 H        2.3330    -0.6360    -0.2760 H     1 <1>   0.0800 
 22 H        3.2530    -2.0830    -0.0380 H     1 <1>   0.0800 
 23 H        2.6010    -1.2340     1.3380 H     1 <1>   0.0800 
 24 H       -2.6120    -5.1090     0.8110 H     1 <1>   0.0800 
 25 H       -2.4420    -5.1100    -0.9170 H     1 <1>   0.0800 
 26 H       -4.7310    -1.8780     0.6160 H     1 <1>   0.0800 
 27 H       -3.8570    -2.8150     1.7920 H     1 <1>   0.0800 
 28 H        2.0390    -5.4730     0.3020 H     1 <1>   0.0800 
 29 H        3.1110    -4.1960    -0.1730 H     1 <1>   0.0800 
 30 H        2.0740    -4.9420    -1.3590 H     1 <1>   0.0800 
 31 H       -3.8200    -3.2200    -1.1990 H     1 <1>   0.0800 
 32 H       -5.7030    -4.2160    -2.0950 H     1 <1>   0.1500 
 33 H       -4.7530    -5.0220     1.9950 H     1 <1>   0.1500 
 34 H       -7.6990    -5.6080    -1.8950 H     1 <1>   0.1500 
 35 H       -6.7530    -6.4090     2.1770 H     1 <1>   0.1500 
 36 H       -8.2340    -6.7090     0.2380 H     1 <1>   0.1500 
@<TRIPOS>BOND
  1   1   2  2   
  2   2   3  1   
  3   2   4  1   
  4   3   5  2   
  5   3   6  1   
  6   4   7  2   
  7   4   8  1   
  8   5   9  1   
  9   5  10  1   
 10   6  11  2   
 11   6  12  1   
 12   7   9  1   
 13   7  13  1   
 14   8  21  1   
 15   8  22  1   
 16   8  23  1   
 17  10  14  1   
 18  10  24  1   
 19  10  25  1   
 20  12  14  1   
 21  12  26  1   
 22  12  27  1   
 23  13  28  1   
 24  13  29  1   
 25  13  30  1   
 26  14  15  1   
 27  14  31  1   
 28  15  16  ar  
 29  15  17  ar  
 30  16  18  ar  
 31  16  32  1   
 32  17  19  ar  
 33  17  33  1   
 34  18  20  ar  
 35  18  34  1   
 36  19  20  ar  
 37  19  35  1   
 38  20  36  1   
@<TRIPOS>SUBSTRUCTURE
  1 ****  10 GROUP 4 **** **** 0

# MOE 2024.06 (io_trps.svl 2023.06)
