@<TRIPOS>MOLECULE
NONAME
48 51 1 0 0 
SMALL
USER_CHARGES


@<TRIPOS>ATOM
  1 F        1.1980    -0.5790    -1.9200 F     1 <1>  -0.1900 
  2 C        1.9670    -0.9220    -0.9210 C.ar  1 <1>   0.1900 
  3 C        1.4280    -1.6450     0.1320 C.ar  1 <1>  -0.1440 
  4 C        3.2930    -0.5450    -0.9650 C.ar  1 <1>  -0.1500 
  5 C        2.2750    -1.9870     1.1740 C.ar  1 <1>  -0.1500 
  6 C       -0.0400    -2.0450     0.1530 C.3   1 <1>  -0.0960 
  7 C        4.1550    -0.8960     0.0730 C.ar  1 <1>   0.0860 
  8 C        3.6100    -1.6150     1.1410 C.ar  1 <1>  -0.1500 
  9 C        5.5610    -0.5250     0.0350 C.2   1 <1>   0.5440 
 10 O        5.9520     0.3930    -0.6600 O.2   1 <1>  -0.5700 
 11 N        6.5190    -1.2350     0.7210 N.am  1 <1>  -0.6600 
 12 C        6.7690    -2.6500     0.3320 C.3   1 <1>   0.1400 
 13 C        7.7530    -0.5210     1.1650 C.3   1 <1>   0.1400 
 14 C        7.8360    -2.7060    -0.7830 C.3   1 <1>   0.3430 
 15 C        8.8100    -0.5570     0.0460 C.3   1 <1>   0.3430 
 16 N        9.0980    -1.9670    -0.4150 N.4   1 <1>  -0.9590 
 17 C       10.0730    -1.9660    -1.5380 C.3   1 <1>   0.4860 
 18 C       11.3990    -1.4470    -1.0180 C.ar  1 <1>  -0.1430 
 19 C       12.1860    -2.2550    -0.2020 C.ar  1 <1>  -0.1500 
 20 C       11.8280    -0.1600    -1.3500 C.ar  1 <1>  -0.1500 
 21 C       13.3770    -1.7400     0.2690 C.ar  1 <1>   0.0830 
 22 C       13.0330     0.3360    -0.8670 C.ar  1 <1>  -0.1500 
 23 O       14.2740    -2.3320     1.0620 O.3   1 <1>  -0.3630 
 24 C       13.7900    -0.4820    -0.0530 C.ar  1 <1>   0.0830 
 25 C       15.3390    -1.3960     1.2440 C.3   1 <1>   0.4000 
 26 O       14.9670    -0.2230     0.5220 O.3   1 <1>  -0.3620 
 27 H        3.6540     0.0210    -1.8050 H     1 <1>   0.1500 
 28 H        1.8970    -2.5410     2.0160 H     1 <1>   0.1500 
 29 H       -0.6590    -1.1660     0.1230 H     1 <1>   0.0800 
 30 H       -0.2780    -2.6000     1.0420 H     1 <1>   0.0800 
 31 H       -0.2660    -2.6550    -0.7030 H     1 <1>   0.0800 
 32 H        4.2410    -1.8850     1.9700 H     1 <1>   0.1500 
 33 H        5.8580    -3.1000    -0.0250 H     1 <1>   0.0800 
 34 H        7.0970    -3.2090     1.1920 H     1 <1>   0.0800 
 35 H        8.1380    -0.9780     2.0600 H     1 <1>   0.0800 
 36 H        7.5140     0.5040     1.3950 H     1 <1>   0.0800 
 37 H        7.4110    -2.2660    -1.6710 H     1 <1>   0.0800 
 38 H        8.0640    -3.7370    -1.0020 H     1 <1>   0.0800 
 39 H        9.7150    -0.0910     0.4010 H     1 <1>   0.0800 
 40 H        8.4380     0.0280    -0.7800 H     1 <1>   0.0800 
 41 H        9.5530    -2.4500     0.3690 H     1 <1>   0.4500 
 42 H        9.7180    -1.3410    -2.3420 H     1 <1>   0.0800 
 43 H       10.2090    -2.9660    -1.9160 H     1 <1>   0.0800 
 44 H       11.9110    -3.2580     0.0720 H     1 <1>   0.1500 
 45 H       11.2350     0.4720    -1.9910 H     1 <1>   0.1500 
 46 H       13.3820     1.3240    -1.1130 H     1 <1>   0.1500 
 47 H       16.2480    -1.7990     0.8340 H     1 <1>   0.0800 
 48 H       15.4420    -1.1620     2.2890 H     1 <1>   0.0800 
@<TRIPOS>BOND
  1   1   2  1   
  2   2   3  ar  
  3   2   4  ar  
  4   3   5  ar  
  5   3   6  1   
  6   4   7  ar  
  7   4  27  1   
  8   5   8  ar  
  9   5  28  1   
 10   6  29  1   
 11   6  30  1   
 12   6  31  1   
 13   7   8  ar  
 14   7   9  1   
 15   8  32  1   
 16   9  10  2   
 17   9  11  am  
 18  11  12  1   
 19  11  13  1   
 20  12  14  1   
 21  12  33  1   
 22  12  34  1   
 23  13  15  1   
 24  13  35  1   
 25  13  36  1   
 26  14  16  1   
 27  14  37  1   
 28  14  38  1   
 29  15  16  1   
 30  15  39  1   
 31  15  40  1   
 32  16  17  1   
 33  16  41  1   
 34  17  18  1   
 35  17  42  1   
 36  17  43  1   
 37  18  19  ar  
 38  18  20  ar  
 39  19  21  ar  
 40  19  44  1   
 41  20  22  ar  
 42  20  45  1   
 43  21  23  1   
 44  21  24  ar  
 45  22  24  ar  
 46  22  46  1   
 47  23  25  1   
 48  24  26  1   
 49  25  26  1   
 50  25  47  1   
 51  25  48  1   
@<TRIPOS>SUBSTRUCTURE
  1 ****  15 GROUP 4 **** **** 0

# MOE 2024.06 (io_trps.svl 2023.06)
