@<TRIPOS>MOLECULE
NONAME
37 37 1 0 0 
SMALL
USER_CHARGES


@<TRIPOS>ATOM
  1 O        0.8210    -0.3070    -1.5800 O.2   1 <1>  -0.5700 
  2 C        1.2650    -0.6540    -0.5020 C.2   1 <1>   0.7060 
  3 O        1.7020     0.2810     0.3490 O.3   1 <1>  -0.4300 
  4 C        1.3920    -2.0220    -0.1100 C.2   1 <1>   0.0290 
  5 C        1.6020     1.6530     0.0460 C.3   1 <1>   0.1200 
  6 C        0.1560    -2.7340    -0.0450 C.2   1 <1>   0.4950 
  7 C        2.6100    -2.5970     0.1850 C.2   1 <1>  -0.1500 
  8 C        2.2280     2.4360     1.1960 C.3   1 <1>  -0.2400 
  9 O       -0.9070    -2.2090     0.1740 O.2   1 <1>  -0.5700 
 10 C        0.1290    -4.2390    -0.2310 C.3   1 <1>  -0.1790 
 11 C        3.8910    -2.0080     0.1240 C.2   1 <1>  -0.1500 
 12 C        5.0640    -2.6260     0.4340 C.2   1 <1>  -0.0500 
 13 N        6.3250    -2.0940     0.3880 N.pl3 1 <1>  -0.8380 
 14 C        6.6790    -0.7090    -0.0580 C.3   1 <1>   0.2090 
 15 C        7.5230    -2.8800     0.8150 C.3   1 <1>   0.2090 
 16 C        7.8580    -0.7340    -1.0480 C.3   1 <1>   0.1200 
 17 C        8.6490    -2.7820    -0.2310 C.3   1 <1>   0.1200 
 18 O        8.9470    -1.4440    -0.5250 O.3   1 <1>  -0.5600 
 19 H        2.1230     1.8400    -0.8780 H     1 <1>   0.0800 
 20 H        0.5590     1.9010    -0.0700 H     1 <1>   0.0800 
 21 H        2.6200    -3.6230     0.5080 H     1 <1>   0.1500 
 22 H        3.2630     2.1660     1.3080 H     1 <1>   0.0800 
 23 H        1.7010     2.2320     2.1110 H     1 <1>   0.0800 
 24 H        2.1670     3.4900     0.9930 H     1 <1>   0.0800 
 25 H        0.8720    -4.5470    -0.9430 H     1 <1>   0.0800 
 26 H       -0.8370    -4.5380    -0.5970 H     1 <1>   0.0800 
 27 H        0.3050    -4.7240     0.7110 H     1 <1>   0.0800 
 28 H        3.9240    -0.9830    -0.1930 H     1 <1>   0.1500 
 29 H        5.0140    -3.6520     0.7600 H     1 <1>   0.1500 
 30 H        5.8420    -0.2350    -0.5340 H     1 <1>   0.0800 
 31 H        6.9510    -0.1200     0.8000 H     1 <1>   0.0800 
 32 H        7.8800    -2.4970     1.7550 H     1 <1>   0.0800 
 33 H        7.2560    -3.9130     0.9550 H     1 <1>   0.0800 
 34 H        8.1890     0.2670    -1.2550 H     1 <1>   0.0800 
 35 H        7.5580    -1.1970    -1.9720 H     1 <1>   0.0800 
 36 H        8.3590    -3.2780    -1.1400 H     1 <1>   0.0800 
 37 H        9.5450    -3.2420     0.1450 H     1 <1>   0.0800 
@<TRIPOS>BOND
  1   1   2  2   
  2   2   3  1   
  3   2   4  1   
  4   3   5  1   
  5   4   6  1   
  6   4   7  2   
  7   5   8  1   
  8   5  19  1   
  9   5  20  1   
 10   6   9  2   
 11   6  10  1   
 12   7  11  1   
 13   7  21  1   
 14   8  22  1   
 15   8  23  1   
 16   8  24  1   
 17  10  25  1   
 18  10  26  1   
 19  10  27  1   
 20  11  12  2   
 21  11  28  1   
 22  12  13  1   
 23  12  29  1   
 24  13  14  1   
 25  13  15  1   
 26  14  16  1   
 27  14  30  1   
 28  14  31  1   
 29  15  17  1   
 30  15  32  1   
 31  15  33  1   
 32  16  18  1   
 33  16  34  1   
 34  16  35  1   
 35  17  18  1   
 36  17  36  1   
 37  17  37  1   
@<TRIPOS>SUBSTRUCTURE
  1 ****  11 GROUP 4 **** **** 0

# MOE 2024.06 (io_trps.svl 2023.06)
