@<TRIPOS>MOLECULE
NONAME
40 41 1 0 0 
SMALL
USER_CHARGES


@<TRIPOS>ATOM
  1 O        0.6320    -1.4410     0.6260 O.2   1 <1>  -0.5700 
  2 C        0.1480    -2.3560    -0.0140 C.2   1 <1>   0.5440 
  3 N        0.9890    -3.0170    -0.8800 N.am  1 <1>  -0.6600 
  4 C       -1.2300    -2.7710     0.1860 C.ar  1 <1>   0.0860 
  5 C        2.1230    -2.2630    -1.4890 C.3   1 <1>   0.1400 
  6 C        1.3180    -4.4420    -0.6000 C.3   1 <1>   0.1400 
  7 C       -1.8990    -2.4980     1.3800 C.ar  1 <1>  -0.1500 
  8 C       -1.9420    -3.4600    -0.8000 C.ar  1 <1>  -0.1500 
  9 C        3.3480    -2.3210    -0.5580 C.3   1 <1>   0.3430 
 10 C        2.5590    -4.5240     0.3170 C.3   1 <1>   0.3430 
 11 C       -3.2030    -2.9060     1.5870 C.ar  1 <1>  -0.1500 
 12 C       -3.2480    -3.8710    -0.6010 C.ar  1 <1>  -0.1500 
 13 N        3.7320    -3.7400    -0.2210 N.4   1 <1>  -0.9590 
 14 C       -3.8890    -3.5980     0.6030 C.ar  1 <1>   0.0830 
 15 C        4.8810    -3.7590     0.7100 C.3   1 <1>   0.4810 
 16 O       -5.1590    -3.9650     0.8820 O.3   1 <1>  -0.3630 
 17 C        5.4790    -5.1460     0.6500 C.2   1 <1>  -0.2880 
 18 C       -5.9660    -4.6340    -0.0610 C.3   1 <1>   0.0400 
 19 C        6.6070    -5.4700     0.0090 C.2   1 <1>  -0.3000 
 20 H        1.8340    -1.2350    -1.6350 H     1 <1>   0.0800 
 21 H        2.3620    -2.6780    -2.4530 H     1 <1>   0.0800 
 22 H        1.5050    -4.9590    -1.5250 H     1 <1>   0.0800 
 23 H        0.4860    -4.9250    -0.1150 H     1 <1>   0.0800 
 24 H       -1.3880    -1.9540     2.1560 H     1 <1>   0.1500 
 25 H       -1.4680    -3.6700    -1.7420 H     1 <1>   0.1500 
 26 H        3.1010    -1.7860     0.3460 H     1 <1>   0.0800 
 27 H        4.1740    -1.8150    -1.0290 H     1 <1>   0.0800 
 28 H        2.8340    -5.5580     0.4430 H     1 <1>   0.0800 
 29 H        2.2830    -4.1360     1.2840 H     1 <1>   0.0800 
 30 H       -3.7030    -2.6880     2.5140 H     1 <1>   0.1500 
 31 H       -3.7530    -4.3980    -1.3890 H     1 <1>   0.1500 
 32 H        4.0590    -4.2040    -1.0780 H     1 <1>   0.4500 
 33 H        4.5750    -3.5120     1.7150 H     1 <1>   0.0800 
 34 H        5.6210    -3.0440     0.3890 H     1 <1>   0.0800 
 35 H        4.9050    -5.8770     1.1930 H     1 <1>   0.1500 
 36 H       -6.9300    -4.8030     0.3850 H     1 <1>   0.0800 
 37 H       -5.5080    -5.5750    -0.3080 H     1 <1>   0.0800 
 38 H       -6.0720    -4.0130    -0.9330 H     1 <1>   0.0800 
 39 H        7.0170    -6.4680    -0.0130 H     1 <1>   0.1500 
 40 H        7.2280    -4.7840    -0.5430 H     1 <1>   0.1500 
@<TRIPOS>BOND
  1   1   2  2   
  2   2   3  am  
  3   2   4  1   
  4   3   5  1   
  5   3   6  1   
  6   4   7  ar  
  7   4   8  ar  
  8   5   9  1   
  9   5  20  1   
 10   5  21  1   
 11   6  10  1   
 12   6  22  1   
 13   6  23  1   
 14   7  11  ar  
 15   7  24  1   
 16   8  12  ar  
 17   8  25  1   
 18   9  13  1   
 19   9  26  1   
 20   9  27  1   
 21  10  13  1   
 22  10  28  1   
 23  10  29  1   
 24  11  14  ar  
 25  11  30  1   
 26  12  14  ar  
 27  12  31  1   
 28  13  15  1   
 29  13  32  1   
 30  14  16  1   
 31  15  17  1   
 32  15  33  1   
 33  15  34  1   
 34  16  18  1   
 35  17  19  2   
 36  17  35  1   
 37  18  36  1   
 38  18  37  1   
 39  18  38  1   
 40  19  39  1   
 41  19  40  1   
@<TRIPOS>SUBSTRUCTURE
  1 ****   2 GROUP 4 **** **** 0

# MOE 2024.06 (io_trps.svl 2023.06)
