@<TRIPOS>MOLECULE
NONAME
40 40 1 0 0 
SMALL
USER_CHARGES


@<TRIPOS>ATOM
  1 O        0.3420    -0.3460     0.1610 O.3   1 <1>  -0.5600 
  2 C        1.5940    -0.9310    -0.0070 C.3   1 <1>   0.2000 
  3 C       -0.6660    -1.1960     0.6130 C.3   1 <1>   0.1200 
  4 C        2.6340     0.1810     0.1890 C.3   1 <1>   0.0400 
  5 C        1.6490    -1.5520    -1.4090 C.3   1 <1>  -0.2400 
  6 C       -1.9540    -0.3850     0.7140 C.3   1 <1>   0.0400 
  7 C        4.0360    -0.3410     0.1750 C.1   1 <1>  -0.2000 
  8 C       -3.0610    -1.2500     1.1980 C.1   1 <1>   0.3570 
  9 C        5.1500    -0.7530     0.1650 C.1   1 <1>  -0.2000 
 10 N       -3.8960    -1.9270     1.5690 N.1   1 <1>  -0.5570 
 11 C        6.5580    -1.2320     0.1520 C.3   1 <1>   0.5430 
 12 N        7.4330    -0.0490     0.3320 N.4   1 <1>  -0.9590 
 13 C        7.4120     0.8390    -0.8690 C.3   1 <1>   0.3430 
 14 C        8.8160    -0.4420     0.7200 C.3   1 <1>   0.3430 
 15 C        8.2080     2.1130    -0.5800 C.3   1 <1>  -0.1600 
 16 C        9.6360     0.8100     1.0380 C.3   1 <1>  -0.1600 
 17 C        9.6420     1.8000    -0.1340 C.3   1 <1>  -0.1600 
 18 H        1.7360    -1.6840     0.7500 H     1 <1>   0.0800 
 19 H       -0.3860    -1.5830     1.5790 H     1 <1>   0.0800 
 20 H       -0.7870    -2.0060    -0.0850 H     1 <1>   0.0800 
 21 H        2.4570     0.6570     1.1370 H     1 <1>   0.0800 
 22 H        2.5210     0.9170    -0.5860 H     1 <1>   0.0800 
 23 H        1.4630    -0.8020    -2.1560 H     1 <1>   0.0800 
 24 H        0.9230    -2.3380    -1.5080 H     1 <1>   0.0800 
 25 H        2.6180    -1.9790    -1.5890 H     1 <1>   0.0800 
 26 H       -2.2160     0.0050    -0.2520 H     1 <1>   0.0800 
 27 H       -1.8220     0.4270     1.4030 H     1 <1>   0.0800 
 28 H        6.7770    -1.7280    -0.7800 H     1 <1>   0.0800 
 29 H        6.7000    -1.9290     0.9610 H     1 <1>   0.0800 
 30 H        7.0220     0.4890     1.1050 H     1 <1>   0.4500 
 31 H        6.3960     1.1030    -1.1200 H     1 <1>   0.0800 
 32 H        7.8480     0.3270    -1.7120 H     1 <1>   0.0800 
 33 H        9.2850    -0.9800    -0.0890 H     1 <1>   0.0800 
 34 H        8.7920    -1.0830     1.5880 H     1 <1>   0.0800 
 35 H        7.7030     2.6840     0.1790 H     1 <1>   0.0800 
 36 H        8.2360     2.7190    -1.4700 H     1 <1>   0.0800 
 37 H       10.6480     0.5200     1.2630 H     1 <1>   0.0800 
 38 H        9.2370     1.2850     1.9180 H     1 <1>   0.0800 
 39 H       10.1410     2.7100     0.1590 H     1 <1>   0.0800 
 40 H       10.1920     1.3780    -0.9590 H     1 <1>   0.0800 
@<TRIPOS>BOND
  1   1   2  1   
  2   1   3  1   
  3   2   4  1   
  4   2   5  1   
  5   2  18  1   
  6   3   6  1   
  7   3  19  1   
  8   3  20  1   
  9   4   7  1   
 10   4  21  1   
 11   4  22  1   
 12   5  23  1   
 13   5  24  1   
 14   5  25  1   
 15   6   8  1   
 16   6  26  1   
 17   6  27  1   
 18   7   9  3   
 19   8  10  3   
 20   9  11  1   
 21  11  12  1   
 22  11  28  1   
 23  11  29  1   
 24  12  13  1   
 25  12  14  1   
 26  12  30  1   
 27  13  15  1   
 28  13  31  1   
 29  13  32  1   
 30  14  16  1   
 31  14  33  1   
 32  14  34  1   
 33  15  17  1   
 34  15  35  1   
 35  15  36  1   
 36  16  17  1   
 37  16  37  1   
 38  16  38  1   
 39  17  39  1   
 40  17  40  1   
@<TRIPOS>SUBSTRUCTURE
  1 ****   7 GROUP 4 **** **** 0

# MOE 2024.06 (io_trps.svl 2023.06)
