@<TRIPOS>MOLECULE
NONAME
40 42 1 0 0 
SMALL
USER_CHARGES


@<TRIPOS>ATOM
  1 O        0.0190     0.0150    -0.9790 O.2   1 <1>  -0.5700 
  2 C        0.7710     0.4450    -0.1280 C.2   1 <1>   0.6900 
  3 N        0.6000     1.6700     0.4450 N.am  1 <1>  -0.5470 
  4 N        1.8330    -0.2880     0.2850 N.am  1 <1>  -0.7300 
  5 C       -0.4370     2.6070     0.3440 C.ar  1 <1>   0.1170 
  6 C        2.1870    -1.6220    -0.2280 C.3   1 <1>   0.2200 
  7 C       -1.7000     2.3130    -0.1160 C.ar  1 <1>  -0.1500 
  8 C       -0.1720     3.9250     0.7560 C.ar  1 <1>  -0.1500 
  9 C        1.8840    -2.6650     0.8530 C.3   1 <1>  -0.1600 
 10 C        3.6710    -1.6280    -0.6070 C.3   1 <1>  -0.1600 
 11 C       -2.7170     3.2820    -0.1900 C.ar  1 <1>   0.0000 
 12 C       -1.1390     4.8890     0.7000 C.ar  1 <1>  -0.1500 
 13 C        2.3340    -4.0660     0.4130 C.3   1 <1>  -0.1600 
 14 C        4.1240    -3.0280    -1.0500 C.3   1 <1>  -0.1600 
 15 C       -2.4340     4.6000     0.2280 C.ar  1 <1>   0.0000 
 16 C       -4.0110     2.9880    -0.6650 C.ar  1 <1>  -0.1500 
 17 C        3.8200    -4.0770     0.0290 C.3   1 <1>  -0.1600 
 18 C       -3.4540     5.5690     0.1570 C.ar  1 <1>  -0.1500 
 19 C       -4.9830     3.9480    -0.7230 C.ar  1 <1>  -0.1500 
 20 C       -4.7020     5.2540    -0.3070 C.ar  1 <1>  -0.1500 
 21 H        1.4070     1.9810     0.9720 H     1 <1>   0.3700 
 22 H        2.3580     0.0060     1.1030 H     1 <1>   0.3700 
 23 H        1.6010    -1.8440    -1.1060 H     1 <1>   0.0800 
 24 H       -1.9410     1.3160    -0.4320 H     1 <1>   0.1500 
 25 H        0.8100     4.1670     1.1160 H     1 <1>   0.1500 
 26 H        0.8250    -2.6770     1.0440 H     1 <1>   0.0800 
 27 H        2.3940    -2.4030     1.7630 H     1 <1>   0.0800 
 28 H        4.2620    -1.3220     0.2370 H     1 <1>   0.0800 
 29 H        3.8340    -0.9330    -1.4110 H     1 <1>   0.0800 
 30 H       -0.9250     5.8940     1.0160 H     1 <1>   0.1500 
 31 H        1.7450    -4.3790    -0.4330 H     1 <1>   0.0800 
 32 H        2.1620    -4.7680     1.2110 H     1 <1>   0.0800 
 33 H        5.1810    -3.0180    -1.2560 H     1 <1>   0.0800 
 34 H        3.6140    -3.2950    -1.9600 H     1 <1>   0.0800 
 35 H       -4.2190     1.9820    -0.9850 H     1 <1>   0.1500 
 36 H        4.0910    -5.0540    -0.3330 H     1 <1>   0.0800 
 37 H        4.4160    -3.8730     0.9020 H     1 <1>   0.0800 
 38 H       -3.2320     6.5710     0.4780 H     1 <1>   0.1500 
 39 H       -5.9690     3.7150    -1.0870 H     1 <1>   0.1500 
 40 H       -5.4780     5.9980    -0.3590 H     1 <1>   0.1500 
@<TRIPOS>BOND
  1   1   2  2   
  2   2   3  am  
  3   2   4  am  
  4   3   5  1   
  5   3  21  1   
  6   4   6  1   
  7   4  22  1   
  8   5   7  ar  
  9   5   8  ar  
 10   6   9  1   
 11   6  10  1   
 12   6  23  1   
 13   7  11  ar  
 14   7  24  1   
 15   8  12  ar  
 16   8  25  1   
 17   9  13  1   
 18   9  26  1   
 19   9  27  1   
 20  10  14  1   
 21  10  28  1   
 22  10  29  1   
 23  11  15  ar  
 24  11  16  ar  
 25  12  15  ar  
 26  12  30  1   
 27  13  17  1   
 28  13  31  1   
 29  13  32  1   
 30  14  17  1   
 31  14  33  1   
 32  14  34  1   
 33  15  18  ar  
 34  16  19  ar  
 35  16  35  1   
 36  17  36  1   
 37  17  37  1   
 38  18  20  ar  
 39  18  38  1   
 40  19  20  ar  
 41  19  39  1   
 42  20  40  1   
@<TRIPOS>SUBSTRUCTURE
  1 ****   3 GROUP 4 **** **** 0

# MOE 2024.06 (io_trps.svl 2023.06)
