@<TRIPOS>MOLECULE
NONAME
47 49 1 0 0 
SMALL
USER_CHARGES


@<TRIPOS>ATOM
  1 O        1.0550    -0.3120    -0.3330 O.2   1 <1>  -0.5700 
  2 C        0.6730     0.8350    -0.2520 C.2   1 <1>   0.5690 
  3 N       -0.6470     1.1600    -0.3450 N.am  1 <1>  -0.5790 
  4 C        1.6880     1.9740    -0.0300 C.3   1 <1>   0.1710 
  5 C       -1.7440     0.2040    -0.5570 C.3   1 <1>   0.0490 
  6 N        3.0130     1.5720     0.5310 N.3   1 <1>  -0.8100 
  7 C       -2.9130     0.6480    -1.3720 C.3   1 <1>  -0.2000 
  8 C       -3.0500     0.4770     0.1120 C.3   1 <1>  -0.2000 
  9 C        4.0190     2.6590     0.5250 C.3   1 <1>   0.1100 
 10 C        2.9210     0.9390     1.8710 C.3   1 <1>   0.1100 
 11 C        5.3950     2.1730     1.0490 C.3   1 <1>   0.3430 
 12 C        4.2840     0.3570     2.3210 C.3   1 <1>   0.3430 
 13 N        5.3580     0.7000     1.3350 N.4   1 <1>  -0.9590 
 14 C        6.6770     0.0760     1.5960 C.3   1 <1>   0.4860 
 15 C        7.5910     0.3670     0.4200 C.ar  1 <1>  -0.1430 
 16 C        7.3990    -0.2200    -0.8300 C.ar  1 <1>  -0.1430 
 17 C        8.6390     1.2580     0.6070 C.ar  1 <1>  -0.1500 
 18 C        8.2520     0.1130    -1.8720 C.ar  1 <1>  -0.1500 
 19 C        6.2850    -1.2230    -1.1140 C.3   1 <1>  -0.0970 
 20 C        9.4850     1.5790    -0.4380 C.ar  1 <1>  -0.1500 
 21 C        9.2890     1.0080    -1.6800 C.ar  1 <1>  -0.1500 
 22 H       -0.9470     2.1320    -0.2940 H     1 <1>   0.3700 
 23 H        1.2420     2.7070     0.6180 H     1 <1>   0.0800 
 24 H        1.8510     2.4350    -0.9870 H     1 <1>   0.0800 
 25 H       -1.4120    -0.8190    -0.6460 H     1 <1>   0.1000 
 26 H       -3.3970    -0.0700    -2.0110 H     1 <1>   0.1000 
 27 H       -2.9170     1.6400    -1.7870 H     1 <1>   0.1000 
 28 H       -3.1490     1.3500     0.7320 H     1 <1>   0.1000 
 29 H       -3.6270    -0.3560     0.4740 H     1 <1>   0.1000 
 30 H        3.6780     3.4830     1.1290 H     1 <1>   0.0800 
 31 H        4.1440     3.0220    -0.4810 H     1 <1>   0.0800 
 32 H        2.2040     0.1360     1.8550 H     1 <1>   0.0800 
 33 H        2.5810     1.6600     2.5950 H     1 <1>   0.0800 
 34 H        5.6550     2.7170     1.9420 H     1 <1>   0.0800 
 35 H        6.1440     2.3870     0.3030 H     1 <1>   0.0800 
 36 H        4.1900    -0.7140     2.4000 H     1 <1>   0.0800 
 37 H        4.5330     0.7410     3.2960 H     1 <1>   0.0800 
 38 H        5.0030     0.3160     0.4450 H     1 <1>   0.4500 
 39 H        6.5690    -0.9900     1.7090 H     1 <1>   0.0800 
 40 H        7.1040     0.4750     2.5000 H     1 <1>   0.0800 
 41 H        8.8140     1.7140     1.5670 H     1 <1>   0.1500 
 42 H        8.1190    -0.3250    -2.8460 H     1 <1>   0.1500 
 43 H        6.1530    -1.9020    -0.2920 H     1 <1>   0.0800 
 44 H        6.5260    -1.8130    -1.9810 H     1 <1>   0.0800 
 45 H        5.3600    -0.7110    -1.3090 H     1 <1>   0.0800 
 46 H       10.2980     2.2700    -0.2890 H     1 <1>   0.1500 
 47 H        9.9450     1.2550    -2.4970 H     1 <1>   0.1500 
@<TRIPOS>BOND
  1   1   2  2   
  2   2   3  am  
  3   2   4  1   
  4   3   5  1   
  5   3  22  1   
  6   4   6  1   
  7   4  23  1   
  8   4  24  1   
  9   5   7  1   
 10   5   8  1   
 11   5  25  1   
 12   6   9  1   
 13   6  10  1   
 14   7   8  1   
 15   7  26  1   
 16   7  27  1   
 17   8  28  1   
 18   8  29  1   
 19   9  11  1   
 20   9  30  1   
 21   9  31  1   
 22  10  12  1   
 23  10  32  1   
 24  10  33  1   
 25  11  13  1   
 26  11  34  1   
 27  11  35  1   
 28  12  13  1   
 29  12  36  1   
 30  12  37  1   
 31  13  14  1   
 32  13  38  1   
 33  14  15  1   
 34  14  39  1   
 35  14  40  1   
 36  15  16  ar  
 37  15  17  ar  
 38  16  18  ar  
 39  16  19  1   
 40  17  20  ar  
 41  17  41  1   
 42  18  21  ar  
 43  18  42  1   
 44  19  43  1   
 45  19  44  1   
 46  19  45  1   
 47  20  21  ar  
 48  20  46  1   
 49  21  47  1   
@<TRIPOS>SUBSTRUCTURE
  1 ****   6 GROUP 4 **** **** 0

# MOE 2024.06 (io_trps.svl 2023.06)
