@<TRIPOS>MOLECULE
NONAME
30 30 1 0 0 
SMALL
USER_CHARGES


@<TRIPOS>ATOM
  1 F        0.6940     0.4910     1.0460 F     1 <1>  -0.1900 
  2 C        1.6210    -0.4030     0.8260 C.ar  1 <1>   0.1900 
  3 C        2.9020     0.0260     0.5460 C.ar  1 <1>  -0.1500 
  4 C        1.2790    -1.7400     0.8830 C.ar  1 <1>  -0.1500 
  5 C        3.8990    -0.9130     0.3100 C.ar  1 <1>   0.1170 
  6 C        2.2680    -2.6790     0.6460 C.ar  1 <1>  -0.1500 
  7 N        5.1930    -0.4650     0.0120 N.am  1 <1>  -0.5470 
  8 C        3.5610    -2.2660     0.3620 C.ar  1 <1>  -0.1500 
  9 C        6.4050    -1.0680     0.1800 C.2   1 <1>   0.6900 
 10 O        6.5150    -2.1170     0.7820 O.2   1 <1>  -0.5700 
 11 N        7.4820    -0.4310    -0.3470 N.am  1 <1>  -0.7300 
 12 C        8.8960    -0.8180    -0.2920 C.3   1 <1>   0.3000 
 13 C        9.6710     0.2760    -1.0230 C.3   1 <1>  -0.2400 
 14 C        9.0970    -2.1530    -1.0110 C.3   1 <1>  -0.2400 
 15 C        9.3640    -0.8880     1.1620 C.3   1 <1>  -0.2400 
 16 H        3.1150     1.0780     0.5170 H     1 <1>   0.1500 
 17 H        0.2690    -2.0340     1.1060 H     1 <1>   0.1500 
 18 H        2.0370    -3.7300     0.6830 H     1 <1>   0.1500 
 19 H        5.2620     0.5070    -0.2640 H     1 <1>   0.3700 
 20 H        4.3160    -3.0090     0.1760 H     1 <1>   0.1500 
 21 H        7.3110     0.3340    -0.9910 H     1 <1>   0.3700 
 22 H        9.3560     0.3460    -2.0490 H     1 <1>   0.0800 
 23 H       10.7230     0.0510    -1.0130 H     1 <1>   0.0800 
 24 H        9.5290     1.2270    -0.5410 H     1 <1>   0.0800 
 25 H        8.7250    -2.1000    -2.0180 H     1 <1>   0.0800 
 26 H        8.5880    -2.9440    -0.4920 H     1 <1>   0.0800 
 27 H       10.1420    -2.4010    -1.0450 H     1 <1>   0.0800 
 28 H        9.1690     0.0410     1.6660 H     1 <1>   0.0800 
 29 H       10.4200    -1.0840     1.2020 H     1 <1>   0.0800 
 30 H        8.8630    -1.6810     1.6860 H     1 <1>   0.0800 
@<TRIPOS>BOND
  1   1   2  1   
  2   2   3  ar  
  3   2   4  ar  
  4   3   5  ar  
  5   3  16  1   
  6   4   6  ar  
  7   4  17  1   
  8   5   7  1   
  9   5   8  ar  
 10   6   8  ar  
 11   6  18  1   
 12   7   9  am  
 13   7  19  1   
 14   8  20  1   
 15   9  10  2   
 16   9  11  am  
 17  11  12  1   
 18  11  21  1   
 19  12  13  1   
 20  12  14  1   
 21  12  15  1   
 22  13  22  1   
 23  13  23  1   
 24  13  24  1   
 25  14  25  1   
 26  14  26  1   
 27  14  27  1   
 28  15  28  1   
 29  15  29  1   
 30  15  30  1   
@<TRIPOS>SUBSTRUCTURE
  1 ****   7 GROUP 4 **** **** 0

# MOE 2024.06 (io_trps.svl 2023.06)
