@<TRIPOS>MOLECULE
NONAME
41 42 1 0 0 
SMALL
USER_CHARGES


@<TRIPOS>ATOM
  1 S       -0.0670    -0.0340    -0.1110 S.o2  1 <1>   1.3330 
  2 O       -0.1160    -0.4240    -1.5030 O.2   1 <1>  -0.6500 
  3 O       -0.0510    -1.0470     0.9200 O.2   1 <1>  -0.6500 
  4 N       -1.3820     0.9910     0.1860 N.am  1 <1>  -0.8490 
  5 C        1.3370     1.0540     0.1530 C.3   1 <1>  -0.0550 
  6 C       -2.5510     0.2500     0.7040 C.3   1 <1>   0.1960 
  7 C       -1.7860     1.7660    -1.0070 C.3   1 <1>   0.1960 
  8 C        2.6980     0.3670    -0.0490 C.3   1 <1>  -0.1600 
  9 C       -3.7390     1.1770     1.0300 C.3   1 <1>   0.2090 
 10 C       -2.9440     2.7380    -0.7080 C.3   1 <1>   0.2090 
 11 C        3.8550     1.3440     0.1890 C.3   1 <1>  -0.1600 
 12 N       -4.1230     2.0120    -0.1490 N.pl3 1 <1>  -0.8380 
 13 C        5.2050     0.6520    -0.0140 C.3   1 <1>  -0.2400 
 14 C       -5.2980     2.7630    -0.0120 C.ar  1 <1>   0.1000 
 15 C       -5.4660     3.8430     0.8640 C.ar  1 <1>   0.1900 
 16 C       -6.3900     2.4210    -0.8000 C.ar  1 <1>  -0.1500 
 17 F       -4.4730     4.2180     1.6360 F     1 <1>  -0.1900 
 18 C       -6.6470     4.5520     0.9600 C.ar  1 <1>  -0.1500 
 19 C       -7.5840     3.1200    -0.7180 C.ar  1 <1>  -0.1500 
 20 C       -7.7170     4.1850     0.1600 C.ar  1 <1>  -0.1500 
 21 H        1.2890     1.4390     1.1540 H     1 <1>   0.0800 
 22 H        1.2670     1.8840    -0.5210 H     1 <1>   0.0800 
 23 H       -2.2790    -0.2710     1.6050 H     1 <1>   0.0800 
 24 H       -2.8670    -0.4830    -0.0200 H     1 <1>   0.0800 
 25 H       -2.1020     1.0960    -1.7900 H     1 <1>   0.0800 
 26 H       -0.9470     2.3300    -1.3740 H     1 <1>   0.0800 
 27 H        2.7510    -0.0230    -1.0520 H     1 <1>   0.0800 
 28 H        2.7780    -0.4630     0.6340 H     1 <1>   0.0800 
 29 H       -3.4690     1.8150     1.8530 H     1 <1>   0.0800 
 30 H       -4.5830     0.5820     1.3310 H     1 <1>   0.0800 
 31 H       -3.2350     3.2370    -1.6150 H     1 <1>   0.0800 
 32 H       -2.6080     3.4820    -0.0070 H     1 <1>   0.0800 
 33 H        3.8050     1.7310     1.1930 H     1 <1>   0.0800 
 34 H        3.7780     2.1740    -0.4940 H     1 <1>   0.0800 
 35 H        5.3160    -0.1680     0.6740 H     1 <1>   0.0800 
 36 H        6.0060     1.3500     0.1560 H     1 <1>   0.0800 
 37 H        5.2890     0.2760    -1.0190 H     1 <1>   0.0800 
 38 H       -6.2910     1.5960    -1.4810 H     1 <1>   0.1500 
 39 H       -6.7290     5.3750     1.6480 H     1 <1>   0.1500 
 40 H       -8.4140     2.8330    -1.3410 H     1 <1>   0.1500 
 41 H       -8.6470     4.7240     0.2190 H     1 <1>   0.1500 
@<TRIPOS>BOND
  1   1   2  2   
  2   1   3  2   
  3   1   4  am  
  4   1   5  1   
  5   4   6  1   
  6   4   7  1   
  7   5   8  1   
  8   5  21  1   
  9   5  22  1   
 10   6   9  1   
 11   6  23  1   
 12   6  24  1   
 13   7  10  1   
 14   7  25  1   
 15   7  26  1   
 16   8  11  1   
 17   8  27  1   
 18   8  28  1   
 19   9  12  1   
 20   9  29  1   
 21   9  30  1   
 22  10  12  1   
 23  10  31  1   
 24  10  32  1   
 25  11  13  1   
 26  11  33  1   
 27  11  34  1   
 28  12  14  1   
 29  13  35  1   
 30  13  36  1   
 31  13  37  1   
 32  14  15  ar  
 33  14  16  ar  
 34  15  17  1   
 35  15  18  ar  
 36  16  19  ar  
 37  16  38  1   
 38  18  20  ar  
 39  18  39  1   
 40  19  20  ar  
 41  19  40  1   
 42  20  41  1   
@<TRIPOS>SUBSTRUCTURE
  1 ****   7 GROUP 4 **** **** 0

# MOE 2024.06 (io_trps.svl 2023.06)
