@<TRIPOS>MOLECULE
NONAME
45 48 1 0 0 
SMALL
USER_CHARGES


@<TRIPOS>ATOM
  1 S        0.0790    -0.6460     0.2800 S.3   1 <1>  -0.3320 
  2 C        1.7050     0.0790     0.0940 C.ar  1 <1>   0.7220 
  3 C       -1.0870     0.7330    -0.0990 C.3   1 <1>   0.0700 
  4 N        1.7190     1.3890    -0.2520 N.ar  1 <1>  -0.3100 
  5 N        2.7160    -0.7190     0.3090 N.ar  1 <1>  -0.5670 
  6 C       -2.5070     0.1890     0.0750 C.3   1 <1>   0.3430 
  7 N        2.8560     2.0010    -0.4090 N.ar  1 <1>  -0.2560 
  8 C        3.8770    -0.0760     0.1430 C.ar  1 <1>   0.1050 
  9 N       -3.5520     1.2050    -0.2700 N.4   1 <1>  -0.9590 
 10 C        3.9530     1.2600    -0.2090 C.ar  1 <1>   0.2560 
 11 N        5.1440    -0.5810     0.2820 N.pl3 1 <1>   0.0480 
 12 C       -3.5570     2.3640     0.6760 C.3   1 <1>   0.3430 
 13 C       -4.8960     0.5560    -0.3360 C.3   1 <1>   0.3430 
 14 C        5.3320     1.5930    -0.2920 C.ar  1 <1>   0.0000 
 15 C        6.0430     0.4370     0.0160 C.ar  1 <1>  -0.1520 
 16 C        5.4950    -1.9660     0.6490 C.3   1 <1>   0.0160 
 17 C       -4.5660     3.4130     0.2030 C.3   1 <1>  -0.1600 
 18 C       -5.9330     1.5650    -0.8320 C.3   1 <1>  -0.1600 
 19 C        6.0160     2.7700    -0.6000 C.ar  1 <1>  -0.1500 
 20 C        7.4390     0.4420     0.0200 C.ar  1 <1>  -0.1500 
 21 C       -5.9730     2.8200     0.0480 C.3   1 <1>  -0.1600 
 22 C        7.3940     2.7720    -0.5950 C.ar  1 <1>  -0.1500 
 23 C        8.1040     1.6090    -0.2860 C.ar  1 <1>  -0.1500 
 24 H       -0.8930     1.0380    -1.1120 H     1 <1>   0.0800 
 25 H       -0.8660     1.5260     0.5930 H     1 <1>   0.0800 
 26 H       -2.6380    -0.1380     1.0940 H     1 <1>   0.0800 
 27 H       -2.6180    -0.6710    -0.5660 H     1 <1>   0.0800 
 28 H       -3.3580     1.5770    -1.2100 H     1 <1>   0.4500 
 29 H       -2.5780     2.8130     0.7250 H     1 <1>   0.0800 
 30 H       -3.8260     2.0280     1.6650 H     1 <1>   0.0800 
 31 H       -5.1790     0.2030     0.6430 H     1 <1>   0.0800 
 32 H       -4.8690    -0.2880    -1.0070 H     1 <1>   0.0800 
 33 H        4.5990    -2.5410     0.7980 H     1 <1>   0.0800 
 34 H        6.0690    -1.9580     1.5570 H     1 <1>   0.0800 
 35 H        6.0740    -2.4070    -0.1420 H     1 <1>   0.0800 
 36 H       -4.2370     3.8280    -0.7340 H     1 <1>   0.0800 
 37 H       -4.5970     4.2180     0.9160 H     1 <1>   0.0800 
 38 H       -6.9050     1.1000    -0.8300 H     1 <1>   0.0800 
 39 H       -5.7110     1.8360    -1.8500 H     1 <1>   0.0800 
 40 H        5.4570     3.6580    -0.8370 H     1 <1>   0.1500 
 41 H        7.9860    -0.4530     0.2590 H     1 <1>   0.1500 
 42 H       -6.6330     3.5530    -0.3870 H     1 <1>   0.0800 
 43 H       -6.3640     2.5660     1.0200 H     1 <1>   0.0800 
 44 H        7.9340     3.6720    -0.8310 H     1 <1>   0.1500 
 45 H        9.1800     1.6350    -0.2880 H     1 <1>   0.1500 
@<TRIPOS>BOND
  1   1   2  1   
  2   1   3  1   
  3   2   4  ar  
  4   2   5  ar  
  5   3   6  1   
  6   3  24  1   
  7   3  25  1   
  8   4   7  ar  
  9   5   8  ar  
 10   6   9  1   
 11   6  26  1   
 12   6  27  1   
 13   7  10  ar  
 14   8  10  ar  
 15   8  11  1   
 16   9  12  1   
 17   9  13  1   
 18   9  28  1   
 19  10  14  1   
 20  11  15  1   
 21  11  16  1   
 22  12  17  1   
 23  12  29  1   
 24  12  30  1   
 25  13  18  1   
 26  13  31  1   
 27  13  32  1   
 28  14  15  ar  
 29  14  19  ar  
 30  15  20  ar  
 31  16  33  1   
 32  16  34  1   
 33  16  35  1   
 34  17  21  1   
 35  17  36  1   
 36  17  37  1   
 37  18  21  1   
 38  18  38  1   
 39  18  39  1   
 40  19  22  ar  
 41  19  40  1   
 42  20  23  ar  
 43  20  41  1   
 44  21  42  1   
 45  21  43  1   
 46  22  23  ar  
 47  22  44  1   
 48  23  45  1   
@<TRIPOS>SUBSTRUCTURE
  1 ****   4 GROUP 4 **** **** 0

# MOE 2024.06 (io_trps.svl 2023.06)
