@<TRIPOS>MOLECULE
NONAME
43 45 1 0 0 
SMALL
USER_CHARGES


@<TRIPOS>ATOM
  1 CL       0.5400     1.0320    -2.0750 Cl    1 <1>  -0.1770 
  2 C       -0.3940     1.8460    -0.8380 C.ar  1 <1>   0.1770 
  3 C        0.1060     3.0000    -0.2390 C.ar  1 <1>   0.0830 
  4 C       -1.6160     1.3130    -0.4790 C.ar  1 <1>  -0.1500 
  5 O        1.3190     3.4560    -0.6530 O.3   1 <1>  -0.3630 
  6 C       -0.6510     3.6300     0.7490 C.ar  1 <1>  -0.1500 
  7 C       -2.3480     1.9540     0.5020 C.ar  1 <1>   0.1770 
  8 C        2.0090     4.4840     0.0260 C.3   1 <1>   0.1200 
  9 C       -1.8790     3.1020     1.1180 C.ar  1 <1>  -0.1500 
 10 CL      -3.8960     1.3030     0.9760 Cl    1 <1>  -0.1770 
 11 C        3.3870     4.6490    -0.6300 C.3   1 <1>   0.2000 
 12 O        3.9930     3.3990    -0.7350 O.3   1 <1>  -0.6800 
 13 C        4.3070     5.6210     0.1470 C.3   1 <1>   0.3430 
 14 N        5.7600     5.3800    -0.1370 N.4   1 <1>  -0.9590 
 15 C        6.3560     4.4150     0.8330 C.3   1 <1>   0.4860 
 16 C        6.5750     6.6250    -0.2180 C.3   1 <1>   0.3430 
 17 C        7.8260     4.1750     0.5230 C.ar  1 <1>  -0.1430 
 18 C        7.9430     6.3190    -0.8300 C.3   1 <1>  -0.0170 
 19 C        8.5740     5.0680    -0.2390 C.ar  1 <1>  -0.1430 
 20 C        8.4330     3.0350     1.0300 C.ar  1 <1>  -0.1500 
 21 C        9.9140     4.8120    -0.4810 C.ar  1 <1>  -0.1500 
 22 C        9.7710     2.7860     0.7840 C.ar  1 <1>  -0.1500 
 23 C       10.5120     3.6750     0.0290 C.ar  1 <1>  -0.1500 
 24 H       -1.9900     0.4230    -0.9500 H     1 <1>   0.1500 
 25 H       -0.3110     4.5240     1.2370 H     1 <1>   0.1500 
 26 H        2.1080     4.2010     1.0600 H     1 <1>   0.0800 
 27 H        1.4350     5.3910    -0.0560 H     1 <1>   0.0800 
 28 H       -2.4770     3.5750     1.8770 H     1 <1>   0.1500 
 29 H        3.2480     5.0210    -1.6310 H     1 <1>   0.0800 
 30 H        3.3310     2.7550    -1.0850 H     1 <1>   0.4000 
 31 H        4.1230     5.5180     1.2030 H     1 <1>   0.0800 
 32 H        4.0400     6.6280    -0.1290 H     1 <1>   0.0800 
 33 H        5.8110     4.8770    -1.0370 H     1 <1>   0.4500 
 34 H        5.8290     3.4760     0.7830 H     1 <1>   0.0800 
 35 H        6.2690     4.8000     1.8350 H     1 <1>   0.0800 
 36 H        6.7130     7.0300     0.7720 H     1 <1>   0.0800 
 37 H        6.0740     7.3640    -0.8220 H     1 <1>   0.0800 
 38 H        8.5920     7.1620    -0.6710 H     1 <1>   0.0800 
 39 H        7.8350     6.1880    -1.8930 H     1 <1>   0.0800 
 40 H        7.8760     2.3280     1.6210 H     1 <1>   0.1500 
 41 H       10.5040     5.4930    -1.0710 H     1 <1>   0.1500 
 42 H       10.2390     1.9000     1.1800 H     1 <1>   0.1500 
 43 H       11.5540     3.4810    -0.1620 H     1 <1>   0.1500 
@<TRIPOS>BOND
  1   1   2  1   
  2   2   3  ar  
  3   2   4  ar  
  4   3   5  1   
  5   3   6  ar  
  6   4   7  ar  
  7   4  24  1   
  8   5   8  1   
  9   6   9  ar  
 10   6  25  1   
 11   7   9  ar  
 12   7  10  1   
 13   8  11  1   
 14   8  26  1   
 15   8  27  1   
 16   9  28  1   
 17  11  12  1   
 18  11  13  1   
 19  11  29  1   
 20  12  30  1   
 21  13  14  1   
 22  13  31  1   
 23  13  32  1   
 24  14  15  1   
 25  14  16  1   
 26  14  33  1   
 27  15  17  1   
 28  15  34  1   
 29  15  35  1   
 30  16  18  1   
 31  16  36  1   
 32  16  37  1   
 33  17  19  ar  
 34  17  20  ar  
 35  18  19  1   
 36  18  38  1   
 37  18  39  1   
 38  19  21  ar  
 39  20  22  ar  
 40  20  40  1   
 41  21  23  ar  
 42  21  41  1   
 43  22  23  ar  
 44  22  42  1   
 45  23  43  1   
@<TRIPOS>SUBSTRUCTURE
  1 ****  12 GROUP 4 **** **** 0

# MOE 2024.06 (io_trps.svl 2023.06)
