@<TRIPOS>MOLECULE
NONAME
47 50 1 0 0 
SMALL
USER_CHARGES


@<TRIPOS>ATOM
  1 S        0.2130     0.0630     0.7340 S.o2  1 <1>   1.4470 
  2 O        0.4470     0.2080     2.1550 O.2   1 <1>  -0.6500 
  3 O       -0.9860     0.6240     0.1520 O.2   1 <1>  -0.6500 
  4 N        1.5290     0.7960    -0.0480 N.am  1 <1>  -0.8490 
  5 C        0.3590    -1.6780     0.2410 C.ar  1 <1>  -0.0090 
  6 C        2.8160     0.3590     0.5150 C.3   1 <1>   0.1960 
  7 C        1.4160     2.2570     0.0010 C.3   1 <1>   0.1960 
  8 C        0.7640    -2.6550     1.1440 C.ar  1 <1>  -0.1500 
  9 C        0.0920    -2.0710    -1.0660 C.ar  1 <1>  -0.1500 
 10 C        3.9780     0.9050    -0.3260 C.3   1 <1>  -0.0190 
 11 C        2.5310     2.9040    -0.8310 C.3   1 <1>  -0.1600 
 12 C        0.8990    -3.9780     0.7580 C.ar  1 <1>  -0.1500 
 13 C        0.2220    -3.3920    -1.4600 C.ar  1 <1>  -0.1500 
 14 C        5.3130     0.4130     0.2180 C.2   1 <1>   0.5690 
 15 C        3.9220     2.4420    -0.3760 C.3   1 <1>  -0.1600 
 16 C        0.6270    -4.3470    -0.5470 C.ar  1 <1>  -0.1500 
 17 O        5.4360     0.2570     1.4080 O.2   1 <1>  -0.5700 
 18 N        6.3190     0.1880    -0.6810 N.am  1 <1>  -0.5470 
 19 C        7.6250    -0.2930    -0.4900 C.ar  1 <1>   0.1170 
 20 C        7.9790    -1.0910     0.5990 C.ar  1 <1>  -0.1500 
 21 C        8.5970     0.0280    -1.4430 C.ar  1 <1>  -0.1500 
 22 C        9.2820    -1.5340     0.6970 C.ar  1 <1>   0.0820 
 23 C        9.9050    -0.4260    -1.3290 C.ar  1 <1>  -0.1500 
 24 O        9.8290    -2.3010     1.6470 O.3   1 <1>  -0.3620 
 25 C       10.2200    -1.2110    -0.2390 C.ar  1 <1>   0.0820 
 26 C       11.2010    -2.4690     1.2990 C.3   1 <1>   0.4000 
 27 O       11.4000    -1.7570     0.0790 O.3   1 <1>  -0.3620 
 28 H        2.8700    -0.7170     0.5190 H     1 <1>   0.0800 
 29 H        2.9070     0.6990     1.5360 H     1 <1>   0.0800 
 30 H        1.4720     2.5940     1.0240 H     1 <1>   0.0800 
 31 H        0.4640     2.5640    -0.4010 H     1 <1>   0.0800 
 32 H        0.9780    -2.3780     2.1630 H     1 <1>   0.1500 
 33 H       -0.2230    -1.3300    -1.7820 H     1 <1>   0.1500 
 34 H        3.8600     0.5160    -1.3210 H     1 <1>   0.0800 
 35 H        2.4590     3.9740    -0.7470 H     1 <1>   0.0800 
 36 H        2.3790     2.6470    -1.8650 H     1 <1>   0.0800 
 37 H        1.2130    -4.7190     1.4730 H     1 <1>   0.1500 
 38 H        0.0080    -3.6750    -2.4770 H     1 <1>   0.1500 
 39 H        4.6730     2.8230    -1.0460 H     1 <1>   0.0800 
 40 H        4.1230     2.8360     0.6070 H     1 <1>   0.0800 
 41 H        0.7290    -5.3750    -0.8490 H     1 <1>   0.1500 
 42 H        6.1040     0.4460    -1.6430 H     1 <1>   0.3700 
 43 H        7.2680    -1.3690     1.3530 H     1 <1>   0.1500 
 44 H        8.3350     0.6420    -2.2850 H     1 <1>   0.1500 
 45 H       10.6590    -0.1820    -2.0560 H     1 <1>   0.1500 
 46 H       11.4100    -3.5130     1.1470 H     1 <1>   0.0800 
 47 H       11.8220    -2.0460     2.0690 H     1 <1>   0.0800 
@<TRIPOS>BOND
  1   1   2  2   
  2   1   3  2   
  3   1   4  am  
  4   1   5  1   
  5   4   6  1   
  6   4   7  1   
  7   5   8  ar  
  8   5   9  ar  
  9   6  10  1   
 10   6  28  1   
 11   6  29  1   
 12   7  11  1   
 13   7  30  1   
 14   7  31  1   
 15   8  12  ar  
 16   8  32  1   
 17   9  13  ar  
 18   9  33  1   
 19  10  14  1   
 20  10  15  1   
 21  10  34  1   
 22  11  15  1   
 23  11  35  1   
 24  11  36  1   
 25  12  16  ar  
 26  12  37  1   
 27  13  16  ar  
 28  13  38  1   
 29  14  17  2   
 30  14  18  am  
 31  15  39  1   
 32  15  40  1   
 33  16  41  1   
 34  18  19  1   
 35  18  42  1   
 36  19  20  ar  
 37  19  21  ar  
 38  20  22  ar  
 39  20  43  1   
 40  21  23  ar  
 41  21  44  1   
 42  22  24  1   
 43  22  25  ar  
 44  23  25  ar  
 45  23  45  1   
 46  24  26  1   
 47  25  27  1   
 48  26  27  1   
 49  26  46  1   
 50  26  47  1   
@<TRIPOS>SUBSTRUCTURE
  1 ****  14 GROUP 4 **** **** 0

# MOE 2024.06 (io_trps.svl 2023.06)
