@<TRIPOS>MOLECULE
NONAME
26 26 1 0 0 
SMALL
USER_CHARGES


@<TRIPOS>ATOM
  1 O        0.0100     0.8690     1.2990 O.3   1 <1>  -0.6800 
  2 C        0.1580     1.3880     0.0340 C.3   1 <1>   0.3440 
  3 C        1.4150     2.2490     0.0220 C.ar  1 <1>  -0.1440 
  4 C       -1.1020     2.1790    -0.2960 C.3   1 <1>  -0.2400 
  5 C        1.6110     3.2480     0.9650 C.ar  1 <1>  -0.1500 
  6 C        2.3880     2.0400    -0.9430 C.ar  1 <1>  -0.1500 
  7 C        2.7580     4.0220     0.9440 C.ar  1 <1>  -0.1500 
  8 C        3.5350     2.8130    -0.9630 C.ar  1 <1>  -0.1500 
  9 C        3.7320     3.8120    -0.0200 C.ar  1 <1>  -0.1430 
 10 C        4.9890     4.6730    -0.0330 C.3   1 <1>   0.3430 
 11 O        5.1360     5.1930    -1.2980 O.3   1 <1>  -0.6800 
 12 C        6.2490     3.8830     0.2970 C.3   1 <1>  -0.2400 
 13 H        0.8980     0.6600     1.6450 H     1 <1>   0.4000 
 14 H        0.2640     0.5600    -0.6460 H     1 <1>   0.0800 
 15 H       -1.2460     2.9720     0.4150 H     1 <1>   0.0800 
 16 H       -1.9570     1.5280    -0.2830 H     1 <1>   0.0800 
 17 H       -1.0110     2.6090    -1.2760 H     1 <1>   0.0800 
 18 H        0.8650     3.4240     1.7210 H     1 <1>   0.1500 
 19 H        2.2610     1.2720    -1.6870 H     1 <1>   0.1500 
 20 H        2.8860     4.7890     1.6880 H     1 <1>   0.1500 
 21 H        4.2810     2.6380    -1.7200 H     1 <1>   0.1500 
 22 H        4.8830     5.5020     0.6470 H     1 <1>   0.0800 
 23 H        4.2480     5.4010    -1.6440 H     1 <1>   0.4000 
 24 H        6.3930     3.0890    -0.4140 H     1 <1>   0.0800 
 25 H        6.1580     3.4530     1.2770 H     1 <1>   0.0800 
 26 H        7.1040     4.5340     0.2840 H     1 <1>   0.0800 
@<TRIPOS>BOND
  1   1   2  1   
  2   1  13  1   
  3   2   3  1   
  4   2   4  1   
  5   2  14  1   
  6   3   5  ar  
  7   3   6  ar  
  8   4  15  1   
  9   4  16  1   
 10   4  17  1   
 11   5   7  ar  
 12   5  18  1   
 13   6   8  ar  
 14   6  19  1   
 15   7   9  ar  
 16   7  20  1   
 17   8   9  ar  
 18   8  21  1   
 19   9  10  1   
 20  10  11  1   
 21  10  12  1   
 22  10  22  1   
 23  11  23  1   
 24  12  24  1   
 25  12  25  1   
 26  12  26  1   
@<TRIPOS>SUBSTRUCTURE
  1 ****   8 GROUP 4 **** **** 0

# MOE 2024.06 (io_trps.svl 2023.06)
