@<TRIPOS>MOLECULE
NONAME
32 32 1 0 0 
SMALL
USER_CHARGES


@<TRIPOS>ATOM
  1 O       -0.3010     0.4080     1.3330 O.2   1 <1>  -0.5700 
  2 C       -0.0820     1.4030     0.6890 C.2   1 <1>   0.5690 
  3 N        1.1440     1.7550     0.1980 N.am  1 <1>  -0.5470 
  4 C       -1.2400     2.3450     0.4070 C.3   1 <1>  -0.0990 
  5 C        2.4050     1.1350     0.2680 C.ar  1 <1>   0.1170 
  6 C       -1.6370     2.3800    -1.0780 C.3   1 <1>  -0.2400 
  7 C        3.5180     1.8680    -0.1280 C.ar  1 <1>  -0.1500 
  8 C        2.5970    -0.1710     0.7050 C.ar  1 <1>  -0.1500 
  9 C        4.7900     1.3230    -0.1010 C.ar  1 <1>  -0.1430 
 10 C        3.8590    -0.7400     0.7440 C.ar  1 <1>  -0.1430 
 11 C        4.9540     0.0080     0.3220 C.ar  1 <1>   0.0830 
 12 C        5.9830     2.1700    -0.5250 C.3   1 <1>  -0.0970 
 13 C        4.0160    -2.1650     1.2560 C.3   1 <1>  -0.0970 
 14 O        6.1930    -0.5420     0.3330 O.3   1 <1>  -0.3630 
 15 C        6.5610    -1.2340    -0.8380 C.3   1 <1>   0.0400 
 16 H        1.1490     2.6380    -0.3050 H     1 <1>   0.3700 
 17 H       -0.9730     3.3320     0.7380 H     1 <1>   0.0800 
 18 H       -2.0860     2.0260     0.9890 H     1 <1>   0.0800 
 19 H       -0.8230     2.7330    -1.6860 H     1 <1>   0.0800 
 20 H       -2.4800     3.0320    -1.2200 H     1 <1>   0.0800 
 21 H       -1.9090     1.3920    -1.4080 H     1 <1>   0.0800 
 22 H        3.3860     2.8810    -0.4580 H     1 <1>   0.1500 
 23 H        1.7540    -0.7560     1.0190 H     1 <1>   0.1500 
 24 H        5.7300     3.2140    -0.5360 H     1 <1>   0.0800 
 25 H        6.3060     1.8810    -1.5080 H     1 <1>   0.0800 
 26 H        6.7970     2.0280     0.1640 H     1 <1>   0.0800 
 27 H        3.1770    -2.4430     1.8680 H     1 <1>   0.0800 
 28 H        4.9070    -2.2510     1.8510 H     1 <1>   0.0800 
 29 H        4.0800    -2.8470     0.4280 H     1 <1>   0.0800 
 30 H        7.5580    -1.6140    -0.7040 H     1 <1>   0.0800 
 31 H        6.5330    -0.5530    -1.6690 H     1 <1>   0.0800 
 32 H        5.8740    -2.0440    -0.9970 H     1 <1>   0.0800 
@<TRIPOS>BOND
  1   1   2  2   
  2   2   3  am  
  3   2   4  1   
  4   3   5  1   
  5   3  16  1   
  6   4   6  1   
  7   4  17  1   
  8   4  18  1   
  9   5   7  ar  
 10   5   8  ar  
 11   6  19  1   
 12   6  20  1   
 13   6  21  1   
 14   7   9  ar  
 15   7  22  1   
 16   8  10  ar  
 17   8  23  1   
 18   9  11  ar  
 19   9  12  1   
 20  10  11  ar  
 21  10  13  1   
 22  11  14  1   
 23  12  24  1   
 24  12  25  1   
 25  12  26  1   
 26  13  27  1   
 27  13  28  1   
 28  13  29  1   
 29  14  15  1   
 30  15  30  1   
 31  15  31  1   
 32  15  32  1   
@<TRIPOS>SUBSTRUCTURE
  1 ****   5 GROUP 4 **** **** 0

# MOE 2024.06 (io_trps.svl 2023.06)
