@<TRIPOS>MOLECULE
NONAME
49 51 1 0 0 
SMALL
USER_CHARGES


@<TRIPOS>ATOM
  1 O       -0.8900    -1.1720    -2.5340 O.2   1 <1>  -0.5700 
  2 C       -0.5190    -0.6650    -1.5020 C.2   1 <1>   0.5690 
  3 N       -1.2040     0.3250    -0.8760 N.am  1 <1>  -0.7300 
  4 C        0.7620    -1.1750    -0.8620 C.3   1 <1>   0.0440 
  5 C       -2.5150     0.9200    -1.1940 C.3   1 <1>   0.3000 
  6 C        1.0220    -0.5640     0.5140 C.ar  1 <1>  -0.1440 
  7 C       -2.4490     1.6220    -2.5670 C.3   1 <1>  -0.1600 
  8 C       -2.7900     1.9770    -0.1030 C.3   1 <1>  -0.1600 
  9 C       -3.6150    -0.1720    -1.2000 C.3   1 <1>  -0.0170 
 10 C        0.3260    -1.0260     1.6210 C.ar  1 <1>  -0.1500 
 11 C        1.9320     0.4710     0.6670 C.ar  1 <1>  -0.1500 
 12 C       -1.4540     2.7950    -2.6070 C.3   1 <1>  -0.1600 
 13 C       -1.8070     3.1620    -0.1290 C.3   1 <1>  -0.1600 
 14 C       -3.6970    -1.0180     0.0720 C.ar  1 <1>  -0.1440 
 15 C        0.5350    -0.4590     2.8660 C.ar  1 <1>  -0.1500 
 16 C        2.1430     1.0380     1.9120 C.ar  1 <1>  -0.1500 
 17 C       -1.7690     3.8220    -1.5130 C.3   1 <1>  -0.1600 
 18 C       -3.0160    -2.2250     0.1430 C.ar  1 <1>  -0.1500 
 19 C       -4.4560    -0.6020     1.1580 C.ar  1 <1>  -0.1500 
 20 C        1.4440     0.5730     3.0120 C.ar  1 <1>  -0.1500 
 21 C       -3.0730    -2.9970     1.2900 C.ar  1 <1>  -0.1500 
 22 C       -4.5160    -1.3690     2.3090 C.ar  1 <1>  -0.1500 
 23 C       -3.8180    -2.5640     2.3710 C.ar  1 <1>   0.0820 
 24 O       -3.8610    -3.3150     3.4810 O.3   1 <1>  -0.5330 
 25 H       -0.8330     0.6360     0.0250 H     1 <1>   0.3700 
 26 H        1.5780    -0.9590    -1.5250 H     1 <1>   0.0800 
 27 H        0.6910    -2.2430    -0.7710 H     1 <1>   0.0800 
 28 H       -3.4270     2.0020    -2.8070 H     1 <1>   0.0800 
 29 H       -2.1940     0.9100    -3.3310 H     1 <1>   0.0800 
 30 H       -2.7540     1.5170     0.8690 H     1 <1>   0.0800 
 31 H       -3.7850     2.3620    -0.2390 H     1 <1>   0.0800 
 32 H       -3.4540    -0.8220    -2.0410 H     1 <1>   0.0800 
 33 H       -4.5680     0.2970    -1.3620 H     1 <1>   0.0800 
 34 H       -0.3900    -1.8250     1.5200 H     1 <1>   0.1500 
 35 H        2.4790     0.8440    -0.1820 H     1 <1>   0.1500 
 36 H       -1.4970     3.2700    -3.5710 H     1 <1>   0.0800 
 37 H       -0.4540     2.4210    -2.4720 H     1 <1>   0.0800 
 38 H       -0.8180     2.8220     0.1290 H     1 <1>   0.0800 
 39 H       -2.1020     3.8900     0.6070 H     1 <1>   0.0800 
 40 H       -0.0120    -0.8230     3.7180 H     1 <1>   0.1500 
 41 H        2.8510     1.8400     2.0250 H     1 <1>   0.1500 
 42 H       -2.7230     4.2790    -1.7170 H     1 <1>   0.0800 
 43 H       -1.0230     4.5980    -1.5220 H     1 <1>   0.0800 
 44 H       -2.4400    -2.5680    -0.6990 H     1 <1>   0.1500 
 45 H       -5.0010     0.3240     1.1110 H     1 <1>   0.1500 
 46 H        1.6080     1.0130     3.9800 H     1 <1>   0.1500 
 47 H       -2.5460    -3.9320     1.3500 H     1 <1>   0.1500 
 48 H       -5.1020    -1.0340     3.1440 H     1 <1>   0.1500 
 49 H       -4.4300    -2.9380     4.1740 H     1 <1>   0.4500 
@<TRIPOS>BOND
  1   1   2  2   
  2   2   3  am  
  3   2   4  1   
  4   3   5  1   
  5   3  25  1   
  6   4   6  1   
  7   4  26  1   
  8   4  27  1   
  9   5   7  1   
 10   5   8  1   
 11   5   9  1   
 12   6  10  ar  
 13   6  11  ar  
 14   7  12  1   
 15   7  28  1   
 16   7  29  1   
 17   8  13  1   
 18   8  30  1   
 19   8  31  1   
 20   9  14  1   
 21   9  32  1   
 22   9  33  1   
 23  10  15  ar  
 24  10  34  1   
 25  11  16  ar  
 26  11  35  1   
 27  12  17  1   
 28  12  36  1   
 29  12  37  1   
 30  13  17  1   
 31  13  38  1   
 32  13  39  1   
 33  14  18  ar  
 34  14  19  ar  
 35  15  20  ar  
 36  15  40  1   
 37  16  20  ar  
 38  16  41  1   
 39  17  42  1   
 40  17  43  1   
 41  18  21  ar  
 42  18  44  1   
 43  19  22  ar  
 44  19  45  1   
 45  20  46  1   
 46  21  23  ar  
 47  21  47  1   
 48  22  23  ar  
 49  22  48  1   
 50  23  24  1   
 51  24  49  1   
@<TRIPOS>SUBSTRUCTURE
  1 ****   3 GROUP 4 **** **** 0

# MOE 2024.06 (io_trps.svl 2023.06)
