@<TRIPOS>MOLECULE
NONAME
38 39 1 0 0 
SMALL
USER_CHARGES


@<TRIPOS>ATOM
  1 O       -1.2540     0.5070    -1.8730 O.2   1 <1>  -0.5700 
  2 C       -1.6510     0.8370    -0.7730 C.2   1 <1>   0.5440 
  3 N       -2.1910    -0.1060     0.0530 N.am  1 <1>  -0.7300 
  4 C       -1.5130     2.2070    -0.3170 C.ar  1 <1>   0.0860 
  5 C       -2.2850    -1.5510    -0.2360 C.3   1 <1>   0.2200 
  6 C       -2.6040     3.0180     0.0290 C.ar  1 <1>  -0.1440 
  7 C       -0.2350     2.7520    -0.2030 C.ar  1 <1>  -0.1500 
  8 C       -3.7120    -2.0680     0.0510 C.3   1 <1>  -0.0800 
  9 C       -1.2410    -2.2730     0.6230 C.3   1 <1>  -0.1600 
 10 C       -2.3970     4.3070     0.4940 C.ar  1 <1>  -0.1500 
 11 C       -4.0350     2.5150    -0.1140 C.3   1 <1>  -0.0970 
 12 C       -0.0330     4.0390     0.2580 C.ar  1 <1>  -0.1500 
 13 C       -3.7780    -3.5960    -0.1230 C.3   1 <1>  -0.1600 
 14 C       -4.7600    -1.4070    -0.8600 C.3   1 <1>  -0.2400 
 15 C       -1.3190    -3.7950     0.4420 C.3   1 <1>  -0.1600 
 16 C       -1.1170     4.8180     0.6120 C.ar  1 <1>  -0.1500 
 17 C       -2.7310    -4.3120     0.7410 C.3   1 <1>  -0.1600 
 18 H       -2.4610     0.1670     0.9960 H     1 <1>   0.3700 
 19 H       -2.0580    -1.7260    -1.2750 H     1 <1>   0.0800 
 20 H        0.6100     2.1470    -0.4840 H     1 <1>   0.1500 
 21 H       -3.9550    -1.8430     1.0760 H     1 <1>   0.0800 
 22 H       -1.4000    -2.0360     1.6600 H     1 <1>   0.0800 
 23 H       -0.2590    -1.9340     0.3410 H     1 <1>   0.0800 
 24 H       -3.2330     4.9280     0.7650 H     1 <1>   0.1500 
 25 H       -4.7370     3.3270    -0.0480 H     1 <1>   0.0800 
 26 H       -4.1670     2.0410    -1.0710 H     1 <1>   0.0800 
 27 H       -4.2600     1.8060     0.6620 H     1 <1>   0.0800 
 28 H        0.9660     4.4340     0.3390 H     1 <1>   0.1500 
 29 H       -3.6090    -3.8470    -1.1570 H     1 <1>   0.0800 
 30 H       -4.7580    -3.9510     0.1450 H     1 <1>   0.0800 
 31 H       -4.5230    -1.5850    -1.8940 H     1 <1>   0.0800 
 32 H       -4.7860    -0.3460    -0.6970 H     1 <1>   0.0800 
 33 H       -5.7390    -1.8020    -0.6560 H     1 <1>   0.0800 
 34 H       -0.6110    -4.2740     1.0970 H     1 <1>   0.0800 
 35 H       -1.0540    -4.0470    -0.5710 H     1 <1>   0.0800 
 36 H       -0.9670     5.8210     0.9730 H     1 <1>   0.1500 
 37 H       -2.7730    -5.3710     0.5540 H     1 <1>   0.0800 
 38 H       -2.9570    -4.1530     1.7820 H     1 <1>   0.0800 
@<TRIPOS>BOND
  1   1   2  2   
  2   2   3  am  
  3   2   4  1   
  4   3   5  1   
  5   3  18  1   
  6   4   6  ar  
  7   4   7  ar  
  8   5   8  1   
  9   5   9  1   
 10   5  19  1   
 11   6  10  ar  
 12   6  11  1   
 13   7  12  ar  
 14   7  20  1   
 15   8  13  1   
 16   8  14  1   
 17   8  21  1   
 18   9  15  1   
 19   9  22  1   
 20   9  23  1   
 21  10  16  ar  
 22  10  24  1   
 23  11  25  1   
 24  11  26  1   
 25  11  27  1   
 26  12  16  ar  
 27  12  28  1   
 28  13  17  1   
 29  13  29  1   
 30  13  30  1   
 31  14  31  1   
 32  14  32  1   
 33  14  33  1   
 34  15  17  1   
 35  15  34  1   
 36  15  35  1   
 37  16  36  1   
 38  17  37  1   
 39  17  38  1   
@<TRIPOS>SUBSTRUCTURE
  1 ****   3 GROUP 4 **** **** 0

# MOE 2024.06 (io_trps.svl 2023.06)
