@<TRIPOS>MOLECULE
NONAME
56 58 1 0 0 
SMALL
USER_CHARGES


@<TRIPOS>ATOM
  1 O       -0.7270    -3.5590     1.3680 O.2   1 <1>  -0.5700 
  2 C       -0.2990    -2.8040     0.5180 C.2   1 <1>   0.7800 
  3 O        0.9880    -2.8200     0.1810 O.3   1 <1>  -0.4300 
  4 N       -1.0480    -1.8840    -0.1440 N.am  1 <1>  -0.5470 
  5 C        1.9110    -3.6950     0.7880 C.3   1 <1>   0.2000 
  6 C       -2.4220    -1.6130    -0.0970 C.ar  1 <1>   0.1170 
  7 C        2.4110    -3.0520     2.0820 C.3   1 <1>  -0.2400 
  8 C        3.0500    -3.9080    -0.2050 C.3   1 <1>  -0.2400 
  9 C       -3.3600    -2.5770     0.2350 C.ar  1 <1>  -0.1500 
 10 C       -2.8720    -0.3400    -0.4080 C.ar  1 <1>  -0.1500 
 11 C       -4.7210    -2.2990     0.2710 C.ar  1 <1>   0.1170 
 12 C       -4.2220    -0.0420    -0.3720 C.ar  1 <1>  -0.1500 
 13 N       -5.6010    -3.3380     0.6290 N.am  1 <1>  -0.2940 
 14 C       -5.1640    -1.0020    -0.0310 C.ar  1 <1>  -0.1440 
 15 C       -6.4290    -3.0990     1.7360 C.ar  1 <1>   0.1170 
 16 C       -5.7650    -4.4560    -0.1750 C.2   1 <1>   0.5690 
 17 C       -6.6220    -0.5160    -0.0110 C.3   1 <1>  -0.0170 
 18 C       -7.5050    -2.2290     1.6120 C.ar  1 <1>  -0.1440 
 19 C       -6.1830    -3.7160     2.9560 C.ar  1 <1>  -0.1500 
 20 O       -5.0030    -4.7390    -1.0730 O.2   1 <1>  -0.5700 
 21 C       -6.9650    -5.3940     0.0310 C.3   1 <1>   0.1710 
 22 C       -7.7330    -1.5380     0.2760 C.3   1 <1>  -0.0170 
 23 C       -8.3370    -2.0010     2.6950 C.ar  1 <1>  -0.1500 
 24 C       -7.0140    -3.4860     4.0360 C.ar  1 <1>  -0.1500 
 25 N       -8.1350    -5.0450    -0.8110 N.3   1 <1>  -0.9000 
 26 C       -8.0940    -2.6300     3.9050 C.ar  1 <1>  -0.1500 
 27 C       -9.2310    -6.0010    -0.6480 C.3   1 <1>   0.1100 
 28 C      -10.4490    -5.5420    -1.4540 C.3   1 <1>   0.1200 
 29 O      -11.4450    -6.5050    -1.3750 O.3   1 <1>  -0.6800 
 30 H       -0.4910    -1.2920    -0.7530 H     1 <1>   0.3700 
 31 H        1.4240    -4.6360     0.9890 H     1 <1>   0.0800 
 32 H        2.8620    -2.0980     1.8800 H     1 <1>   0.0800 
 33 H        3.1420    -3.6880     2.5460 H     1 <1>   0.0800 
 34 H        1.5950    -2.9240     2.7710 H     1 <1>   0.0800 
 35 H        3.5290    -2.9730    -0.4360 H     1 <1>   0.0800 
 36 H        2.6700    -4.3480    -1.1090 H     1 <1>   0.0800 
 37 H        3.7810    -4.5750     0.2150 H     1 <1>   0.0800 
 38 H       -3.0360    -3.5740     0.4640 H     1 <1>   0.1500 
 39 H       -2.1670     0.4260    -0.6730 H     1 <1>   0.1500 
 40 H       -4.5380     0.9580    -0.6110 H     1 <1>   0.1500 
 41 H       -6.8350    -0.0620    -0.9620 H     1 <1>   0.0800 
 42 H       -6.6950     0.2570     0.7330 H     1 <1>   0.0800 
 43 H       -5.3360    -4.3720     3.0540 H     1 <1>   0.1500 
 44 H       -7.2590    -5.3990     1.0650 H     1 <1>   0.0800 
 45 H       -6.6400    -6.3900    -0.2160 H     1 <1>   0.0800 
 46 H       -7.7680    -2.2670    -0.5150 H     1 <1>   0.0800 
 47 H       -8.6820    -1.0330     0.2830 H     1 <1>   0.0800 
 48 H       -9.1750    -1.3320     2.6060 H     1 <1>   0.1500 
 49 H       -6.8210    -3.9690     4.9790 H     1 <1>   0.1500 
 50 H       -7.8180    -5.0490    -1.7920 H     1 <1>   0.3600 
 51 H       -8.7420    -2.4500     4.7450 H     1 <1>   0.1500 
 52 H       -9.5050    -6.0570     0.3920 H     1 <1>   0.0800 
 53 H       -8.9130    -6.9730    -0.9860 H     1 <1>   0.0800 
 54 H      -10.1980    -5.4000    -2.4900 H     1 <1>   0.0800 
 55 H      -10.8400    -4.6260    -1.0440 H     1 <1>   0.0800 
 56 H      -11.1800    -7.3190    -1.8460 H     1 <1>   0.4000 
@<TRIPOS>BOND
  1   1   2  2   
  2   2   3  1   
  3   2   4  am  
  4   3   5  1   
  5   4   6  1   
  6   4  30  1   
  7   5   7  1   
  8   5   8  1   
  9   5  31  1   
 10   6   9  ar  
 11   6  10  ar  
 12   7  32  1   
 13   7  33  1   
 14   7  34  1   
 15   8  35  1   
 16   8  36  1   
 17   8  37  1   
 18   9  11  ar  
 19   9  38  1   
 20  10  12  ar  
 21  10  39  1   
 22  11  13  1   
 23  11  14  ar  
 24  12  14  ar  
 25  12  40  1   
 26  13  15  1   
 27  13  16  am  
 28  14  17  1   
 29  15  18  ar  
 30  15  19  ar  
 31  16  20  2   
 32  16  21  1   
 33  17  22  1   
 34  17  41  1   
 35  17  42  1   
 36  18  22  1   
 37  18  23  ar  
 38  19  24  ar  
 39  19  43  1   
 40  21  25  1   
 41  21  44  1   
 42  21  45  1   
 43  22  46  1   
 44  22  47  1   
 45  23  26  ar  
 46  23  48  1   
 47  24  26  ar  
 48  24  49  1   
 49  25  27  1   
 50  25  50  1   
 51  26  51  1   
 52  27  28  1   
 53  27  52  1   
 54  27  53  1   
 55  28  29  1   
 56  28  54  1   
 57  28  55  1   
 58  29  56  1   
@<TRIPOS>SUBSTRUCTURE
  1 ****  11 GROUP 4 **** **** 0

# MOE 2024.06 (io_trps.svl 2023.06)
