@<TRIPOS>MOLECULE
NONAME
49 50 1 0 0 
SMALL
USER_CHARGES


@<TRIPOS>ATOM
  1 S       -0.3680    -0.1490    -0.7290 S.o2  1 <1>   1.4470 
  2 O        0.3300    -0.0600    -1.9930 O.2   1 <1>  -0.6500 
  3 O       -0.4940    -1.4300    -0.0700 O.2   1 <1>  -0.6500 
  4 N       -1.9460     0.3930    -1.0290 N.am  1 <1>  -0.8490 
  5 C        0.2900     1.0610     0.4540 C.ar  1 <1>  -0.0090 
  6 C       -2.6970    -0.6340    -1.8190 C.3   1 <1>   0.2570 
  7 C       -1.9490     1.6950    -1.7110 C.3   1 <1>   0.1960 
  8 C        1.3900     1.8540     0.1420 C.ar  1 <1>  -0.1500 
  9 C       -0.3000     1.2310     1.7010 C.ar  1 <1>  -0.1500 
 10 C       -4.1860    -0.7360    -1.4750 C.2   1 <1>   0.5690 
 11 C       -3.3200     2.3620    -1.6320 C.3   1 <1>  -0.2400 
 12 C        1.8810     2.7860     1.0400 C.ar  1 <1>  -0.1500 
 13 C        0.1840     2.1610     2.6050 C.ar  1 <1>  -0.1500 
 14 O       -4.9690    -1.0700    -2.3330 O.2   1 <1>  -0.5700 
 15 N       -4.5780    -0.4410    -0.2090 N.am  1 <1>  -0.7300 
 16 C        1.2760     2.9410     2.2730 C.ar  1 <1>  -0.1500 
 17 C       -5.9520    -0.4710     0.3120 C.3   1 <1>   0.2200 
 18 C       -6.3730     0.9740     0.6090 C.3   1 <1>  -0.1600 
 19 C       -5.9640    -1.4140     1.5210 C.3   1 <1>  -0.1600 
 20 C       -7.8820     1.1060     0.8630 C.3   1 <1>  -0.1600 
 21 C       -7.3030    -1.4990     2.2710 C.3   1 <1>  -0.1600 
 22 C       -8.3150     0.8830     2.3200 C.3   1 <1>  -0.1600 
 23 C       -7.5960    -0.2340     3.0910 C.3   1 <1>  -0.1600 
 24 H       -2.2950    -1.6150    -1.6400 H     1 <1>   0.0800 
 25 H       -2.5920    -0.4450    -2.8730 H     1 <1>   0.0800 
 26 H       -1.6420     1.5850    -2.7390 H     1 <1>   0.0800 
 27 H       -1.2440     2.3540    -1.2310 H     1 <1>   0.0800 
 28 H        1.8710     1.7400    -0.8160 H     1 <1>   0.1500 
 29 H       -1.1490     0.6240     1.9670 H     1 <1>   0.1500 
 30 H       -4.0430     1.8430    -2.2350 H     1 <1>   0.0800 
 31 H       -3.2480     3.3680    -2.0030 H     1 <1>   0.0800 
 32 H       -3.6590     2.4010    -0.6120 H     1 <1>   0.0800 
 33 H        2.7340     3.3900     0.7790 H     1 <1>   0.1500 
 34 H       -0.2880     2.2760     3.5660 H     1 <1>   0.1500 
 35 H       -3.8590    -0.0950     0.4290 H     1 <1>   0.3700 
 36 H        1.6560     3.6650     2.9740 H     1 <1>   0.1500 
 37 H       -6.6020    -0.8730    -0.4480 H     1 <1>   0.0800 
 38 H       -6.1450     1.5630    -0.2620 H     1 <1>   0.0800 
 39 H       -5.8140     1.3750     1.4360 H     1 <1>   0.0800 
 40 H       -5.1930    -1.1220     2.2130 H     1 <1>   0.0800 
 41 H       -5.7220    -2.4000     1.1640 H     1 <1>   0.0800 
 42 H       -8.4120     0.4200     0.2230 H     1 <1>   0.0800 
 43 H       -8.1950     2.0950     0.5760 H     1 <1>   0.0800 
 44 H       -7.2380    -2.3280     2.9560 H     1 <1>   0.0800 
 45 H       -8.1110    -1.7110     1.5920 H     1 <1>   0.0800 
 46 H       -9.3720     0.6770     2.3210 H     1 <1>   0.0800 
 47 H       -8.1780     1.8010     2.8660 H     1 <1>   0.0800 
 48 H       -6.6770     0.1480     3.5020 H     1 <1>   0.0800 
 49 H       -8.2160    -0.5050     3.9290 H     1 <1>   0.0800 
@<TRIPOS>BOND
  1   1   2  2   
  2   1   3  2   
  3   1   4  am  
  4   1   5  1   
  5   4   6  1   
  6   4   7  1   
  7   5   8  ar  
  8   5   9  ar  
  9   6  10  1   
 10   6  24  1   
 11   6  25  1   
 12   7  11  1   
 13   7  26  1   
 14   7  27  1   
 15   8  12  ar  
 16   8  28  1   
 17   9  13  ar  
 18   9  29  1   
 19  10  14  2   
 20  10  15  am  
 21  11  30  1   
 22  11  31  1   
 23  11  32  1   
 24  12  16  ar  
 25  12  33  1   
 26  13  16  ar  
 27  13  34  1   
 28  15  17  1   
 29  15  35  1   
 30  16  36  1   
 31  17  18  1   
 32  17  19  1   
 33  17  37  1   
 34  18  20  1   
 35  18  38  1   
 36  18  39  1   
 37  19  21  1   
 38  19  40  1   
 39  19  41  1   
 40  20  22  1   
 41  20  42  1   
 42  20  43  1   
 43  21  23  1   
 44  21  44  1   
 45  21  45  1   
 46  22  23  1   
 47  22  46  1   
 48  22  47  1   
 49  23  48  1   
 50  23  49  1   
@<TRIPOS>SUBSTRUCTURE
  1 ****   4 GROUP 4 **** **** 0

# MOE 2024.06 (io_trps.svl 2023.06)
