@<TRIPOS>MOLECULE
NONAME
37 38 1 0 0 
SMALL
USER_CHARGES


@<TRIPOS>ATOM
  1 O       -1.2980     4.8120    -0.2860 O.3   1 <1>  -0.2800 
  2 C       -1.0320     3.5350    -0.4850 C.2   1 <1>  -0.0400 
  3 C       -0.1780     5.4010     0.0800 C.2   1 <1>  -0.0400 
  4 C        0.2720     3.2780    -0.2420 C.2   1 <1>  -0.1500 
  5 C       -2.1690     2.6360    -0.9090 C.3   1 <1>   0.5230 
  6 C        0.8320     4.5060     0.1280 C.2   1 <1>  -0.1500 
  7 C       -0.1870     6.8870     0.3670 C.3   1 <1>  -0.0600 
  8 N       -3.2720     2.8890     0.0440 N.4   1 <1>  -0.9060 
  9 C       -4.5820     2.3340    -0.3480 C.3   1 <1>   0.4230 
 10 C       -5.6830     2.9640     0.5190 C.3   1 <1>  -0.0170 
 11 C       -4.5300     0.8120    -0.2010 C.3   1 <1>  -0.2400 
 12 C       -7.0590     2.5580     0.0220 C.ar  1 <1>  -0.1430 
 13 C       -7.7940     1.5910     0.6940 C.ar  1 <1>  -0.1500 
 14 C       -7.5920     3.1490    -1.1140 C.ar  1 <1>  -0.1500 
 15 C       -9.0410     1.2130     0.2280 C.ar  1 <1>  -0.1500 
 16 C       -8.8400     2.7710    -1.5790 C.ar  1 <1>  -0.1500 
 17 C       -9.5640     1.8020    -0.9090 C.ar  1 <1>  -0.1500 
 18 H        0.8200     2.3520    -0.3040 H     1 <1>   0.1500 
 19 H       -1.8640     1.6030    -0.8870 H     1 <1>   0.0800 
 20 H       -2.4720     2.8990    -1.9090 H     1 <1>   0.0800 
 21 H        1.8640     4.6700     0.3890 H     1 <1>   0.1500 
 22 H       -0.8670     7.1030     1.1710 H     1 <1>   0.0800 
 23 H       -0.4990     7.4270    -0.5090 H     1 <1>   0.0800 
 24 H        0.7970     7.2180     0.6450 H     1 <1>   0.0800 
 25 H       -3.3140     3.9150     0.1230 H     1 <1>   0.4500 
 26 H       -2.9890     2.5520     0.9690 H     1 <1>   0.4500 
 27 H       -4.7850     2.5840    -1.3780 H     1 <1>   0.0800 
 28 H       -5.6170     4.0370     0.4720 H     1 <1>   0.0800 
 29 H       -5.5670     2.6660     1.5470 H     1 <1>   0.0800 
 30 H       -4.3510     0.5250     0.8200 H     1 <1>   0.0800 
 31 H       -3.7790     0.3790    -0.8350 H     1 <1>   0.0800 
 32 H       -5.4730     0.3880    -0.5010 H     1 <1>   0.0800 
 33 H       -7.4090     1.1230     1.5830 H     1 <1>   0.1500 
 34 H       -7.0520     3.9110    -1.6470 H     1 <1>   0.1500 
 35 H       -9.6090     0.4630     0.7510 H     1 <1>   0.1500 
 36 H       -9.2520     3.2320    -2.4600 H     1 <1>   0.1500 
 37 H      -10.5350     1.5080    -1.2700 H     1 <1>   0.1500 
@<TRIPOS>BOND
  1   1   2  1   
  2   1   3  1   
  3   2   4  2   
  4   2   5  1   
  5   3   6  2   
  6   3   7  1   
  7   4   6  1   
  8   4  18  1   
  9   5   8  1   
 10   5  19  1   
 11   5  20  1   
 12   6  21  1   
 13   7  22  1   
 14   7  23  1   
 15   7  24  1   
 16   8   9  1   
 17   8  25  1   
 18   8  26  1   
 19   9  10  1   
 20   9  11  1   
 21   9  27  1   
 22  10  12  1   
 23  10  28  1   
 24  10  29  1   
 25  11  30  1   
 26  11  31  1   
 27  11  32  1   
 28  12  13  ar  
 29  12  14  ar  
 30  13  15  ar  
 31  13  33  1   
 32  14  16  ar  
 33  14  34  1   
 34  15  17  ar  
 35  15  35  1   
 36  16  17  ar  
 37  16  36  1   
 38  17  37  1   
@<TRIPOS>SUBSTRUCTURE
  1 ****   9 GROUP 4 **** **** 0

# MOE 2024.06 (io_trps.svl 2023.06)
