@<TRIPOS>MOLECULE
NONAME
50 52 1 0 0 
SMALL
USER_CHARGES


@<TRIPOS>ATOM
  1 O       -0.7220    -0.2200    -1.0450 O.3   1 <1>  -0.3630 
  2 C       -1.8290    -0.7000    -0.4290 C.ar  1 <1>   0.0830 
  3 C        0.0730    -1.0340    -1.8780 C.3   1 <1>   0.0400 
  4 C       -2.3260    -1.9860    -0.6160 C.ar  1 <1>  -0.1500 
  5 C       -2.4830     0.1620     0.4340 C.ar  1 <1>  -0.1500 
  6 C       -3.4680    -2.3920     0.0530 C.ar  1 <1>  -0.1500 
  7 C       -3.6230    -0.2430     1.1030 C.ar  1 <1>  -0.1500 
  8 C       -4.1270    -1.5210     0.9100 C.ar  1 <1>  -0.1430 
  9 C       -5.3910    -1.9560     1.6260 C.3   1 <1>   0.4860 
 10 N       -6.5150    -1.9470     0.6520 N.4   1 <1>  -0.9590 
 11 C       -6.7630    -0.5650     0.0910 C.3   1 <1>   0.3430 
 12 C       -7.7760    -2.5250     1.2440 C.3   1 <1>   0.3430 
 13 C       -7.9290    -0.5240    -0.9190 C.3   1 <1>   0.2090 
 14 C       -8.9440    -2.5520     0.2370 C.3   1 <1>   0.2090 
 15 N       -9.1430    -1.2200    -0.3990 N.pl3 1 <1>  -0.8380 
 16 C      -10.2260    -0.4590     0.0450 C.ar  1 <1>   0.1000 
 17 C      -11.4930    -0.5840    -0.5350 C.ar  1 <1>  -0.1430 
 18 C      -10.0480     0.4270     1.1030 C.ar  1 <1>  -0.1500 
 19 C      -12.5590     0.1590    -0.0330 C.ar  1 <1>  -0.1430 
 20 C      -11.7050    -1.5340    -1.7150 C.3   1 <1>  -0.0970 
 21 C      -11.1020     1.1710     1.5890 C.ar  1 <1>  -0.1500 
 22 C      -12.3550     1.0340     1.0230 C.ar  1 <1>  -0.1500 
 23 C      -13.9670     0.0480    -0.6050 C.3   1 <1>  -0.0970 
 24 H        0.9050    -0.4460    -2.2240 H     1 <1>   0.0800 
 25 H       -0.5160    -1.3600    -2.7170 H     1 <1>   0.0800 
 26 H        0.4330    -1.8730    -1.3080 H     1 <1>   0.0800 
 27 H       -1.8330    -2.6780    -1.2740 H     1 <1>   0.1500 
 28 H       -2.0850     1.1520     0.5760 H     1 <1>   0.1500 
 29 H       -3.8260    -3.3950    -0.1040 H     1 <1>   0.1500 
 30 H       -4.1030     0.4520     1.7730 H     1 <1>   0.1500 
 31 H       -5.6000    -1.2850     2.4430 H     1 <1>   0.0800 
 32 H       -5.2500    -2.9480     2.0240 H     1 <1>   0.0800 
 33 H       -6.2320    -2.5340    -0.1420 H     1 <1>   0.4500 
 34 H       -5.8730    -0.2000    -0.3950 H     1 <1>   0.0800 
 35 H       -6.9950     0.1110     0.8960 H     1 <1>   0.0800 
 36 H       -8.0830    -1.9300     2.0890 H     1 <1>   0.0800 
 37 H       -7.5950    -3.5270     1.5940 H     1 <1>   0.0800 
 38 H       -7.6270    -0.9910    -1.8400 H     1 <1>   0.0800 
 39 H       -8.1730     0.5010    -1.1440 H     1 <1>   0.0800 
 40 H       -9.8480    -2.8430     0.7470 H     1 <1>   0.0800 
 41 H       -8.7530    -3.2830    -0.5290 H     1 <1>   0.0800 
 42 H       -9.0850     0.5360     1.5550 H     1 <1>   0.1500 
 43 H      -10.7940    -1.6940    -2.2600 H     1 <1>   0.0800 
 44 H      -12.4170    -1.1330    -2.4120 H     1 <1>   0.0800 
 45 H      -12.0640    -2.4810    -1.3570 H     1 <1>   0.0800 
 46 H      -10.9580     1.8560     2.4060 H     1 <1>   0.1500 
 47 H      -13.1710     1.6170     1.4120 H     1 <1>   0.1500 
 48 H      -14.2580    -0.9840    -0.6810 H     1 <1>   0.0800 
 49 H      -14.0020     0.4990    -1.5800 H     1 <1>   0.0800 
 50 H      -14.6800     0.5470     0.0250 H     1 <1>   0.0800 
@<TRIPOS>BOND
  1   1   2  1   
  2   1   3  1   
  3   2   4  ar  
  4   2   5  ar  
  5   3  24  1   
  6   3  25  1   
  7   3  26  1   
  8   4   6  ar  
  9   4  27  1   
 10   5   7  ar  
 11   5  28  1   
 12   6   8  ar  
 13   6  29  1   
 14   7   8  ar  
 15   7  30  1   
 16   8   9  1   
 17   9  10  1   
 18   9  31  1   
 19   9  32  1   
 20  10  11  1   
 21  10  12  1   
 22  10  33  1   
 23  11  13  1   
 24  11  34  1   
 25  11  35  1   
 26  12  14  1   
 27  12  36  1   
 28  12  37  1   
 29  13  15  1   
 30  13  38  1   
 31  13  39  1   
 32  14  15  1   
 33  14  40  1   
 34  14  41  1   
 35  15  16  1   
 36  16  17  ar  
 37  16  18  ar  
 38  17  19  ar  
 39  17  20  1   
 40  18  21  ar  
 41  18  42  1   
 42  19  22  ar  
 43  19  23  1   
 44  20  43  1   
 45  20  44  1   
 46  20  45  1   
 47  21  22  ar  
 48  21  46  1   
 49  22  47  1   
 50  23  48  1   
 51  23  49  1   
 52  23  50  1   
@<TRIPOS>SUBSTRUCTURE
  1 ****  11 GROUP 4 **** **** 0

# MOE 2024.06 (io_trps.svl 2023.06)
