@<TRIPOS>MOLECULE
NONAME
47 49 1 0 0 
SMALL
USER_CHARGES


@<TRIPOS>ATOM
  1 CL      -3.7240     1.2200     4.2500 Cl    1 <1>  -0.1770 
  2 C       -4.1820     0.4540     2.7530 C.ar  1 <1>   0.1770 
  3 C       -3.3760     0.5990     1.6400 C.ar  1 <1>  -0.1500 
  4 C       -5.3450    -0.2890     2.6960 C.ar  1 <1>  -0.1500 
  5 C       -3.7480    -0.0090     0.4520 C.ar  1 <1>  -0.1500 
  6 C       -5.7030    -0.8920     1.5020 C.ar  1 <1>  -0.1500 
  7 C       -4.9150    -0.7640     0.3600 C.ar  1 <1>  -0.0090 
  8 S       -5.4200    -1.5320    -1.2050 S.o2  1 <1>   1.4470 
  9 O       -4.3420    -1.4230    -2.1630 O.2   1 <1>  -0.6500 
 10 O       -6.0460    -2.8090    -0.9520 O.2   1 <1>  -0.6500 
 11 N       -6.6600    -0.4370    -1.7440 N.am  1 <1>  -0.6930 
 12 C       -7.8400    -0.2770    -1.0330 C.ar  1 <1>   0.1990 
 13 C       -6.2900     0.5400    -2.7960 C.3   1 <1>   0.1160 
 14 C       -8.7350    -1.3300    -0.8790 C.ar  1 <1>  -0.1500 
 15 C       -8.1540     0.9390    -0.4340 C.ar  1 <1>  -0.1500 
 16 C       -9.8990    -1.1730    -0.1520 C.ar  1 <1>  -0.1500 
 17 C       -9.3200     1.0940     0.2910 C.ar  1 <1>  -0.1500 
 18 C      -10.2260     0.0440     0.4460 C.ar  1 <1>   0.0860 
 19 C      -11.4520     0.1970     1.2030 C.2   1 <1>   0.5440 
 20 O      -11.7180    -0.6140     2.0720 O.2   1 <1>  -0.5700 
 21 N      -12.3330     1.2330     0.9670 N.am  1 <1>  -0.6600 
 22 C      -13.4700     1.4670     1.9080 C.3   1 <1>   0.1400 
 23 C      -12.3250     2.0230    -0.3020 C.3   1 <1>   0.1400 
 24 C      -14.0060     2.8950     1.7660 C.3   1 <1>  -0.1600 
 25 C      -13.7540     2.3720    -0.7280 C.3   1 <1>  -0.1600 
 26 C      -14.4970     3.1960     0.3380 C.3   1 <1>  -0.1600 
 27 H       -2.4730     1.1800     1.7070 H     1 <1>   0.1500 
 28 H       -5.9590    -0.3920     3.5730 H     1 <1>   0.1500 
 29 H       -3.1190     0.1040    -0.4170 H     1 <1>   0.1500 
 30 H       -6.6110    -1.4730     1.4550 H     1 <1>   0.1500 
 31 H       -5.9430     0.0150    -3.6700 H     1 <1>   0.0800 
 32 H       -5.5030     1.1830    -2.4400 H     1 <1>   0.0800 
 33 H       -7.1420     1.1370    -3.0700 H     1 <1>   0.0800 
 34 H       -8.5130    -2.2790    -1.3350 H     1 <1>   0.1500 
 35 H       -7.4720     1.7640    -0.5290 H     1 <1>   0.1500 
 36 H      -10.5750    -2.0030    -0.0350 H     1 <1>   0.1500 
 37 H       -9.5390     2.0390     0.7580 H     1 <1>   0.1500 
 38 H      -13.1370     1.3050     2.9190 H     1 <1>   0.0800 
 39 H      -14.2500     0.7570     1.6950 H     1 <1>   0.0800 
 40 H      -11.8520     1.4560    -1.0860 H     1 <1>   0.0800 
 41 H      -11.7630     2.9280    -0.1480 H     1 <1>   0.0800 
 42 H      -13.2160     3.5770     2.0280 H     1 <1>   0.0800 
 43 H      -14.8090     3.0500     2.4640 H     1 <1>   0.0800 
 44 H      -14.2840     1.4520    -0.9060 H     1 <1>   0.0800 
 45 H      -13.7340     2.9170    -1.6550 H     1 <1>   0.0800 
 46 H      -14.3660     4.2470     0.1440 H     1 <1>   0.0800 
 47 H      -15.5500     2.9820     0.2650 H     1 <1>   0.0800 
@<TRIPOS>BOND
  1   1   2  1   
  2   2   3  ar  
  3   2   4  ar  
  4   3   5  ar  
  5   3  27  1   
  6   4   6  ar  
  7   4  28  1   
  8   5   7  ar  
  9   5  29  1   
 10   6   7  ar  
 11   6  30  1   
 12   7   8  1   
 13   8   9  2   
 14   8  10  2   
 15   8  11  am  
 16  11  12  1   
 17  11  13  1   
 18  12  14  ar  
 19  12  15  ar  
 20  13  31  1   
 21  13  32  1   
 22  13  33  1   
 23  14  16  ar  
 24  14  34  1   
 25  15  17  ar  
 26  15  35  1   
 27  16  18  ar  
 28  16  36  1   
 29  17  18  ar  
 30  17  37  1   
 31  18  19  1   
 32  19  20  2   
 33  19  21  am  
 34  21  22  1   
 35  21  23  1   
 36  22  24  1   
 37  22  38  1   
 38  22  39  1   
 39  23  25  1   
 40  23  40  1   
 41  23  41  1   
 42  24  26  1   
 43  24  42  1   
 44  24  43  1   
 45  25  26  1   
 46  25  44  1   
 47  25  45  1   
 48  26  46  1   
 49  26  47  1   
@<TRIPOS>SUBSTRUCTURE
  1 ****  15 GROUP 4 **** **** 0

# MOE 2024.06 (io_trps.svl 2023.06)
