@<TRIPOS>MOLECULE
NONAME
41 42 1 0 0 
SMALL
USER_CHARGES


@<TRIPOS>ATOM
  1 O        0.4980    -0.3500    -1.0740 O.3   1 <1>  -0.5600 
  2 C        1.1410     0.7480    -0.4840 C.3   1 <1>   0.2000 
  3 C        0.2540    -1.4760    -0.2700 C.3   1 <1>   0.2000 
  4 C        2.5350     0.3380     0.0640 C.3   1 <1>   0.3430 
  5 C        0.2250     1.3710     0.5770 C.3   1 <1>  -0.2400 
  6 C        1.4460    -1.7760     0.6770 C.3   1 <1>   0.3430 
  7 C       -0.0070    -2.6320    -1.2340 C.3   1 <1>  -0.2400 
  8 N        2.7100    -1.1580     0.1620 N.4   1 <1>  -0.9590 
  9 C        3.9120    -1.5820     0.9280 C.3   1 <1>   0.3430 
 10 C        5.1840    -1.1580     0.1950 C.3   1 <1>  -0.1600 
 11 C        6.4360    -1.6970     0.8970 C.3   1 <1>  -0.0170 
 12 C        7.6730    -1.2280     0.1530 C.ar  1 <1>  -0.1440 
 13 C        8.1750    -1.9690    -0.9070 C.ar  1 <1>  -0.1500 
 14 C        8.3090    -0.0520     0.5210 C.ar  1 <1>  -0.1500 
 15 C        9.2960    -1.5360    -1.5930 C.ar  1 <1>  -0.1500 
 16 C        9.4300     0.3810    -0.1650 C.ar  1 <1>  -0.1500 
 17 C        9.9230    -0.3600    -1.2230 C.ar  1 <1>  -0.1500 
 18 H        1.2840     1.4760    -1.2660 H     1 <1>   0.0800 
 19 H       -0.6370    -1.2930     0.3080 H     1 <1>   0.0800 
 20 H        2.6680     0.7890     1.0330 H     1 <1>   0.0800 
 21 H        3.2910     0.7470    -0.5850 H     1 <1>   0.0800 
 22 H        0.0960     0.7300     1.4290 H     1 <1>   0.0800 
 23 H       -0.7370     1.5860     0.1440 H     1 <1>   0.0800 
 24 H        0.6450     2.3000     0.9200 H     1 <1>   0.0800 
 25 H        1.5580    -2.8440     0.7740 H     1 <1>   0.0800 
 26 H        1.2220    -1.3820     1.6540 H     1 <1>   0.0800 
 27 H        0.8520    -2.8190    -1.8520 H     1 <1>   0.0800 
 28 H       -0.8460    -2.3940    -1.8660 H     1 <1>   0.0800 
 29 H       -0.2460    -3.5280    -0.6900 H     1 <1>   0.0800 
 30 H        2.7910    -1.4870    -0.8120 H     1 <1>   0.4500 
 31 H        3.9120    -2.6560     1.0300 H     1 <1>   0.0800 
 32 H        3.8960    -1.1490     1.9150 H     1 <1>   0.0800 
 33 H        5.2550    -0.0860     0.1590 H     1 <1>   0.0800 
 34 H        5.1690    -1.5370    -0.8130 H     1 <1>   0.0800 
 35 H        6.4220    -2.7730     0.9200 H     1 <1>   0.0800 
 36 H        6.4780    -1.3460     1.9140 H     1 <1>   0.0800 
 37 H        7.7000    -2.8860    -1.2060 H     1 <1>   0.1500 
 38 H        7.9390     0.5360     1.3430 H     1 <1>   0.1500 
 39 H        9.6820    -2.1140    -2.4150 H     1 <1>   0.1500 
 40 H        9.9210     1.2940     0.1250 H     1 <1>   0.1500 
 41 H       10.7950    -0.0240    -1.7570 H     1 <1>   0.1500 
@<TRIPOS>BOND
  1   1   2  1   
  2   1   3  1   
  3   2   4  1   
  4   2   5  1   
  5   2  18  1   
  6   3   6  1   
  7   3   7  1   
  8   3  19  1   
  9   4   8  1   
 10   4  20  1   
 11   4  21  1   
 12   5  22  1   
 13   5  23  1   
 14   5  24  1   
 15   6   8  1   
 16   6  25  1   
 17   6  26  1   
 18   7  27  1   
 19   7  28  1   
 20   7  29  1   
 21   8   9  1   
 22   8  30  1   
 23   9  10  1   
 24   9  31  1   
 25   9  32  1   
 26  10  11  1   
 27  10  33  1   
 28  10  34  1   
 29  11  12  1   
 30  11  35  1   
 31  11  36  1   
 32  12  13  ar  
 33  12  14  ar  
 34  13  15  ar  
 35  13  37  1   
 36  14  16  ar  
 37  14  38  1   
 38  15  17  ar  
 39  15  39  1   
 40  16  17  ar  
 41  16  40  1   
 42  17  41  1   
@<TRIPOS>SUBSTRUCTURE
  1 ****  10 GROUP 4 **** **** 0

# MOE 2024.06 (io_trps.svl 2023.06)
