@<TRIPOS>MOLECULE
NONAME
41 44 1 0 0 
SMALL
USER_CHARGES


@<TRIPOS>ATOM
  1 O       -1.3700     0.3470     0.7720 O.2   1 <1>  -0.5700 
  2 C       -1.9150    -0.6870     0.5320 C.2   1 <1>   0.4480 
  3 C       -1.2170    -2.0320     0.4920 C.3   1 <1>   0.0610 
  4 C       -3.3670    -0.7500     0.1490 C.3   1 <1>  -0.0190 
  5 C       -1.2590    -2.4710    -0.9790 C.3   1 <1>   0.3430 
  6 C       -1.9960    -3.0080     1.3980 C.3   1 <1>   0.1100 
  7 C        0.2570    -1.9230     0.9580 C.3   1 <1>  -0.0170 
  8 C       -3.4350    -1.1960    -1.3130 C.3   1 <1>   0.3430 
  9 C       -4.0850    -1.6960     1.1110 C.3   1 <1>   0.1100 
 10 N       -2.6280    -2.4350    -1.6210 N.4   1 <1>  -0.9590 
 11 N       -3.4440    -3.0160     1.1210 N.3   1 <1>  -0.8100 
 12 C        1.0510    -3.1910     0.6720 C.ar  1 <1>  -0.1440 
 13 C       -3.3820    -3.7140    -1.3600 C.3   1 <1>   0.3430 
 14 C       -3.8990    -3.9530     0.0770 C.3   1 <1>   0.1100 
 15 C        1.0240    -4.2560     1.5630 C.ar  1 <1>  -0.1500 
 16 C        1.8140    -3.2920    -0.4850 C.ar  1 <1>  -0.1500 
 17 C        1.7190    -5.4180     1.2840 C.ar  1 <1>  -0.1500 
 18 C        2.5140    -4.4520    -0.7660 C.ar  1 <1>  -0.1500 
 19 C        2.4570    -5.5160     0.1190 C.ar  1 <1>   0.0820 
 20 O        3.1210    -6.6510    -0.1390 O.3   1 <1>  -0.5330 
 21 H       -3.8030     0.2290     0.2380 H     1 <1>   0.0800 
 22 H       -0.8470    -3.4640    -1.0590 H     1 <1>   0.0800 
 23 H       -0.6080    -1.8110    -1.5290 H     1 <1>   0.0800 
 24 H       -1.8600    -2.7120     2.4250 H     1 <1>   0.0800 
 25 H       -1.6110    -4.0090     1.3010 H     1 <1>   0.0800 
 26 H        0.2930    -1.7020     2.0120 H     1 <1>   0.0800 
 27 H        0.7390    -1.0980     0.4590 H     1 <1>   0.0800 
 28 H       -4.4650    -1.3520    -1.5920 H     1 <1>   0.0800 
 29 H       -3.0570    -0.3850    -1.9150 H     1 <1>   0.0800 
 30 H       -5.1270    -1.7890     0.8530 H     1 <1>   0.0800 
 31 H       -4.0360    -1.2860     2.1070 H     1 <1>   0.0800 
 32 H       -2.4620    -2.4260    -2.6370 H     1 <1>   0.4500 
 33 H       -2.7500    -4.5470    -1.6200 H     1 <1>   0.0800 
 34 H       -4.2320    -3.7630    -2.0220 H     1 <1>   0.0800 
 35 H       -4.9750    -3.9470     0.0570 H     1 <1>   0.0800 
 36 H       -3.6180    -4.9500     0.3710 H     1 <1>   0.0800 
 37 H        0.4680    -4.1920     2.4830 H     1 <1>   0.1500 
 38 H        1.8790    -2.4670    -1.1730 H     1 <1>   0.1500 
 39 H        1.7000    -6.2500     1.9670 H     1 <1>   0.1500 
 40 H        3.1030    -4.5230    -1.6620 H     1 <1>   0.1500 
 41 H        3.6650    -6.6090    -0.9460 H     1 <1>   0.4500 
@<TRIPOS>BOND
  1   1   2  2   
  2   2   3  1   
  3   2   4  1   
  4   3   5  1   
  5   3   6  1   
  6   3   7  1   
  7   4   8  1   
  8   4   9  1   
  9   4  21  1   
 10   5  10  1   
 11   5  22  1   
 12   5  23  1   
 13   6  11  1   
 14   6  24  1   
 15   6  25  1   
 16   7  12  1   
 17   7  26  1   
 18   7  27  1   
 19   8  10  1   
 20   8  28  1   
 21   8  29  1   
 22   9  11  1   
 23   9  30  1   
 24   9  31  1   
 25  10  13  1   
 26  10  32  1   
 27  11  14  1   
 28  12  15  ar  
 29  12  16  ar  
 30  13  14  1   
 31  13  33  1   
 32  13  34  1   
 33  14  35  1   
 34  14  36  1   
 35  15  17  ar  
 36  15  37  1   
 37  16  18  ar  
 38  16  38  1   
 39  17  19  ar  
 40  17  39  1   
 41  18  19  ar  
 42  18  40  1   
 43  19  20  1   
 44  20  41  1   
@<TRIPOS>SUBSTRUCTURE
  1 ****   3 GROUP 4 **** **** 0

# MOE 2024.06 (io_trps.svl 2023.06)
