@<TRIPOS>MOLECULE
NONAME
54 57 1 0 0 
SMALL
USER_CHARGES


@<TRIPOS>ATOM
  1 O       -0.0500     2.4340     1.6860 O.2   1 <1>  -0.5700 
  2 C       -0.3210     2.0210     0.5880 C.2   1 <1>   0.6590 
  3 O       -0.8800     0.8270     0.4220 O.3   1 <1>  -0.4300 
  4 C       -0.0440     2.7950    -0.6980 C.3   1 <1>  -0.0190 
  5 C       -1.1780    -0.0170     1.5140 C.3   1 <1>   0.0400 
  6 C        1.4600     3.0300    -0.9120 C.3   1 <1>  -0.0190 
  7 C       -0.8350     4.1160    -0.8460 C.3   1 <1>   0.0580 
  8 C        2.2090     1.6980    -1.0680 C.2   1 <1>   0.4230 
  9 C        2.0580     4.0600     0.0800 C.3   1 <1>   0.0580 
 10 C       -0.1460     5.3100    -0.1660 C.2   1 <1>  -0.2760 
 11 C       -2.2960     3.9160    -0.3720 C.3   1 <1>  -0.1600 
 12 O        1.9280     1.0610    -2.0510 O.2   1 <1>  -0.5700 
 13 C        3.2400     1.2340    -0.1610 C.ar  1 <1>   0.0860 
 14 C        1.1130     5.2520     0.3130 C.2   1 <1>  -0.2760 
 15 C        3.4160     4.5480    -0.4810 C.3   1 <1>  -0.1600 
 16 C       -1.0440     6.5570    -0.1500 C.3   1 <1>  -0.0220 
 17 C       -3.1260     5.1960    -0.4550 C.3   1 <1>  -0.1600 
 18 C        4.4670     0.8270    -0.6890 C.ar  1 <1>  -0.1500 
 19 C        3.0910     1.1470     1.2250 C.ar  1 <1>  -0.1500 
 20 C        1.7930     6.3320     1.1650 C.3   1 <1>  -0.0220 
 21 C        4.0670     5.6320     0.3800 C.3   1 <1>  -0.1600 
 22 C       -2.4520     6.2840     0.3780 C.3   1 <1>  -0.1600 
 23 C        5.5000     0.3860     0.1180 C.ar  1 <1>  -0.1500 
 24 C        4.1180     0.7090     2.0400 C.ar  1 <1>  -0.1500 
 25 C        3.1070     6.8090     0.5490 C.3   1 <1>  -0.1600 
 26 C        5.3280     0.3300     1.4890 C.ar  1 <1>  -0.1500 
 27 H       -0.3820     2.1610    -1.4990 H     1 <1>   0.0800 
 28 H       -0.2640    -0.2520     2.0310 H     1 <1>   0.0800 
 29 H       -1.6320    -0.9160     1.1350 H     1 <1>   0.0800 
 30 H       -1.8580     0.4940     2.1730 H     1 <1>   0.0800 
 31 H        1.5260     3.4930    -1.8810 H     1 <1>   0.0800 
 32 H       -0.8720     4.3510    -1.8960 H     1 <1>   0.0800 
 33 H        2.2230     3.6080     1.0390 H     1 <1>   0.0800 
 34 H       -2.3110     3.6010     0.6560 H     1 <1>   0.0800 
 35 H       -2.7660     3.1480    -0.9610 H     1 <1>   0.0800 
 36 H        3.2650     4.9520    -1.4680 H     1 <1>   0.0800 
 37 H        4.1080     3.7310    -0.5670 H     1 <1>   0.0800 
 38 H       -1.1260     6.9120    -1.1630 H     1 <1>   0.0800 
 39 H       -0.6310     7.3640     0.4160 H     1 <1>   0.0800 
 40 H       -4.1160     5.0100    -0.0760 H     1 <1>   0.0800 
 41 H       -3.2130     5.5140    -1.4800 H     1 <1>   0.0800 
 42 H        4.6070     0.8570    -1.7560 H     1 <1>   0.1500 
 43 H        2.1600     1.4170     1.6850 H     1 <1>   0.1500 
 44 H        1.9990     5.9090     2.1340 H     1 <1>   0.0800 
 45 H        1.1740     7.1850     1.3420 H     1 <1>   0.0800 
 46 H        4.9760     5.9700    -0.0860 H     1 <1>   0.0800 
 47 H        4.3180     5.2250     1.3450 H     1 <1>   0.0800 
 48 H       -3.0350     7.1870     0.3340 H     1 <1>   0.0800 
 49 H       -2.3900     5.9740     1.4080 H     1 <1>   0.0800 
 50 H        6.4360     0.0840    -0.3190 H     1 <1>   0.1500 
 51 H        3.9750     0.6600     3.1070 H     1 <1>   0.1500 
 52 H        3.5550     7.5530     1.1840 H     1 <1>   0.0800 
 53 H        2.9070     7.2600    -0.4080 H     1 <1>   0.0800 
 54 H        6.1290    -0.0100     2.1220 H     1 <1>   0.1500 
@<TRIPOS>BOND
  1   1   2  2   
  2   2   3  1   
  3   2   4  1   
  4   3   5  1   
  5   4   6  1   
  6   4   7  1   
  7   4  27  1   
  8   5  28  1   
  9   5  29  1   
 10   5  30  1   
 11   6   8  1   
 12   6   9  1   
 13   6  31  1   
 14   7  10  1   
 15   7  11  1   
 16   7  32  1   
 17   8  12  2   
 18   8  13  1   
 19   9  14  1   
 20   9  15  1   
 21   9  33  1   
 22  10  14  2   
 23  10  16  1   
 24  11  17  1   
 25  11  34  1   
 26  11  35  1   
 27  13  18  ar  
 28  13  19  ar  
 29  14  20  1   
 30  15  21  1   
 31  15  36  1   
 32  15  37  1   
 33  16  22  1   
 34  16  38  1   
 35  16  39  1   
 36  17  22  1   
 37  17  40  1   
 38  17  41  1   
 39  18  23  ar  
 40  18  42  1   
 41  19  24  ar  
 42  19  43  1   
 43  20  25  1   
 44  20  44  1   
 45  20  45  1   
 46  21  25  1   
 47  21  46  1   
 48  21  47  1   
 49  22  48  1   
 50  22  49  1   
 51  23  26  ar  
 52  23  50  1   
 53  24  26  ar  
 54  24  51  1   
 55  25  52  1   
 56  25  53  1   
 57  26  54  1   
@<TRIPOS>SUBSTRUCTURE
  1 ****   6 GROUP 4 **** **** 0

# MOE 2024.06 (io_trps.svl 2023.06)
