@<TRIPOS>MOLECULE
NONAME
40 41 1 0 0 
SMALL
USER_CHARGES


@<TRIPOS>ATOM
  1 S       -0.1210     0.2360    -0.6410 S.3   1 <1>  -0.3320 
  2 C        1.6510     0.1000    -0.3420 C.ar  1 <1>   0.1020 
  3 C       -0.8780    -1.3440    -0.0780 C.3   1 <1>   0.0700 
  4 C        2.4320     1.1850    -0.6960 C.ar  1 <1>  -0.1500 
  5 C        2.2240    -1.0330     0.2150 C.ar  1 <1>  -0.1500 
  6 C       -2.3820    -1.2260    -0.3290 C.3   1 <1>  -0.1600 
  7 C        3.8000     1.1400    -0.4900 C.ar  1 <1>  -0.1500 
  8 C        3.5930    -1.0700     0.4180 C.ar  1 <1>  -0.1500 
  9 C       -3.1120    -2.4930     0.1120 C.3   1 <1>   0.3430 
 10 C        4.3850     0.0140     0.0680 C.ar  1 <1>  -0.1440 
 11 N       -4.5570    -2.4060    -0.2330 N.4   1 <1>  -0.9590 
 12 C        5.8860    -0.0350     0.2910 C.3   1 <1>  -0.0970 
 13 C       -5.2930    -1.3930     0.6110 C.3   1 <1>   0.3430 
 14 C       -5.2170    -3.7550    -0.1170 C.3   1 <1>   0.3430 
 15 C       -6.8010    -1.3560     0.2800 C.3   1 <1>   0.1100 
 16 C       -6.7250    -3.6890    -0.4420 C.3   1 <1>   0.1100 
 17 N       -7.4060    -2.6910     0.3960 N.3   1 <1>  -0.9000 
 18 H       -0.6470    -1.4520     0.9680 H     1 <1>   0.0800 
 19 H       -0.4280    -2.1350    -0.6540 H     1 <1>   0.0800 
 20 H        1.9730     2.0550    -1.1280 H     1 <1>   0.1500 
 21 H        1.6350    -1.8820     0.4940 H     1 <1>   0.1500 
 22 H       -2.5380    -1.0630    -1.3810 H     1 <1>   0.0800 
 23 H       -2.7450    -0.3750     0.2170 H     1 <1>   0.0800 
 24 H        4.4060     1.9850    -0.7680 H     1 <1>   0.1500 
 25 H        4.0430    -1.9470     0.8490 H     1 <1>   0.1500 
 26 H       -2.9940    -2.6360     1.1750 H     1 <1>   0.0800 
 27 H       -2.6730    -3.3400    -0.3920 H     1 <1>   0.0800 
 28 H       -4.6440    -2.1080    -1.2130 H     1 <1>   0.4500 
 29 H        6.2720     0.9530     0.4690 H     1 <1>   0.0800 
 30 H        6.3690    -0.4450    -0.5770 H     1 <1>   0.0800 
 31 H        6.1210    -0.6480     1.1430 H     1 <1>   0.0800 
 32 H       -4.8780    -0.4110     0.4590 H     1 <1>   0.0800 
 33 H       -5.1840    -1.6430     1.6530 H     1 <1>   0.0800 
 34 H       -5.1070    -4.1260     0.8890 H     1 <1>   0.0800 
 35 H       -4.7430    -4.4560    -0.7840 H     1 <1>   0.0800 
 36 H       -6.9470    -0.9720    -0.7160 H     1 <1>   0.0800 
 37 H       -7.2950    -0.6880     0.9660 H     1 <1>   0.0800 
 38 H       -7.1660    -4.6550    -0.2630 H     1 <1>   0.0800 
 39 H       -6.8650    -3.4510    -1.4840 H     1 <1>   0.0800 
 40 H       -8.4080    -2.6460     0.1450 H     1 <1>   0.3600 
@<TRIPOS>BOND
  1   1   2  1   
  2   1   3  1   
  3   2   4  ar  
  4   2   5  ar  
  5   3   6  1   
  6   3  18  1   
  7   3  19  1   
  8   4   7  ar  
  9   4  20  1   
 10   5   8  ar  
 11   5  21  1   
 12   6   9  1   
 13   6  22  1   
 14   6  23  1   
 15   7  10  ar  
 16   7  24  1   
 17   8  10  ar  
 18   8  25  1   
 19   9  11  1   
 20   9  26  1   
 21   9  27  1   
 22  10  12  1   
 23  11  13  1   
 24  11  14  1   
 25  11  28  1   
 26  12  29  1   
 27  12  30  1   
 28  12  31  1   
 29  13  15  1   
 30  13  32  1   
 31  13  33  1   
 32  14  16  1   
 33  14  34  1   
 34  14  35  1   
 35  15  17  1   
 36  15  36  1   
 37  15  37  1   
 38  16  17  1   
 39  16  38  1   
 40  16  39  1   
 41  17  40  1   
@<TRIPOS>SUBSTRUCTURE
  1 ****   3 GROUP 4 **** **** 0

# MOE 2024.06 (io_trps.svl 2023.06)
