@<TRIPOS>MOLECULE
NONAME
39 39 1 0 0 
SMALL
USER_CHARGES


@<TRIPOS>ATOM
  1 O        0.0020    -0.6400     0.5730 O.2   1 <1>  -0.5700 
  2 C        0.1160    -1.7790     0.1520 C.2   1 <1>   0.6900 
  3 N       -1.0050    -2.4570    -0.2590 N.am  1 <1>  -0.6600 
  4 N        1.3610    -2.3690     0.1030 N.am  1 <1>  -0.6600 
  5 C       -2.1700    -1.6940    -0.8020 C.3   1 <1>   0.1400 
  6 C       -1.3060    -3.7800     0.3650 C.3   1 <1>   0.1400 
  7 C        2.4850    -1.7730     0.8790 C.3   1 <1>   0.1400 
  8 C        1.7180    -3.3510    -0.9600 C.3   1 <1>   0.1400 
  9 C       -3.4010    -1.8910     0.0960 C.3   1 <1>  -0.0800 
 10 C       -2.6530    -4.3440    -0.1150 C.3   1 <1>  -0.0800 
 11 C        3.2860    -0.8000     0.0150 C.3   1 <1>  -0.2400 
 12 C        2.3050    -4.6270    -0.3540 C.3   1 <1>  -0.2400 
 13 C       -3.8150    -3.3750     0.1820 C.3   1 <1>  -0.1600 
 14 C       -4.5750    -1.0220    -0.3730 C.3   1 <1>  -0.2400 
 15 C       -2.9270    -5.7210     0.5020 C.3   1 <1>  -0.2400 
 16 H       -2.3820    -2.0420    -1.7970 H     1 <1>   0.0800 
 17 H       -1.9310    -0.6460    -0.8650 H     1 <1>   0.0800 
 18 H       -1.3250    -3.6580     1.4350 H     1 <1>   0.0800 
 19 H       -0.5260    -4.4760     0.1220 H     1 <1>   0.0800 
 20 H        3.1240    -2.5490     1.2580 H     1 <1>   0.0800 
 21 H        2.0860    -1.2430     1.7290 H     1 <1>   0.0800 
 22 H        2.4270    -2.9070    -1.6360 H     1 <1>   0.0800 
 23 H        0.8450    -3.6000    -1.5380 H     1 <1>   0.0800 
 24 H       -3.1210    -1.5560     1.0810 H     1 <1>   0.0800 
 25 H       -2.5800    -4.4730    -1.1820 H     1 <1>   0.0800 
 26 H        3.7820    -1.3140    -0.7870 H     1 <1>   0.0800 
 27 H        4.0310    -0.3160     0.6180 H     1 <1>   0.0800 
 28 H        2.6330    -0.0460    -0.3880 H     1 <1>   0.0800 
 29 H        3.2760    -4.4370     0.0650 H     1 <1>   0.0800 
 30 H        2.4160    -5.3690    -1.1240 H     1 <1>   0.0800 
 31 H        1.6570    -5.0180     0.4090 H     1 <1>   0.0800 
 32 H       -4.6070    -3.5830    -0.5170 H     1 <1>   0.0800 
 33 H       -4.2040    -3.5530     1.1700 H     1 <1>   0.0800 
 34 H       -4.8730    -1.2910    -1.3720 H     1 <1>   0.0800 
 35 H       -4.2940     0.0160    -0.3670 H     1 <1>   0.0800 
 36 H       -5.4170    -1.1480     0.2850 H     1 <1>   0.0800 
 37 H       -2.9820    -5.6530     1.5750 H     1 <1>   0.0800 
 38 H       -2.1430    -6.4100     0.2410 H     1 <1>   0.0800 
 39 H       -3.8590    -6.1140     0.1340 H     1 <1>   0.0800 
@<TRIPOS>BOND
  1   1   2  2   
  2   2   3  am  
  3   2   4  am  
  4   3   5  1   
  5   3   6  1   
  6   4   7  1   
  7   4   8  1   
  8   5   9  1   
  9   5  16  1   
 10   5  17  1   
 11   6  10  1   
 12   6  18  1   
 13   6  19  1   
 14   7  11  1   
 15   7  20  1   
 16   7  21  1   
 17   8  12  1   
 18   8  22  1   
 19   8  23  1   
 20   9  13  1   
 21   9  14  1   
 22   9  24  1   
 23  10  13  1   
 24  10  15  1   
 25  10  25  1   
 26  11  26  1   
 27  11  27  1   
 28  11  28  1   
 29  12  29  1   
 30  12  30  1   
 31  12  31  1   
 32  13  32  1   
 33  13  33  1   
 34  14  34  1   
 35  14  35  1   
 36  14  36  1   
 37  15  37  1   
 38  15  38  1   
 39  15  39  1   
@<TRIPOS>SUBSTRUCTURE
  1 ****   3 GROUP 4 **** **** 0

# MOE 2024.06 (io_trps.svl 2023.06)
