@<TRIPOS>MOLECULE
NONAME
32 33 1 0 0 
SMALL
USER_CHARGES


@<TRIPOS>ATOM
  1 O       -0.4830     0.4000    -0.3770 O.3   1 <1>  -0.5600 
  2 C       -1.2330     0.7990     0.7340 C.3   1 <1>   0.3000 
  3 C        0.8810     0.2950    -0.1320 C.3   1 <1>   0.0400 
  4 C       -2.6890     1.0200     0.3450 C.2   1 <1>   0.0060 
  5 N       -3.3350     2.0890     0.6690 N.2   1 <1>  -0.5650 
  6 N       -3.4370     0.1100    -0.3480 N.pl3 1 <1>   0.0480 
  7 C       -4.5820     1.9000     0.1630 C.ar  1 <1>   0.2270 
  8 C       -4.6690     0.6750    -0.4700 C.ar  1 <1>  -0.1520 
  9 C       -3.0940    -1.2610    -0.7820 C.3   1 <1>   0.0960 
 10 C       -5.6940     2.7390     0.2180 C.ar  1 <1>  -0.1500 
 11 C       -5.8640     0.2550    -1.0620 C.ar  1 <1>  -0.1500 
 12 C       -3.5700    -2.2600     0.2690 C.3   1 <1>   0.1200 
 13 C       -6.8750     2.3320    -0.3630 C.ar  1 <1>  -0.1500 
 14 C       -6.9590     1.0890    -1.0030 C.ar  1 <1>  -0.1500 
 15 O       -3.2620    -3.5410    -0.1780 O.3   1 <1>  -0.5600 
 16 C       -3.6610    -4.5520     0.6910 C.3   1 <1>   0.0400 
 17 H       -0.8240     1.7190     1.1130 H     1 <1>   0.0800 
 18 H       -1.1640     0.0360     1.4880 H     1 <1>   0.0800 
 19 H        1.3600    -0.0240    -1.0410 H     1 <1>   0.0800 
 20 H        1.0510    -0.4330     0.6430 H     1 <1>   0.0800 
 21 H        1.2650     1.2580     0.1590 H     1 <1>   0.0800 
 22 H       -2.0340    -1.3500    -0.9170 H     1 <1>   0.0800 
 23 H       -3.5790    -1.4570    -1.7190 H     1 <1>   0.0800 
 24 H       -5.5980     3.6860     0.7150 H     1 <1>   0.1500 
 25 H       -5.9210    -0.7000    -1.5550 H     1 <1>   0.1500 
 26 H       -4.6370    -2.1880     0.4000 H     1 <1>   0.0800 
 27 H       -3.0650    -2.0910     1.2050 H     1 <1>   0.0800 
 28 H       -7.7430     2.9670    -0.3300 H     1 <1>   0.1500 
 29 H       -7.8910     0.7920    -1.4510 H     1 <1>   0.1500 
 30 H       -3.3790    -5.4960     0.2560 H     1 <1>   0.0800 
 31 H       -4.7290    -4.5150     0.8140 H     1 <1>   0.0800 
 32 H       -3.1640    -4.4270     1.6370 H     1 <1>   0.0800 
@<TRIPOS>BOND
  1   1   2  1   
  2   1   3  1   
  3   2   4  1   
  4   2  17  1   
  5   2  18  1   
  6   3  19  1   
  7   3  20  1   
  8   3  21  1   
  9   4   5  2   
 10   4   6  1   
 11   5   7  1   
 12   6   8  1   
 13   6   9  1   
 14   7   8  ar  
 15   7  10  ar  
 16   8  11  ar  
 17   9  12  1   
 18   9  22  1   
 19   9  23  1   
 20  10  13  ar  
 21  10  24  1   
 22  11  14  ar  
 23  11  25  1   
 24  12  15  1   
 25  12  26  1   
 26  12  27  1   
 27  13  14  ar  
 28  13  28  1   
 29  14  29  1   
 30  15  16  1   
 31  16  30  1   
 32  16  31  1   
 33  16  32  1   
@<TRIPOS>SUBSTRUCTURE
  1 ****   6 GROUP 4 **** **** 0

# MOE 2024.06 (io_trps.svl 2023.06)
