@<TRIPOS>MOLECULE
NONAME
45 46 1 0 0 
SMALL
USER_CHARGES


@<TRIPOS>ATOM
  1 O        1.0230    -3.5440     1.3430 O.2   1 <1>  -0.5700 
  2 C        0.0850    -2.7820     1.3510 C.2   1 <1>   0.5690 
  3 N        0.1060    -1.5560     0.7450 N.am  1 <1>  -0.5470 
  4 C       -1.2010    -3.2110     2.0690 C.3   1 <1>   0.2610 
  5 C        1.1150    -0.9440    -0.0140 C.ar  1 <1>   0.1170 
  6 O       -2.3410    -2.5790     1.4940 O.3   1 <1>  -0.3630 
  7 C       -1.1570    -2.8470     3.5630 C.3   1 <1>  -0.1600 
  8 C        0.8500    -0.6140    -1.3470 C.ar  1 <1>  -0.1440 
  9 C        2.3620    -0.6270     0.5350 C.ar  1 <1>  -0.1440 
 10 C       -2.7630    -2.8550     0.2330 C.ar  1 <1>   0.0820 
 11 C       -2.4080    -3.2960     4.3330 C.3   1 <1>  -0.2400 
 12 C        1.8220     0.0080    -2.1120 C.ar  1 <1>  -0.1500 
 13 C       -0.4930    -0.9390    -1.9910 C.3   1 <1>  -0.0970 
 14 C        3.3220    -0.0090    -0.2480 C.ar  1 <1>  -0.1500 
 15 C        2.7080    -0.9330     1.9880 C.3   1 <1>  -0.0970 
 16 C       -3.7510    -2.0320    -0.2820 C.ar  1 <1>  -0.1500 
 17 C       -2.2530    -3.8880    -0.5500 C.ar  1 <1>  -0.1500 
 18 C        3.0560     0.3080    -1.5670 C.ar  1 <1>  -0.1500 
 19 C       -4.2290    -2.2180    -1.5690 C.ar  1 <1>  -0.1440 
 20 C       -2.7320    -4.0780    -1.8340 C.ar  1 <1>  -0.1500 
 21 C       -3.7140    -3.2450    -2.3420 C.ar  1 <1>  -0.1500 
 22 C       -5.3090    -1.3120    -2.1310 C.3   1 <1>  -0.0970 
 23 H       -0.8160    -1.1270     0.6590 H     1 <1>   0.3700 
 24 H       -1.3250    -4.2750     1.9750 H     1 <1>   0.0800 
 25 H       -1.0290    -1.7830     3.6640 H     1 <1>   0.0800 
 26 H       -0.2940    -3.3180     4.0010 H     1 <1>   0.0800 
 27 H       -3.2860    -2.8050     3.9510 H     1 <1>   0.0800 
 28 H       -2.3080    -3.0480     5.3750 H     1 <1>   0.0800 
 29 H       -2.5430    -4.3600     4.2460 H     1 <1>   0.0800 
 30 H        1.6290     0.2600    -3.1390 H     1 <1>   0.1500 
 31 H       -0.6400    -2.0040    -2.0020 H     1 <1>   0.0800 
 32 H       -0.5330    -0.5860    -3.0050 H     1 <1>   0.0800 
 33 H       -1.2950    -0.4810    -1.4430 H     1 <1>   0.0800 
 34 H        4.2860     0.2290     0.1640 H     1 <1>   0.1500 
 35 H        3.5310    -0.3280     2.3210 H     1 <1>   0.0800 
 36 H        1.8680    -0.7340     2.6270 H     1 <1>   0.0800 
 37 H        2.9840    -1.9670     2.0840 H     1 <1>   0.0800 
 38 H       -4.1440    -1.2450     0.3360 H     1 <1>   0.1500 
 39 H       -1.4890    -4.5510    -0.1900 H     1 <1>   0.1500 
 40 H        3.8090     0.7880    -2.1680 H     1 <1>   0.1500 
 41 H       -2.3390    -4.8750    -2.4410 H     1 <1>   0.1500 
 42 H       -4.0780    -3.4030    -3.3420 H     1 <1>   0.1500 
 43 H       -5.3860    -0.4070    -1.5560 H     1 <1>   0.0800 
 44 H       -6.2570    -1.8190    -2.1060 H     1 <1>   0.0800 
 45 H       -5.0820    -1.0500    -3.1490 H     1 <1>   0.0800 
@<TRIPOS>BOND
  1   1   2  2   
  2   2   3  am  
  3   2   4  1   
  4   3   5  1   
  5   3  23  1   
  6   4   6  1   
  7   4   7  1   
  8   4  24  1   
  9   5   8  ar  
 10   5   9  ar  
 11   6  10  1   
 12   7  11  1   
 13   7  25  1   
 14   7  26  1   
 15   8  12  ar  
 16   8  13  1   
 17   9  14  ar  
 18   9  15  1   
 19  10  16  ar  
 20  10  17  ar  
 21  11  27  1   
 22  11  28  1   
 23  11  29  1   
 24  12  18  ar  
 25  12  30  1   
 26  13  31  1   
 27  13  32  1   
 28  13  33  1   
 29  14  18  ar  
 30  14  34  1   
 31  15  35  1   
 32  15  36  1   
 33  15  37  1   
 34  16  19  ar  
 35  16  38  1   
 36  17  20  ar  
 37  17  39  1   
 38  18  40  1   
 39  19  21  ar  
 40  19  22  1   
 41  20  21  ar  
 42  20  41  1   
 43  21  42  1   
 44  22  43  1   
 45  22  44  1   
 46  22  45  1   
@<TRIPOS>SUBSTRUCTURE
  1 ****   3 GROUP 4 **** **** 0

# MOE 2024.06 (io_trps.svl 2023.06)
