@<TRIPOS>MOLECULE
NONAME
31 32 1 0 0 
SMALL
USER_CHARGES


@<TRIPOS>ATOM
  1 S        4.2400    -2.7840    -0.4910 S.3   1 <1>  -0.0800 
  2 C        2.5200    -2.5010    -0.1990 C.2   1 <1>  -0.0450 
  3 C        4.7150    -1.6430     0.7460 C.2   1 <1>  -0.1100 
  4 C        1.5570    -3.2220    -0.9850 C.2   1 <1>   0.8050 
  5 C        2.3980    -1.5800     0.7940 C.2   1 <1>  -0.1500 
  6 C        3.6300    -1.0980     1.3240 C.2   1 <1>  -0.1500 
  7 O        1.8370    -4.0080    -1.8650 O.2   1 <1>  -0.5700 
  8 O        0.2610    -3.0070    -0.7140 O.3   1 <1>  -0.4300 
  9 C       -0.7720    -3.6810    -1.4210 C.3   1 <1>   0.2000 
 10 C       -2.0540    -2.8330    -1.3190 C.3   1 <1>   0.3430 
 11 C       -1.0100    -5.0620    -0.7770 C.3   1 <1>  -0.1600 
 12 N       -2.4410    -2.5540     0.1170 N.4   1 <1>  -0.9590 
 13 C       -2.0430    -5.0230     0.3710 C.3   1 <1>  -0.1600 
 14 C       -2.0910    -3.6620     1.0750 C.3   1 <1>   0.3430 
 15 C       -3.8840    -2.1800     0.2170 C.3   1 <1>   0.2630 
 16 H        5.7690    -1.4980     0.9120 H     1 <1>   0.1500 
 17 H        1.4650    -1.2120     1.1800 H     1 <1>   0.1500 
 18 H        3.6530    -0.3670     2.1140 H     1 <1>   0.1500 
 19 H       -0.4830    -3.7830    -2.4540 H     1 <1>   0.0800 
 20 H       -2.8470    -3.3780    -1.8020 H     1 <1>   0.0800 
 21 H       -1.9160    -1.9090    -1.8550 H     1 <1>   0.0800 
 22 H       -0.0740    -5.4640    -0.4260 H     1 <1>   0.0800 
 23 H       -1.3720    -5.7390    -1.5310 H     1 <1>   0.0800 
 24 H       -1.8760    -1.7430     0.4110 H     1 <1>   0.4500 
 25 H       -1.7990    -5.7860     1.0900 H     1 <1>   0.0800 
 26 H       -3.0240    -5.2510    -0.0090 H     1 <1>   0.0800 
 27 H       -2.7990    -3.6910     1.8880 H     1 <1>   0.0800 
 28 H       -1.1160    -3.4690     1.4940 H     1 <1>   0.0800 
 29 H       -4.5070    -3.0100    -0.0760 H     1 <1>   0.0800 
 30 H       -4.1010    -1.3420    -0.4260 H     1 <1>   0.0800 
 31 H       -4.1310    -1.9060     1.2300 H     1 <1>   0.0800 
@<TRIPOS>BOND
  1   1   2  1   
  2   1   3  1   
  3   2   4  1   
  4   2   5  2   
  5   3   6  2   
  6   3  16  1   
  7   4   7  2   
  8   4   8  1   
  9   5   6  1   
 10   5  17  1   
 11   6  18  1   
 12   8   9  1   
 13   9  10  1   
 14   9  11  1   
 15   9  19  1   
 16  10  12  1   
 17  10  20  1   
 18  10  21  1   
 19  11  13  1   
 20  11  22  1   
 21  11  23  1   
 22  12  14  1   
 23  12  15  1   
 24  12  24  1   
 25  13  14  1   
 26  13  25  1   
 27  13  26  1   
 28  14  27  1   
 29  14  28  1   
 30  15  29  1   
 31  15  30  1   
 32  15  31  1   
@<TRIPOS>SUBSTRUCTURE
  1 ****   8 GROUP 4 **** **** 0

# MOE 2024.06 (io_trps.svl 2023.06)
