@<TRIPOS>MOLECULE
NONAME
46 49 1 0 0 
SMALL
USER_CHARGES


@<TRIPOS>ATOM
  1 O       -3.9060     0.3830    -2.2790 O.2   1 <1>  -0.5700 
  2 C       -3.4410     0.3120    -1.1660 C.2   1 <1>   0.5690 
  3 N       -4.1530     0.6350    -0.0480 N.am  1 <1>  -0.7300 
  4 C       -2.0070    -0.2090    -0.9930 C.3   1 <1>   0.1710 
  5 C       -5.5120     1.1930     0.0440 C.3   1 <1>   0.3000 
  6 N       -0.9450     0.8210    -0.7980 N.3   1 <1>  -0.8100 
  7 C       -6.5500     0.2160    -0.5400 C.3   1 <1>  -0.1600 
  8 C       -5.5980     2.5470    -0.6870 C.3   1 <1>  -0.1600 
  9 C       -5.8210     1.4150     1.5370 C.3   1 <1>  -0.1600 
 10 C        0.3890     0.1930    -0.7370 C.3   1 <1>   0.1100 
 11 C       -1.1580     1.6750     0.3880 C.3   1 <1>   0.1100 
 12 C       -7.9680     0.8000    -0.3860 C.3   1 <1>  -0.0800 
 13 C       -7.0130     3.1390    -0.5340 C.3   1 <1>  -0.0800 
 14 C       -7.2350     2.0020     1.7100 C.3   1 <1>  -0.0800 
 15 C        1.4920     1.2420    -0.5120 C.3   1 <1>   0.1200 
 16 C        0.0020     2.6700     0.5750 C.3   1 <1>   0.1200 
 17 C       -8.0390     2.1520    -1.1250 C.3   1 <1>  -0.1600 
 18 C       -8.2640     1.0260     1.1090 C.3   1 <1>  -0.1600 
 19 C       -7.3170     3.3470     0.9620 C.3   1 <1>  -0.1600 
 20 O        1.2240     1.9920     0.6380 O.3   1 <1>  -0.5600 
 21 H       -3.6950     0.5460     0.8550 H     1 <1>   0.3700 
 22 H       -1.7710    -0.7720    -1.8790 H     1 <1>   0.0800 
 23 H       -1.9950    -0.8930    -0.1650 H     1 <1>   0.0800 
 24 H       -6.4890    -0.7300    -0.0330 H     1 <1>   0.0800 
 25 H       -6.3520     0.0500    -1.5840 H     1 <1>   0.0800 
 26 H       -5.3870     2.4140    -1.7330 H     1 <1>   0.0800 
 27 H       -4.8730     3.2290    -0.2830 H     1 <1>   0.0800 
 28 H       -5.1040     2.0930     1.9620 H     1 <1>   0.0800 
 29 H       -5.7620     0.4790     2.0640 H     1 <1>   0.0800 
 30 H        0.5820    -0.3230    -1.6620 H     1 <1>   0.0800 
 31 H        0.4240    -0.5240     0.0650 H     1 <1>   0.0800 
 32 H       -1.2410     1.0670     1.2730 H     1 <1>   0.0800 
 33 H       -2.0670     2.2370     0.2690 H     1 <1>   0.0800 
 34 H       -8.6890     0.1190    -0.8030 H     1 <1>   0.0800 
 35 H       -7.0720     4.0800    -1.0540 H     1 <1>   0.0800 
 36 H       -7.4440     2.1540     2.7550 H     1 <1>   0.0800 
 37 H        1.5550     1.9100    -1.3540 H     1 <1>   0.0800 
 38 H        2.4440     0.7610    -0.3760 H     1 <1>   0.0800 
 39 H       -0.1190     3.2180     1.4910 H     1 <1>   0.0800 
 40 H        0.0350     3.3660    -0.2460 H     1 <1>   0.0800 
 41 H       -9.0300     2.5620    -1.0390 H     1 <1>   0.0800 
 42 H       -7.8380     2.0030    -2.1720 H     1 <1>   0.0800 
 43 H       -8.2280     0.0870     1.6330 H     1 <1>   0.0800 
 44 H       -9.2560     1.4250     1.2260 H     1 <1>   0.0800 
 45 H       -6.6130     4.0440     1.3830 H     1 <1>   0.0800 
 46 H       -8.3010     3.7680     1.0780 H     1 <1>   0.0800 
@<TRIPOS>BOND
  1   1   2  2   
  2   2   3  am  
  3   2   4  1   
  4   3   5  1   
  5   3  21  1   
  6   4   6  1   
  7   4  22  1   
  8   4  23  1   
  9   5   7  1   
 10   5   8  1   
 11   5   9  1   
 12   6  10  1   
 13   6  11  1   
 14   7  12  1   
 15   7  24  1   
 16   7  25  1   
 17   8  13  1   
 18   8  26  1   
 19   8  27  1   
 20   9  14  1   
 21   9  28  1   
 22   9  29  1   
 23  10  15  1   
 24  10  30  1   
 25  10  31  1   
 26  11  16  1   
 27  11  32  1   
 28  11  33  1   
 29  12  17  1   
 30  12  18  1   
 31  12  34  1   
 32  13  17  1   
 33  13  19  1   
 34  13  35  1   
 35  14  18  1   
 36  14  19  1   
 37  14  36  1   
 38  15  20  1   
 39  15  37  1   
 40  15  38  1   
 41  16  20  1   
 42  16  39  1   
 43  16  40  1   
 44  17  41  1   
 45  17  42  1   
 46  18  43  1   
 47  18  44  1   
 48  19  45  1   
 49  19  46  1   
@<TRIPOS>SUBSTRUCTURE
  1 ****   3 GROUP 4 **** **** 0

# MOE 2024.06 (io_trps.svl 2023.06)
