@<TRIPOS>MOLECULE
NONAME
42 42 1 0 0 
SMALL
USER_CHARGES


@<TRIPOS>ATOM
  1 S        0.0180    -0.2230     1.3050 S.2   1 <1>  -0.3800 
  2 C       -0.2300    -1.5590     0.4420 C.2   1 <1>   0.5810 
  3 S       -1.9280    -2.0140     0.1850 S.3   1 <1>  -0.3710 
  4 N        0.7410    -2.3380    -0.0860 N.am  1 <1>  -0.6600 
  5 C       -2.9510    -0.7340     1.0810 C.3   1 <1>   0.1310 
  6 C        2.1880    -2.0430     0.1120 C.3   1 <1>   0.1400 
  7 C        0.4780    -3.5550    -0.9040 C.3   1 <1>   0.1400 
  8 C       -4.4390    -1.0170     0.9460 C.2   1 <1>   0.5690 
  9 C        2.7030    -1.1980    -1.0510 C.3   1 <1>  -0.2400 
 10 C        0.4030    -4.7780     0.0080 C.3   1 <1>  -0.2400 
 11 O       -5.1900    -0.4950     1.7330 O.2   1 <1>  -0.5700 
 12 N       -4.8570    -1.8480    -0.0540 N.am  1 <1>  -0.5470 
 13 C       -6.1420    -2.3460    -0.3200 C.ar  1 <1>   0.1170 
 14 C       -7.1910    -1.5070    -0.7070 C.ar  1 <1>  -0.1440 
 15 C       -6.3650    -3.7220    -0.2210 C.ar  1 <1>  -0.1440 
 16 C       -8.4380    -2.0460    -0.9770 C.ar  1 <1>  -0.1500 
 17 C       -7.0090    -0.0010    -0.8520 C.3   1 <1>  -0.0970 
 18 C       -7.6180    -4.2410    -0.5000 C.ar  1 <1>  -0.1500 
 19 C       -5.2500    -4.6730     0.2010 C.3   1 <1>  -0.0970 
 20 C       -8.6530    -3.4070    -0.8750 C.ar  1 <1>  -0.1500 
 21 H       -2.7200     0.2250     0.6580 H     1 <1>   0.0800 
 22 H       -2.6670    -0.7600     2.1170 H     1 <1>   0.0800 
 23 H        2.7430    -2.9640     0.1720 H     1 <1>   0.0800 
 24 H        2.3400    -1.5160     1.0390 H     1 <1>   0.0800 
 25 H        1.2680    -3.6870    -1.6230 H     1 <1>   0.0800 
 26 H       -0.4400    -3.4500    -1.4560 H     1 <1>   0.0800 
 27 H        2.5920    -1.7220    -1.9820 H     1 <1>   0.0800 
 28 H        3.7450    -0.9800    -0.9040 H     1 <1>   0.0800 
 29 H        2.1660    -0.2670    -1.0980 H     1 <1>   0.0800 
 30 H        1.3300    -4.9150     0.5350 H     1 <1>   0.0800 
 31 H        0.2130    -5.6560    -0.5810 H     1 <1>   0.0800 
 32 H       -0.3970    -4.6650     0.7180 H     1 <1>   0.0800 
 33 H       -4.1030    -2.3180    -0.5560 H     1 <1>   0.3700 
 34 H       -9.2530    -1.4070    -1.2680 H     1 <1>   0.1500 
 35 H       -7.0330     0.4610     0.1180 H     1 <1>   0.0800 
 36 H       -7.7920     0.4250    -1.4530 H     1 <1>   0.0800 
 37 H       -6.0680     0.2220    -1.3220 H     1 <1>   0.0800 
 38 H       -7.8000    -5.2990    -0.4240 H     1 <1>   0.1500 
 39 H       -4.4630    -4.6680    -0.5310 H     1 <1>   0.0800 
 40 H       -5.6170    -5.6790     0.2980 H     1 <1>   0.0800 
 41 H       -4.8490    -4.3680     1.1510 H     1 <1>   0.0800 
 42 H       -9.6260    -3.8160    -1.0860 H     1 <1>   0.1500 
@<TRIPOS>BOND
  1   1   2  2   
  2   2   3  1   
  3   2   4  am  
  4   3   5  1   
  5   4   6  1   
  6   4   7  1   
  7   5   8  1   
  8   5  21  1   
  9   5  22  1   
 10   6   9  1   
 11   6  23  1   
 12   6  24  1   
 13   7  10  1   
 14   7  25  1   
 15   7  26  1   
 16   8  11  2   
 17   8  12  am  
 18   9  27  1   
 19   9  28  1   
 20   9  29  1   
 21  10  30  1   
 22  10  31  1   
 23  10  32  1   
 24  12  13  1   
 25  12  33  1   
 26  13  14  ar  
 27  13  15  ar  
 28  14  16  ar  
 29  14  17  1   
 30  15  18  ar  
 31  15  19  1   
 32  16  20  ar  
 33  16  34  1   
 34  17  35  1   
 35  17  36  1   
 36  17  37  1   
 37  18  20  ar  
 38  18  38  1   
 39  19  39  1   
 40  19  40  1   
 41  19  41  1   
 42  20  42  1   
@<TRIPOS>SUBSTRUCTURE
  1 ****  12 GROUP 4 **** **** 0

# MOE 2024.06 (io_trps.svl 2023.06)
