@<TRIPOS>MOLECULE
NONAME
48 48 1 0 0 
SMALL
USER_CHARGES


@<TRIPOS>ATOM
  1 N        0.5690    -0.2730    -0.5210 N.4   1 <1>  -0.9590 
  2 C        1.3530     0.6900     0.3430 C.3   1 <1>   0.3430 
  3 C       -0.7000     0.3540    -1.0060 C.3   1 <1>   0.3430 
  4 C        0.2610    -1.5590     0.1740 C.3   1 <1>   0.3430 
  5 C        2.7970     0.2200     0.6830 C.3   1 <1>   0.3430 
  6 C       -0.3880     1.3670    -2.1010 C.3   1 <1>  -0.2400 
  7 C        0.0120    -2.6460    -0.8660 C.3   1 <1>  -0.2400 
  8 N        3.6420     1.2530     1.3950 N.4   1 <1>  -0.9590 
  9 C        5.0710     0.8060     1.5180 C.3   1 <1>   0.3430 
 10 C        3.1320     1.6070     2.7620 C.3   1 <1>   0.2630 
 11 C        5.7810     0.7160     0.1560 C.3   1 <1>  -0.0800 
 12 C        7.2570     0.3440     0.3860 C.3   1 <1>  -0.1600 
 13 C        5.6830     2.0270    -0.6560 C.3   1 <1>  -0.1600 
 14 C        8.0250     0.2390    -0.9370 C.3   1 <1>  -0.1600 
 15 C        6.4540     1.9240    -1.9790 C.3   1 <1>  -0.1600 
 16 C        7.9180     1.5380    -1.7420 C.3   1 <1>  -0.1600 
 17 H        1.1020    -0.5080    -1.3720 H     1 <1>   0.4500 
 18 H        0.8110     0.8570     1.2600 H     1 <1>   0.0800 
 19 H        1.4280     1.6320    -0.1730 H     1 <1>   0.0800 
 20 H       -1.2230     0.8320    -0.1930 H     1 <1>   0.0800 
 21 H       -1.3510    -0.4020    -1.4190 H     1 <1>   0.0800 
 22 H       -0.6050    -1.4480     0.8090 H     1 <1>   0.0800 
 23 H        1.0920    -1.8630     0.7890 H     1 <1>   0.0800 
 24 H        3.2810    -0.0410    -0.2420 H     1 <1>   0.0800 
 25 H        2.7450    -0.6670     1.2920 H     1 <1>   0.0800 
 26 H        0.1700     2.2060    -1.7290 H     1 <1>   0.0800 
 27 H       -1.3150     1.7490    -2.4940 H     1 <1>   0.0800 
 28 H        0.1420     0.9050    -2.9150 H     1 <1>   0.0800 
 29 H       -0.8560    -2.4340    -1.4650 H     1 <1>   0.0800 
 30 H       -0.1670    -3.5800    -0.3610 H     1 <1>   0.0800 
 31 H        0.8680    -2.7780    -1.5030 H     1 <1>   0.0800 
 32 H        3.6900     2.1200     0.8350 H     1 <1>   0.4500 
 33 H        5.1190    -0.1520     2.0110 H     1 <1>   0.0800 
 34 H        5.6130     1.5130     2.1280 H     1 <1>   0.0800 
 35 H        3.1100     0.7350     3.3960 H     1 <1>   0.0800 
 36 H        2.1390     2.0230     2.7070 H     1 <1>   0.0800 
 37 H        3.7770     2.3410     3.2210 H     1 <1>   0.0800 
 38 H        5.3460    -0.0830    -0.4190 H     1 <1>   0.0800 
 39 H        7.3280    -0.6000     0.9010 H     1 <1>   0.0800 
 40 H        7.7330     1.0900     1.0010 H     1 <1>   0.0800 
 41 H        6.0960     2.8410    -0.0830 H     1 <1>   0.0800 
 42 H        4.6620     2.2650    -0.8890 H     1 <1>   0.0800 
 43 H        7.6350    -0.5770    -1.5220 H     1 <1>   0.0800 
 44 H        9.0630     0.0280    -0.7370 H     1 <1>   0.0800 
 45 H        6.4180     2.8690    -2.4950 H     1 <1>   0.0800 
 46 H        5.9940     1.1870    -2.6150 H     1 <1>   0.0800 
 47 H        8.4170     1.4170    -2.6890 H     1 <1>   0.0800 
 48 H        8.4180     2.3310    -1.2110 H     1 <1>   0.0800 
@<TRIPOS>BOND
  1   1   2  1   
  2   1   3  1   
  3   1   4  1   
  4   1  17  1   
  5   2   5  1   
  6   2  18  1   
  7   2  19  1   
  8   3   6  1   
  9   3  20  1   
 10   3  21  1   
 11   4   7  1   
 12   4  22  1   
 13   4  23  1   
 14   5   8  1   
 15   5  24  1   
 16   5  25  1   
 17   6  26  1   
 18   6  27  1   
 19   6  28  1   
 20   7  29  1   
 21   7  30  1   
 22   7  31  1   
 23   8   9  1   
 24   8  10  1   
 25   8  32  1   
 26   9  11  1   
 27   9  33  1   
 28   9  34  1   
 29  10  35  1   
 30  10  36  1   
 31  10  37  1   
 32  11  12  1   
 33  11  13  1   
 34  11  38  1   
 35  12  14  1   
 36  12  39  1   
 37  12  40  1   
 38  13  15  1   
 39  13  41  1   
 40  13  42  1   
 41  14  16  1   
 42  14  43  1   
 43  14  44  1   
 44  15  16  1   
 45  15  45  1   
 46  15  46  1   
 47  16  47  1   
 48  16  48  1   
@<TRIPOS>SUBSTRUCTURE
  1 ****   5 GROUP 4 **** **** 0

# MOE 2024.06 (io_trps.svl 2023.06)
