@<TRIPOS>MOLECULE
NONAME
50 53 1 0 0 
SMALL
USER_CHARGES


@<TRIPOS>ATOM
  1 S        0.0140    -0.0940     1.7380 S.o2  1 <1>   1.4470 
  2 O        0.9750    -1.0750     2.1920 O.2   1 <1>  -0.6500 
  3 O       -1.0320     0.3410     2.6410 O.2   1 <1>  -0.6500 
  4 N       -0.7620    -0.7420     0.3770 N.am  1 <1>  -0.8490 
  5 C        0.8930     1.3410     1.0600 C.ar  1 <1>  -0.0090 
  6 C       -1.7890     0.1660    -0.1510 C.3   1 <1>   0.1960 
  7 C       -1.3240    -2.0620     0.6670 C.3   1 <1>   0.1960 
  8 C        1.5620     1.2630    -0.1560 C.ar  1 <1>  -0.1500 
  9 C        0.8940     2.5630     1.7210 C.ar  1 <1>  -0.1500 
 10 C       -2.3580    -0.3820    -1.4620 C.3   1 <1>  -0.1600 
 11 C       -1.8870    -2.6930    -0.6110 C.3   1 <1>  -0.1600 
 12 C        2.1390     2.3810    -0.7290 C.ar  1 <1>  -0.1500 
 13 C        1.4750     3.6810     1.1530 C.ar  1 <1>  -0.1500 
 14 C       -2.9350    -1.7890    -1.2730 C.3   1 <1>  -0.1600 
 15 C        2.0670     3.6230    -0.1070 C.ar  1 <1>   0.0860 
 16 C        2.5200     4.8200    -0.7840 C.2   1 <1>   0.5440 
 17 O        3.6980     5.0620    -0.9240 O.2   1 <1>  -0.5700 
 18 N        1.6420     5.7170    -1.3260 N.am  1 <1>  -0.4940 
 19 C        0.2660     5.6850    -1.3600 C.2   1 <1>   0.4420 
 20 S       -0.5530     6.9830    -2.2270 S.3   1 <1>  -0.0800 
 21 N       -0.5270     4.8320    -0.8370 N.2   1 <1>  -0.5650 
 22 C       -2.1010     6.2770    -1.8050 C.ar  1 <1>   0.0400 
 23 C       -1.8650     5.1390    -1.0570 C.ar  1 <1>   0.2270 
 24 C       -3.3640     6.7390    -2.1230 C.ar  1 <1>  -0.1500 
 25 C       -2.9680     4.4220    -0.5800 C.ar  1 <1>   0.0820 
 26 C       -4.4480     6.0140    -1.6560 C.ar  1 <1>  -0.1500 
 27 O       -2.7500     3.3150     0.1790 O.3   1 <1>  -0.3620 
 28 C       -4.2520     4.8680    -0.8910 C.ar  1 <1>  -0.1500 
 29 C       -3.6490     2.9740     1.2120 C.3   1 <1>   0.0400 
 30 H       -1.3630     1.1370    -0.3400 H     1 <1>   0.0800 
 31 H       -2.5820     0.2810     0.5690 H     1 <1>   0.0800 
 32 H       -2.1000    -1.9740     1.4110 H     1 <1>   0.0800 
 33 H       -0.5550    -2.7070     1.0600 H     1 <1>   0.0800 
 34 H        1.6090     0.3160    -0.6680 H     1 <1>   0.1500 
 35 H        0.4110     2.6450     2.6800 H     1 <1>   0.1500 
 36 H       -1.5720    -0.4040    -2.1970 H     1 <1>   0.0800 
 37 H       -3.1250     0.2820    -1.8200 H     1 <1>   0.0800 
 38 H       -2.3270    -3.6450    -0.3750 H     1 <1>   0.0800 
 39 H       -1.0750    -2.8670    -1.2950 H     1 <1>   0.0800 
 40 H        2.6320     2.3020    -1.6830 H     1 <1>   0.1500 
 41 H        1.4390     4.6230     1.6720 H     1 <1>   0.1500 
 42 H       -3.2290    -2.1990    -2.2240 H     1 <1>   0.0800 
 43 H       -3.8080    -1.7360    -0.6450 H     1 <1>   0.0800 
 44 H        2.1020     6.4960    -1.7900 H     1 <1>   0.3700 
 45 H       -3.4930     7.6310    -2.7120 H     1 <1>   0.1500 
 46 H       -5.4490     6.3390    -1.8840 H     1 <1>   0.1500 
 47 H       -5.1130     4.3260    -0.5480 H     1 <1>   0.1500 
 48 H       -3.1690     2.2490     1.8470 H     1 <1>   0.0800 
 49 H       -4.5370     2.5510     0.7790 H     1 <1>   0.0800 
 50 H       -3.8800     3.8570     1.7810 H     1 <1>   0.0800 
@<TRIPOS>BOND
  1   1   2  2   
  2   1   3  2   
  3   1   4  am  
  4   1   5  1   
  5   4   6  1   
  6   4   7  1   
  7   5   8  ar  
  8   5   9  ar  
  9   6  10  1   
 10   6  30  1   
 11   6  31  1   
 12   7  11  1   
 13   7  32  1   
 14   7  33  1   
 15   8  12  ar  
 16   8  34  1   
 17   9  13  ar  
 18   9  35  1   
 19  10  14  1   
 20  10  36  1   
 21  10  37  1   
 22  11  14  1   
 23  11  38  1   
 24  11  39  1   
 25  12  15  ar  
 26  12  40  1   
 27  13  15  ar  
 28  13  41  1   
 29  14  42  1   
 30  14  43  1   
 31  15  16  1   
 32  16  17  2   
 33  16  18  am  
 34  18  19  1   
 35  18  44  1   
 36  19  20  1   
 37  19  21  2   
 38  20  22  1   
 39  21  23  1   
 40  22  23  ar  
 41  22  24  ar  
 42  23  25  ar  
 43  24  26  ar  
 44  24  45  1   
 45  25  27  1   
 46  25  28  ar  
 47  26  28  ar  
 48  26  46  1   
 49  27  29  1   
 50  28  47  1   
 51  29  48  1   
 52  29  49  1   
 53  29  50  1   
@<TRIPOS>SUBSTRUCTURE
  1 ****  27 GROUP 4 **** **** 0

# MOE 2024.06 (io_trps.svl 2023.06)
