@<TRIPOS>MOLECULE
NONAME
54 56 1 0 0 
SMALL
USER_CHARGES


@<TRIPOS>ATOM
  1 O       -0.0870     0.6400    -1.6130 O.2   1 <1>  -0.5700 
  2 C       -0.9760     1.0540    -0.8850 C.2   1 <1>   0.5440 
  3 N       -1.7240     0.1330    -0.1840 N.am  1 <1>  -0.6600 
  4 C       -1.1960     2.4810    -0.7590 C.ar  1 <1>   0.0860 
  5 C       -1.6970    -1.3220    -0.5140 C.3   1 <1>   0.1400 
  6 C       -2.4460     0.4270     1.0910 C.3   1 <1>   0.1400 
  7 C       -0.1290     3.3540    -0.4890 C.ar  1 <1>   0.1170 
  8 C       -2.4780     3.0190    -0.9010 C.ar  1 <1>  -0.1500 
  9 C       -3.1070    -1.9270    -0.4030 C.3   1 <1>   0.1200 
 10 C       -3.8170    -0.2680     1.1040 C.3   1 <1>   0.1200 
 11 N        1.1690     2.8340    -0.4110 N.am  1 <1>  -0.5470 
 12 C       -0.3840     4.7150    -0.3370 C.ar  1 <1>  -0.1500 
 13 C       -2.7140     4.3710    -0.7510 C.ar  1 <1>  -0.1500 
 14 O       -3.6790    -1.6360     0.8430 O.3   1 <1>  -0.5600 
 15 C        2.2950     3.2160     0.2790 C.2   1 <1>   0.5440 
 16 C       -1.6620     5.2210    -0.4620 C.ar  1 <1>  -0.1500 
 17 O        2.2650     4.2180     0.9670 O.2   1 <1>  -0.5700 
 18 C        3.5050     2.4170     0.1850 C.ar  1 <1>   0.0860 
 19 C        3.5010     1.0960    -0.2780 C.ar  1 <1>  -0.1500 
 20 C        4.7420     2.9470     0.5640 C.ar  1 <1>  -0.1500 
 21 C        4.6670     0.3580    -0.3650 C.ar  1 <1>  -0.1500 
 22 C        5.9110     2.2150     0.4820 C.ar  1 <1>  -0.1500 
 23 C        5.8810     0.9070     0.0110 C.ar  1 <1>   0.0830 
 24 O        6.9730     0.1200    -0.1060 O.3   1 <1>  -0.3630 
 25 C        8.2580     0.5760     0.2510 C.3   1 <1>   0.1200 
 26 C        9.2550    -0.5550    -0.0010 C.3   1 <1>  -0.1600 
 27 C       10.6830    -0.1290     0.3660 C.3   1 <1>  -0.1600 
 28 C       11.6770    -1.2650     0.1110 C.3   1 <1>  -0.2400 
 29 H       -1.0360    -1.8290     0.1670 H     1 <1>   0.0800 
 30 H       -1.3260    -1.4720    -1.5130 H     1 <1>   0.0800 
 31 H       -2.5750     1.4840     1.2320 H     1 <1>   0.0800 
 32 H       -1.8620     0.0570     1.9160 H     1 <1>   0.0800 
 33 H       -3.2960     2.3600    -1.1330 H     1 <1>   0.1500 
 34 H       -3.0610    -2.9970    -0.5010 H     1 <1>   0.0800 
 35 H       -3.7470    -1.5360    -1.1750 H     1 <1>   0.0800 
 36 H       -4.4690     0.1610     0.3630 H     1 <1>   0.0800 
 37 H       -4.2770    -0.1640     2.0710 H     1 <1>   0.0800 
 38 H        1.2600     1.9470    -0.9210 H     1 <1>   0.3700 
 39 H        0.4280     5.3880    -0.1270 H     1 <1>   0.1500 
 40 H       -3.7100     4.7670    -0.8590 H     1 <1>   0.1500 
 41 H       -1.8370     6.2770    -0.3400 H     1 <1>   0.1500 
 42 H        2.5810     0.6240    -0.5730 H     1 <1>   0.1500 
 43 H        4.7790     3.9590     0.9320 H     1 <1>   0.1500 
 44 H        4.6450    -0.6550    -0.7260 H     1 <1>   0.1500 
 45 H        6.8310     2.6770     0.7860 H     1 <1>   0.1500 
 46 H        8.2440     0.8460     1.2930 H     1 <1>   0.0800 
 47 H        8.4930     1.4340    -0.3550 H     1 <1>   0.0800 
 48 H        9.2190    -0.8270    -1.0420 H     1 <1>   0.0800 
 49 H        8.9730    -1.4090     0.5890 H     1 <1>   0.0800 
 50 H       10.7230     0.1480     1.4060 H     1 <1>   0.0800 
 51 H       10.9680     0.7280    -0.2210 H     1 <1>   0.0800 
 52 H       11.4240    -2.1260     0.7030 H     1 <1>   0.0800 
 53 H       12.6720    -0.9490     0.3730 H     1 <1>   0.0800 
 54 H       11.6700    -1.5450    -0.9280 H     1 <1>   0.0800 
@<TRIPOS>BOND
  1   1   2  2   
  2   2   3  am  
  3   2   4  1   
  4   3   5  1   
  5   3   6  1   
  6   4   7  ar  
  7   4   8  ar  
  8   5   9  1   
  9   5  29  1   
 10   5  30  1   
 11   6  10  1   
 12   6  31  1   
 13   6  32  1   
 14   7  11  1   
 15   7  12  ar  
 16   8  13  ar  
 17   8  33  1   
 18   9  14  1   
 19   9  34  1   
 20   9  35  1   
 21  10  14  1   
 22  10  36  1   
 23  10  37  1   
 24  11  15  am  
 25  11  38  1   
 26  12  16  ar  
 27  12  39  1   
 28  13  16  ar  
 29  13  40  1   
 30  15  17  2   
 31  15  18  1   
 32  16  41  1   
 33  18  19  ar  
 34  18  20  ar  
 35  19  21  ar  
 36  19  42  1   
 37  20  22  ar  
 38  20  43  1   
 39  21  23  ar  
 40  21  44  1   
 41  22  23  ar  
 42  22  45  1   
 43  23  24  1   
 44  24  25  1   
 45  25  26  1   
 46  25  46  1   
 47  25  47  1   
 48  26  27  1   
 49  26  48  1   
 50  26  49  1   
 51  27  28  1   
 52  27  50  1   
 53  27  51  1   
 54  28  52  1   
 55  28  53  1   
 56  28  54  1   
@<TRIPOS>SUBSTRUCTURE
  1 ****  19 GROUP 4 **** **** 0

# MOE 2024.06 (io_trps.svl 2023.06)
