@<TRIPOS>MOLECULE
NONAME
40 40 1 0 0 
SMALL
USER_CHARGES


@<TRIPOS>ATOM
  1 O       -2.8400    -0.2000    -0.7030 O.2   1 <1>  -0.5700 
  2 C       -3.0360     0.3530     0.3590 C.2   1 <1>   0.6900 
  3 N       -2.5380     1.5850     0.6390 N.am  1 <1>  -0.4300 
  4 N       -3.7790    -0.2870     1.2760 N.am  1 <1>  -0.8000 
  5 N       -1.7570     2.4350    -0.2840 N.am  1 <1>  -0.4300 
  6 C       -2.1690     3.4240    -1.1180 C.2   1 <1>   0.5690 
  7 O       -1.3500     3.9780    -1.8170 O.2   1 <1>  -0.5700 
  8 C       -3.6250     3.8990    -1.2150 C.3   1 <1>  -0.0190 
  9 C       -4.1850     4.4300     0.1190 C.3   1 <1>  -0.1600 
 10 C       -4.5620     2.8370    -1.8220 C.3   1 <1>  -0.1600 
 11 C       -5.6190     4.9560    -0.0400 C.3   1 <1>  -0.1600 
 12 C       -5.9910     3.3750    -1.9750 C.3   1 <1>  -0.1600 
 13 C       -6.5550     3.8880    -0.6390 C.3   1 <1>  -0.0800 
 14 C       -7.9850     4.4200    -0.8540 C.3   1 <1>  -0.1600 
 15 C       -8.7080     4.7830     0.4530 C.3   1 <1>  -0.1600 
 16 C      -10.1680     5.1700     0.1860 C.3   1 <1>  -0.1600 
 17 C      -10.8870     5.5360     1.4870 C.3   1 <1>  -0.2400 
 18 H       -2.6330     1.9260     1.5970 H     1 <1>   0.3700 
 19 H       -4.1890    -1.1730     0.9800 H     1 <1>   0.3700 
 20 H       -4.2600     0.1980     2.0280 H     1 <1>   0.3700 
 21 H       -0.7730     2.1700    -0.4030 H     1 <1>   0.3700 
 22 H       -3.6190     4.7300    -1.8990 H     1 <1>   0.0800 
 23 H       -3.5520     5.2230     0.4810 H     1 <1>   0.0800 
 24 H       -4.1890     3.6480     0.8550 H     1 <1>   0.0800 
 25 H       -4.5850     1.9640    -1.1980 H     1 <1>   0.0800 
 26 H       -4.1850     2.5380    -2.7850 H     1 <1>   0.0800 
 27 H       -5.6100     5.8230    -0.6800 H     1 <1>   0.0800 
 28 H       -5.9760     5.2640     0.9260 H     1 <1>   0.0800 
 29 H       -6.6190     2.5890    -2.3570 H     1 <1>   0.0800 
 30 H       -5.9910     4.1740    -2.6970 H     1 <1>   0.0800 
 31 H       -6.6040     3.0550     0.0430 H     1 <1>   0.0800 
 32 H       -8.5590     3.6610    -1.3580 H     1 <1>   0.0800 
 33 H       -7.9550     5.2830    -1.4970 H     1 <1>   0.0800 
 34 H       -8.2130     5.6100     0.9290 H     1 <1>   0.0800 
 35 H       -8.6810     3.9420     1.1230 H     1 <1>   0.0800 
 36 H      -10.6820     4.3480    -0.2820 H     1 <1>   0.0800 
 37 H      -10.2020     6.0110    -0.4860 H     1 <1>   0.0800 
 38 H      -10.8820     4.7020     2.1670 H     1 <1>   0.0800 
 39 H      -11.9090     5.8010     1.2790 H     1 <1>   0.0800 
 40 H      -10.4060     6.3740     1.9600 H     1 <1>   0.0800 
@<TRIPOS>BOND
  1   1   2  2   
  2   2   3  am  
  3   2   4  am  
  4   3   5  1   
  5   3  18  1   
  6   4  19  1   
  7   4  20  1   
  8   5   6  am  
  9   5  21  1   
 10   6   7  2   
 11   6   8  1   
 12   8   9  1   
 13   8  10  1   
 14   8  22  1   
 15   9  11  1   
 16   9  23  1   
 17   9  24  1   
 18  10  12  1   
 19  10  25  1   
 20  10  26  1   
 21  11  13  1   
 22  11  27  1   
 23  11  28  1   
 24  12  13  1   
 25  12  29  1   
 26  12  30  1   
 27  13  14  1   
 28  13  31  1   
 29  14  15  1   
 30  14  32  1   
 31  14  33  1   
 32  15  16  1   
 33  15  34  1   
 34  15  35  1   
 35  16  17  1   
 36  16  36  1   
 37  16  37  1   
 38  17  38  1   
 39  17  39  1   
 40  17  40  1   
@<TRIPOS>SUBSTRUCTURE
  1 ****   9 GROUP 4 **** **** 0

# MOE 2024.06 (io_trps.svl 2023.06)
