@<TRIPOS>MOLECULE
NONAME
42 44 1 0 0 
SMALL
USER_CHARGES


@<TRIPOS>ATOM
  1 O        0.1990    -0.1260     0.2120 O.3   1 <1>  -0.5600 
  2 C        0.7150     0.0800    -1.0730 C.3   1 <1>   0.1200 
  3 C        0.3300    -1.4280     0.7060 C.3   1 <1>   0.1200 
  4 C        2.2150    -0.2680    -1.1130 C.3   1 <1>   0.3430 
  5 C        1.8150    -1.8370     0.7510 C.3   1 <1>   0.3430 
  6 N        2.4700    -1.6640    -0.5930 N.4   1 <1>  -0.9590 
  7 C        3.9340    -2.0560    -0.6110 C.3   1 <1>   0.3430 
  8 C        4.8710    -1.3810     0.4190 C.3   1 <1>   0.2070 
  9 C        4.9240     0.1340     0.2400 C.ar  1 <1>  -0.1440 
 10 C        6.2750    -1.9870     0.3710 C.ar  1 <1>  -0.1440 
 11 C        4.4040     0.9670     1.2230 C.ar  1 <1>  -0.1500 
 12 C        5.4640     0.7010    -0.9070 C.ar  1 <1>  -0.1500 
 13 C        6.9900    -2.1020     1.5560 C.ar  1 <1>  -0.1500 
 14 C        6.8650    -2.4290    -0.8100 C.ar  1 <1>  -0.1500 
 15 C        4.4000     2.3400     1.0490 C.ar  1 <1>  -0.1500 
 16 C        5.4610     2.0730    -1.0800 C.ar  1 <1>  -0.1500 
 17 C        8.2570    -2.6570     1.5680 C.ar  1 <1>  -0.1500 
 18 C        8.1320    -2.9850    -0.7970 C.ar  1 <1>  -0.1500 
 19 C        4.9250     2.8930    -0.1050 C.ar  1 <1>  -0.1500 
 20 C        8.8280    -3.1020     0.3910 C.ar  1 <1>  -0.1500 
 21 H        0.5710     1.1180    -1.3180 H     1 <1>   0.0800 
 22 H        0.1550    -0.5170    -1.7720 H     1 <1>   0.0800 
 23 H       -0.2420    -2.0940     0.0840 H     1 <1>   0.0800 
 24 H       -0.0890    -1.4420     1.6980 H     1 <1>   0.0800 
 25 H        2.7300     0.4600    -0.5110 H     1 <1>   0.0800 
 26 H        2.5790    -0.1740    -2.1230 H     1 <1>   0.0800 
 27 H        1.8920    -2.8630     1.0730 H     1 <1>   0.0800 
 28 H        2.3090    -1.2190     1.4820 H     1 <1>   0.0800 
 29 H        1.9790    -2.2960    -1.2390 H     1 <1>   0.4500 
 30 H        4.3280    -1.8560    -1.5930 H     1 <1>   0.0800 
 31 H        4.0060    -3.1200    -0.4550 H     1 <1>   0.0800 
 32 H        4.4810    -1.6010     1.3960 H     1 <1>   0.0800 
 33 H        3.9980     0.5660     2.1350 H     1 <1>   0.1500 
 34 H        5.9020     0.0880    -1.6750 H     1 <1>   0.1500 
 35 H        6.5730    -1.7550     2.4860 H     1 <1>   0.1500 
 36 H        6.3680    -2.3490    -1.7590 H     1 <1>   0.1500 
 37 H        3.9950     2.9820     1.8130 H     1 <1>   0.1500 
 38 H        5.8850     2.5080    -1.9700 H     1 <1>   0.1500 
 39 H        8.8010    -2.7410     2.4930 H     1 <1>   0.1500 
 40 H        8.5840    -3.3260    -1.7140 H     1 <1>   0.1500 
 41 H        4.9260     3.9620    -0.2380 H     1 <1>   0.1500 
 42 H        9.8150    -3.5340     0.4000 H     1 <1>   0.1500 
@<TRIPOS>BOND
  1   1   2  1   
  2   1   3  1   
  3   2   4  1   
  4   2  21  1   
  5   2  22  1   
  6   3   5  1   
  7   3  23  1   
  8   3  24  1   
  9   4   6  1   
 10   4  25  1   
 11   4  26  1   
 12   5   6  1   
 13   5  27  1   
 14   5  28  1   
 15   6   7  1   
 16   6  29  1   
 17   7   8  1   
 18   7  30  1   
 19   7  31  1   
 20   8   9  1   
 21   8  10  1   
 22   8  32  1   
 23   9  11  ar  
 24   9  12  ar  
 25  10  13  ar  
 26  10  14  ar  
 27  11  15  ar  
 28  11  33  1   
 29  12  16  ar  
 30  12  34  1   
 31  13  17  ar  
 32  13  35  1   
 33  14  18  ar  
 34  14  36  1   
 35  15  19  ar  
 36  15  37  1   
 37  16  19  ar  
 38  16  38  1   
 39  17  20  ar  
 40  17  39  1   
 41  18  20  ar  
 42  18  40  1   
 43  19  41  1   
 44  20  42  1   
@<TRIPOS>SUBSTRUCTURE
  1 ****   8 GROUP 4 **** **** 0

# MOE 2024.06 (io_trps.svl 2023.06)
