@<TRIPOS>MOLECULE
NONAME
41 43 1 0 0 
SMALL
USER_CHARGES


@<TRIPOS>ATOM
  1 F       -2.6330     3.5020     1.0950 F     1 <1>  -0.3400 
  2 C       -2.5540     3.2190    -0.1980 C.3   1 <1>   1.1640 
  3 F       -1.3250     3.5580    -0.5760 F     1 <1>  -0.3400 
  4 F       -3.3720     4.0600    -0.8180 F     1 <1>  -0.3400 
  5 C       -2.8910     1.7480    -0.4900 C.ar  1 <1>  -0.1440 
  6 C       -4.2010     1.3030    -0.3510 C.ar  1 <1>  -0.1500 
  7 C       -1.9170     0.8380    -0.8890 C.ar  1 <1>  -0.1500 
  8 C       -4.5550    -0.0210    -0.5960 C.ar  1 <1>   0.1170 
  9 C       -2.2520    -0.4790    -1.1450 C.ar  1 <1>  -0.1500 
 10 N       -5.8600    -0.5170    -0.4600 N.am  1 <1>  -0.5470 
 11 C       -3.5600    -0.9000    -1.0010 C.ar  1 <1>  -0.1500 
 12 C       -7.0290    -0.0150     0.0630 C.2   1 <1>   0.5440 
 13 O       -7.0330     1.0780     0.5970 O.2   1 <1>  -0.5700 
 14 C       -8.2530    -0.7810    -0.0280 C.ar  1 <1>   0.0860 
 15 C       -8.2790    -2.1940    -0.0720 C.ar  1 <1>   0.4100 
 16 C       -9.4740    -0.1180    -0.0950 C.ar  1 <1>  -0.1500 
 17 N       -9.3950    -2.9070    -0.2210 N.ar  1 <1>  -0.6200 
 18 N       -7.1290    -2.9560     0.0660 N.pl3 1 <1>  -0.8380 
 19 C      -10.6230    -0.8600    -0.2280 C.ar  1 <1>  -0.1500 
 20 C      -10.5270    -2.2370    -0.2920 C.ar  1 <1>   0.1600 
 21 C       -6.5430    -3.0670     1.4380 C.3   1 <1>   0.2090 
 22 C       -7.0080    -4.2530    -0.6690 C.3   1 <1>   0.2090 
 23 C       -5.1050    -3.6120     1.3710 C.3   1 <1>   0.1200 
 24 C       -5.5510    -4.7490    -0.6510 C.3   1 <1>   0.1200 
 25 O       -5.0510    -4.8180     0.6580 O.3   1 <1>  -0.5600 
 26 H       -4.9580     2.0030    -0.0480 H     1 <1>   0.1500 
 27 H       -0.8900     1.1450    -1.0050 H     1 <1>   0.1500 
 28 H       -1.4920    -1.1750    -1.4570 H     1 <1>   0.1500 
 29 H       -5.9720    -1.5140    -0.6820 H     1 <1>   0.3700 
 30 H       -3.8070    -1.9250    -1.2090 H     1 <1>   0.1500 
 31 H       -9.5120     0.9570    -0.0470 H     1 <1>   0.1500 
 32 H      -11.5840    -0.3810    -0.2860 H     1 <1>   0.1500 
 33 H      -11.4300    -2.8140    -0.4050 H     1 <1>   0.1500 
 34 H       -7.1480    -3.7330     2.0300 H     1 <1>   0.0800 
 35 H       -6.5400    -2.1050     1.9200 H     1 <1>   0.0800 
 36 H       -7.3380    -4.1250    -1.6850 H     1 <1>   0.0800 
 37 H       -7.6410    -4.9910    -0.2050 H     1 <1>   0.0800 
 38 H       -4.7380    -3.8030     2.3640 H     1 <1>   0.0800 
 39 H       -4.4540    -2.9010     0.8970 H     1 <1>   0.0800 
 40 H       -4.9230    -4.0910    -1.2230 H     1 <1>   0.0800 
 41 H       -5.4930    -5.7360    -1.0750 H     1 <1>   0.0800 
@<TRIPOS>BOND
  1   1   2  1   
  2   2   3  1   
  3   2   4  1   
  4   2   5  1   
  5   5   6  ar  
  6   5   7  ar  
  7   6   8  ar  
  8   6  26  1   
  9   7   9  ar  
 10   7  27  1   
 11   8  10  1   
 12   8  11  ar  
 13   9  11  ar  
 14   9  28  1   
 15  10  12  am  
 16  10  29  1   
 17  11  30  1   
 18  12  13  2   
 19  12  14  1   
 20  14  15  ar  
 21  14  16  ar  
 22  15  17  ar  
 23  15  18  1   
 24  16  19  ar  
 25  16  31  1   
 26  17  20  ar  
 27  18  21  1   
 28  18  22  1   
 29  19  20  ar  
 30  19  32  1   
 31  20  33  1   
 32  21  23  1   
 33  21  34  1   
 34  21  35  1   
 35  22  24  1   
 36  22  36  1   
 37  22  37  1   
 38  23  25  1   
 39  23  38  1   
 40  23  39  1   
 41  24  25  1   
 42  24  40  1   
 43  24  41  1   
@<TRIPOS>SUBSTRUCTURE
  1 ****  10 GROUP 4 **** **** 0

# MOE 2024.06 (io_trps.svl 2023.06)
