@<TRIPOS>MOLECULE
NONAME
58 59 1 0 0 
SMALL
USER_CHARGES


@<TRIPOS>ATOM
  1 S        0.0170     0.4380     1.6320 S.o2  1 <1>   1.4470 
  2 O        0.1050    -0.9160     2.1260 O.2   1 <1>  -0.6500 
  3 O       -0.5160     1.4870     2.4720 O.2   1 <1>  -0.6500 
  4 N       -0.9950     0.3080     0.3030 N.am  1 <1>  -0.9140 
  5 C        1.5960     0.9570     0.9090 C.ar  1 <1>  -0.0090 
  6 C       -2.4010     0.3390     0.6660 C.3   1 <1>   0.1960 
  7 C        1.6700     2.0790     0.0940 C.ar  1 <1>  -0.1500 
  8 C        2.7700     0.2540     1.1550 C.ar  1 <1>  -0.1500 
  9 C       -3.2730     0.0010    -0.5540 C.3   1 <1>  -0.0800 
 10 C        2.8710     2.4880    -0.4570 C.ar  1 <1>  -0.1500 
 11 C        3.9750     0.6570     0.6080 C.ar  1 <1>  -0.1500 
 12 C       -4.7580     0.1150    -0.1850 C.3   1 <1>  -0.2400 
 13 C       -2.9890    -1.4070    -1.1040 C.3   1 <1>  -0.2400 
 14 C        4.0320     1.7790    -0.2020 C.ar  1 <1>  -0.1430 
 15 C        5.3510     2.2390    -0.7990 C.3   1 <1>  -0.0170 
 16 C        5.9890     3.3120     0.0880 C.3   1 <1>  -0.0990 
 17 C        7.2870     3.8010    -0.5100 C.2   1 <1>   0.5690 
 18 O        7.2420     4.5630    -1.4420 O.2   1 <1>  -0.5700 
 19 N        8.4540     3.3530     0.0150 N.am  1 <1>  -0.7300 
 20 C        9.7960     3.7240    -0.4640 C.3   1 <1>   0.2200 
 21 C       10.4440     2.4630    -1.0460 C.3   1 <1>  -0.1600 
 22 C       10.5550     4.3620     0.7070 C.3   1 <1>  -0.1600 
 23 C       11.8960     2.6370    -1.5220 C.3   1 <1>  -0.1600 
 24 C       11.8360     5.0790     0.2530 C.3   1 <1>  -0.1600 
 25 C       12.8860     2.7600    -0.3550 C.3   1 <1>  -0.1600 
 26 C       13.0860     4.1880     0.1770 C.3   1 <1>  -0.1600 
 27 H       -0.8130    -0.6320    -0.0400 H     1 <1>   0.4200 
 28 H       -2.6530     1.3230     1.0290 H     1 <1>   0.0800 
 29 H       -2.5920    -0.3700     1.4560 H     1 <1>   0.0800 
 30 H        0.7730     2.6400    -0.1100 H     1 <1>   0.1500 
 31 H        2.7410    -0.6200     1.7850 H     1 <1>   0.1500 
 32 H       -3.0660     0.7250    -1.3250 H     1 <1>   0.0800 
 33 H        2.8980     3.3630    -1.0840 H     1 <1>   0.1500 
 34 H        4.8680     0.0930     0.8170 H     1 <1>   0.1500 
 35 H       -5.0150    -0.5930     0.5830 H     1 <1>   0.0800 
 36 H       -5.3730    -0.0750    -1.0470 H     1 <1>   0.0800 
 37 H       -4.9790     1.1060     0.1730 H     1 <1>   0.0800 
 38 H       -3.1300    -2.1500    -0.3380 H     1 <1>   0.0800 
 39 H       -1.9830    -1.4780    -1.4760 H     1 <1>   0.0800 
 40 H       -3.6550    -1.6280    -1.9200 H     1 <1>   0.0800 
 41 H        5.1810     2.6410    -1.7840 H     1 <1>   0.0800 
 42 H        6.0220     1.4040    -0.9010 H     1 <1>   0.0800 
 43 H        6.1620     2.9190     1.0730 H     1 <1>   0.0800 
 44 H        5.3210     4.1500     0.1770 H     1 <1>   0.0800 
 45 H        8.4480     2.7140     0.8080 H     1 <1>   0.3700 
 46 H        9.6960     4.4550    -1.2510 H     1 <1>   0.0800 
 47 H        9.8540     2.1590    -1.8930 H     1 <1>   0.0800 
 48 H       10.4060     1.6700    -0.3210 H     1 <1>   0.0800 
 49 H       10.7800     3.6320     1.4640 H     1 <1>   0.0800 
 50 H        9.9120     5.1070     1.1440 H     1 <1>   0.0800 
 51 H       11.9830     3.4790    -2.1880 H     1 <1>   0.0800 
 52 H       12.1590     1.7580    -2.0860 H     1 <1>   0.0800 
 53 H       12.0470     5.8790     0.9430 H     1 <1>   0.0800 
 54 H       11.6660     5.5390    -0.7060 H     1 <1>   0.0800 
 55 H       13.8460     2.3960    -0.6800 H     1 <1>   0.0800 
 56 H       12.5720     2.1190     0.4510 H     1 <1>   0.0800 
 57 H       13.5190     4.1160     1.1600 H     1 <1>   0.0800 
 58 H       13.8090     4.6890    -0.4450 H     1 <1>   0.0800 
@<TRIPOS>BOND
  1   1   2  2   
  2   1   3  2   
  3   1   4  am  
  4   1   5  1   
  5   4   6  1   
  6   4  27  1   
  7   5   7  ar  
  8   5   8  ar  
  9   6   9  1   
 10   6  28  1   
 11   6  29  1   
 12   7  10  ar  
 13   7  30  1   
 14   8  11  ar  
 15   8  31  1   
 16   9  12  1   
 17   9  13  1   
 18   9  32  1   
 19  10  14  ar  
 20  10  33  1   
 21  11  14  ar  
 22  11  34  1   
 23  12  35  1   
 24  12  36  1   
 25  12  37  1   
 26  13  38  1   
 27  13  39  1   
 28  13  40  1   
 29  14  15  1   
 30  15  16  1   
 31  15  41  1   
 32  15  42  1   
 33  16  17  1   
 34  16  43  1   
 35  16  44  1   
 36  17  18  2   
 37  17  19  am  
 38  19  20  1   
 39  19  45  1   
 40  20  21  1   
 41  20  22  1   
 42  20  46  1   
 43  21  23  1   
 44  21  47  1   
 45  21  48  1   
 46  22  24  1   
 47  22  49  1   
 48  22  50  1   
 49  23  25  1   
 50  23  51  1   
 51  23  52  1   
 52  24  26  1   
 53  24  53  1   
 54  24  54  1   
 55  25  26  1   
 56  25  55  1   
 57  25  56  1   
 58  26  57  1   
 59  26  58  1   
@<TRIPOS>SUBSTRUCTURE
  1 ****  14 GROUP 4 **** **** 0

# MOE 2024.06 (io_trps.svl 2023.06)
