@<TRIPOS>MOLECULE
NONAME
45 47 1 0 0 
SMALL
USER_CHARGES


@<TRIPOS>ATOM
  1 BR       0.7570     0.3540     1.4070 Br    1 <1>  -0.1110 
  2 C        0.1830    -1.4170     0.8980 C.ar  1 <1>   0.1110 
  3 C        0.9760    -2.1980     0.0740 C.ar  1 <1>   0.0820 
  4 C       -1.0330    -1.8610     1.3790 C.ar  1 <1>  -0.1500 
  5 O        2.1580    -1.7520    -0.3960 O.3   1 <1>  -0.5330 
  6 C        0.5400    -3.4730    -0.2740 C.ar  1 <1>   0.0820 
  7 C       -1.4810    -3.1260     1.0180 C.ar  1 <1>  -0.1430 
  8 O        1.3570    -4.2120    -1.0770 O.3   1 <1>  -0.3630 
  9 C       -0.6900    -3.9290     0.2010 C.ar  1 <1>  -0.1500 
 10 C       -2.8310    -3.6140     1.5120 C.3   1 <1>   0.4860 
 11 C        1.1530    -5.5950    -1.2710 C.3   1 <1>   0.0400 
 12 N       -3.8230    -3.4840     0.4090 N.4   1 <1>  -0.9590 
 13 C       -3.9940    -2.0470    -0.0350 C.3   1 <1>   0.3430 
 14 C       -5.1540    -4.0880     0.7870 C.3   1 <1>   0.3430 
 15 C       -5.0270    -1.8870    -1.1710 C.3   1 <1>   0.2090 
 16 C       -6.1970    -3.9840    -0.3450 C.3   1 <1>   0.2090 
 17 N       -6.3080    -2.5840    -0.8480 N.pl3 1 <1>  -0.8380 
 18 C       -7.4400    -1.8520    -0.4920 C.ar  1 <1>   0.1000 
 19 C       -7.3770    -0.7710     0.3840 C.ar  1 <1>  -0.1500 
 20 C       -8.6770    -2.2110    -1.0110 C.ar  1 <1>  -0.1500 
 21 C       -8.5200    -0.0750     0.7320 C.ar  1 <1>  -0.1500 
 22 C       -9.8230    -1.5190    -0.6650 C.ar  1 <1>  -0.1500 
 23 C       -9.7460    -0.4490     0.2090 C.ar  1 <1>  -0.1500 
 24 H       -1.6030    -1.2130     2.0220 H     1 <1>   0.1500 
 25 H        2.5850    -2.4400    -0.9460 H     1 <1>   0.4500 
 26 H       -1.0320    -4.9120    -0.0660 H     1 <1>   0.1500 
 27 H       -3.1430    -3.0320     2.3640 H     1 <1>   0.0800 
 28 H       -2.7470    -4.6450     1.8170 H     1 <1>   0.0800 
 29 H        1.9800    -5.9760    -1.8440 H     1 <1>   0.0800 
 30 H        0.2380    -5.7440    -1.8160 H     1 <1>   0.0800 
 31 H        1.1210    -6.0840    -0.3130 H     1 <1>   0.0800 
 32 H       -3.4560    -3.9970    -0.4010 H     1 <1>   0.4500 
 33 H       -3.0500    -1.6500    -0.3700 H     1 <1>   0.0800 
 34 H       -4.3220    -1.4510     0.8000 H     1 <1>   0.0800 
 35 H       -5.5520    -3.5750     1.6470 H     1 <1>   0.0800 
 36 H       -5.0290    -5.1250     1.0490 H     1 <1>   0.0800 
 37 H       -4.6280    -2.2940    -2.0840 H     1 <1>   0.0800 
 38 H       -5.2160    -0.8410    -1.3430 H     1 <1>   0.0800 
 39 H       -7.1540    -4.3120     0.0250 H     1 <1>   0.0800 
 40 H       -5.9240    -4.6320    -1.1600 H     1 <1>   0.0800 
 41 H       -6.4380    -0.4690     0.8020 H     1 <1>   0.1500 
 42 H       -8.7370    -3.0350    -1.6980 H     1 <1>   0.1500 
 43 H       -8.4630     0.7590     1.4100 H     1 <1>   0.1500 
 44 H      -10.7740    -1.8090    -1.0770 H     1 <1>   0.1500 
 45 H      -10.6370     0.0920     0.4790 H     1 <1>   0.1500 
@<TRIPOS>BOND
  1   1   2  1   
  2   2   3  ar  
  3   2   4  ar  
  4   3   5  1   
  5   3   6  ar  
  6   4   7  ar  
  7   4  24  1   
  8   5  25  1   
  9   6   8  1   
 10   6   9  ar  
 11   7   9  ar  
 12   7  10  1   
 13   8  11  1   
 14   9  26  1   
 15  10  12  1   
 16  10  27  1   
 17  10  28  1   
 18  11  29  1   
 19  11  30  1   
 20  11  31  1   
 21  12  13  1   
 22  12  14  1   
 23  12  32  1   
 24  13  15  1   
 25  13  33  1   
 26  13  34  1   
 27  14  16  1   
 28  14  35  1   
 29  14  36  1   
 30  15  17  1   
 31  15  37  1   
 32  15  38  1   
 33  16  17  1   
 34  16  39  1   
 35  16  40  1   
 36  17  18  1   
 37  18  19  ar  
 38  18  20  ar  
 39  19  21  ar  
 40  19  41  1   
 41  20  22  ar  
 42  20  42  1   
 43  21  23  ar  
 44  21  43  1   
 45  22  23  ar  
 46  22  44  1   
 47  23  45  1   
@<TRIPOS>SUBSTRUCTURE
  1 ****  13 GROUP 4 **** **** 0

# MOE 2024.06 (io_trps.svl 2023.06)
