@<TRIPOS>MOLECULE
NONAME
29 29 1 0 0 
SMALL
USER_CHARGES


@<TRIPOS>ATOM
  1 S        0.3350     0.2230    -0.3410 S.3   1 <1>  -0.3320 
  2 C       -1.2860     0.9790    -0.1320 C.ar  1 <1>   0.1020 
  3 C        1.3030     0.6150     1.1970 C.3   1 <1>   0.1310 
  4 C       -1.6670     1.6030     1.0460 C.ar  1 <1>  -0.1500 
  5 C       -2.1510     0.9140    -1.2090 C.ar  1 <1>  -0.1500 
  6 C        2.7380     0.1170     1.0860 C.2   1 <1>   0.5690 
  7 C       -2.9280     2.1690     1.1350 C.ar  1 <1>  -0.1500 
  8 C       -3.4100     1.4830    -1.1110 C.ar  1 <1>  -0.1500 
  9 O        3.1130    -0.7360     1.8510 O.2   1 <1>  -0.5700 
 10 N        3.6120     0.6250     0.1800 N.am  1 <1>  -0.7300 
 11 C       -3.8020     2.1140     0.0590 C.ar  1 <1>  -0.1430 
 12 C        3.3840     1.6410    -0.8650 C.3   1 <1>   0.1400 
 13 C       -5.1830     2.7360     0.1630 C.3   1 <1>  -0.0970 
 14 C        4.5520     2.6200    -0.8490 C.3   1 <1>  -0.2400 
 15 H        0.8070     0.1270     2.0150 H     1 <1>   0.0800 
 16 H        1.2870     1.6790     1.3300 H     1 <1>   0.0800 
 17 H       -1.0120     1.6540     1.8920 H     1 <1>   0.1500 
 18 H       -1.8410     0.4230    -2.1130 H     1 <1>   0.1500 
 19 H       -3.2290     2.6530     2.0480 H     1 <1>   0.1500 
 20 H       -4.0810     1.4300    -1.9500 H     1 <1>   0.1500 
 21 H        4.5390     0.1940     0.1850 H     1 <1>   0.3700 
 22 H        2.4640     2.1700    -0.6870 H     1 <1>   0.0800 
 23 H        3.3190     1.1550    -1.8250 H     1 <1>   0.0800 
 24 H       -5.1720     3.5690     0.8430 H     1 <1>   0.0800 
 25 H       -5.8850     2.0040     0.5220 H     1 <1>   0.0800 
 26 H       -5.5100     3.0890    -0.7980 H     1 <1>   0.0800 
 27 H        4.6200     3.1030     0.1090 H     1 <1>   0.0800 
 28 H        4.4010     3.3730    -1.6010 H     1 <1>   0.0800 
 29 H        5.4740     2.1090    -1.0610 H     1 <1>   0.0800 
@<TRIPOS>BOND
  1   1   2  1   
  2   1   3  1   
  3   2   4  ar  
  4   2   5  ar  
  5   3   6  1   
  6   3  15  1   
  7   3  16  1   
  8   4   7  ar  
  9   4  17  1   
 10   5   8  ar  
 11   5  18  1   
 12   6   9  2   
 13   6  10  am  
 14   7  11  ar  
 15   7  19  1   
 16   8  11  ar  
 17   8  20  1   
 18  10  12  1   
 19  10  21  1   
 20  11  13  1   
 21  12  14  1   
 22  12  22  1   
 23  12  23  1   
 24  13  24  1   
 25  13  25  1   
 26  13  26  1   
 27  14  27  1   
 28  14  28  1   
 29  14  29  1   
@<TRIPOS>SUBSTRUCTURE
  1 ****   1 GROUP 4 **** **** 0

# MOE 2024.06 (io_trps.svl 2023.06)
