@<TRIPOS>MOLECULE
NONAME
25 26 1 0 0 
SMALL
USER_CHARGES


@<TRIPOS>ATOM
  1 O       -0.6680     0.1830     0.9750 O.2   1 <1>  -0.5700 
  2 C       -1.4160     0.9510     0.4640 C.2   1 <1>   0.4480 
  3 C       -1.9630     0.7020    -0.9260 C.3   1 <1>  -0.0990 
  4 C       -1.9290     2.1650     1.2110 C.3   1 <1>  -0.0990 
  5 C       -3.4610     1.0360    -0.9790 C.3   1 <1>   0.4230 
  6 C       -3.4380     2.3060     0.9740 C.3   1 <1>   0.4230 
  7 N       -3.7000     2.4160    -0.4850 N.4   1 <1>  -0.9590 
  8 C       -4.2910     0.2230     0.0330 C.3   1 <1>   0.2000 
  9 C       -4.1660     1.0040     1.3510 C.3   1 <1>  -0.1600 
 10 C       -3.0510     3.5390    -1.2380 C.3   1 <1>   0.2630 
 11 O       -5.6180     0.3110    -0.3650 O.3   1 <1>  -0.6800 
 12 H       -1.4180     1.2870    -1.6420 H     1 <1>   0.0800 
 13 H       -1.8170    -0.3330    -1.1790 H     1 <1>   0.0800 
 14 H       -1.7400     2.0330     2.2620 H     1 <1>   0.0800 
 15 H       -1.4000     3.0460     0.9000 H     1 <1>   0.0800 
 16 H       -3.8440     0.8940    -1.9770 H     1 <1>   0.0800 
 17 H       -3.8350     3.1510     1.5150 H     1 <1>   0.0800 
 18 H       -4.7280     2.5150    -0.5740 H     1 <1>   0.4500 
 19 H       -4.0040    -0.8150     0.0930 H     1 <1>   0.0800 
 20 H       -5.1290     1.2290     1.7770 H     1 <1>   0.0800 
 21 H       -3.6080     0.4440     2.0820 H     1 <1>   0.0800 
 22 H       -1.9780     3.4540    -1.2040 H     1 <1>   0.0800 
 23 H       -3.3360     4.4870    -0.8110 H     1 <1>   0.0800 
 24 H       -3.3630     3.5220    -2.2700 H     1 <1>   0.0800 
 25 H       -6.1820    -0.3160     0.1370 H     1 <1>   0.4000 
@<TRIPOS>BOND
  1   1   2  2   
  2   2   3  1   
  3   2   4  1   
  4   3   5  1   
  5   3  12  1   
  6   3  13  1   
  7   4   6  1   
  8   4  14  1   
  9   4  15  1   
 10   5   7  1   
 11   5   8  1   
 12   5  16  1   
 13   6   7  1   
 14   6   9  1   
 15   6  17  1   
 16   7  10  1   
 17   7  18  1   
 18   8   9  1   
 19   8  11  1   
 20   8  19  1   
 21   9  20  1   
 22   9  21  1   
 23  10  22  1   
 24  10  23  1   
 25  10  24  1   
 26  11  25  1   
@<TRIPOS>SUBSTRUCTURE
  1 ****   5 GROUP 4 **** **** 0

# MOE 2024.06 (io_trps.svl 2023.06)
