@<TRIPOS>MOLECULE
NONAME
36 37 1 0 0 
SMALL
USER_CHARGES


@<TRIPOS>ATOM
  1 O        0.1890    -0.8900     1.2560 O.2   1 <1>  -0.5700 
  2 C        0.4680    -1.6250     0.3400 C.2   1 <1>   0.5690 
  3 N       -0.4630    -2.3550    -0.3510 N.am  1 <1>  -0.5470 
  4 C        1.9330    -1.7730    -0.0750 C.3   1 <1>  -0.0190 
  5 C       -1.8590    -2.4170    -0.2300 C.ar  1 <1>   0.1170 
  6 C        2.7680    -2.4220     1.0450 C.3   1 <1>  -0.1600 
  7 C        2.5430    -0.4190    -0.4880 C.3   1 <1>  -0.1600 
  8 C       -2.5220    -3.5430    -0.7010 C.ar  1 <1>  -0.1500 
  9 C       -2.6190    -1.3930     0.3260 C.ar  1 <1>  -0.1500 
 10 C        4.2420    -2.5680     0.6390 C.3   1 <1>  -0.1600 
 11 C        4.0160    -0.5640    -0.8960 C.3   1 <1>  -0.1600 
 12 C       -3.8990    -3.6500    -0.6150 C.ar  1 <1>  -0.1500 
 13 C       -3.9960    -1.4950     0.4140 C.ar  1 <1>  -0.1500 
 14 C        4.8380    -1.2170     0.2230 C.3   1 <1>  -0.1600 
 15 C       -4.6480    -2.6260    -0.0540 C.ar  1 <1>  -0.1430 
 16 C       -6.1630    -2.7470     0.0490 C.3   1 <1>   0.1830 
 17 C       -6.8250    -2.5600    -1.2740 C.1   1 <1>   0.3570 
 18 N       -7.3580    -2.4320    -2.2710 N.1   1 <1>  -0.5570 
 19 H       -0.0750    -2.9860    -1.0480 H     1 <1>   0.3700 
 20 H        1.9760    -2.4220    -0.9320 H     1 <1>   0.0800 
 21 H        2.3640    -3.3900     1.2860 H     1 <1>   0.0800 
 22 H        2.7040    -1.8130     1.9320 H     1 <1>   0.0800 
 23 H        2.4710     0.2680     0.3380 H     1 <1>   0.0800 
 24 H        1.9820    -0.0040    -1.3070 H     1 <1>   0.0800 
 25 H       -1.9600    -4.3480    -1.1380 H     1 <1>   0.1500 
 26 H       -2.1370    -0.5050     0.6900 H     1 <1>   0.1500 
 27 H        4.3220    -3.2610    -0.1810 H     1 <1>   0.0800 
 28 H        4.8040    -2.9690     1.4650 H     1 <1>   0.0800 
 29 H        4.4240     0.4060    -1.1210 H     1 <1>   0.0800 
 30 H        4.0850    -1.1650    -1.7870 H     1 <1>   0.0800 
 31 H       -4.3830    -4.5350    -0.9910 H     1 <1>   0.1500 
 32 H       -4.5490    -0.6820     0.8510 H     1 <1>   0.1500 
 33 H        5.8530    -1.3560    -0.1080 H     1 <1>   0.0800 
 34 H        4.8580    -0.5610     1.0770 H     1 <1>   0.0800 
 35 H       -6.5500    -2.0130     0.7310 H     1 <1>   0.0800 
 36 H       -6.4210    -3.7180     0.4270 H     1 <1>   0.0800 
@<TRIPOS>BOND
  1   1   2  2   
  2   2   3  am  
  3   2   4  1   
  4   3   5  1   
  5   3  19  1   
  6   4   6  1   
  7   4   7  1   
  8   4  20  1   
  9   5   8  ar  
 10   5   9  ar  
 11   6  10  1   
 12   6  21  1   
 13   6  22  1   
 14   7  11  1   
 15   7  23  1   
 16   7  24  1   
 17   8  12  ar  
 18   8  25  1   
 19   9  13  ar  
 20   9  26  1   
 21  10  14  1   
 22  10  27  1   
 23  10  28  1   
 24  11  14  1   
 25  11  29  1   
 26  11  30  1   
 27  12  15  ar  
 28  12  31  1   
 29  13  15  ar  
 30  13  32  1   
 31  14  33  1   
 32  14  34  1   
 33  15  16  1   
 34  16  17  1   
 35  16  35  1   
 36  16  36  1   
 37  17  18  3   
@<TRIPOS>SUBSTRUCTURE
  1 ****   3 GROUP 4 **** **** 0

# MOE 2024.06 (io_trps.svl 2023.06)
