@<TRIPOS>MOLECULE
NONAME
44 45 1 0 0 
SMALL
USER_CHARGES


@<TRIPOS>ATOM
  1 O       -0.8040     0.1770     0.9730 O.2   1 <1>  -0.5700 
  2 C       -1.4780     0.8990     0.2610 C.2   1 <1>   0.6900 
  3 N       -1.5300     2.2560     0.4570 N.am  1 <1>  -0.4770 
  4 N       -2.2280     0.3710    -0.7390 N.am  1 <1>  -0.7300 
  5 C       -2.7730     2.9440     0.4820 C.ar  1 <1>   0.1170 
  6 C       -0.2730     3.0640     0.3440 C.3   1 <1>   0.4380 
  7 C       -2.3690    -1.0570    -1.0630 C.3   1 <1>   0.1400 
  8 C       -2.9230     4.1210    -0.2730 C.ar  1 <1>   0.0280 
  9 C       -3.8630     2.4660     1.2250 C.ar  1 <1>  -0.1440 
 10 C       -0.5260     4.2370    -0.5940 C.2   1 <1>  -0.2880 
 11 C        0.0830     3.5960     1.7310 C.3   1 <1>  -0.2400 
 12 C        0.9200     2.2810    -0.2330 C.3   1 <1>  -0.2400 
 13 C       -3.8470    -1.3620    -1.2760 C.3   1 <1>  -0.2400 
 14 C       -1.7490     4.7000    -0.8940 C.2   1 <1>  -0.1670 
 15 C       -4.1840     4.7090    -0.3600 C.ar  1 <1>  -0.1500 
 16 C       -5.0960     3.0830     1.1230 C.ar  1 <1>  -0.1500 
 17 C       -3.7550     1.2840     2.1850 C.3   1 <1>  -0.0970 
 18 C       -1.9070     5.8580    -1.8680 C.3   1 <1>  -0.1020 
 19 C       -5.2700     4.1950     0.3200 C.ar  1 <1>  -0.1430 
 20 C       -6.6370     4.8460     0.2160 C.3   1 <1>  -0.0970 
 21 H       -2.8220     1.0250    -1.2480 H     1 <1>   0.3700 
 22 H       -1.9770    -1.6580    -0.2580 H     1 <1>   0.0800 
 23 H       -1.8100    -1.2750    -1.9570 H     1 <1>   0.0800 
 24 H        0.3730     4.6660    -0.9950 H     1 <1>   0.1500 
 25 H       -0.7200     4.2010     2.1100 H     1 <1>   0.0800 
 26 H        0.9700     4.1990     1.6830 H     1 <1>   0.0800 
 27 H        0.2570     2.7760     2.4040 H     1 <1>   0.0800 
 28 H        0.6660     1.8620    -1.1890 H     1 <1>   0.0800 
 29 H        1.2300     1.4980     0.4340 H     1 <1>   0.0800 
 30 H        1.7630     2.9340    -0.3660 H     1 <1>   0.0800 
 31 H       -4.4020    -1.1440    -0.3810 H     1 <1>   0.0800 
 32 H       -3.9690    -2.4050    -1.5070 H     1 <1>   0.0800 
 33 H       -4.2370    -0.7830    -2.0930 H     1 <1>   0.0800 
 34 H       -4.3240     5.5900    -0.9550 H     1 <1>   0.1500 
 35 H       -5.9360     2.7020     1.6770 H     1 <1>   0.1500 
 36 H       -2.8090     1.3010     2.6960 H     1 <1>   0.0800 
 37 H       -3.8440     0.3580     1.6470 H     1 <1>   0.0800 
 38 H       -4.5290     1.3220     2.9290 H     1 <1>   0.0800 
 39 H       -2.5650     5.5780    -2.6710 H     1 <1>   0.0800 
 40 H       -0.9580     6.1330    -2.2920 H     1 <1>   0.0800 
 41 H       -2.3090     6.7170    -1.3610 H     1 <1>   0.0800 
 42 H       -6.6720     5.5350    -0.6080 H     1 <1>   0.0800 
 43 H       -6.8550     5.3810     1.1230 H     1 <1>   0.0800 
 44 H       -7.3920     4.0960     0.0640 H     1 <1>   0.0800 
@<TRIPOS>BOND
  1   1   2  2   
  2   2   3  am  
  3   2   4  am  
  4   3   5  1   
  5   3   6  1   
  6   4   7  1   
  7   4  21  1   
  8   5   8  ar  
  9   5   9  ar  
 10   6  10  1   
 11   6  11  1   
 12   6  12  1   
 13   7  13  1   
 14   7  22  1   
 15   7  23  1   
 16   8  14  1   
 17   8  15  ar  
 18   9  16  ar  
 19   9  17  1   
 20  10  14  2   
 21  10  24  1   
 22  11  25  1   
 23  11  26  1   
 24  11  27  1   
 25  12  28  1   
 26  12  29  1   
 27  12  30  1   
 28  13  31  1   
 29  13  32  1   
 30  13  33  1   
 31  14  18  1   
 32  15  19  ar  
 33  15  34  1   
 34  16  19  ar  
 35  16  35  1   
 36  17  36  1   
 37  17  37  1   
 38  17  38  1   
 39  18  39  1   
 40  18  40  1   
 41  18  41  1   
 42  19  20  1   
 43  20  42  1   
 44  20  43  1   
 45  20  44  1   
@<TRIPOS>SUBSTRUCTURE
  1 ****   5 GROUP 4 **** **** 0

# MOE 2024.06 (io_trps.svl 2023.06)
