@<TRIPOS>MOLECULE
NONAME
56 58 1 0 0 
SMALL
USER_CHARGES


@<TRIPOS>ATOM
  1 S       -0.1020    -1.0640    -0.3820 S.3   1 <1>  -0.0800 
  2 C        0.8860     0.3900    -0.2940 C.2   1 <1>   0.1040 
  3 C       -1.4710    -0.2400     0.3200 C.2   1 <1>  -0.1400 
  4 N        2.1980     0.3500    -0.7480 N.am  1 <1>  -0.4940 
  5 C        0.1770     1.4330     0.2510 C.2   1 <1>  -0.0860 
  6 C       -1.1710     1.0340     0.6070 C.2   1 <1>  -0.1810 
  7 C       -2.7740    -0.9880     0.5150 C.3   1 <1>   0.3200 
  8 C        2.9400    -0.6110    -1.3950 C.2   1 <1>   0.5690 
  9 C        0.6940     2.7660     0.4330 C.2   1 <1>   0.8060 
 10 C       -2.2390     1.9160     1.2460 C.3   1 <1>   0.0210 
 11 N       -3.8180    -0.0300     0.9830 N.am  1 <1>  -0.6600 
 12 O        2.4880    -1.6620    -1.7780 O.2   1 <1>  -0.5700 
 13 C        4.4090    -0.2890    -1.6990 C.3   1 <1>   0.1710 
 14 O        0.0110     3.7280     0.7300 O.2   1 <1>  -0.5700 
 15 O        2.0120     2.9670     0.2590 O.3   1 <1>  -0.4300 
 16 C       -3.3550     1.0700     1.8880 C.3   1 <1>   0.1400 
 17 C       -5.1290    -0.1700     0.6280 C.2   1 <1>   0.7800 
 18 N        5.3690    -0.4510    -0.5700 N.3   1 <1>  -0.8100 
 19 C        2.5750     4.2570     0.3830 C.3   1 <1>   0.1200 
 20 O       -5.9940     0.6060     0.9880 O.2   1 <1>  -0.5700 
 21 O       -5.4560    -1.2130    -0.1360 O.3   1 <1>  -0.4300 
 22 C        6.7570    -0.2560    -1.0390 C.3   1 <1>   0.1100 
 23 C        5.0970     0.4240     0.5880 C.3   1 <1>   0.1100 
 24 C        4.0860     4.1450     0.2060 C.3   1 <1>  -0.2400 
 25 C       -6.7880    -1.4220    -0.5450 C.3   1 <1>   0.1200 
 26 C        7.7660    -0.3940     0.1150 C.3   1 <1>   0.1200 
 27 C        6.1700     0.2620     1.6800 C.3   1 <1>   0.1200 
 28 C       -6.8250    -2.6790    -1.4080 C.3   1 <1>  -0.2400 
 29 O        7.4430     0.4890     1.1500 O.3   1 <1>  -0.5600 
 30 H        2.7220     1.2050    -0.5540 H     1 <1>   0.3700 
 31 H       -2.6440    -1.7660     1.2460 H     1 <1>   0.0800 
 32 H       -3.0630    -1.4350    -0.4210 H     1 <1>   0.0800 
 33 H       -2.6610     2.5650     0.5000 H     1 <1>   0.0800 
 34 H       -1.8070     2.5280     2.0160 H     1 <1>   0.0800 
 35 H        4.4670     0.7160    -2.0760 H     1 <1>   0.0800 
 36 H        4.7110    -0.9470    -2.4940 H     1 <1>   0.0800 
 37 H       -4.1770     1.7120     2.1550 H     1 <1>   0.0800 
 38 H       -2.9800     0.6250     2.7930 H     1 <1>   0.0800 
 39 H        2.3330     4.6490     1.3570 H     1 <1>   0.0800 
 40 H        2.1440     4.8910    -0.3750 H     1 <1>   0.0800 
 41 H        6.8650     0.7200    -1.4780 H     1 <1>   0.0800 
 42 H        6.9860    -0.9920    -1.7900 H     1 <1>   0.0800 
 43 H        4.1430     0.1730     1.0170 H     1 <1>   0.0800 
 44 H        5.0780     1.4520     0.2730 H     1 <1>   0.0800 
 45 H        4.5110     3.5600     1.0010 H     1 <1>   0.0800 
 46 H        4.5240     5.1260     0.2440 H     1 <1>   0.0800 
 47 H        4.3240     3.7050    -0.7460 H     1 <1>   0.0800 
 48 H       -7.1120    -0.5590    -1.1040 H     1 <1>   0.0800 
 49 H       -7.4010    -1.5350     0.3330 H     1 <1>   0.0800 
 50 H        8.7580    -0.1540    -0.2250 H     1 <1>   0.0800 
 51 H        7.7640    -1.3980     0.5020 H     1 <1>   0.0800 
 52 H        6.1380    -0.7310     2.0940 H     1 <1>   0.0800 
 53 H        6.0100     0.9730     2.4700 H     1 <1>   0.0800 
 54 H       -6.1970    -2.5540    -2.2720 H     1 <1>   0.0800 
 55 H       -7.8310    -2.8620    -1.7390 H     1 <1>   0.0800 
 56 H       -6.4910    -3.5280    -0.8390 H     1 <1>   0.0800 
@<TRIPOS>BOND
  1   1   2  1   
  2   1   3  1   
  3   2   4  1   
  4   2   5  2   
  5   3   6  2   
  6   3   7  1   
  7   4   8  am  
  8   4  30  1   
  9   5   6  1   
 10   5   9  1   
 11   6  10  1   
 12   7  11  1   
 13   7  31  1   
 14   7  32  1   
 15   8  12  2   
 16   8  13  1   
 17   9  14  2   
 18   9  15  1   
 19  10  16  1   
 20  10  33  1   
 21  10  34  1   
 22  11  16  1   
 23  11  17  am  
 24  13  18  1   
 25  13  35  1   
 26  13  36  1   
 27  15  19  1   
 28  16  37  1   
 29  16  38  1   
 30  17  20  2   
 31  17  21  1   
 32  18  22  1   
 33  18  23  1   
 34  19  24  1   
 35  19  39  1   
 36  19  40  1   
 37  21  25  1   
 38  22  26  1   
 39  22  41  1   
 40  22  42  1   
 41  23  27  1   
 42  23  43  1   
 43  23  44  1   
 44  24  45  1   
 45  24  46  1   
 46  24  47  1   
 47  25  28  1   
 48  25  48  1   
 49  25  49  1   
 50  26  29  1   
 51  26  50  1   
 52  26  51  1   
 53  27  29  1   
 54  27  52  1   
 55  27  53  1   
 56  28  54  1   
 57  28  55  1   
 58  28  56  1   
@<TRIPOS>SUBSTRUCTURE
  1 ****   2 GROUP 4 **** **** 0

# MOE 2024.06 (io_trps.svl 2023.06)
