@<TRIPOS>MOLECULE
NONAME
51 53 1 0 0 
SMALL
USER_CHARGES


@<TRIPOS>ATOM
  1 O       -2.4560     6.6620     0.6460 O.3   1 <1>  -0.5600 
  2 C       -2.2410     7.4230    -0.5220 C.3   1 <1>   0.2000 
  3 C       -2.8520     5.3280     0.4620 C.3   1 <1>   0.2640 
  4 C       -0.7210     7.6780    -0.6680 C.3   1 <1>   0.3430 
  5 C       -3.0570     8.7290    -0.4080 C.3   1 <1>   0.3430 
  6 C       -4.3140     5.3050     0.0520 C.ar  1 <1>  -0.1440 
  7 N       -0.0350     7.7790     0.6620 N.4   1 <1>  -0.9590 
  8 N       -4.5210     8.4710    -0.2340 N.4   1 <1>  -0.9590 
  9 C       -5.2930     5.6150     0.9850 C.ar  1 <1>  -0.1500 
 10 C       -4.6860     4.9610    -1.2400 C.ar  1 <1>  -0.1500 
 11 C        0.0870     9.1400     1.2440 C.3   1 <1>   0.3430 
 12 C        1.3410     7.2190     0.6610 C.3   1 <1>   0.3430 
 13 C       -5.2950     8.3800    -1.5050 C.3   1 <1>   0.3430 
 14 C       -5.2100     9.4720     0.6160 C.3   1 <1>   0.3430 
 15 C       -6.6290     5.5960     0.6260 C.ar  1 <1>  -0.1500 
 16 C       -6.0220     4.9420    -1.5980 C.ar  1 <1>  -0.1500 
 17 C        1.1540     8.9950     2.3200 C.3   1 <1>  -0.1600 
 18 C        1.9740     7.7610     1.9350 C.3   1 <1>  -0.1600 
 19 C       -6.7080     8.8440    -1.1680 C.3   1 <1>  -0.1600 
 20 C       -6.6800     9.2750     0.2970 C.3   1 <1>  -0.1600 
 21 C       -6.9930     5.2620    -0.6660 C.ar  1 <1>  -0.1500 
 22 H       -2.5870     6.8830    -1.3880 H     1 <1>   0.0800 
 23 H       -2.7320     4.8130     1.4010 H     1 <1>   0.0800 
 24 H       -2.2200     4.8560    -0.2720 H     1 <1>   0.0800 
 25 H       -0.5340     8.5580    -1.2620 H     1 <1>   0.0800 
 26 H       -0.3070     6.8410    -1.2050 H     1 <1>   0.0800 
 27 H       -2.9010     9.3400    -1.2820 H     1 <1>   0.0800 
 28 H       -2.6910     9.2760     0.4450 H     1 <1>   0.0800 
 29 H       -0.5940     7.2070     1.3210 H     1 <1>   0.4500 
 30 H       -4.6350     7.5500     0.2350 H     1 <1>   0.4500 
 31 H       -5.0230     5.8560     2.0000 H     1 <1>   0.1500 
 32 H       -3.9470     4.6890    -1.9740 H     1 <1>   0.1500 
 33 H       -0.8450     9.4870     1.6600 H     1 <1>   0.0800 
 34 H        0.4320     9.8320     0.4920 H     1 <1>   0.0800 
 35 H        1.8880     7.5850    -0.1930 H     1 <1>   0.0800 
 36 H        1.3360     6.1400     0.6500 H     1 <1>   0.0800 
 37 H       -5.3020     7.3700    -1.8810 H     1 <1>   0.0800 
 38 H       -4.8750     9.0350    -2.2500 H     1 <1>   0.0800 
 39 H       -4.9130    10.4680     0.3290 H     1 <1>   0.0800 
 40 H       -5.0070     9.3200     1.6640 H     1 <1>   0.0800 
 41 H       -7.3910     5.8230     1.3540 H     1 <1>   0.1500 
 42 H       -6.3120     4.6630    -2.5980 H     1 <1>   0.1500 
 43 H        0.6880     8.8510     3.2800 H     1 <1>   0.0800 
 44 H        1.7640     9.8810     2.3690 H     1 <1>   0.0800 
 45 H        3.0080     8.0060     1.7640 H     1 <1>   0.0800 
 46 H        1.9250     7.0190     2.7140 H     1 <1>   0.0800 
 47 H       -7.4210     8.0540    -1.3290 H     1 <1>   0.0800 
 48 H       -6.9710     9.6710    -1.8040 H     1 <1>   0.0800 
 49 H       -7.2450    10.1750     0.4680 H     1 <1>   0.0800 
 50 H       -7.0780     8.4960     0.9230 H     1 <1>   0.0800 
 51 H       -8.0350     5.2350    -0.9430 H     1 <1>   0.1500 
@<TRIPOS>BOND
  1   1   2  1   
  2   1   3  1   
  3   2   4  1   
  4   2   5  1   
  5   2  22  1   
  6   3   6  1   
  7   3  23  1   
  8   3  24  1   
  9   4   7  1   
 10   4  25  1   
 11   4  26  1   
 12   5   8  1   
 13   5  27  1   
 14   5  28  1   
 15   6   9  ar  
 16   6  10  ar  
 17   7  11  1   
 18   7  12  1   
 19   7  29  1   
 20   8  13  1   
 21   8  14  1   
 22   8  30  1   
 23   9  15  ar  
 24   9  31  1   
 25  10  16  ar  
 26  10  32  1   
 27  11  17  1   
 28  11  33  1   
 29  11  34  1   
 30  12  18  1   
 31  12  35  1   
 32  12  36  1   
 33  13  19  1   
 34  13  37  1   
 35  13  38  1   
 36  14  20  1   
 37  14  39  1   
 38  14  40  1   
 39  15  21  ar  
 40  15  41  1   
 41  16  21  ar  
 42  16  42  1   
 43  17  18  1   
 44  17  43  1   
 45  17  44  1   
 46  18  45  1   
 47  18  46  1   
 48  19  20  1   
 49  19  47  1   
 50  19  48  1   
 51  20  49  1   
 52  20  50  1   
 53  21  51  1   
@<TRIPOS>SUBSTRUCTURE
  1 ****   1 GROUP 4 **** **** 0

# MOE 2024.06 (io_trps.svl 2023.06)
