@<TRIPOS>MOLECULE
NONAME
47 49 1 0 0 
SMALL
USER_CHARGES


@<TRIPOS>ATOM
  1 CL      -3.8190     4.8290     1.5250 Cl    1 <1>  -0.1770 
  2 C       -2.2890     4.1100     1.0610 C.ar  1 <1>   0.1770 
  3 C       -2.2840     2.9330     0.3140 C.ar  1 <1>   0.1170 
  4 C       -1.1220     4.7400     1.4490 C.ar  1 <1>  -0.1500 
  5 N       -3.5020     2.3310    -0.0470 N.am  1 <1>  -0.5470 
  6 C       -1.0460     2.3990    -0.0350 C.ar  1 <1>  -0.1500 
  7 C        0.0970     4.1920     1.0900 C.ar  1 <1>  -0.1500 
  8 C       -3.8480     1.4050    -0.9880 C.2   1 <1>   0.5690 
  9 C        0.1310     3.0220     0.3480 C.ar  1 <1>  -0.1500 
 10 O       -3.0650     0.8620    -1.7290 O.2   1 <1>  -0.5700 
 11 C       -5.3370     1.0670    -1.0880 C.3   1 <1>   0.1710 
 12 N       -6.2210     2.1010    -0.4740 N.3   1 <1>  -0.8100 
 13 C       -6.3370     3.3010    -1.3440 C.3   1 <1>   0.1100 
 14 C       -7.5740     1.5620    -0.2020 C.3   1 <1>   0.1100 
 15 C       -7.2450     4.3810    -0.7240 C.3   1 <1>   0.2090 
 16 C       -8.5010     2.6170     0.4330 C.3   1 <1>   0.2090 
 17 N       -8.5990     3.8290    -0.4300 N.pl3 1 <1>  -0.8380 
 18 C       -9.5570     4.7720    -0.0310 C.ar  1 <1>   0.1000 
 19 C       -9.4920     5.5190     1.1610 C.ar  1 <1>   0.0830 
 20 C      -10.6330     4.9740    -0.8830 C.ar  1 <1>  -0.1500 
 21 O       -8.4300     5.3220     2.0010 O.3   1 <1>  -0.3620 
 22 C      -10.5010     6.4310     1.4580 C.ar  1 <1>  -0.1500 
 23 C      -11.6300     5.8840    -0.5830 C.ar  1 <1>  -0.1500 
 24 C       -8.1470     6.2190     3.0510 C.3   1 <1>   0.0400 
 25 C      -11.5640     6.6130     0.5890 C.ar  1 <1>  -0.1500 
 26 H       -1.1680     5.6470     2.0240 H     1 <1>   0.1500 
 27 H       -4.3400     2.7160     0.4090 H     1 <1>   0.3700 
 28 H       -0.9950     1.4910    -0.6060 H     1 <1>   0.1500 
 29 H        1.0160     4.6710     1.3840 H     1 <1>   0.1500 
 30 H        1.0770     2.5920     0.0660 H     1 <1>   0.1500 
 31 H       -5.4790     0.1310    -0.5790 H     1 <1>   0.0800 
 32 H       -5.5970     0.9240    -2.1220 H     1 <1>   0.0800 
 33 H       -6.7470     3.0220    -2.3000 H     1 <1>   0.0800 
 34 H       -5.3640     3.7290    -1.5110 H     1 <1>   0.0800 
 35 H       -7.4970     0.7250     0.4690 H     1 <1>   0.0800 
 36 H       -8.0230     1.2190    -1.1190 H     1 <1>   0.0800 
 37 H       -7.3410     5.2070    -1.4070 H     1 <1>   0.0800 
 38 H       -6.7910     4.7440     0.1810 H     1 <1>   0.0800 
 39 H       -8.1150     2.8870     1.4000 H     1 <1>   0.0800 
 40 H       -9.4830     2.2000     0.5690 H     1 <1>   0.0800 
 41 H      -10.6770     4.4030    -1.7920 H     1 <1>   0.1500 
 42 H      -10.4840     7.0080     2.3610 H     1 <1>   0.1500 
 43 H      -12.4540     6.0210    -1.2610 H     1 <1>   0.1500 
 44 H       -7.2070     5.9320     3.4890 H     1 <1>   0.0800 
 45 H       -8.9270     6.1520     3.7880 H     1 <1>   0.0800 
 46 H       -8.0750     7.2140     2.6500 H     1 <1>   0.0800 
 47 H      -12.3390     7.3210     0.8260 H     1 <1>   0.1500 
@<TRIPOS>BOND
  1   1   2  1   
  2   2   3  ar  
  3   2   4  ar  
  4   3   5  1   
  5   3   6  ar  
  6   4   7  ar  
  7   4  26  1   
  8   5   8  am  
  9   5  27  1   
 10   6   9  ar  
 11   6  28  1   
 12   7   9  ar  
 13   7  29  1   
 14   8  10  2   
 15   8  11  1   
 16   9  30  1   
 17  11  12  1   
 18  11  31  1   
 19  11  32  1   
 20  12  13  1   
 21  12  14  1   
 22  13  15  1   
 23  13  33  1   
 24  13  34  1   
 25  14  16  1   
 26  14  35  1   
 27  14  36  1   
 28  15  17  1   
 29  15  37  1   
 30  15  38  1   
 31  16  17  1   
 32  16  39  1   
 33  16  40  1   
 34  17  18  1   
 35  18  19  ar  
 36  18  20  ar  
 37  19  21  1   
 38  19  22  ar  
 39  20  23  ar  
 40  20  41  1   
 41  21  24  1   
 42  22  25  ar  
 43  22  42  1   
 44  23  25  ar  
 45  23  43  1   
 46  24  44  1   
 47  24  45  1   
 48  24  46  1   
 49  25  47  1   
@<TRIPOS>SUBSTRUCTURE
  1 ****  15 GROUP 4 **** **** 0

# MOE 2024.06 (io_trps.svl 2023.06)
