@<TRIPOS>MOLECULE
NONAME
40 42 1 0 0 
SMALL
USER_CHARGES


@<TRIPOS>ATOM
  1 BR      -1.8300    -0.9020    -2.3930 Br    1 <1>  -0.1100 
  2 C       -2.9260     0.2700    -1.3220 C.2   1 <1>   0.1240 
  3 C       -2.2810     1.3540    -0.6600 C.2   1 <1>   0.3760 
  4 C       -4.2580     0.0520    -1.2140 C.2   1 <1>  -0.1810 
  5 N       -2.9320     2.1920     0.0800 N.2   1 <1>  -0.5760 
  6 N       -4.9590     0.9410    -0.4280 N.pl3 1 <1>   0.6010 
  7 C       -4.2950     1.9750     0.1910 C.2   1 <1>  -0.0260 
  8 N       -6.2710     0.9500    -0.1550 N.2   1 <1>  -0.7070 
  9 C       -5.2440     2.6570     0.8700 C.2   1 <1>  -0.1500 
 10 C       -6.4550     2.0010     0.6410 C.2   1 <1>   0.2030 
 11 C       -7.7210     2.4740     1.2060 C.2   1 <1>   0.7160 
 12 O       -7.8310     3.6570     1.4840 O.2   1 <1>  -0.5700 
 13 N       -8.8170     1.6570     1.4430 N.am  1 <1>  -0.6600 
 14 C      -10.1980     2.2090     1.5570 C.3   1 <1>   0.1400 
 15 C       -8.7690     0.1720     1.4970 C.3   1 <1>   0.1400 
 16 C      -11.0490     1.6820     0.3920 C.3   1 <1>  -0.0190 
 17 C       -9.5810    -0.3950     0.3290 C.3   1 <1>  -0.1600 
 18 C      -12.4720     2.2070     0.4910 C.2   1 <1>   0.6590 
 19 C      -11.0230     0.1390     0.3350 C.3   1 <1>  -0.1600 
 20 O      -13.0100     2.4120     1.5490 O.2   1 <1>  -0.5700 
 21 O      -13.0890     2.4140    -0.6650 O.3   1 <1>  -0.4300 
 22 C      -14.4110     2.8940    -0.7170 C.3   1 <1>   0.1200 
 23 C      -14.8120     3.0170    -2.1830 C.3   1 <1>  -0.2400 
 24 H       -1.2190     1.4670    -0.7890 H     1 <1>   0.0600 
 25 H       -4.8090    -0.7390    -1.6820 H     1 <1>   0.1500 
 26 H       -5.1090     3.5390     1.4710 H     1 <1>   0.1500 
 27 H      -10.1870     3.2860     1.5360 H     1 <1>   0.0800 
 28 H      -10.6230     1.9010     2.4980 H     1 <1>   0.0800 
 29 H       -9.1990    -0.1550     2.4290 H     1 <1>   0.0800 
 30 H       -7.7570    -0.1900     1.4650 H     1 <1>   0.0800 
 31 H      -10.6270     2.0700    -0.5170 H     1 <1>   0.0800 
 32 H       -9.5920    -1.4690     0.3920 H     1 <1>   0.0800 
 33 H       -9.0930    -0.1270    -0.5930 H     1 <1>   0.0800 
 34 H      -11.5390    -0.2000    -0.5470 H     1 <1>   0.0800 
 35 H      -11.5420    -0.2540     1.1940 H     1 <1>   0.0800 
 36 H      -14.4460     3.8510    -0.2230 H     1 <1>   0.0800 
 37 H      -15.0480     2.1960    -0.1980 H     1 <1>   0.0800 
 38 H      -14.1610     3.7080    -2.6880 H     1 <1>   0.0800 
 39 H      -15.8200     3.3830    -2.2530 H     1 <1>   0.0800 
 40 H      -14.7620     2.0570    -2.6630 H     1 <1>   0.0800 
@<TRIPOS>BOND
  1   1   2  1   
  2   2   3  1   
  3   2   4  2   
  4   3   5  2   
  5   3  24  1   
  6   4   6  1   
  7   4  25  1   
  8   5   7  1   
  9   6   7  1   
 10   6   8  1   
 11   7   9  2   
 12   8  10  2   
 13   9  10  1   
 14   9  26  1   
 15  10  11  1   
 16  11  12  2   
 17  11  13  am  
 18  13  14  1   
 19  13  15  1   
 20  14  16  1   
 21  14  27  1   
 22  14  28  1   
 23  15  17  1   
 24  15  29  1   
 25  15  30  1   
 26  16  18  1   
 27  16  19  1   
 28  16  31  1   
 29  17  19  1   
 30  17  32  1   
 31  17  33  1   
 32  18  20  2   
 33  18  21  1   
 34  19  34  1   
 35  19  35  1   
 36  21  22  1   
 37  22  23  1   
 38  22  36  1   
 39  22  37  1   
 40  23  38  1   
 41  23  39  1   
 42  23  40  1   
@<TRIPOS>SUBSTRUCTURE
  1 ****  11 GROUP 4 **** **** 0

# MOE 2024.06 (io_trps.svl 2023.06)
