@<TRIPOS>MOLECULE
NONAME
31 32 1 0 0 
SMALL
USER_CHARGES


@<TRIPOS>ATOM
  1 F       -1.4390     0.9650     1.4940 F     1 <1>  -0.1900 
  2 C       -0.8610     1.9830     0.9130 C.ar  1 <1>   0.1900 
  3 C       -1.4360     2.5410    -0.2230 C.ar  1 <1>  -0.1440 
  4 C        0.3210     2.4500     1.4670 C.ar  1 <1>  -0.1500 
  5 C       -0.7800     3.6070    -0.8260 C.ar  1 <1>  -0.1500 
  6 C       -2.7400     2.0040    -0.7970 C.3   1 <1>   0.2540 
  7 C        0.9660     3.5180     0.8640 C.ar  1 <1>  -0.1500 
  8 C        0.4000     4.0720    -0.2720 C.ar  1 <1>   0.1900 
  9 N       -3.9010     2.5400    -0.0690 N.3   1 <1>  -0.8100 
 10 F        1.0060     5.0780    -0.8450 F     1 <1>  -0.1900 
 11 C       -5.1340     1.8190    -0.4450 C.3   1 <1>   0.1100 
 12 C       -4.0680     4.0000    -0.2640 C.3   1 <1>   0.1100 
 13 C       -6.3530     2.3140     0.3530 C.3   1 <1>   0.1400 
 14 C       -5.2660     4.5530     0.5270 C.3   1 <1>   0.1400 
 15 N       -6.5040     3.7860     0.2140 N.am  1 <1>  -0.6600 
 16 C       -7.6520     4.3800    -0.2240 C.2   1 <1>   0.5700 
 17 O       -7.7680     5.5700    -0.3930 O.2   1 <1>  -0.5700 
 18 H        0.7220     1.9840     2.3490 H     1 <1>   0.1500 
 19 H       -1.1730     4.0780    -1.7090 H     1 <1>   0.1500 
 20 H       -2.7330     0.9300    -0.7150 H     1 <1>   0.0800 
 21 H       -2.8170     2.2530    -1.8420 H     1 <1>   0.0800 
 22 H        1.8840     3.9130     1.2590 H     1 <1>   0.1500 
 23 H       -5.0030     0.7670    -0.2530 H     1 <1>   0.0800 
 24 H       -5.3270     1.9470    -1.4970 H     1 <1>   0.0800 
 25 H       -4.2090     4.2180    -1.3090 H     1 <1>   0.0800 
 26 H       -3.1850     4.5140     0.0710 H     1 <1>   0.0800 
 27 H       -6.2130     2.0710     1.3930 H     1 <1>   0.0800 
 28 H       -7.2400     1.8150     0.0060 H     1 <1>   0.0800 
 29 H       -5.4010     5.5940     0.2920 H     1 <1>   0.0800 
 30 H       -5.0590     4.4740     1.5800 H     1 <1>   0.0800 
 31 H       -8.4990     3.7510    -0.4330 H     1 <1>   0.0600 
@<TRIPOS>BOND
  1   1   2  1   
  2   2   3  ar  
  3   2   4  ar  
  4   3   5  ar  
  5   3   6  1   
  6   4   7  ar  
  7   4  18  1   
  8   5   8  ar  
  9   5  19  1   
 10   6   9  1   
 11   6  20  1   
 12   6  21  1   
 13   7   8  ar  
 14   7  22  1   
 15   8  10  1   
 16   9  11  1   
 17   9  12  1   
 18  11  13  1   
 19  11  23  1   
 20  11  24  1   
 21  12  14  1   
 22  12  25  1   
 23  12  26  1   
 24  13  15  1   
 25  13  27  1   
 26  13  28  1   
 27  14  15  1   
 28  14  29  1   
 29  14  30  1   
 30  15  16  am  
 31  16  17  2   
 32  16  31  1   
@<TRIPOS>SUBSTRUCTURE
  1 ****   9 GROUP 4 **** **** 0

# MOE 2024.06 (io_trps.svl 2023.06)
