@<TRIPOS>MOLECULE
NONAME
39 40 1 0 0 
SMALL
USER_CHARGES


@<TRIPOS>ATOM
  1 S       -0.1490    -0.0830     0.4570 S.3   1 <1>  -0.0800 
  2 C        0.7890    -1.5320     0.3010 C.2   1 <1>   0.4420 
  3 C       -1.5610    -1.0730     0.3060 C.2   1 <1>   0.1980 
  4 N        0.0560    -2.5750     0.1610 N.2   1 <1>  -0.3380 
  5 N        2.1600    -1.4020     0.3440 N.am  1 <1>  -0.4940 
  6 N       -1.2840    -2.3050     0.1650 N.2   1 <1>  -0.3380 
  7 C       -2.9220    -0.4040     0.3600 C.3   1 <1>   0.0200 
  8 C        3.1550    -2.3210     0.2530 C.2   1 <1>   0.5690 
  9 C       -3.2100     0.3980    -0.9180 C.3   1 <1>  -0.1600 
 10 O        4.2940    -1.9380     0.3200 O.2   1 <1>  -0.5700 
 11 C        2.8580    -3.8040     0.0690 C.3   1 <1>  -0.0990 
 12 C       -4.6000     1.0470    -0.8730 C.3   1 <1>  -0.1600 
 13 C        4.1180    -4.6790    -0.0080 C.3   1 <1>  -0.0170 
 14 C       -4.8750     1.8430    -2.1510 C.3   1 <1>  -0.2400 
 15 C        3.7390    -6.1400    -0.1910 C.ar  1 <1>  -0.1440 
 16 C        3.5920    -6.6710    -1.4630 C.ar  1 <1>  -0.1500 
 17 C        3.5330    -6.9530     0.9130 C.ar  1 <1>  -0.1500 
 18 C        3.2430    -8.0000    -1.6310 C.ar  1 <1>  -0.1500 
 19 C        3.1840    -8.2820     0.7470 C.ar  1 <1>  -0.1500 
 20 C        3.0380    -8.8060    -0.5250 C.ar  1 <1>  -0.1500 
 21 H        2.5170    -0.4570     0.4640 H     1 <1>   0.3700 
 22 H       -2.9620     0.2410     1.2190 H     1 <1>   0.0800 
 23 H       -3.6710    -1.1660     0.4800 H     1 <1>   0.0800 
 24 H       -3.1490    -0.2620    -1.7670 H     1 <1>   0.0800 
 25 H       -2.4630     1.1640    -1.0380 H     1 <1>   0.0800 
 26 H        2.2910    -3.9310    -0.8340 H     1 <1>   0.0800 
 27 H        2.2530    -4.1380     0.8920 H     1 <1>   0.0800 
 28 H       -4.6670     1.7070    -0.0250 H     1 <1>   0.0800 
 29 H       -5.3530     0.2850    -0.7640 H     1 <1>   0.0800 
 30 H        4.6960    -4.5650     0.8930 H     1 <1>   0.0800 
 31 H        4.7340    -4.3590    -0.8310 H     1 <1>   0.0800 
 32 H       -4.1480     2.6270    -2.2720 H     1 <1>   0.0800 
 33 H       -5.8530     2.2880    -2.1040 H     1 <1>   0.0800 
 34 H       -4.8350     1.1990    -3.0130 H     1 <1>   0.0800 
 35 H        3.7470    -6.0510    -2.3290 H     1 <1>   0.1500 
 36 H        3.6420    -6.5540     1.9060 H     1 <1>   0.1500 
 37 H        3.1290    -8.4050    -2.6210 H     1 <1>   0.1500 
 38 H        3.0250    -8.9070     1.6080 H     1 <1>   0.1500 
 39 H        2.7660    -9.8390    -0.6550 H     1 <1>   0.1500 
@<TRIPOS>BOND
  1   1   2  1   
  2   1   3  1   
  3   2   4  2   
  4   2   5  1   
  5   3   6  2   
  6   3   7  1   
  7   4   6  1   
  8   5   8  am  
  9   5  21  1   
 10   7   9  1   
 11   7  22  1   
 12   7  23  1   
 13   8  10  2   
 14   8  11  1   
 15   9  12  1   
 16   9  24  1   
 17   9  25  1   
 18  11  13  1   
 19  11  26  1   
 20  11  27  1   
 21  12  14  1   
 22  12  28  1   
 23  12  29  1   
 24  13  15  1   
 25  13  30  1   
 26  13  31  1   
 27  14  32  1   
 28  14  33  1   
 29  14  34  1   
 30  15  16  ar  
 31  15  17  ar  
 32  16  18  ar  
 33  16  35  1   
 34  17  19  ar  
 35  17  36  1   
 36  18  20  ar  
 37  18  37  1   
 38  19  20  ar  
 39  19  38  1   
 40  20  39  1   
@<TRIPOS>SUBSTRUCTURE
  1 ****   4 GROUP 4 **** **** 0

# MOE 2024.06 (io_trps.svl 2023.06)
