@<TRIPOS>MOLECULE
NONAME
52 53 1 0 0 
SMALL
USER_CHARGES


@<TRIPOS>ATOM
  1 O        0.5640    -7.7260    -0.2700 O.3   1 <1>  -0.3630 
  2 C       -0.6690    -7.1560    -0.2220 C.ar  1 <1>   0.0820 
  3 C        1.7390    -6.9570    -0.1610 C.3   1 <1>   0.1200 
  4 C       -1.7730    -7.9990    -0.2410 C.ar  1 <1>  -0.1440 
  5 C       -0.8670    -5.7810    -0.1550 C.ar  1 <1>  -0.1500 
  6 C        2.9320    -7.9140    -0.2140 C.3   1 <1>   0.1100 
  7 C       -3.0480    -7.4590    -0.1880 C.ar  1 <1>  -0.1500 
  8 C       -1.5940    -9.5080    -0.3170 C.3   1 <1>  -0.0960 
  9 C       -2.1460    -5.2580    -0.1030 C.ar  1 <1>  -0.1500 
 10 N        4.2230    -7.2010    -0.0880 N.3   1 <1>  -0.8100 
 11 C       -3.2650    -6.0860    -0.1180 C.ar  1 <1>  -0.1430 
 12 C        4.4840    -6.7560     1.3070 C.3   1 <1>   0.1100 
 13 C        5.3370    -8.0570    -0.5660 C.3   1 <1>   0.1100 
 14 C       -4.7120    -5.5480    -0.0620 C.3   1 <1>   0.1430 
 15 C        5.8710    -6.0860     1.4720 C.3   1 <1>   0.3430 
 16 C        6.7140    -7.3550    -0.4650 C.3   1 <1>   0.3430 
 17 C       -5.4730    -5.9850    -1.3230 C.3   1 <1>  -0.2400 
 18 C       -4.7860    -4.0130     0.0130 C.3   1 <1>  -0.2400 
 19 C       -5.4210    -6.1060     1.1810 C.3   1 <1>  -0.2400 
 20 N        6.5890    -5.9950     0.1580 N.4   1 <1>  -0.9590 
 21 C        7.8820    -5.2560     0.2340 C.3   1 <1>   0.2630 
 22 H        1.7020    -6.4300     0.7740 H     1 <1>   0.0800 
 23 H        1.7730    -6.2710    -0.9890 H     1 <1>   0.0800 
 24 H       -0.0410    -5.0980    -0.1440 H     1 <1>   0.1500 
 25 H        2.8960    -8.4180    -1.1660 H     1 <1>   0.0800 
 26 H        2.8380    -8.6520     0.5650 H     1 <1>   0.0800 
 27 H       -3.8880    -8.1270    -0.2030 H     1 <1>   0.1500 
 28 H       -1.0590    -9.7640    -1.2140 H     1 <1>   0.0800 
 29 H       -2.5420   -10.0140    -0.3260 H     1 <1>   0.0800 
 30 H       -1.0290    -9.8500     0.5310 H     1 <1>   0.0800 
 31 H       -2.2420    -4.1910    -0.0520 H     1 <1>   0.1500 
 32 H        4.4210    -7.5970     1.9780 H     1 <1>   0.0800 
 33 H        3.7290    -6.0500     1.6070 H     1 <1>   0.0800 
 34 H        5.1640    -8.3260    -1.5940 H     1 <1>   0.0800 
 35 H        5.3650    -8.9700     0.0040 H     1 <1>   0.0800 
 36 H        6.4580    -6.6570     2.1730 H     1 <1>   0.0800 
 37 H        5.7350    -5.1000     1.8860 H     1 <1>   0.0800 
 38 H        7.1320    -7.2650    -1.4540 H     1 <1>   0.0800 
 39 H        7.3810    -7.9690     0.1170 H     1 <1>   0.0800 
 40 H       -5.5390    -7.0560    -1.3850 H     1 <1>   0.0800 
 41 H       -4.9630    -5.6290    -2.2010 H     1 <1>   0.0800 
 42 H       -6.4720    -5.5890    -1.3220 H     1 <1>   0.0800 
 43 H       -4.3270    -3.5700    -0.8520 H     1 <1>   0.0800 
 44 H       -4.2890    -3.6550     0.8970 H     1 <1>   0.0800 
 45 H       -5.8090    -3.6850     0.0510 H     1 <1>   0.0800 
 46 H       -4.8750    -5.8350     2.0670 H     1 <1>   0.0800 
 47 H       -5.4870    -7.1780     1.1420 H     1 <1>   0.0800 
 48 H       -6.4190    -5.7130     1.2590 H     1 <1>   0.0800 
 49 H        5.9180    -5.5050    -0.4570 H     1 <1>   0.4500 
 50 H        8.5740    -5.7750     0.8760 H     1 <1>   0.0800 
 51 H        7.7220    -4.2640     0.6270 H     1 <1>   0.0800 
 52 H        8.3190    -5.1680    -0.7480 H     1 <1>   0.0800 
@<TRIPOS>BOND
  1   1   2  1   
  2   1   3  1   
  3   2   4  ar  
  4   2   5  ar  
  5   3   6  1   
  6   3  22  1   
  7   3  23  1   
  8   4   7  ar  
  9   4   8  1   
 10   5   9  ar  
 11   5  24  1   
 12   6  10  1   
 13   6  25  1   
 14   6  26  1   
 15   7  11  ar  
 16   7  27  1   
 17   8  28  1   
 18   8  29  1   
 19   8  30  1   
 20   9  11  ar  
 21   9  31  1   
 22  10  12  1   
 23  10  13  1   
 24  11  14  1   
 25  12  15  1   
 26  12  32  1   
 27  12  33  1   
 28  13  16  1   
 29  13  34  1   
 30  13  35  1   
 31  14  17  1   
 32  14  18  1   
 33  14  19  1   
 34  15  20  1   
 35  15  36  1   
 36  15  37  1   
 37  16  20  1   
 38  16  38  1   
 39  16  39  1   
 40  17  40  1   
 41  17  41  1   
 42  17  42  1   
 43  18  43  1   
 44  18  44  1   
 45  18  45  1   
 46  19  46  1   
 47  19  47  1   
 48  19  48  1   
 49  20  21  1   
 50  20  49  1   
 51  21  50  1   
 52  21  51  1   
 53  21  52  1   
@<TRIPOS>SUBSTRUCTURE
  1 ****   1 GROUP 4 **** **** 0

# MOE 2024.06 (io_trps.svl 2023.06)
