@<TRIPOS>MOLECULE
NONAME
48 50 1 0 0 
SMALL
USER_CHARGES


@<TRIPOS>ATOM
  1 S       -0.6840     0.9570     2.7090 S.o2  1 <1>   1.4470 
  2 O       -0.1970    -0.2040     3.4170 O.2   1 <1>  -0.6500 
  3 O       -1.3390     2.0030     3.4560 O.2   1 <1>  -0.6500 
  4 N        0.7010     1.7410     2.0750 N.am  1 <1>  -0.7570 
  5 C       -1.6540     0.5640     1.2160 C.ar  1 <1>  -0.0090 
  6 C        1.6600     1.0790     1.3260 C.ar  1 <1>   0.1990 
  7 C       -1.5730    -0.6440     0.5140 C.ar  1 <1>  -0.1440 
  8 C       -2.5040     1.5430     0.7150 C.ar  1 <1>  -0.1500 
  9 C        1.7080     1.1920    -0.0660 C.ar  1 <1>  -0.1440 
 10 C        2.5940     0.2800     1.9740 C.ar  1 <1>  -0.1500 
 11 C       -2.3360    -0.8370    -0.6280 C.ar  1 <1>  -0.1500 
 12 C       -0.6580    -1.7820     0.9510 C.3   1 <1>  -0.0970 
 13 C       -3.2770     1.3700    -0.4270 C.ar  1 <1>   0.0860 
 14 C        2.6750     0.4980    -0.7740 C.ar  1 <1>  -0.1500 
 15 C        0.7230     2.0600    -0.8430 C.3   1 <1>  -0.0970 
 16 C        3.5580    -0.4060     1.2600 C.ar  1 <1>  -0.1500 
 17 C       -3.1750     0.1550    -1.0930 C.ar  1 <1>  -0.1500 
 18 C       -4.1490     2.4260    -0.9010 C.2   1 <1>   0.5440 
 19 C        3.5970    -0.2990    -0.1180 C.ar  1 <1>  -0.1500 
 20 O       -3.6660     3.5040    -1.1860 O.2   1 <1>  -0.5700 
 21 N       -5.5090     2.2410    -1.0250 N.am  1 <1>  -0.6600 
 22 C       -6.2640     1.1220    -0.3830 C.3   1 <1>   0.1400 
 23 C       -6.4040     3.2850    -1.6110 C.3   1 <1>   0.1400 
 24 C       -7.3420     1.6750     0.5650 C.3   1 <1>   0.1200 
 25 C       -7.4710     3.7130    -0.5910 C.3   1 <1>   0.1200 
 26 O       -8.1590     2.5970    -0.0980 O.3   1 <1>  -0.5600 
 27 H        1.0550     2.3590     2.7960 H     1 <1>   0.4200 
 28 H       -2.5720     2.4900     1.2250 H     1 <1>   0.1500 
 29 H        2.5580     0.1880     3.0450 H     1 <1>   0.1500 
 30 H       -2.2760    -1.7660    -1.1700 H     1 <1>   0.1500 
 31 H        0.3550    -1.4370     1.0490 H     1 <1>   0.0800 
 32 H       -0.6600    -2.5830     0.2340 H     1 <1>   0.0800 
 33 H       -0.9840    -2.1810     1.8950 H     1 <1>   0.0800 
 34 H        2.7160     0.5730    -1.8470 H     1 <1>   0.1500 
 35 H        0.4040     2.9050    -0.2600 H     1 <1>   0.0800 
 36 H       -0.1400     1.4820    -1.1160 H     1 <1>   0.0800 
 37 H        1.1800     2.4350    -1.7410 H     1 <1>   0.0800 
 38 H        4.2740    -1.0240     1.7740 H     1 <1>   0.1500 
 39 H       -3.7560    -0.0040    -1.9850 H     1 <1>   0.1500 
 40 H        4.3450    -0.8320    -0.6790 H     1 <1>   0.1500 
 41 H       -5.6060     0.4830     0.1770 H     1 <1>   0.0800 
 42 H       -6.7360     0.5300    -1.1470 H     1 <1>   0.0800 
 43 H       -6.8900     2.8850    -2.4830 H     1 <1>   0.0800 
 44 H       -5.8390     4.1480    -1.9180 H     1 <1>   0.0800 
 45 H       -6.8890     2.1620     1.4110 H     1 <1>   0.0800 
 46 H       -7.9700     0.8770     0.9200 H     1 <1>   0.0800 
 47 H       -8.1890     4.3650    -1.0550 H     1 <1>   0.0800 
 48 H       -7.0150     4.2320     0.2350 H     1 <1>   0.0800 
@<TRIPOS>BOND
  1   1   2  2   
  2   1   3  2   
  3   1   4  am  
  4   1   5  1   
  5   4   6  1   
  6   4  27  1   
  7   5   7  ar  
  8   5   8  ar  
  9   6   9  ar  
 10   6  10  ar  
 11   7  11  ar  
 12   7  12  1   
 13   8  13  ar  
 14   8  28  1   
 15   9  14  ar  
 16   9  15  1   
 17  10  16  ar  
 18  10  29  1   
 19  11  17  ar  
 20  11  30  1   
 21  12  31  1   
 22  12  32  1   
 23  12  33  1   
 24  13  17  ar  
 25  13  18  1   
 26  14  19  ar  
 27  14  34  1   
 28  15  35  1   
 29  15  36  1   
 30  15  37  1   
 31  16  19  ar  
 32  16  38  1   
 33  17  39  1   
 34  18  20  2   
 35  18  21  am  
 36  19  40  1   
 37  21  22  1   
 38  21  23  1   
 39  22  24  1   
 40  22  41  1   
 41  22  42  1   
 42  23  25  1   
 43  23  43  1   
 44  23  44  1   
 45  24  26  1   
 46  24  45  1   
 47  24  46  1   
 48  25  26  1   
 49  25  47  1   
 50  25  48  1   
@<TRIPOS>SUBSTRUCTURE
  1 ****   8 GROUP 4 **** **** 0

# MOE 2024.06 (io_trps.svl 2023.06)
