@<TRIPOS>MOLECULE
NONAME
53 55 1 0 0 
SMALL
USER_CHARGES


@<TRIPOS>ATOM
  1 O       -0.0900     0.3910     0.2940 O.2   1 <1>  -0.5700 
  2 C       -1.1570     0.9630     0.0480 C.2   1 <1>   0.5350 
  3 N       -2.3260     0.2070     0.1330 N.am  1 <1>  -0.4770 
  4 C       -1.2070     2.3320    -0.2820 C.3   1 <1>  -0.7150 
  5 C       -3.5740     0.7590    -0.2060 C.ar  1 <1>   0.1170 
  6 C       -2.2310    -1.1750     0.6880 C.3   1 <1>   0.1400 
  7 C       -2.4710     2.9440    -0.3340 C.2   1 <1>   0.3890 
  8 C       -0.0450     3.0770    -0.5660 C.2   1 <1>   0.5350 
  9 C       -3.6640     2.1400    -0.4240 C.ar  1 <1>   0.0860 
 10 C       -4.7330    -0.0150    -0.3370 C.ar  1 <1>  -0.1500 
 11 C       -1.9900    -2.1840    -0.4430 C.3   1 <1>  -0.1600 
 12 O       -2.6030     4.1710    -0.2680 O.2   1 <1>  -0.5700 
 13 O        0.0130     3.8970    -1.4770 O.2   1 <1>  -0.5700 
 14 N        1.0830     2.8200     0.1660 N.am  1 <1>  -0.5470 
 15 C       -4.9090     2.6970    -0.7320 C.ar  1 <1>  -0.1500 
 16 C       -5.9520     0.5530    -0.6450 C.ar  1 <1>  -0.1500 
 17 C       -2.0850    -3.6490     0.0220 C.3   1 <1>  -0.0800 
 18 C        2.3740     3.3610     0.1720 C.ar  1 <1>   0.1170 
 19 C       -6.0430     1.9200    -0.8400 C.ar  1 <1>  -0.1500 
 20 C       -1.0020    -3.9940     1.0530 C.3   1 <1>  -0.2400 
 21 C       -1.9570    -4.5840    -1.1860 C.3   1 <1>  -0.2400 
 22 C        3.4610     2.5650     0.5380 C.ar  1 <1>  -0.1430 
 23 C        2.6030     4.6920    -0.1570 C.ar  1 <1>  -0.1500 
 24 C        4.7370     3.1070     0.5670 C.ar  1 <1>  -0.1500 
 25 C        3.2560     1.0990     0.8990 C.3   1 <1>  -0.0970 
 26 C        3.8780     5.2250    -0.1280 C.ar  1 <1>  -0.1500 
 27 C        4.9550     4.4340     0.2350 C.ar  1 <1>  -0.1430 
 28 C        6.3560     5.0140     0.2710 C.3   1 <1>  -0.0970 
 29 H       -3.1300    -1.4120     1.2250 H     1 <1>   0.0800 
 30 H       -1.4250    -1.2210     1.3990 H     1 <1>   0.0800 
 31 H       -4.6930    -1.0780    -0.2040 H     1 <1>   0.1500 
 32 H       -1.0160    -1.9990    -0.8630 H     1 <1>   0.0800 
 33 H       -2.7170    -2.0150    -1.2170 H     1 <1>   0.0800 
 34 H        0.9740     1.8970     0.5910 H     1 <1>   0.3700 
 35 H       -4.9670     3.7600    -0.8900 H     1 <1>   0.1500 
 36 H       -6.8300    -0.0600    -0.7370 H     1 <1>   0.1500 
 37 H       -3.0520    -3.8090     0.4690 H     1 <1>   0.0800 
 38 H       -6.9890     2.3730    -1.0790 H     1 <1>   0.1500 
 39 H       -0.0240    -3.7850     0.6560 H     1 <1>   0.0800 
 40 H       -1.0520    -5.0370     1.3120 H     1 <1>   0.0800 
 41 H       -1.1350    -3.4230     1.9550 H     1 <1>   0.0800 
 42 H       -1.0000    -4.4540    -1.6630 H     1 <1>   0.0800 
 43 H       -2.7280    -4.3730    -1.9060 H     1 <1>   0.0800 
 44 H       -2.0520    -5.6100    -0.8790 H     1 <1>   0.0800 
 45 H        1.7650     5.3050    -0.4370 H     1 <1>   0.1500 
 46 H        5.5700     2.4900     0.8500 H     1 <1>   0.1500 
 47 H        2.7810     0.5860     0.0800 H     1 <1>   0.0800 
 48 H        2.6240     1.0200     1.7650 H     1 <1>   0.0800 
 49 H        4.1910     0.6140     1.1090 H     1 <1>   0.0800 
 50 H        4.0200     6.2580    -0.3890 H     1 <1>   0.1500 
 51 H        7.0760     4.2680    -0.0160 H     1 <1>   0.0800 
 52 H        6.5820     5.3540     1.2650 H     1 <1>   0.0800 
 53 H        6.4370     5.8430    -0.4080 H     1 <1>   0.0800 
@<TRIPOS>BOND
  1   1   2  2   
  2   2   3  am  
  3   2   4  1   
  4   3   5  1   
  5   3   6  1   
  6   4   7  1   
  7   4   8  1   
  8   5   9  ar  
  9   5  10  ar  
 10   6  11  1   
 11   6  29  1   
 12   6  30  1   
 13   7   9  1   
 14   7  12  2   
 15   8  13  2   
 16   8  14  am  
 17   9  15  ar  
 18  10  16  ar  
 19  10  31  1   
 20  11  17  1   
 21  11  32  1   
 22  11  33  1   
 23  14  18  1   
 24  14  34  1   
 25  15  19  ar  
 26  15  35  1   
 27  16  19  ar  
 28  16  36  1   
 29  17  20  1   
 30  17  21  1   
 31  17  37  1   
 32  18  22  ar  
 33  18  23  ar  
 34  19  38  1   
 35  20  39  1   
 36  20  40  1   
 37  20  41  1   
 38  21  42  1   
 39  21  43  1   
 40  21  44  1   
 41  22  24  ar  
 42  22  25  1   
 43  23  26  ar  
 44  23  45  1   
 45  24  27  ar  
 46  24  46  1   
 47  25  47  1   
 48  25  48  1   
 49  25  49  1   
 50  26  27  ar  
 51  26  50  1   
 52  27  28  1   
 53  28  51  1   
 54  28  52  1   
 55  28  53  1   
@<TRIPOS>SUBSTRUCTURE
  1 ****   2 GROUP 4 **** **** 0

# MOE 2024.06 (io_trps.svl 2023.06)
