@<TRIPOS>MOLECULE
NONAME
37 39 1 0 0 
SMALL
USER_CHARGES


@<TRIPOS>ATOM
  1 BR      -2.9210    -2.7110     0.5200 Br    1 <1>  -0.1110 
  2 C       -4.0550    -1.1690     0.6670 C.ar  1 <1>   0.1110 
  3 C       -4.1000    -0.2740    -0.3870 C.ar  1 <1>  -0.1500 
  4 C       -4.7970    -0.9980     1.8270 C.ar  1 <1>  -0.1500 
  5 C       -4.9260     0.8350    -0.2600 C.ar  1 <1>   0.0860 
  6 C       -5.6180     0.1120     1.9420 C.ar  1 <1>  -0.1500 
  7 C       -5.2110     1.9380    -1.1330 C.2   1 <1>   0.5440 
  8 C       -5.6770     1.0260     0.8940 C.ar  1 <1>   0.0860 
  9 O       -4.7420     2.1420    -2.2320 O.2   1 <1>  -0.5700 
 10 N       -6.1100     2.7660    -0.5170 N.am  1 <1>  -0.4200 
 11 C       -6.4140     2.2440     0.7110 C.2   1 <1>   0.5440 
 12 C       -6.7550     3.9610    -1.1290 C.3   1 <1>   0.2010 
 13 O       -7.1950     2.7580     1.4830 O.2   1 <1>  -0.5700 
 14 C       -8.1790     3.6860    -1.6070 C.2   1 <1>   0.5690 
 15 O       -8.4890     4.0050    -2.7290 O.2   1 <1>  -0.5700 
 16 N       -9.0720     3.1050    -0.7640 N.am  1 <1>  -0.7300 
 17 C      -10.4700     2.7480    -1.0940 C.3   1 <1>   0.1400 
 18 C      -11.3520     2.8210     0.1610 C.3   1 <1>   0.2000 
 19 O      -10.8080     2.0390     1.1760 O.3   1 <1>  -0.5600 
 20 C      -12.7570     2.2680    -0.0220 C.3   1 <1>  -0.1600 
 21 C      -11.7870     1.7210     2.1120 C.3   1 <1>   0.1200 
 22 C      -13.1260     1.8130     1.3810 C.3   1 <1>  -0.1600 
 23 H       -3.5160    -0.4270    -1.2780 H     1 <1>   0.1500 
 24 H       -4.7300    -1.7230     2.6200 H     1 <1>   0.1500 
 25 H       -6.2110     0.2780     2.8270 H     1 <1>   0.1500 
 26 H       -6.1680     4.2910    -1.9680 H     1 <1>   0.0800 
 27 H       -6.7840     4.7540    -0.4050 H     1 <1>   0.0800 
 28 H       -8.7990     2.8660     0.2040 H     1 <1>   0.3700 
 29 H      -10.4920     1.7490    -1.4910 H     1 <1>   0.0800 
 30 H      -10.8500     3.4190    -1.8460 H     1 <1>   0.0800 
 31 H      -11.3970     3.8350     0.5210 H     1 <1>   0.0800 
 32 H      -12.7340     1.4230    -0.6890 H     1 <1>   0.0800 
 33 H      -13.4320     3.0100    -0.4100 H     1 <1>   0.0800 
 34 H      -11.7280     2.4360     2.9150 H     1 <1>   0.0800 
 35 H      -11.5930     0.7310     2.4840 H     1 <1>   0.0800 
 36 H      -13.6300     0.8620     1.3710 H     1 <1>   0.0800 
 37 H      -13.7540     2.5360     1.8700 H     1 <1>   0.0800 
@<TRIPOS>BOND
  1   1   2  1   
  2   2   3  ar  
  3   2   4  ar  
  4   3   5  ar  
  5   3  23  1   
  6   4   6  ar  
  7   4  24  1   
  8   5   7  1   
  9   5   8  ar  
 10   6   8  ar  
 11   6  25  1   
 12   7   9  2   
 13   7  10  am  
 14   8  11  1   
 15  10  11  am  
 16  10  12  1   
 17  11  13  2   
 18  12  14  1   
 19  12  26  1   
 20  12  27  1   
 21  14  15  2   
 22  14  16  am  
 23  16  17  1   
 24  16  28  1   
 25  17  18  1   
 26  17  29  1   
 27  17  30  1   
 28  18  19  1   
 29  18  20  1   
 30  18  31  1   
 31  19  21  1   
 32  20  22  1   
 33  20  32  1   
 34  20  33  1   
 35  21  22  1   
 36  21  34  1   
 37  21  35  1   
 38  22  36  1   
 39  22  37  1   
@<TRIPOS>SUBSTRUCTURE
  1 ****  11 GROUP 4 **** **** 0

# MOE 2024.06 (io_trps.svl 2023.06)
