@<TRIPOS>MOLECULE
NONAME
53 56 1 0 0 
SMALL
USER_CHARGES


@<TRIPOS>ATOM
  1 O        0.0890    -0.4820     1.5490 O.2   1 <1>  -0.5700 
  2 C        0.1350    -1.4820     0.8820 C.2   1 <1>   0.4950 
  3 C        1.3010    -2.2730     0.6790 C.2   1 <1>  -0.1240 
  4 C       -1.1270    -1.9780     0.1880 C.3   1 <1>  -0.0990 
  5 C        1.3070    -3.4590     0.0690 C.2   1 <1>  -0.0620 
  6 C        2.7030    -1.9610     1.1350 C.3   1 <1>   0.2020 
  7 C       -1.2120    -3.5280     0.0990 C.3   1 <1>   0.0000 
  8 O        2.4960    -4.0370    -0.0050 O.3   1 <1>  -0.3570 
  9 C        0.0820    -4.1340    -0.5120 C.3   1 <1>  -0.0220 
 10 C        3.2250    -0.5660     0.7790 C.ar  1 <1>  -0.1430 
 11 C        3.5000    -3.1250     0.4680 C.3   1 <1>   0.4020 
 12 C       -1.4320    -4.1060     1.5110 C.3   1 <1>  -0.2400 
 13 C       -2.4170    -3.9220    -0.7690 C.3   1 <1>  -0.2400 
 14 C        4.0630     0.0870     1.6730 C.ar  1 <1>  -0.1500 
 15 C        2.8990     0.0590    -0.4170 C.ar  1 <1>  -0.1500 
 16 C        4.4240    -3.8580     1.4420 C.2   1 <1>   0.4480 
 17 C        4.3400    -2.6800    -0.7400 C.2   1 <1>   0.4480 
 18 C        4.5730     1.3380     1.3740 C.ar  1 <1>  -0.1500 
 19 C        3.4090     1.3100    -0.7170 C.ar  1 <1>  -0.1500 
 20 O        4.3310    -3.8010     2.6340 O.2   1 <1>  -0.5700 
 21 C        5.5430    -4.6530     0.7940 C.3   1 <1>  -0.0990 
 22 O        3.9050    -2.5550    -1.8490 O.2   1 <1>  -0.5700 
 23 C        5.8170    -2.4410    -0.4710 C.3   1 <1>  -0.0990 
 24 C        4.2470     1.9500     0.1770 C.ar  1 <1>  -0.1500 
 25 C        6.5230    -3.7250     0.0320 C.3   1 <1>   0.0000 
 26 C        7.6810    -3.3220     0.9600 C.3   1 <1>  -0.2400 
 27 C        7.1080    -4.4950    -1.1630 C.3   1 <1>  -0.2400 
 28 H       -1.1350    -1.5580    -0.8010 H     1 <1>   0.0800 
 29 H       -1.9840    -1.5920     0.7110 H     1 <1>   0.0800 
 30 H        2.7010    -2.0550     2.2050 H     1 <1>   0.0800 
 31 H        0.1240    -5.1920    -0.3190 H     1 <1>   0.0800 
 32 H        0.0990    -3.9910    -1.5780 H     1 <1>   0.0800 
 33 H       -0.6030    -3.8800     2.1590 H     1 <1>   0.0800 
 34 H       -1.5400    -5.1750     1.4700 H     1 <1>   0.0800 
 35 H       -2.3230    -3.6960     1.9530 H     1 <1>   0.0800 
 36 H       -2.3130    -3.5300    -1.7650 H     1 <1>   0.0800 
 37 H       -3.3290    -3.5340    -0.3480 H     1 <1>   0.0800 
 38 H       -2.5030    -4.9920    -0.8340 H     1 <1>   0.0800 
 39 H        4.3230    -0.3720     2.6130 H     1 <1>   0.1500 
 40 H        2.2520    -0.4250    -1.1300 H     1 <1>   0.1500 
 41 H        5.2190     1.8370     2.0740 H     1 <1>   0.1500 
 42 H        3.1510     1.7830    -1.6480 H     1 <1>   0.1500 
 43 H        5.0870    -5.3550     0.1170 H     1 <1>   0.0800 
 44 H        6.0610    -5.2270     1.5420 H     1 <1>   0.0800 
 45 H        5.8910    -1.6590     0.2640 H     1 <1>   0.0800 
 46 H        6.2880    -2.0710    -1.3640 H     1 <1>   0.0800 
 47 H        4.6410     2.9230    -0.0570 H     1 <1>   0.1500 
 48 H        7.3110    -2.8240     1.8400 H     1 <1>   0.0800 
 49 H        8.3590    -2.6570     0.4530 H     1 <1>   0.0800 
 50 H        8.2360    -4.1880     1.2750 H     1 <1>   0.0800 
 51 H        6.3350    -4.7520    -1.8670 H     1 <1>   0.0800 
 52 H        7.5830    -5.4040    -0.8340 H     1 <1>   0.0800 
 53 H        7.8430    -3.9010    -1.6770 H     1 <1>   0.0800 
@<TRIPOS>BOND
  1   1   2  2   
  2   2   3  1   
  3   2   4  1   
  4   3   5  2   
  5   3   6  1   
  6   4   7  1   
  7   4  28  1   
  8   4  29  1   
  9   5   8  1   
 10   5   9  1   
 11   6  10  1   
 12   6  11  1   
 13   6  30  1   
 14   7   9  1   
 15   7  12  1   
 16   7  13  1   
 17   8  11  1   
 18   9  31  1   
 19   9  32  1   
 20  10  14  ar  
 21  10  15  ar  
 22  11  16  1   
 23  11  17  1   
 24  12  33  1   
 25  12  34  1   
 26  12  35  1   
 27  13  36  1   
 28  13  37  1   
 29  13  38  1   
 30  14  18  ar  
 31  14  39  1   
 32  15  19  ar  
 33  15  40  1   
 34  16  20  2   
 35  16  21  1   
 36  17  22  2   
 37  17  23  1   
 38  18  24  ar  
 39  18  41  1   
 40  19  24  ar  
 41  19  42  1   
 42  21  25  1   
 43  21  43  1   
 44  21  44  1   
 45  23  25  1   
 46  23  45  1   
 47  23  46  1   
 48  24  47  1   
 49  25  26  1   
 50  25  27  1   
 51  26  48  1   
 52  26  49  1   
 53  26  50  1   
 54  27  51  1   
 55  27  52  1   
 56  27  53  1   
@<TRIPOS>SUBSTRUCTURE
  1 ****   6 GROUP 4 **** **** 0

# MOE 2024.06 (io_trps.svl 2023.06)
