@<TRIPOS>MOLECULE
NONAME
45 46 1 0 0 
SMALL
USER_CHARGES


@<TRIPOS>ATOM
  1 O       -0.6670     1.2200     2.2020 O.2   1 <1>  -0.5700 
  2 C       -0.2660     1.8940     1.2780 C.2   1 <1>   0.5690 
  3 N       -0.9980     2.0330     0.1180 N.am  1 <1>  -0.6600 
  4 C        1.0660     2.6140     1.4850 C.3   1 <1>   0.1810 
  5 C       -0.4860     2.7010    -1.1100 C.3   1 <1>   0.1400 
  6 C       -2.2730     1.2830    -0.0480 C.3   1 <1>   0.1400 
  7 O        2.0850     2.0890     0.6470 O.3   1 <1>  -0.3620 
  8 C       -0.7770     4.2050    -1.1150 C.3   1 <1>  -0.1600 
  9 C       -3.4340     1.9720     0.6750 C.3   1 <1>  -0.1600 
 10 C        3.2940     2.6950     0.5540 C.ar  1 <1>   0.0820 
 11 C       -2.2530     4.5820    -1.3160 C.3   1 <1>  -0.1600 
 12 C       -4.0290     3.1940    -0.0420 C.3   1 <1>  -0.1600 
 13 C        4.1550     2.2230    -0.4220 C.ar  1 <1>  -0.1500 
 14 C        3.7000     3.7450     1.3700 C.ar  1 <1>  -0.1500 
 15 C       -3.1290     4.4410    -0.0580 C.3   1 <1>  -0.1600 
 16 C        5.4090     2.7860    -0.6040 C.ar  1 <1>  -0.1440 
 17 C        4.9490     4.3100     1.1920 C.ar  1 <1>  -0.1500 
 18 C        5.8090     3.8410     0.2100 C.ar  1 <1>  -0.1440 
 19 C        6.3160     2.2310    -1.6930 C.3   1 <1>  -0.0970 
 20 C        7.1750     4.4940     0.0500 C.3   1 <1>  -0.0970 
 21 H        1.3810     2.4910     2.5040 H     1 <1>   0.0800 
 22 H        0.9470     3.6580     1.2680 H     1 <1>   0.0800 
 23 H       -0.9210     2.2490    -1.9840 H     1 <1>   0.0800 
 24 H        0.5760     2.5490    -1.1860 H     1 <1>   0.0800 
 25 H       -2.1430     0.2990     0.3710 H     1 <1>   0.0800 
 26 H       -2.5120     1.1590    -1.0890 H     1 <1>   0.0800 
 27 H       -0.2250     4.6230    -1.9390 H     1 <1>   0.0800 
 28 H       -0.3940     4.6650    -0.2230 H     1 <1>   0.0800 
 29 H       -3.1350     2.2330     1.6750 H     1 <1>   0.0800 
 30 H       -4.2200     1.2440     0.7700 H     1 <1>   0.0800 
 31 H       -2.6690     4.0300    -2.1420 H     1 <1>   0.0800 
 32 H       -2.2720     5.6200    -1.6010 H     1 <1>   0.0800 
 33 H       -4.9270     3.4570     0.4910 H     1 <1>   0.0800 
 34 H       -4.3310     2.9290    -1.0400 H     1 <1>   0.0800 
 35 H        3.8280     1.4070    -1.0380 H     1 <1>   0.1500 
 36 H        3.0670     4.1320     2.1450 H     1 <1>   0.1500 
 37 H       -3.7820     5.2970    -0.0330 H     1 <1>   0.0800 
 38 H       -2.5320     4.4870     0.8370 H     1 <1>   0.0800 
 39 H        5.2510     5.1230     1.8290 H     1 <1>   0.1500 
 40 H        5.8400     1.4220    -2.2160 H     1 <1>   0.0800 
 41 H        7.2270     1.8620    -1.2590 H     1 <1>   0.0800 
 42 H        6.5510     3.0010    -2.4050 H     1 <1>   0.0800 
 43 H        7.9510     3.7670     0.2080 H     1 <1>   0.0800 
 44 H        7.3090     5.2900     0.7600 H     1 <1>   0.0800 
 45 H        7.2740     4.9040    -0.9390 H     1 <1>   0.0800 
@<TRIPOS>BOND
  1   1   2  2   
  2   2   3  am  
  3   2   4  1   
  4   3   5  1   
  5   3   6  1   
  6   4   7  1   
  7   4  21  1   
  8   4  22  1   
  9   5   8  1   
 10   5  23  1   
 11   5  24  1   
 12   6   9  1   
 13   6  25  1   
 14   6  26  1   
 15   7  10  1   
 16   8  11  1   
 17   8  27  1   
 18   8  28  1   
 19   9  12  1   
 20   9  29  1   
 21   9  30  1   
 22  10  13  ar  
 23  10  14  ar  
 24  11  15  1   
 25  11  31  1   
 26  11  32  1   
 27  12  15  1   
 28  12  33  1   
 29  12  34  1   
 30  13  16  ar  
 31  13  35  1   
 32  14  17  ar  
 33  14  36  1   
 34  15  37  1   
 35  15  38  1   
 36  16  18  ar  
 37  16  19  1   
 38  17  18  ar  
 39  17  39  1   
 40  18  20  1   
 41  19  40  1   
 42  19  41  1   
 43  19  42  1   
 44  20  43  1   
 45  20  44  1   
 46  20  45  1   
@<TRIPOS>SUBSTRUCTURE
  1 ****   7 GROUP 4 **** **** 0

# MOE 2024.06 (io_trps.svl 2023.06)
