@<TRIPOS>MOLECULE
NONAME
41 42 1 0 0 
SMALL
USER_CHARGES


@<TRIPOS>ATOM
  1 S       -0.5620     0.5330     1.2260 S.o2  1 <1>   1.4470 
  2 O        0.4720    -0.3950     1.6350 O.2   1 <1>  -0.6500 
  3 O       -1.0860     1.4470     2.2200 O.2   1 <1>  -0.6500 
  4 N        0.0610     1.5030    -0.0170 N.am  1 <1>  -0.8490 
  5 C       -1.9420    -0.3840     0.4930 C.ar  1 <1>  -0.0090 
  6 C       -0.8670     2.5650    -0.4140 C.3   1 <1>   0.1960 
  7 C        1.3740     2.0470     0.3350 C.3   1 <1>   0.1960 
  8 C       -1.7760    -1.1760    -0.6390 C.ar  1 <1>   0.0830 
  9 C       -3.2100    -0.3290     1.0610 C.ar  1 <1>  -0.1500 
 10 C       -0.3340     3.2990    -1.6480 C.3   1 <1>  -0.1600 
 11 C        1.9880     2.7760    -0.8660 C.3   1 <1>  -0.1600 
 12 O       -0.5740    -1.2690    -1.2430 O.3   1 <1>  -0.3620 
 13 C       -2.8420    -1.8680    -1.1940 C.ar  1 <1>  -0.1500 
 14 C       -4.2870    -1.0270     0.5300 C.ar  1 <1>   0.1170 
 15 C        1.0620     3.8790    -1.3890 C.3   1 <1>  -0.1600 
 16 C        0.1880    -2.4200    -0.9540 C.3   1 <1>   0.0400 
 17 C       -4.0920    -1.7920    -0.6120 C.ar  1 <1>  -0.1500 
 18 N       -5.5420    -0.9330     1.1420 N.am  1 <1>  -0.5470 
 19 C       -6.4080    -1.8990     1.5440 C.2   1 <1>   0.5690 
 20 O       -7.4690    -1.5910     2.0190 O.2   1 <1>  -0.5700 
 21 C       -6.0570    -3.3640     1.4280 C.3   1 <1>  -0.1790 
 22 H       -0.9970     3.2620     0.3990 H     1 <1>   0.0800 
 23 H       -1.8270     2.1390    -0.6520 H     1 <1>   0.0800 
 24 H        2.0350     1.2450     0.6230 H     1 <1>   0.0800 
 25 H        1.2790     2.7200     1.1710 H     1 <1>   0.0800 
 26 H       -3.3640     0.2670     1.9440 H     1 <1>   0.1500 
 27 H       -1.0110     4.0910    -1.9140 H     1 <1>   0.0800 
 28 H       -0.2940     2.6070    -2.4710 H     1 <1>   0.0800 
 29 H        2.1720     2.0560    -1.6440 H     1 <1>   0.0800 
 30 H        2.9340     3.2000    -0.5800 H     1 <1>   0.0800 
 31 H       -2.6880    -2.4550    -2.0810 H     1 <1>   0.1500 
 32 H        0.9930     4.6660    -0.6580 H     1 <1>   0.0800 
 33 H        1.4620     4.2970    -2.2970 H     1 <1>   0.0800 
 34 H        1.1380    -2.3250    -1.4470 H     1 <1>   0.0800 
 35 H       -0.3330    -3.2870    -1.3180 H     1 <1>   0.0800 
 36 H        0.3340    -2.4870     0.1100 H     1 <1>   0.0800 
 37 H       -4.9200    -2.3190    -1.0520 H     1 <1>   0.1500 
 38 H       -5.8670     0.0040     1.3830 H     1 <1>   0.3700 
 39 H       -5.0180    -3.5190     1.6490 H     1 <1>   0.0800 
 40 H       -6.2730    -3.7090     0.4350 H     1 <1>   0.0800 
 41 H       -6.6470    -3.9290     2.1260 H     1 <1>   0.0800 
@<TRIPOS>BOND
  1   1   2  2   
  2   1   3  2   
  3   1   4  am  
  4   1   5  1   
  5   4   6  1   
  6   4   7  1   
  7   5   8  ar  
  8   5   9  ar  
  9   6  10  1   
 10   6  22  1   
 11   6  23  1   
 12   7  11  1   
 13   7  24  1   
 14   7  25  1   
 15   8  12  1   
 16   8  13  ar  
 17   9  14  ar  
 18   9  26  1   
 19  10  15  1   
 20  10  27  1   
 21  10  28  1   
 22  11  15  1   
 23  11  29  1   
 24  11  30  1   
 25  12  16  1   
 26  13  17  ar  
 27  13  31  1   
 28  14  17  ar  
 29  14  18  1   
 30  15  32  1   
 31  15  33  1   
 32  16  34  1   
 33  16  35  1   
 34  16  36  1   
 35  17  37  1   
 36  18  19  am  
 37  18  38  1   
 38  19  20  2   
 39  19  21  1   
 40  21  39  1   
 41  21  40  1   
 42  21  41  1   
@<TRIPOS>SUBSTRUCTURE
  1 ****   5 GROUP 4 **** **** 0

# MOE 2024.06 (io_trps.svl 2023.06)
