@<TRIPOS>MOLECULE
NONAME
41 42 1 0 0 
SMALL
USER_CHARGES


@<TRIPOS>ATOM
  1 O       -0.0980     0.3180    -0.9980 O.2   1 <1>  -0.5700 
  2 C       -0.1310     0.9680     0.0280 C.2   1 <1>   0.6900 
  3 N        1.0000     1.3310     0.6960 N.am  1 <1>  -0.5470 
  4 N       -1.3150     1.3750     0.5470 N.am  1 <1>  -0.7300 
  5 C        2.3490     1.0230     0.4600 C.ar  1 <1>   0.1170 
  6 C       -2.6360     1.1410    -0.0690 C.3   1 <1>   0.2200 
  7 C        3.3260     1.8860     0.9420 C.ar  1 <1>  -0.1500 
  8 C        2.7570    -0.1210    -0.2210 C.ar  1 <1>  -0.1500 
  9 C       -3.3230     2.4870    -0.3870 C.3   1 <1>  -0.0800 
 10 C       -3.4720     0.2960     0.8980 C.3   1 <1>  -0.1600 
 11 C        4.6690     1.6180     0.7470 C.ar  1 <1>  -0.1500 
 12 C        4.0990    -0.3940    -0.4210 C.ar  1 <1>  -0.1500 
 13 C       -4.7470     2.2500    -0.9200 C.3   1 <1>  -0.1600 
 14 C       -2.5230     3.3140    -1.4080 C.3   1 <1>  -0.2400 
 15 C       -4.8910     0.0700     0.3600 C.3   1 <1>  -0.1600 
 16 C        5.0670     0.4800     0.0650 C.ar  1 <1>   0.0830 
 17 C       -5.5820     1.4030     0.0500 C.3   1 <1>  -0.1600 
 18 O        6.4050     0.2930    -0.0860 O.3   1 <1>  -0.3620 
 19 C        6.9010    -0.8180    -0.8000 C.3   1 <1>   0.0400 
 20 H        0.8400     2.0080     1.4310 H     1 <1>   0.3700 
 21 H       -1.3390     1.8680     1.4330 H     1 <1>   0.3700 
 22 H       -2.5150     0.5910    -0.9890 H     1 <1>   0.0800 
 23 H        3.0390     2.7760     1.4710 H     1 <1>   0.1500 
 24 H        2.0220    -0.8090    -0.5970 H     1 <1>   0.1500 
 25 H       -3.4020     3.0520     0.5260 H     1 <1>   0.0800 
 26 H       -3.5350     0.7920     1.8510 H     1 <1>   0.0800 
 27 H       -2.9920    -0.6570     1.0400 H     1 <1>   0.0800 
 28 H        5.4210     2.2900     1.1200 H     1 <1>   0.1500 
 29 H        4.3650    -1.2860    -0.9540 H     1 <1>   0.1500 
 30 H       -4.6950     1.7460    -1.8710 H     1 <1>   0.0800 
 31 H       -5.2380     3.1950    -1.0760 H     1 <1>   0.0800 
 32 H       -2.3940     2.7610    -2.3210 H     1 <1>   0.0800 
 33 H       -1.5490     3.5570    -1.0220 H     1 <1>   0.0800 
 34 H       -3.0340     4.2340    -1.6300 H     1 <1>   0.0800 
 35 H       -5.4690    -0.4790     1.0830 H     1 <1>   0.0800 
 36 H       -4.8400    -0.5230    -0.5390 H     1 <1>   0.0800 
 37 H       -6.5510     1.2140    -0.3790 H     1 <1>   0.0800 
 38 H       -5.7300     1.9500     0.9660 H     1 <1>   0.0800 
 39 H        7.9740    -0.7580    -0.8060 H     1 <1>   0.0800 
 40 H        6.5260    -0.7810    -1.8070 H     1 <1>   0.0800 
 41 H        6.5880    -1.7190    -0.3040 H     1 <1>   0.0800 
@<TRIPOS>BOND
  1   1   2  2   
  2   2   3  am  
  3   2   4  am  
  4   3   5  1   
  5   3  20  1   
  6   4   6  1   
  7   4  21  1   
  8   5   7  ar  
  9   5   8  ar  
 10   6   9  1   
 11   6  10  1   
 12   6  22  1   
 13   7  11  ar  
 14   7  23  1   
 15   8  12  ar  
 16   8  24  1   
 17   9  13  1   
 18   9  14  1   
 19   9  25  1   
 20  10  15  1   
 21  10  26  1   
 22  10  27  1   
 23  11  16  ar  
 24  11  28  1   
 25  12  16  ar  
 26  12  29  1   
 27  13  17  1   
 28  13  30  1   
 29  13  31  1   
 30  14  32  1   
 31  14  33  1   
 32  14  34  1   
 33  15  17  1   
 34  15  35  1   
 35  15  36  1   
 36  16  18  1   
 37  17  37  1   
 38  17  38  1   
 39  18  19  1   
 40  19  39  1   
 41  19  40  1   
 42  19  41  1   
@<TRIPOS>SUBSTRUCTURE
  1 ****   2 GROUP 4 **** **** 0

# MOE 2024.06 (io_trps.svl 2023.06)
