@<TRIPOS>MOLECULE
NONAME
37 38 1 0 0 
SMALL
USER_CHARGES


@<TRIPOS>ATOM
  1 O       -0.4580    -3.2020    -1.8650 O.2   1 <1>  -0.5700 
  2 C       -0.2400    -2.7690    -0.7640 C.2   1 <1>   0.6590 
  3 O       -1.0710    -1.9450    -0.1440 O.3   1 <1>  -0.4300 
  4 C        1.0300    -3.1230     0.0070 C.3   1 <1>  -0.0190 
  5 C       -2.2750    -1.5270    -0.7460 C.3   1 <1>   0.1200 
  6 C        2.0760    -2.0000    -0.1230 C.3   1 <1>  -0.1600 
  7 C        1.6410    -4.4650    -0.4460 C.3   1 <1>  -0.1600 
  8 C       -2.9830    -0.5830     0.2200 C.3   1 <1>  -0.2400 
  9 C        3.3800    -2.3450     0.5930 C.3   1 <1>   0.3430 
 10 C        2.9490    -4.7740     0.2780 C.3   1 <1>   0.3430 
 11 N        3.9000    -3.6470     0.0840 N.4   1 <1>  -0.9590 
 12 C        5.2520    -3.9500     0.6300 C.3   1 <1>   0.5230 
 13 C        6.2260    -2.9310     0.0730 C.2   1 <1>  -0.0400 
 14 O        6.2270    -2.7190    -1.2310 O.3   1 <1>  -0.2800 
 15 C        7.1390    -2.1420     0.6810 C.2   1 <1>  -0.1500 
 16 C        7.1380    -1.8010    -1.4840 C.2   1 <1>  -0.0100 
 17 C        7.7390    -1.4000    -0.3440 C.2   1 <1>  -0.1500 
 18 H        0.7510    -3.2140     1.0430 H     1 <1>   0.0800 
 19 H       -2.8770    -2.3970    -0.9470 H     1 <1>   0.0800 
 20 H       -2.0410    -1.0290    -1.6720 H     1 <1>   0.0800 
 21 H        1.6780    -1.0910     0.2960 H     1 <1>   0.0800 
 22 H        2.2810    -1.8090    -1.1630 H     1 <1>   0.0800 
 23 H        1.8230    -4.4500    -1.5080 H     1 <1>   0.0800 
 24 H        0.9380    -5.2580    -0.2570 H     1 <1>   0.0800 
 25 H       -3.2040    -1.0900     1.1420 H     1 <1>   0.0800 
 26 H       -3.9080    -0.2490    -0.2140 H     1 <1>   0.0800 
 27 H       -2.3690     0.2780     0.4180 H     1 <1>   0.0800 
 28 H        3.2040    -2.4100     1.6550 H     1 <1>   0.0800 
 29 H        4.1010    -1.5630     0.4150 H     1 <1>   0.0800 
 30 H        3.3690    -5.6860    -0.1170 H     1 <1>   0.0800 
 31 H        2.7550    -4.9150     1.3290 H     1 <1>   0.0800 
 32 H        4.0600    -3.5200    -0.9270 H     1 <1>   0.4500 
 33 H        5.5630    -4.9320     0.3130 H     1 <1>   0.0800 
 34 H        5.2480    -3.9160     1.7070 H     1 <1>   0.0800 
 35 H        7.3950    -2.0600     1.7240 H     1 <1>   0.1500 
 36 H        7.2990    -1.4880    -2.5030 H     1 <1>   0.1500 
 37 H        8.5200    -0.6690    -0.2170 H     1 <1>   0.1500 
@<TRIPOS>BOND
  1   1   2  2   
  2   2   3  1   
  3   2   4  1   
  4   3   5  1   
  5   4   6  1   
  6   4   7  1   
  7   4  18  1   
  8   5   8  1   
  9   5  19  1   
 10   5  20  1   
 11   6   9  1   
 12   6  21  1   
 13   6  22  1   
 14   7  10  1   
 15   7  23  1   
 16   7  24  1   
 17   8  25  1   
 18   8  26  1   
 19   8  27  1   
 20   9  11  1   
 21   9  28  1   
 22   9  29  1   
 23  10  11  1   
 24  10  30  1   
 25  10  31  1   
 26  11  12  1   
 27  11  32  1   
 28  12  13  1   
 29  12  33  1   
 30  12  34  1   
 31  13  14  1   
 32  13  15  2   
 33  14  16  1   
 34  15  17  1   
 35  15  35  1   
 36  16  17  2   
 37  16  36  1   
 38  17  37  1   
@<TRIPOS>SUBSTRUCTURE
  1 ****   6 GROUP 4 **** **** 0

# MOE 2024.06 (io_trps.svl 2023.06)
