@<TRIPOS>MOLECULE
NONAME
37 39 1 0 0 
SMALL
USER_CHARGES


@<TRIPOS>ATOM
  1 CL       1.0630     0.9560    -1.9000 Cl    1 <1>  -0.1770 
  2 C        0.3200     2.1360    -0.8540 C.ar  1 <1>   0.1770 
  3 C       -0.8750     2.7170    -1.2370 C.ar  1 <1>  -0.1500 
  4 C        0.9310     2.4700     0.3390 C.ar  1 <1>  -0.1500 
  5 C       -1.4800     3.6510    -0.4070 C.ar  1 <1>  -0.1440 
  6 C        0.3330     3.4070     1.1640 C.ar  1 <1>  -0.1500 
  7 C       -0.8650     3.9950     0.7910 C.ar  1 <1>  -0.1500 
  8 C       -2.7990     4.2870    -0.8050 C.3   1 <1>   0.4870 
  9 N       -3.8860     3.6830     0.0130 N.4   1 <1>  -0.9590 
 10 C       -4.0670     2.2330    -0.3150 C.3   1 <1>   0.3430 
 11 C       -5.1570     4.4520    -0.1440 C.3   1 <1>   0.3430 
 12 C       -5.1280     1.6190     0.5880 C.3   1 <1>  -0.1600 
 13 C       -6.2310     3.8750     0.7670 C.3   1 <1>  -0.1600 
 14 C       -6.4210     2.4050     0.4410 C.3   1 <1>   0.5600 
 15 O       -7.3980     1.8760     1.2610 O.3   1 <1>  -0.5600 
 16 O       -6.8720     2.2900    -0.8680 O.3   1 <1>  -0.5600 
 17 C       -8.2620     1.1090     0.5070 C.3   1 <1>   0.1200 
 18 C       -8.1210     1.6890    -0.8810 C.3   1 <1>   0.1200 
 19 H       -1.3060     2.4270    -2.1790 H     1 <1>   0.1500 
 20 H        1.8620     2.0040     0.6130 H     1 <1>   0.1500 
 21 H        0.8050     3.6780     2.0940 H     1 <1>   0.1500 
 22 H       -1.3030     4.7270     1.4490 H     1 <1>   0.1500 
 23 H       -2.9870     4.1260    -1.8550 H     1 <1>   0.0800 
 24 H       -2.7460     5.3490    -0.6270 H     1 <1>   0.0800 
 25 H       -3.5790     3.7390     0.9920 H     1 <1>   0.4500 
 26 H       -3.1370     1.7010    -0.1840 H     1 <1>   0.0800 
 27 H       -4.3780     2.1280    -1.3430 H     1 <1>   0.0800 
 28 H       -5.4970     4.3910    -1.1660 H     1 <1>   0.0800 
 29 H       -4.9990     5.4900     0.1010 H     1 <1>   0.0800 
 30 H       -4.7970     1.6400     1.6100 H     1 <1>   0.0800 
 31 H       -5.2940     0.5950     0.3070 H     1 <1>   0.0800 
 32 H       -7.1590     4.3960     0.6120 H     1 <1>   0.0800 
 33 H       -5.9450     3.9910     1.7960 H     1 <1>   0.0800 
 34 H       -9.2620     1.1960     0.8960 H     1 <1>   0.0800 
 35 H       -7.9360     0.0840     0.5390 H     1 <1>   0.0800 
 36 H       -8.1600     0.9380    -1.6500 H     1 <1>   0.0800 
 37 H       -8.8660     2.4460    -1.0600 H     1 <1>   0.0800 
@<TRIPOS>BOND
  1   1   2  1   
  2   2   3  ar  
  3   2   4  ar  
  4   3   5  ar  
  5   3  19  1   
  6   4   6  ar  
  7   4  20  1   
  8   5   7  ar  
  9   5   8  1   
 10   6   7  ar  
 11   6  21  1   
 12   7  22  1   
 13   8   9  1   
 14   8  23  1   
 15   8  24  1   
 16   9  10  1   
 17   9  11  1   
 18   9  25  1   
 19  10  12  1   
 20  10  26  1   
 21  10  27  1   
 22  11  13  1   
 23  11  28  1   
 24  11  29  1   
 25  12  14  1   
 26  12  30  1   
 27  12  31  1   
 28  13  14  1   
 29  13  32  1   
 30  13  33  1   
 31  14  15  1   
 32  14  16  1   
 33  15  17  1   
 34  16  18  1   
 35  17  18  1   
 36  17  34  1   
 37  17  35  1   
 38  18  36  1   
 39  18  37  1   
@<TRIPOS>SUBSTRUCTURE
  1 ****  10 GROUP 4 **** **** 0

# MOE 2024.06 (io_trps.svl 2023.06)
