@<TRIPOS>MOLECULE
NONAME
18 18 1 0 0 
SMALL
USER_CHARGES


@<TRIPOS>ATOM
  1 S        0.0740    -0.2160     0.0080 S.3   1 <1>  -0.3710 
  2 C        1.4830     0.8590     0.0080 C.2   1 <1>   0.6410 
  3 C       -1.3680     0.9380     0.0060 C.3   1 <1>   0.0700 
  4 N        1.3170     2.1300     0.0070 N.2   1 <1>  -0.6610 
  5 N        2.6750     0.2080     0.0090 N.pl3 1 <1>  -0.5500 
  6 C       -2.6410     0.0950     0.0060 C.3   1 <1>  -0.2400 
  7 C        2.4590     2.8790     0.0070 C.2   1 <1>   0.7670 
  8 C        3.8470     0.9160     0.0090 C.2   1 <1>  -0.0500 
  9 O        2.3580     4.0950     0.0060 O.2   1 <1>  -0.5700 
 10 C        3.7430     2.2640     0.0080 C.2   1 <1>  -0.1360 
 11 H       -1.2920     1.5500    -0.8760 H     1 <1>   0.0800 
 12 H       -1.2920     1.5510     0.8880 H     1 <1>   0.0800 
 13 H        2.6380    -0.8140     0.0100 H     1 <1>   0.4000 
 14 H       -2.6730    -0.5280    -0.8700 H     1 <1>   0.0800 
 15 H       -3.5040     0.7370     0.0050 H     1 <1>   0.0800 
 16 H       -2.6740    -0.5260     0.8830 H     1 <1>   0.0800 
 17 H        4.7850     0.3810     0.0100 H     1 <1>   0.1500 
 18 H        4.5910     2.9190     0.0070 H     1 <1>   0.1500 
@<TRIPOS>BOND
  1   1   2  1   
  2   1   3  1   
  3   2   4  2   
  4   2   5  1   
  5   3   6  1   
  6   3  11  1   
  7   3  12  1   
  8   4   7  1   
  9   5   8  1   
 10   5  13  1   
 11   6  14  1   
 12   6  15  1   
 13   6  16  1   
 14   7   9  2   
 15   7  10  1   
 16   8  10  2   
 17   8  17  1   
 18  10  18  1   
@<TRIPOS>SUBSTRUCTURE
  1 ****   2 GROUP 4 **** **** 0

# MOE 2024.06 (io_trps.svl 2023.06)
