@<TRIPOS>MOLECULE
NONAME
36 37 1 0 0 
SMALL
USER_CHARGES


@<TRIPOS>ATOM
  1 CL       0.6820    -0.4990    -0.9880 Cl    1 <1>  -0.1770 
  2 C       -0.3970     0.7050    -0.2940 C.ar  1 <1>   0.1770 
  3 C       -1.7530     0.4140    -0.3100 C.ar  1 <1>   0.1770 
  4 C        0.0460     1.9180     0.2600 C.ar  1 <1>   0.0820 
  5 CL      -2.3360    -1.0880    -0.9930 Cl    1 <1>  -0.1770 
  6 C       -2.6860     1.2940     0.2070 C.ar  1 <1>  -0.1500 
  7 O        1.3280     2.3720     0.3650 O.3   1 <1>  -0.3630 
  8 C       -0.9050     2.7910     0.7760 C.ar  1 <1>  -0.1500 
  9 C       -2.2560     2.4900     0.7530 C.ar  1 <1>  -0.1500 
 10 C        2.4630     1.6580    -0.0470 C.3   1 <1>   0.1200 
 11 C        3.6870     2.5100     0.2840 C.3   1 <1>  -0.1600 
 12 C        4.9650     1.7930    -0.1470 C.3   1 <1>   0.3430 
 13 N        6.1660     2.5710     0.2670 N.4   1 <1>  -0.9590 
 14 C        6.3230     3.8550    -0.5110 C.3   1 <1>   0.3430 
 15 C        7.4140     1.7380     0.1390 C.3   1 <1>   0.3430 
 16 C        7.6390     4.5750    -0.1600 C.3   1 <1>   0.1200 
 17 C        8.6800     2.5540     0.4630 C.3   1 <1>   0.1200 
 18 O        8.7240     3.7090    -0.3240 O.3   1 <1>  -0.5600 
 19 H       -3.7320     1.0430     0.1810 H     1 <1>   0.1500 
 20 H       -0.5780     3.7230     1.2020 H     1 <1>   0.1500 
 21 H       -2.9710     3.1850     1.1600 H     1 <1>   0.1500 
 22 H        2.3890     1.4900    -1.1080 H     1 <1>   0.0800 
 23 H        2.4880     0.7240     0.4890 H     1 <1>   0.0800 
 24 H        3.7050     2.6800     1.3460 H     1 <1>   0.0800 
 25 H        3.5910     3.4480    -0.2320 H     1 <1>   0.0800 
 26 H        4.9660     1.6530    -1.2170 H     1 <1>   0.0800 
 27 H        4.9900     0.8200     0.3170 H     1 <1>   0.0800 
 28 H        6.0640     2.8210     1.2590 H     1 <1>   0.4500 
 29 H        5.4960     4.5150    -0.3080 H     1 <1>   0.0800 
 30 H        6.3250     3.6430    -1.5670 H     1 <1>   0.0800 
 31 H        7.5030     1.3660    -0.8690 H     1 <1>   0.0800 
 32 H        7.3610     0.8890     0.8010 H     1 <1>   0.0800 
 33 H        7.6310     4.9350     0.8540 H     1 <1>   0.0800 
 34 H        7.7900     5.4140    -0.8190 H     1 <1>   0.0800 
 35 H        9.5610     1.9760     0.2430 H     1 <1>   0.0800 
 36 H        8.7080     2.8390     1.5010 H     1 <1>   0.0800 
@<TRIPOS>BOND
  1   1   2  1   
  2   2   3  ar  
  3   2   4  ar  
  4   3   5  1   
  5   3   6  ar  
  6   4   7  1   
  7   4   8  ar  
  8   6   9  ar  
  9   6  19  1   
 10   7  10  1   
 11   8   9  ar  
 12   8  20  1   
 13   9  21  1   
 14  10  11  1   
 15  10  22  1   
 16  10  23  1   
 17  11  12  1   
 18  11  24  1   
 19  11  25  1   
 20  12  13  1   
 21  12  26  1   
 22  12  27  1   
 23  13  14  1   
 24  13  15  1   
 25  13  28  1   
 26  14  16  1   
 27  14  29  1   
 28  14  30  1   
 29  15  17  1   
 30  15  31  1   
 31  15  32  1   
 32  16  18  1   
 33  16  33  1   
 34  16  34  1   
 35  17  18  1   
 36  17  35  1   
 37  17  36  1   
@<TRIPOS>SUBSTRUCTURE
  1 ****  10 GROUP 4 **** **** 0

# MOE 2024.06 (io_trps.svl 2023.06)
