@<TRIPOS>MOLECULE
NONAME
47 49 1 0 0 
SMALL
USER_CHARGES


@<TRIPOS>ATOM
  1 F        0.4880     1.7440    -0.0180 F     1 <1>  -0.3400 
  2 C        1.4700     1.0980    -0.6360 C.3   1 <1>   1.1640 
  3 F        1.3240    -0.1840    -0.3180 F     1 <1>  -0.3400 
  4 F        1.2180     1.1910    -1.9350 F     1 <1>  -0.3400 
  5 C        2.8640     1.6380    -0.2790 C.ar  1 <1>  -0.1440 
  6 C        3.9830     0.8190    -0.3720 C.ar  1 <1>  -0.1500 
  7 C        3.0390     2.9560     0.1340 C.ar  1 <1>  -0.1500 
  8 C        5.2550     1.2820    -0.0600 C.ar  1 <1>   0.1000 
  9 C        4.3000     3.4330     0.4470 C.ar  1 <1>  -0.1500 
 10 N        6.3420     0.4170    -0.1580 N.pl3 1 <1>  -0.8380 
 11 C        5.3990     2.6020     0.3510 C.ar  1 <1>  -0.1500 
 12 C        7.6150     0.8610    -0.8060 C.3   1 <1>   0.2090 
 13 C        6.4380    -0.7250     0.7980 C.3   1 <1>   0.2090 
 14 C        8.7520     1.0180     0.2260 C.3   1 <1>   0.3430 
 15 C        7.5940    -0.5220     1.8010 C.3   1 <1>   0.3430 
 16 N        8.8980    -0.1890     1.1230 N.4   1 <1>  -0.9590 
 17 C       10.0090    -0.0200     2.0980 C.3   1 <1>   0.4860 
 18 C       11.3010     0.1450     1.3240 C.ar  1 <1>  -0.1430 
 19 C       11.8270    -0.9250     0.6150 C.ar  1 <1>  -0.1500 
 20 C       11.9620     1.3650     1.3050 C.ar  1 <1>  -0.1500 
 21 C       12.9900    -0.7810    -0.1220 C.ar  1 <1>   0.0830 
 22 C       13.1290     1.5130     0.5750 C.ar  1 <1>  -0.1500 
 23 O       13.4170    -1.8790    -0.7910 O.3   1 <1>  -0.3630 
 24 C       13.6440     0.4460    -0.1400 C.ar  1 <1>  -0.1500 
 25 C       14.6350    -1.8750    -1.5050 C.3   1 <1>   0.0400 
 26 H        3.8820    -0.2000    -0.7030 H     1 <1>   0.1500 
 27 H        2.1950     3.6220     0.2130 H     1 <1>   0.1500 
 28 H        4.4200     4.4550     0.7640 H     1 <1>   0.1500 
 29 H        6.3690     2.9850     0.6000 H     1 <1>   0.1500 
 30 H        7.4570     1.7960    -1.3160 H     1 <1>   0.0800 
 31 H        7.9000     0.1360    -1.5490 H     1 <1>   0.0800 
 32 H        6.5880    -1.6360     0.2460 H     1 <1>   0.0800 
 33 H        5.5130    -0.8220     1.3410 H     1 <1>   0.0800 
 34 H        8.5430     1.8880     0.8250 H     1 <1>   0.0800 
 35 H        9.6750     1.1980    -0.3020 H     1 <1>   0.0800 
 36 H        7.7030    -1.4160     2.3920 H     1 <1>   0.0800 
 37 H        7.3190     0.2810     2.4650 H     1 <1>   0.0800 
 38 H        9.1570    -0.9730     0.5120 H     1 <1>   0.4500 
 39 H       10.0840    -0.8880     2.7330 H     1 <1>   0.0800 
 40 H        9.8370     0.8450     2.7180 H     1 <1>   0.0800 
 41 H       11.3560    -1.8910     0.6180 H     1 <1>   0.1500 
 42 H       11.5850     2.2110     1.8560 H     1 <1>   0.1500 
 43 H       13.6420     2.4600     0.5630 H     1 <1>   0.1500 
 44 H       14.5500     0.5880    -0.7000 H     1 <1>   0.1500 
 45 H       14.7820    -2.8550    -1.9220 H     1 <1>   0.0800 
 46 H       15.4380    -1.6430    -0.8270 H     1 <1>   0.0800 
 47 H       14.5760    -1.1470    -2.2950 H     1 <1>   0.0800 
@<TRIPOS>BOND
  1   1   2  1   
  2   2   3  1   
  3   2   4  1   
  4   2   5  1   
  5   5   6  ar  
  6   5   7  ar  
  7   6   8  ar  
  8   6  26  1   
  9   7   9  ar  
 10   7  27  1   
 11   8  10  1   
 12   8  11  ar  
 13   9  11  ar  
 14   9  28  1   
 15  10  12  1   
 16  10  13  1   
 17  11  29  1   
 18  12  14  1   
 19  12  30  1   
 20  12  31  1   
 21  13  15  1   
 22  13  32  1   
 23  13  33  1   
 24  14  16  1   
 25  14  34  1   
 26  14  35  1   
 27  15  16  1   
 28  15  36  1   
 29  15  37  1   
 30  16  17  1   
 31  16  38  1   
 32  17  18  1   
 33  17  39  1   
 34  17  40  1   
 35  18  19  ar  
 36  18  20  ar  
 37  19  21  ar  
 38  19  41  1   
 39  20  22  ar  
 40  20  42  1   
 41  21  23  1   
 42  21  24  ar  
 43  22  24  ar  
 44  22  43  1   
 45  23  25  1   
 46  24  44  1   
 47  25  45  1   
 48  25  46  1   
 49  25  47  1   
@<TRIPOS>SUBSTRUCTURE
  1 ****  12 GROUP 4 **** **** 0

# MOE 2024.06 (io_trps.svl 2023.06)
