@<TRIPOS>MOLECULE
NONAME
43 44 1 0 0 
SMALL
USER_CHARGES


@<TRIPOS>ATOM
  1 O       -1.1730    -2.9220     2.3690 O.2   1 <1>  -0.5700 
  2 C       -1.1690    -2.8150     1.1580 C.2   1 <1>   0.7800 
  3 O       -0.0300    -2.9840     0.4840 O.3   1 <1>  -0.4300 
  4 N       -2.2980    -2.5250     0.4410 N.am  1 <1>  -0.6600 
  5 C        1.1710    -3.2810     1.1570 C.3   1 <1>   0.1200 
  6 C       -2.3320    -2.4340    -1.0500 C.3   1 <1>   0.1400 
  7 C       -3.6260    -2.3460     1.0980 C.3   1 <1>   0.1400 
  8 C        2.2770    -3.4160     0.1160 C.3   1 <1>  -0.2400 
  9 C       -3.3730    -3.4020    -1.6310 C.3   1 <1>   0.1400 
 10 C       -4.6740    -3.3010     0.5040 C.3   1 <1>   0.1400 
 11 N       -4.7120    -3.2040    -0.9910 N.am  1 <1>  -0.6600 
 12 C       -5.8440    -3.0200    -1.7500 C.2   1 <1>   0.5690 
 13 O       -5.7860    -2.9640    -2.9570 O.2   1 <1>  -0.5700 
 14 C       -7.2230    -2.8630    -1.1180 C.3   1 <1>   0.0440 
 15 C       -7.6900    -4.0850    -0.3290 C.ar  1 <1>  -0.1440 
 16 C       -7.5070    -5.3630    -0.8340 C.ar  1 <1>  -0.1500 
 17 C       -8.3050    -3.9290     0.9040 C.ar  1 <1>  -0.1500 
 18 C       -7.9230    -6.4680    -0.1130 C.ar  1 <1>  -0.1500 
 19 C       -8.7220    -5.0350     1.6240 C.ar  1 <1>  -0.1500 
 20 C       -8.5330    -6.3100     1.1200 C.ar  1 <1>  -0.1440 
 21 C       -8.9900    -7.5230     1.9120 C.3   1 <1>  -0.0970 
 22 H        1.0380    -4.2010     1.7020 H     1 <1>   0.0800 
 23 H        1.3830    -2.4800     1.8460 H     1 <1>   0.0800 
 24 H       -1.3690    -2.6610    -1.4710 H     1 <1>   0.0800 
 25 H       -2.5880    -1.4290    -1.3360 H     1 <1>   0.0800 
 26 H       -3.9510    -1.3300     0.9560 H     1 <1>   0.0800 
 27 H       -3.5500    -2.5220     2.1570 H     1 <1>   0.0800 
 28 H        2.0450    -4.2120    -0.5690 H     1 <1>   0.0800 
 29 H        3.2070    -3.6430     0.6030 H     1 <1>   0.0800 
 30 H        2.3890    -2.4940    -0.4260 H     1 <1>   0.0800 
 31 H       -3.0500    -4.4140    -1.4610 H     1 <1>   0.0800 
 32 H       -3.4330    -3.2530    -2.6950 H     1 <1>   0.0800 
 33 H       -5.6280    -3.0690     0.9340 H     1 <1>   0.0800 
 34 H       -4.4280    -4.3120     0.7820 H     1 <1>   0.0800 
 35 H       -7.9360    -2.6760    -1.9000 H     1 <1>   0.0800 
 36 H       -7.2050    -1.9940    -0.4890 H     1 <1>   0.0800 
 37 H       -7.0380    -5.5060    -1.7930 H     1 <1>   0.1500 
 38 H       -8.4670    -2.9470     1.3120 H     1 <1>   0.1500 
 39 H       -7.7700    -7.4520    -0.5190 H     1 <1>   0.1500 
 40 H       -9.1970    -4.8980     2.5800 H     1 <1>   0.1500 
 41 H       -9.8680    -7.2870     2.4860 H     1 <1>   0.0800 
 42 H       -8.2090    -7.8350     2.5810 H     1 <1>   0.0800 
 43 H       -9.2270    -8.3360     1.2500 H     1 <1>   0.0800 
@<TRIPOS>BOND
  1   1   2  2   
  2   2   3  1   
  3   2   4  am  
  4   3   5  1   
  5   4   6  1   
  6   4   7  1   
  7   5   8  1   
  8   5  22  1   
  9   5  23  1   
 10   6   9  1   
 11   6  24  1   
 12   6  25  1   
 13   7  10  1   
 14   7  26  1   
 15   7  27  1   
 16   8  28  1   
 17   8  29  1   
 18   8  30  1   
 19   9  11  1   
 20   9  31  1   
 21   9  32  1   
 22  10  11  1   
 23  10  33  1   
 24  10  34  1   
 25  11  12  am  
 26  12  13  2   
 27  12  14  1   
 28  14  15  1   
 29  14  35  1   
 30  14  36  1   
 31  15  16  ar  
 32  15  17  ar  
 33  16  18  ar  
 34  16  37  1   
 35  17  19  ar  
 36  17  38  1   
 37  18  20  ar  
 38  18  39  1   
 39  19  20  ar  
 40  19  40  1   
 41  20  21  1   
 42  21  41  1   
 43  21  42  1   
 44  21  43  1   
@<TRIPOS>SUBSTRUCTURE
  1 ****  10 GROUP 4 **** **** 0

# MOE 2024.06 (io_trps.svl 2023.06)
