@<TRIPOS>MOLECULE
NONAME
51 53 1 0 0 
SMALL
USER_CHARGES


@<TRIPOS>ATOM
  1 O       -4.4600    -2.5420    -1.7970 O.3   1 <1>  -0.6800 
  2 C       -5.5470    -2.5810    -0.9100 C.3   1 <1>   0.2800 
  3 C       -5.7570    -1.1470    -0.2690 C.3   1 <1>   0.6240 
  4 C       -5.2230    -3.7190     0.0820 C.3   1 <1>  -0.1600 
  5 C       -6.7170    -3.1080    -1.7590 C.3   1 <1>  -0.1600 
  6 O       -5.9400    -0.2540    -1.3140 O.3   1 <1>  -0.6800 
  7 C       -4.4800    -0.7270     0.3950 C.1   1 <1>  -0.2000 
  8 C       -6.9280    -0.8910     0.7070 C.ar  1 <1>  -0.1430 
  9 C       -5.9670    -4.9720    -0.4050 C.3   1 <1>  -0.1600 
 10 C       -6.5450    -4.6260    -1.7760 C.3   1 <1>  -0.1600 
 11 C       -3.3880    -0.5170     0.8180 C.1   1 <1>  -0.2000 
 12 C       -7.1300     0.4090     1.1700 C.ar  1 <1>  -0.1500 
 13 C       -7.7980    -1.8780     1.1680 C.ar  1 <1>  -0.1500 
 14 C       -1.9520    -0.4440     1.1810 C.3   1 <1>   0.5430 
 15 C       -8.1600     0.7150     2.0410 C.ar  1 <1>  -0.1500 
 16 C       -8.8280    -1.5760     2.0400 C.ar  1 <1>  -0.1500 
 17 N       -1.3490    -1.7410     0.7840 N.4   1 <1>  -0.9590 
 18 C       -9.0130    -0.2790     2.4780 C.ar  1 <1>  -0.1500 
 19 C        0.0020    -1.9390     1.3740 C.3   1 <1>   0.3430 
 20 C       -1.3520    -1.9280    -0.7010 C.3   1 <1>   0.3430 
 21 C        0.4870    -3.3590     1.0740 C.3   1 <1>  -0.1600 
 22 C       -0.8920    -3.3470    -1.0390 C.3   1 <1>  -0.1600 
 23 C        0.4810    -3.6600    -0.4310 C.3   1 <1>  -0.1600 
 24 H       -4.6590    -1.8450    -2.4570 H     1 <1>   0.4000 
 25 H       -5.5470    -3.4770     1.0780 H     1 <1>   0.0800 
 26 H       -4.1640    -3.9030     0.1210 H     1 <1>   0.0800 
 27 H       -6.7200    -2.6930    -2.7520 H     1 <1>   0.0800 
 28 H       -7.6610    -2.8710    -1.3080 H     1 <1>   0.0800 
 29 H       -6.6650     0.3420    -1.0460 H     1 <1>   0.4000 
 30 H       -6.7710    -5.2020     0.2740 H     1 <1>   0.0800 
 31 H       -5.3130    -5.8250    -0.4650 H     1 <1>   0.0800 
 32 H       -5.8320    -4.8920    -2.5390 H     1 <1>   0.0800 
 33 H       -7.4710    -5.1390    -1.9700 H     1 <1>   0.0800 
 34 H       -6.4770     1.2090     0.8610 H     1 <1>   0.1500 
 35 H       -7.7040    -2.9040     0.8690 H     1 <1>   0.1500 
 36 H       -1.8570    -0.2930     2.2440 H     1 <1>   0.0800 
 37 H       -1.4740     0.3720     0.6640 H     1 <1>   0.0800 
 38 H       -8.2970     1.7260     2.3840 H     1 <1>   0.1500 
 39 H       -9.4900    -2.3540     2.3820 H     1 <1>   0.1500 
 40 H       -1.9740    -2.4650     1.1580 H     1 <1>   0.4500 
 41 H       -9.8160    -0.0450     3.1560 H     1 <1>   0.1500 
 42 H       -0.0320    -1.7910     2.4420 H     1 <1>   0.0800 
 43 H        0.6940    -1.2280     0.9510 H     1 <1>   0.0800 
 44 H       -0.6910    -1.2140    -1.1640 H     1 <1>   0.0800 
 45 H       -2.3440    -1.7760    -1.0970 H     1 <1>   0.0800 
 46 H       -0.1390    -4.0670     1.5910 H     1 <1>   0.0800 
 47 H        1.4860    -3.4780     1.4560 H     1 <1>   0.0800 
 48 H       -0.8440    -3.4530    -2.1090 H     1 <1>   0.0800 
 49 H       -1.6260    -4.0500    -0.6840 H     1 <1>   0.0800 
 50 H        0.7270    -4.6960    -0.5980 H     1 <1>   0.0800 
 51 H        1.2340    -3.0640    -0.9190 H     1 <1>   0.0800 
@<TRIPOS>BOND
  1   1   2  1   
  2   1  24  1   
  3   2   3  1   
  4   2   4  1   
  5   2   5  1   
  6   3   6  1   
  7   3   7  1   
  8   3   8  1   
  9   4   9  1   
 10   4  25  1   
 11   4  26  1   
 12   5  10  1   
 13   5  27  1   
 14   5  28  1   
 15   6  29  1   
 16   7  11  3   
 17   8  12  ar  
 18   8  13  ar  
 19   9  10  1   
 20   9  30  1   
 21   9  31  1   
 22  10  32  1   
 23  10  33  1   
 24  11  14  1   
 25  12  15  ar  
 26  12  34  1   
 27  13  16  ar  
 28  13  35  1   
 29  14  17  1   
 30  14  36  1   
 31  14  37  1   
 32  15  18  ar  
 33  15  38  1   
 34  16  18  ar  
 35  16  39  1   
 36  17  19  1   
 37  17  20  1   
 38  17  40  1   
 39  18  41  1   
 40  19  21  1   
 41  19  42  1   
 42  19  43  1   
 43  20  22  1   
 44  20  44  1   
 45  20  45  1   
 46  21  23  1   
 47  21  46  1   
 48  21  47  1   
 49  22  23  1   
 50  22  48  1   
 51  22  49  1   
 52  23  50  1   
 53  23  51  1   
@<TRIPOS>SUBSTRUCTURE
  1 ****   7 GROUP 4 **** **** 0

# MOE 2024.06 (io_trps.svl 2023.06)
