@<TRIPOS>MOLECULE
NONAME
36 36 1 0 0 
SMALL
USER_CHARGES


@<TRIPOS>ATOM
  1 CL      -1.9490     0.7580     1.8310 Cl    1 <1>  -0.1770 
  2 C       -0.8860     1.9690     1.1390 C.ar  1 <1>   0.1770 
  3 C        0.2840     2.3230     1.7910 C.ar  1 <1>   0.1770 
  4 C       -1.2440     2.5740    -0.0580 C.ar  1 <1>  -0.1440 
  5 CL       0.7230     1.5650     3.3020 Cl    1 <1>  -0.1770 
  6 C        1.1180     3.2870     1.2560 C.ar  1 <1>  -0.1500 
  7 C       -0.4020     3.5420    -0.5930 C.ar  1 <1>  -0.1500 
  8 C       -2.5230     2.1740    -0.7710 C.3   1 <1>   0.4870 
  9 C        0.7690     3.8950     0.0610 C.ar  1 <1>  -0.1500 
 10 N       -3.7020     2.5860     0.0600 N.4   1 <1>  -0.9590 
 11 C       -4.9510     1.8620    -0.3800 C.3   1 <1>   0.3430 
 12 C       -3.8280     4.0850     0.0720 C.3   1 <1>   0.2630 
 13 C       -6.1510     1.9980     0.6040 C.3   1 <1>   0.3430 
 14 N       -7.3790     1.2040     0.2180 N.4   1 <1>  -0.9590 
 15 C       -8.5300     1.5600     1.1180 C.3   1 <1>   0.2630 
 16 C       -7.1720    -0.2840     0.2730 C.3   1 <1>   0.2630 
 17 H        2.0260     3.5540     1.7680 H     1 <1>   0.1500 
 18 H       -0.6360     4.0310    -1.5260 H     1 <1>   0.1500 
 19 H       -2.5180     1.1030    -0.9050 H     1 <1>   0.0800 
 20 H       -2.5650     2.6370    -1.7440 H     1 <1>   0.0800 
 21 H        1.4190     4.6460    -0.3620 H     1 <1>   0.1500 
 22 H       -3.4420     2.2800     1.0150 H     1 <1>   0.4500 
 23 H       -4.7190     0.8140    -0.4800 H     1 <1>   0.0800 
 24 H       -5.2480     2.2310    -1.3480 H     1 <1>   0.0800 
 25 H       -4.0470     4.4560    -0.9170 H     1 <1>   0.0800 
 26 H       -2.9050     4.5350     0.4050 H     1 <1>   0.0800 
 27 H       -4.6120     4.3980     0.7420 H     1 <1>   0.0800 
 28 H       -6.4210     3.0390     0.6660 H     1 <1>   0.0800 
 29 H       -5.8310     1.6800     1.5840 H     1 <1>   0.0800 
 30 H       -7.6800     1.4510    -0.7420 H     1 <1>   0.4500 
 31 H       -8.3020     1.3100     2.1420 H     1 <1>   0.0800 
 32 H       -9.4160     1.0200     0.8250 H     1 <1>   0.0800 
 33 H       -8.7440     2.6160     1.0600 H     1 <1>   0.0800 
 34 H       -6.8870    -0.5900     1.2670 H     1 <1>   0.0800 
 35 H       -6.4040    -0.5920    -0.4180 H     1 <1>   0.0800 
 36 H       -8.0840    -0.7970     0.0110 H     1 <1>   0.0800 
@<TRIPOS>BOND
  1   1   2  1   
  2   2   3  ar  
  3   2   4  ar  
  4   3   5  1   
  5   3   6  ar  
  6   4   7  ar  
  7   4   8  1   
  8   6   9  ar  
  9   6  17  1   
 10   7   9  ar  
 11   7  18  1   
 12   8  10  1   
 13   8  19  1   
 14   8  20  1   
 15   9  21  1   
 16  10  11  1   
 17  10  12  1   
 18  10  22  1   
 19  11  13  1   
 20  11  23  1   
 21  11  24  1   
 22  12  25  1   
 23  12  26  1   
 24  12  27  1   
 25  13  14  1   
 26  13  28  1   
 27  13  29  1   
 28  14  15  1   
 29  14  16  1   
 30  14  30  1   
 31  15  31  1   
 32  15  32  1   
 33  15  33  1   
 34  16  34  1   
 35  16  35  1   
 36  16  36  1   
@<TRIPOS>SUBSTRUCTURE
  1 ****  10 GROUP 4 **** **** 0

# MOE 2024.06 (io_trps.svl 2023.06)
