@<TRIPOS>MOLECULE
NONAME
45 46 1 0 0 
SMALL
USER_CHARGES


@<TRIPOS>ATOM
  1 O       -0.7900     0.1400     1.7830 O.2   1 <1>  -0.5700 
  2 C       -1.4410     1.0990     1.4360 C.2   1 <1>   0.5690 
  3 N       -1.4720     1.5500     0.1500 N.am  1 <1>  -0.7300 
  4 C       -2.2870     1.8240     2.4960 C.3   1 <1>   0.2610 
  5 C       -0.8610     0.9860    -1.0520 C.3   1 <1>   0.3000 
  6 O       -3.3920     2.5020     1.9090 O.3   1 <1>  -0.3630 
  7 C       -1.4740     2.8760     3.2560 C.3   1 <1>  -0.2400 
  8 C       -1.2630     1.8970    -2.2100 C.3   1 <1>  -0.2400 
  9 C        0.6600     0.9770    -0.9040 C.3   1 <1>  -0.2400 
 10 C       -1.4100    -0.4200    -1.2900 C.3   1 <1>  -0.2400 
 11 C       -4.4260     1.8440     1.3280 C.ar  1 <1>   0.0820 
 12 C       -4.5500     0.4580     1.2920 C.ar  1 <1>  -0.1500 
 13 C       -5.4010     2.6240     0.7300 C.ar  1 <1>  -0.1500 
 14 C       -5.6340    -0.1220     0.6590 C.ar  1 <1>  -0.1500 
 15 C       -6.4810     2.0360     0.0990 C.ar  1 <1>  -0.1500 
 16 C       -6.6170     0.6520     0.0500 C.ar  1 <1>   0.0000 
 17 C       -7.7450     0.0380    -0.6120 C.ar  1 <1>   0.0000 
 18 C       -7.5600    -0.8590    -1.6600 C.ar  1 <1>  -0.1500 
 19 C       -9.0490     0.3250    -0.2200 C.ar  1 <1>  -0.1500 
 20 C       -8.6380    -1.4490    -2.2960 C.ar  1 <1>  -0.1500 
 21 C      -10.1310    -0.2610    -0.8520 C.ar  1 <1>  -0.1500 
 22 C       -9.9270    -1.1500    -1.8920 C.ar  1 <1>  -0.1500 
 23 H       -2.1390     2.2990    -0.0440 H     1 <1>   0.3700 
 24 H       -2.6730     1.1050     3.1960 H     1 <1>   0.0800 
 25 H       -1.0940     3.6160     2.5740 H     1 <1>   0.0800 
 26 H       -0.6410     2.4030     3.7450 H     1 <1>   0.0800 
 27 H       -2.0870     3.3510     4.0010 H     1 <1>   0.0800 
 28 H       -0.9000     2.8960    -2.0470 H     1 <1>   0.0800 
 29 H       -2.3330     1.9220    -2.3180 H     1 <1>   0.0800 
 30 H       -0.8410     1.5330    -3.1290 H     1 <1>   0.0800 
 31 H        1.0230     1.9660    -0.6900 H     1 <1>   0.0800 
 32 H        1.1190     0.6330    -1.8130 H     1 <1>   0.0800 
 33 H        0.9600     0.3160    -0.1110 H     1 <1>   0.0800 
 34 H       -2.4840    -0.4010    -1.3430 H     1 <1>   0.0800 
 35 H       -1.1110    -1.0820    -0.4970 H     1 <1>   0.0800 
 36 H       -1.0280    -0.8160    -2.2130 H     1 <1>   0.0800 
 37 H       -3.8210    -0.1880     1.7450 H     1 <1>   0.1500 
 38 H       -5.3090     3.6950     0.7610 H     1 <1>   0.1500 
 39 H       -5.7260    -1.1940     0.6360 H     1 <1>   0.1500 
 40 H       -7.2300     2.6530    -0.3660 H     1 <1>   0.1500 
 41 H       -6.5600    -1.0920    -1.9810 H     1 <1>   0.1500 
 42 H       -9.2140     1.0120     0.5910 H     1 <1>   0.1500 
 43 H       -8.4750    -2.1400    -3.1050 H     1 <1>   0.1500 
 44 H      -11.1320    -0.0260    -0.5340 H     1 <1>   0.1500 
 45 H      -10.7670    -1.6070    -2.3850 H     1 <1>   0.1500 
@<TRIPOS>BOND
  1   1   2  2   
  2   2   3  am  
  3   2   4  1   
  4   3   5  1   
  5   3  23  1   
  6   4   6  1   
  7   4   7  1   
  8   4  24  1   
  9   5   8  1   
 10   5   9  1   
 11   5  10  1   
 12   6  11  1   
 13   7  25  1   
 14   7  26  1   
 15   7  27  1   
 16   8  28  1   
 17   8  29  1   
 18   8  30  1   
 19   9  31  1   
 20   9  32  1   
 21   9  33  1   
 22  10  34  1   
 23  10  35  1   
 24  10  36  1   
 25  11  12  ar  
 26  11  13  ar  
 27  12  14  ar  
 28  12  37  1   
 29  13  15  ar  
 30  13  38  1   
 31  14  16  ar  
 32  14  39  1   
 33  15  16  ar  
 34  15  40  1   
 35  16  17  1   
 36  17  18  ar  
 37  17  19  ar  
 38  18  20  ar  
 39  18  41  1   
 40  19  21  ar  
 41  19  42  1   
 42  20  22  ar  
 43  20  43  1   
 44  21  22  ar  
 45  21  44  1   
 46  22  45  1   
@<TRIPOS>SUBSTRUCTURE
  1 ****  12 GROUP 4 **** **** 0

# MOE 2024.06 (io_trps.svl 2023.06)
