@<TRIPOS>MOLECULE
NONAME
37 38 1 0 0 
SMALL
USER_CHARGES


@<TRIPOS>ATOM
  1 O       -0.0810     0.8080     0.5600 O.2   1 <1>  -0.5700 
  2 C        0.1550     1.9740     0.2920 C.2   1 <1>   0.6900 
  3 N        1.4680     2.3760     0.1360 N.am  1 <1>  -0.4770 
  4 N       -0.8930     2.8590     0.1850 N.am  1 <1>  -0.6600 
  5 C        1.9910     3.5150    -0.4800 C.ar  1 <1>   0.1170 
  6 C        2.5570     1.7060     0.8890 C.3   1 <1>   0.2200 
  7 C       -2.2090     2.3780    -0.3200 C.3   1 <1>   0.1400 
  8 C       -0.8410     4.1900     0.8560 C.3   1 <1>   0.1400 
  9 C        3.2480     3.8120    -0.0020 C.ar  1 <1>  -0.1440 
 10 C        1.4220     4.3120    -1.4640 C.ar  1 <1>  -0.1500 
 11 C        3.6530     2.7840     1.0280 C.3   1 <1>  -0.0160 
 12 C        3.0610     0.4970     0.0920 C.3   1 <1>  -0.2400 
 13 C       -2.7000     3.2630    -1.4650 C.3   1 <1>  -0.2400 
 14 C       -1.7240     4.2090     2.1030 C.3   1 <1>  -0.2400 
 15 C        3.9550     4.9040    -0.4650 C.ar  1 <1>  -0.1500 
 16 C        2.1200     5.4110    -1.9380 C.ar  1 <1>  -0.1500 
 17 C        3.3810     5.7080    -1.4380 C.ar  1 <1>  -0.1500 
 18 H        2.2010     1.3950     1.8570 H     1 <1>   0.0800 
 19 H       -2.9270     2.3600     0.4810 H     1 <1>   0.0800 
 20 H       -2.1070     1.3700    -0.6850 H     1 <1>   0.0800 
 21 H       -1.1460     4.9580     0.1680 H     1 <1>   0.0800 
 22 H        0.1680     4.4060     1.1590 H     1 <1>   0.0800 
 23 H        0.4510     4.0660    -1.8520 H     1 <1>   0.1500 
 24 H        4.6360     2.3940     0.8390 H     1 <1>   0.0800 
 25 H        3.6210     3.2180     2.0100 H     1 <1>   0.0800 
 26 H        3.3970     0.8030    -0.8830 H     1 <1>   0.0800 
 27 H        2.2720    -0.2250    -0.0190 H     1 <1>   0.0800 
 28 H        3.8760     0.0270     0.6100 H     1 <1>   0.0800 
 29 H       -2.9090     4.2580    -1.1180 H     1 <1>   0.0800 
 30 H       -3.6060     2.8510    -1.8700 H     1 <1>   0.0800 
 31 H       -1.9630     3.2970    -2.2460 H     1 <1>   0.0800 
 32 H       -2.7630     4.1490     1.8390 H     1 <1>   0.0800 
 33 H       -1.5680     5.1280     2.6370 H     1 <1>   0.0800 
 34 H       -1.4660     3.3890     2.7500 H     1 <1>   0.0800 
 35 H        4.9350     5.1270    -0.0810 H     1 <1>   0.1500 
 36 H        1.6840     6.0350    -2.6980 H     1 <1>   0.1500 
 37 H        3.9170     6.5640    -1.8110 H     1 <1>   0.1500 
@<TRIPOS>BOND
  1   1   2  2   
  2   2   3  am  
  3   2   4  am  
  4   3   5  1   
  5   3   6  1   
  6   4   7  1   
  7   4   8  1   
  8   5   9  ar  
  9   5  10  ar  
 10   6  11  1   
 11   6  12  1   
 12   6  18  1   
 13   7  13  1   
 14   7  19  1   
 15   7  20  1   
 16   8  14  1   
 17   8  21  1   
 18   8  22  1   
 19   9  11  1   
 20   9  15  ar  
 21  10  16  ar  
 22  10  23  1   
 23  11  24  1   
 24  11  25  1   
 25  12  26  1   
 26  12  27  1   
 27  12  28  1   
 28  13  29  1   
 29  13  30  1   
 30  13  31  1   
 31  14  32  1   
 32  14  33  1   
 33  14  34  1   
 34  15  17  ar  
 35  15  35  1   
 36  16  17  ar  
 37  16  36  1   
 38  17  37  1   
@<TRIPOS>SUBSTRUCTURE
  1 ****   3 GROUP 4 **** **** 0

# MOE 2024.06 (io_trps.svl 2023.06)
