@<TRIPOS>MOLECULE
NONAME
50 53 1 0 0 
SMALL
USER_CHARGES


@<TRIPOS>ATOM
  1 O        1.0060     0.5410     0.3110 O.2   1 <1>  -0.5700 
  2 C        0.9720     1.6470    -0.1870 C.2   1 <1>   0.7800 
  3 O       -0.1870     2.2910    -0.3140 O.3   1 <1>  -0.4300 
  4 N        2.1070     2.2900    -0.6100 N.am  1 <1>  -0.6600 
  5 C       -1.3960     1.6860     0.0890 C.3   1 <1>   0.1200 
  6 C        2.1240     3.7050    -1.0750 C.3   1 <1>   0.1400 
  7 C        3.4500     1.6580    -0.4880 C.3   1 <1>   0.1400 
  8 C       -2.5300     2.6700    -0.1820 C.3   1 <1>  -0.2400 
  9 C        3.0630     4.5480    -0.1920 C.3   1 <1>   0.3430 
 10 C        4.3690     2.5190     0.3960 C.3   1 <1>   0.3430 
 11 N        4.4490     3.9550    -0.0720 N.4   1 <1>  -0.9590 
 12 C        5.3680     4.7910     0.7800 C.3   1 <1>   0.4230 
 13 C        5.4710     6.2430     0.2360 C.3   1 <1>  -0.0800 
 14 C        6.7980     4.1870     0.8240 C.3   1 <1>  -0.0800 
 15 C        6.1060     6.2540    -1.1740 C.3   1 <1>  -0.1600 
 16 C        6.3600     7.0790     1.1810 C.3   1 <1>  -0.1600 
 17 C        7.4370     4.1910    -0.5840 C.3   1 <1>  -0.1600 
 18 C        7.6800     5.0330     1.7660 C.3   1 <1>  -0.1600 
 19 C        7.5150     5.6340    -1.1200 C.3   1 <1>  -0.0800 
 20 C        7.7740     6.4780     1.2470 C.3   1 <1>  -0.0800 
 21 C        8.3870     6.4700    -0.1650 C.3   1 <1>  -0.1600 
 22 H       -1.3310     1.4520     1.1380 H     1 <1>   0.0800 
 23 H       -1.5290     0.7790    -0.4770 H     1 <1>   0.0800 
 24 H        1.1360     4.1320    -1.0410 H     1 <1>   0.0800 
 25 H        2.4550     3.7380    -2.0980 H     1 <1>   0.0800 
 26 H        3.8810     1.5450    -1.4670 H     1 <1>   0.0800 
 27 H        3.3690     0.6740    -0.0560 H     1 <1>   0.0800 
 28 H       -2.3820     3.5740     0.3810 H     1 <1>   0.0800 
 29 H       -3.4660     2.2330     0.1150 H     1 <1>   0.0800 
 30 H       -2.5790     2.9010    -1.2310 H     1 <1>   0.0800 
 31 H        2.6220     4.6330     0.7880 H     1 <1>   0.0800 
 32 H        3.1190     5.5370    -0.6140 H     1 <1>   0.0800 
 33 H        5.3490     2.0720     0.3920 H     1 <1>   0.0800 
 34 H        3.9960     2.4870     1.4060 H     1 <1>   0.0800 
 35 H        4.8740     3.9570    -1.0070 H     1 <1>   0.4500 
 36 H        4.9790     4.8280     1.7850 H     1 <1>   0.0800 
 37 H        4.5090     6.7200     0.2140 H     1 <1>   0.0800 
 38 H        6.7870     3.1900     1.2230 H     1 <1>   0.0800 
 39 H        5.4960     5.7210    -1.8800 H     1 <1>   0.0800 
 40 H        6.1790     7.2700    -1.5280 H     1 <1>   0.0800 
 41 H        5.9300     7.1080     2.1680 H     1 <1>   0.0800 
 42 H        6.4190     8.0940     0.8270 H     1 <1>   0.0800 
 43 H        6.8810     3.5750    -1.2670 H     1 <1>   0.0800 
 44 H        8.4320     3.7800    -0.5300 H     1 <1>   0.0800 
 45 H        7.2710     5.0300     2.7620 H     1 <1>   0.0800 
 46 H        8.6680     4.6090     1.8230 H     1 <1>   0.0800 
 47 H        7.9570     5.6380    -2.1030 H     1 <1>   0.0800 
 48 H        8.3910     7.0650     1.9080 H     1 <1>   0.0800 
 49 H        8.4690     7.4790    -0.5320 H     1 <1>   0.0800 
 50 H        9.3830     6.0620    -0.1270 H     1 <1>   0.0800 
@<TRIPOS>BOND
  1   1   2  2   
  2   2   3  1   
  3   2   4  am  
  4   3   5  1   
  5   4   6  1   
  6   4   7  1   
  7   5   8  1   
  8   5  22  1   
  9   5  23  1   
 10   6   9  1   
 11   6  24  1   
 12   6  25  1   
 13   7  10  1   
 14   7  26  1   
 15   7  27  1   
 16   8  28  1   
 17   8  29  1   
 18   8  30  1   
 19   9  11  1   
 20   9  31  1   
 21   9  32  1   
 22  10  11  1   
 23  10  33  1   
 24  10  34  1   
 25  11  12  1   
 26  11  35  1   
 27  12  13  1   
 28  12  14  1   
 29  12  36  1   
 30  13  15  1   
 31  13  16  1   
 32  13  37  1   
 33  14  17  1   
 34  14  18  1   
 35  14  38  1   
 36  15  19  1   
 37  15  39  1   
 38  15  40  1   
 39  16  20  1   
 40  16  41  1   
 41  16  42  1   
 42  17  19  1   
 43  17  43  1   
 44  17  44  1   
 45  18  20  1   
 46  18  45  1   
 47  18  46  1   
 48  19  21  1   
 49  19  47  1   
 50  20  21  1   
 51  20  48  1   
 52  21  49  1   
 53  21  50  1   
@<TRIPOS>SUBSTRUCTURE
  1 ****  11 GROUP 4 **** **** 0

# MOE 2024.06 (io_trps.svl 2023.06)
