@<TRIPOS>MOLECULE
NONAME
34 33 1 0 0 
SMALL
USER_CHARGES


@<TRIPOS>ATOM
  1 O       -0.1200    -0.0810     0.0000 O.2   1 <1>  -0.5700 
  2 C       -1.2120    -0.6940     0.0000 C.2   1 <1>   0.7060 
  3 O       -1.3170    -2.1830     0.0000 O.3   1 <1>  -0.4300 
  4 C       -2.6460     0.0050     0.0000 C.2   1 <1>   0.0290 
  5 C       -0.0660    -2.9590     0.0000 C.3   1 <1>   0.0400 
  6 C       -2.5250     1.5950     0.0000 C.2   1 <1>   0.7060 
  7 C       -3.8440    -0.6750     0.0000 C.2   1 <1>  -0.1500 
  8 O       -1.4400     2.2130     0.0000 O.2   1 <1>  -0.5700 
  9 O       -3.9820     2.6330     0.0000 O.3   1 <1>  -0.4300 
 10 C       -5.1890    -0.6590     0.0000 C.2   1 <1>  -0.1500 
 11 C       -5.3000     2.9200     0.0000 C.3   1 <1>   0.0400 
 12 C       -6.5580    -0.6440     0.0000 C.2   1 <1>  -0.1500 
 13 C       -7.8730     0.0520     0.0000 C.2   1 <1>  -0.1500 
 14 C       -9.1380    -0.5630     0.0000 C.2   1 <1>  -0.0500 
 15 N      -10.4150     0.1310     0.0000 N.pl3 1 <1>  -0.8380 
 16 C      -10.4590     1.6560     0.0000 C.3   1 <1>   0.1290 
 17 C      -11.7620    -0.5630     0.0000 C.3   1 <1>   0.1290 
 18 H       -0.2630    -4.0310     0.0000 H     1 <1>   0.0800 
 19 H        0.5120    -2.7030     0.8870 H     1 <1>   0.0800 
 20 H        0.5120    -2.7030    -0.8870 H     1 <1>   0.0800 
 21 H       -3.6730    -1.5430     0.0000 H     1 <1>   0.1500 
 22 H       -5.1370    -2.6770     0.0000 H     1 <1>   0.1500 
 23 H       -5.9970     2.7200     0.0000 H     1 <1>   0.0800 
 24 H       -5.4200     1.9430     1.5600 H     1 <1>   0.0800 
 25 H       -5.4200     1.9430    -1.5600 H     1 <1>   0.0800 
 26 H       -6.5860    -1.7470     0.0000 H     1 <1>   0.1500 
 27 H       -7.8260     1.1830     0.0000 H     1 <1>   0.1500 
 28 H       -9.1860    -1.7020     0.0000 H     1 <1>   0.1500 
 29 H      -11.4840     2.0130     0.0000 H     1 <1>   0.0800 
 30 H       -9.9480     2.0240    -0.8870 H     1 <1>   0.0800 
 31 H       -9.9480     2.0240     0.8870 H     1 <1>   0.0800 
 32 H      -12.5720     0.1610     0.0000 H     1 <1>   0.0800 
 33 H      -11.8360    -1.1880     0.8870 H     1 <1>   0.0800 
 34 H      -11.8360    -1.1880    -0.8870 H     1 <1>   0.0800 
@<TRIPOS>BOND
  1   1   2  2   
  2   2   3  1   
  3   2   4  1   
  4   3   5  1   
  5   4   6  1   
  6   4   7  2   
  7   5  18  1   
  8   5  19  1   
  9   5  20  1   
 10   6   8  2   
 11   6   9  1   
 12   7  10  1   
 13   7  21  1   
 14   9  11  1   
 15  10  12  2   
 16  10  22  1   
 17  11  23  1   
 18  11  24  1   
 19  11  25  1   
 20  12  13  1   
 21  12  26  1   
 22  13  14  2   
 23  13  27  1   
 24  14  15  1   
 25  14  28  1   
 26  15  16  1   
 27  15  17  1   
 28  16  29  1   
 29  16  30  1   
 30  16  31  1   
 31  17  32  1   
 32  17  33  1   
 33  17  34  1   
@<TRIPOS>SUBSTRUCTURE
  1 ****  10 GROUP 4 **** **** 0

# MOE 2024.06 (io_trps.svl 2023.06)
