@<TRIPOS>MOLECULE
NONAME
29 29 1 0 0 
SMALL
USER_CHARGES


@<TRIPOS>ATOM
  1 BR      -0.0630     0.6710    -2.0550 Br    1 <1>  -0.1110 
  2 C        1.4770     1.3220    -1.0910 C.ar  1 <1>   0.1110 
  3 C        1.4530     2.5770    -0.5090 C.ar  1 <1>   0.0830 
  4 C        2.5840     0.5000    -1.0070 C.ar  1 <1>  -0.1500 
  5 O        0.3720     3.3810    -0.5900 O.3   1 <1>  -0.5330 
  6 C        2.5760     3.0200     0.1790 C.ar  1 <1>   0.0830 
  7 C        3.7210     0.9240    -0.3230 C.ar  1 <1>  -0.1430 
  8 O        2.5080     4.2650     0.7380 O.3   1 <1>  -0.3620 
  9 C        3.6950     2.1910     0.2650 C.ar  1 <1>  -0.1500 
 10 C        4.9430    -0.0190    -0.2470 C.3   1 <1>   0.1440 
 11 C        3.5960     4.8050     1.4560 C.3   1 <1>   0.0400 
 12 C        5.4400    -0.3290    -1.6670 C.3   1 <1>  -0.2400 
 13 C        4.5390    -1.3270     0.4480 C.3   1 <1>  -0.2400 
 14 C        6.1260     0.5750     0.5370 C.3   1 <1>  -0.2400 
 15 H        2.5410    -0.4630    -1.4800 H     1 <1>   0.1500 
 16 H        0.5570     4.2160    -0.1170 H     1 <1>   0.4500 
 17 H        4.5540     2.5440     0.7970 H     1 <1>   0.1500 
 18 H        3.3170     5.7850     1.8000 H     1 <1>   0.0800 
 19 H        4.4470     4.8770     0.8020 H     1 <1>   0.0800 
 20 H        3.8090     4.1700     2.2980 H     1 <1>   0.0800 
 21 H        4.6870    -0.8360    -2.2410 H     1 <1>   0.0800 
 22 H        6.3130    -0.9560    -1.6360 H     1 <1>   0.0800 
 23 H        5.6930     0.5840    -2.1760 H     1 <1>   0.0800 
 24 H        4.1560    -1.1190     1.4310 H     1 <1>   0.0800 
 25 H        5.3850    -1.9850     0.5430 H     1 <1>   0.0800 
 26 H        3.7780    -1.8440    -0.1070 H     1 <1>   0.0800 
 27 H        6.4690     1.4830     0.0730 H     1 <1>   0.0800 
 28 H        6.9490    -0.1170     0.5610 H     1 <1>   0.0800 
 29 H        5.8390     0.7840     1.5520 H     1 <1>   0.0800 
@<TRIPOS>BOND
  1   1   2  1   
  2   2   3  ar  
  3   2   4  ar  
  4   3   5  1   
  5   3   6  ar  
  6   4   7  ar  
  7   4  15  1   
  8   5  16  1   
  9   6   8  1   
 10   6   9  ar  
 11   7   9  ar  
 12   7  10  1   
 13   8  11  1   
 14   9  17  1   
 15  10  12  1   
 16  10  13  1   
 17  10  14  1   
 18  11  18  1   
 19  11  19  1   
 20  11  20  1   
 21  12  21  1   
 22  12  22  1   
 23  12  23  1   
 24  13  24  1   
 25  13  25  1   
 26  13  26  1   
 27  14  27  1   
 28  14  28  1   
 29  14  29  1   
@<TRIPOS>SUBSTRUCTURE
  1 ****   7 GROUP 4 **** **** 0

# MOE 2024.06 (io_trps.svl 2023.06)
