@<TRIPOS>MOLECULE
NONAME
46 47 1 0 0 
SMALL
USER_CHARGES


@<TRIPOS>ATOM
  1 O       -2.2010     1.3550     0.3550 O.3   1 <1>  -0.5600 
  2 C       -2.1390     2.7550     0.4160 C.3   1 <1>   0.1200 
  3 C       -2.8340     0.8580    -0.7930 C.3   1 <1>   0.1200 
  4 C       -3.5470     3.3860     0.3030 C.3   1 <1>   0.3430 
  5 C       -4.2950     1.3600    -0.8810 C.3   1 <1>   0.3430 
  6 N       -4.6140     2.3310     0.2250 N.4   1 <1>  -0.9590 
  7 C       -5.9900     2.9220     0.1450 C.3   1 <1>   0.3430 
  8 C       -7.0950     1.8830     0.3590 C.3   1 <1>   0.1200 
  9 O       -8.3240     2.5540     0.2290 O.3   1 <1>  -0.3630 
 10 C       -9.5050     1.8940     0.3400 C.ar  1 <1>   0.0820 
 11 C      -10.6540     2.6340     0.1170 C.ar  1 <1>  -0.1500 
 12 C       -9.6110     0.5420     0.6590 C.ar  1 <1>  -0.1500 
 13 C      -11.9040     2.0460     0.2040 C.ar  1 <1>   0.0820 
 14 C      -10.8590    -0.0500     0.7480 C.ar  1 <1>  -0.1500 
 15 O      -12.9730     2.8480    -0.0320 O.3   1 <1>  -0.3630 
 16 C      -12.0040     0.6950     0.5220 C.ar  1 <1>  -0.1500 
 17 C      -14.2900     2.3530     0.0350 C.3   1 <1>   0.1200 
 18 C      -15.2500     3.5010    -0.2770 C.3   1 <1>  -0.1600 
 19 C      -16.7110     3.0350    -0.2230 C.3   1 <1>  -0.1600 
 20 C      -17.6670     4.1890    -0.5360 C.3   1 <1>  -0.2400 
 21 H       -1.4980     3.1080    -0.3740 H     1 <1>   0.0800 
 22 H       -1.6880     3.0210     1.3560 H     1 <1>   0.0800 
 23 H       -2.8120    -0.2170    -0.7420 H     1 <1>   0.0800 
 24 H       -2.2710     1.1640    -1.6580 H     1 <1>   0.0800 
 25 H       -3.5800     4.0090    -0.5760 H     1 <1>   0.0800 
 26 H       -3.7150     4.0230     1.1570 H     1 <1>   0.0800 
 27 H       -4.9560     0.5110    -0.8300 H     1 <1>   0.0800 
 28 H       -4.4440     1.8280    -1.8400 H     1 <1>   0.0800 
 29 H       -4.5080     1.7930     1.1000 H     1 <1>   0.4500 
 30 H       -6.1290     3.3840    -0.8180 H     1 <1>   0.0800 
 31 H       -6.0960     3.6810     0.9030 H     1 <1>   0.0800 
 32 H       -7.0450     1.4660     1.3490 H     1 <1>   0.0800 
 33 H       -7.0610     1.1130    -0.3900 H     1 <1>   0.0800 
 34 H      -10.5820     3.6770    -0.1280 H     1 <1>   0.1500 
 35 H       -8.7480    -0.0660     0.8440 H     1 <1>   0.1500 
 36 H      -10.9440    -1.0940     0.9950 H     1 <1>   0.1500 
 37 H      -12.9580     0.2080     0.5980 H     1 <1>   0.1500 
 38 H      -14.4610     1.9750     1.0280 H     1 <1>   0.0800 
 39 H      -14.3930     1.5640    -0.6900 H     1 <1>   0.0800 
 40 H      -15.0310     3.8830    -1.2590 H     1 <1>   0.0800 
 41 H      -15.0980     4.2890     0.4410 H     1 <1>   0.0800 
 42 H      -16.9320     2.6490     0.7580 H     1 <1>   0.0800 
 43 H      -16.8650     2.2440    -0.9380 H     1 <1>   0.0800 
 44 H      -17.5460     4.9840     0.1790 H     1 <1>   0.0800 
 45 H      -18.6860     3.8450    -0.4940 H     1 <1>   0.0800 
 46 H      -17.4790     4.5770    -1.5220 H     1 <1>   0.0800 
@<TRIPOS>BOND
  1   1   2  1   
  2   1   3  1   
  3   2   4  1   
  4   2  21  1   
  5   2  22  1   
  6   3   5  1   
  7   3  23  1   
  8   3  24  1   
  9   4   6  1   
 10   4  25  1   
 11   4  26  1   
 12   5   6  1   
 13   5  27  1   
 14   5  28  1   
 15   6   7  1   
 16   6  29  1   
 17   7   8  1   
 18   7  30  1   
 19   7  31  1   
 20   8   9  1   
 21   8  32  1   
 22   8  33  1   
 23   9  10  1   
 24  10  11  ar  
 25  10  12  ar  
 26  11  13  ar  
 27  11  34  1   
 28  12  14  ar  
 29  12  35  1   
 30  13  15  1   
 31  13  16  ar  
 32  14  16  ar  
 33  14  36  1   
 34  15  17  1   
 35  16  37  1   
 36  17  18  1   
 37  17  38  1   
 38  17  39  1   
 39  18  19  1   
 40  18  40  1   
 41  18  41  1   
 42  19  20  1   
 43  19  42  1   
 44  19  43  1   
 45  20  44  1   
 46  20  45  1   
 47  20  46  1   
@<TRIPOS>SUBSTRUCTURE
  1 ****  10 GROUP 4 **** **** 0

# MOE 2024.06 (io_trps.svl 2023.06)
