@<TRIPOS>MOLECULE
NONAME
53 55 1 0 0 
SMALL
USER_CHARGES


@<TRIPOS>ATOM
  1 S       -0.0790    -0.0490     0.9530 S.o2  1 <1>   1.3330 
  2 O        0.3760    -0.6280     2.1970 O.2   1 <1>  -0.6500 
  3 O       -1.1830     0.8830     0.9530 O.2   1 <1>  -0.6500 
  4 N        1.2530     0.6890     0.2080 N.am  1 <1>  -0.8490 
  5 C       -0.4770    -1.3560    -0.1870 C.3   1 <1>  -0.1350 
  6 C        2.5180     0.0320     0.5530 C.3   1 <1>   0.1960 
  7 C        1.3010     2.1300     0.4770 C.3   1 <1>   0.1960 
  8 C        3.6710     0.6240    -0.2610 C.3   1 <1>  -0.1600 
  9 C        2.4240     2.7870    -0.3300 C.3   1 <1>  -0.1600 
 10 C        3.7900     2.1410    -0.0310 C.3   1 <1>  -0.0190 
 11 C        4.9350     2.7490    -0.8570 C.2   1 <1>   0.5690 
 12 O        4.6620     3.2010    -1.9440 O.2   1 <1>  -0.5700 
 13 N        6.2220     2.7830    -0.3830 N.am  1 <1>  -0.6600 
 14 C        7.2750     3.5480    -1.1220 C.3   1 <1>   0.2840 
 15 C        6.7070     2.1120     0.8620 C.3   1 <1>   0.2840 
 16 C        7.8810     4.6140    -0.2200 C.ar  1 <1>  -0.1440 
 17 C        7.8630     1.1630     0.5680 C.ar  1 <1>  -0.1440 
 18 C        7.1160     5.6960     0.1860 C.ar  1 <1>  -0.1500 
 19 C        9.1960     4.5110     0.2090 C.ar  1 <1>  -0.1500 
 20 C        7.7680     0.2170    -0.4430 C.ar  1 <1>  -0.1500 
 21 C        9.0270     1.2380     1.3170 C.ar  1 <1>  -0.1500 
 22 C        7.6570     6.6640     1.0150 C.ar  1 <1>  -0.1500 
 23 C        9.7380     5.4770     1.0390 C.ar  1 <1>  -0.1500 
 24 C        8.8240    -0.6410    -0.7020 C.ar  1 <1>  -0.1500 
 25 C       10.0840     0.3810     1.0600 C.ar  1 <1>  -0.1500 
 26 C        8.9680     6.5540     1.4420 C.ar  1 <1>  -0.1500 
 27 C        9.9820    -0.5590     0.0500 C.ar  1 <1>  -0.1500 
 28 H        0.3480    -2.0340    -0.2820 H     1 <1>   0.0800 
 29 H       -0.7010    -0.9440    -1.1510 H     1 <1>   0.0800 
 30 H       -1.3320    -1.8990     0.1630 H     1 <1>   0.0800 
 31 H        2.4480    -1.0220     0.3450 H     1 <1>   0.0800 
 32 H        2.7170     0.1520     1.6060 H     1 <1>   0.0800 
 33 H        1.4450     2.3010     1.5310 H     1 <1>   0.0800 
 34 H        0.3680     2.5870     0.1880 H     1 <1>   0.0800 
 35 H        3.5010     0.4280    -1.3060 H     1 <1>   0.0800 
 36 H        4.5860     0.1340     0.0190 H     1 <1>   0.0800 
 37 H        2.4620     3.8370    -0.0990 H     1 <1>   0.0800 
 38 H        2.1900     2.6940    -1.3770 H     1 <1>   0.0800 
 39 H        3.9870     2.3250     1.0080 H     1 <1>   0.0800 
 40 H        6.8640     4.0290    -1.9920 H     1 <1>   0.0800 
 41 H        8.0380     2.8700    -1.4640 H     1 <1>   0.0800 
 42 H        5.9280     1.5410     1.3280 H     1 <1>   0.0800 
 43 H        7.0190     2.8640     1.5650 H     1 <1>   0.0800 
 44 H        6.0960     5.7840    -0.1460 H     1 <1>   0.1500 
 45 H        9.8030     3.6760    -0.1010 H     1 <1>   0.1500 
 46 H        6.8750     0.1490    -1.0390 H     1 <1>   0.1500 
 47 H        9.1200     1.9660     2.1050 H     1 <1>   0.1500 
 48 H        7.0580     7.5020     1.3250 H     1 <1>   0.1500 
 49 H       10.7590     5.3920     1.3680 H     1 <1>   0.1500 
 50 H        8.7440    -1.3700    -1.4890 H     1 <1>   0.1500 
 51 H       10.9840     0.4460     1.6460 H     1 <1>   0.1500 
 52 H        9.3900     7.3050     2.0870 H     1 <1>   0.1500 
 53 H       10.8040    -1.2250    -0.1500 H     1 <1>   0.1500 
@<TRIPOS>BOND
  1   1   2  2   
  2   1   3  2   
  3   1   4  am  
  4   1   5  1   
  5   4   6  1   
  6   4   7  1   
  7   5  28  1   
  8   5  29  1   
  9   5  30  1   
 10   6   8  1   
 11   6  31  1   
 12   6  32  1   
 13   7   9  1   
 14   7  33  1   
 15   7  34  1   
 16   8  10  1   
 17   8  35  1   
 18   8  36  1   
 19   9  10  1   
 20   9  37  1   
 21   9  38  1   
 22  10  11  1   
 23  10  39  1   
 24  11  12  2   
 25  11  13  am  
 26  13  14  1   
 27  13  15  1   
 28  14  16  1   
 29  14  40  1   
 30  14  41  1   
 31  15  17  1   
 32  15  42  1   
 33  15  43  1   
 34  16  18  ar  
 35  16  19  ar  
 36  17  20  ar  
 37  17  21  ar  
 38  18  22  ar  
 39  18  44  1   
 40  19  23  ar  
 41  19  45  1   
 42  20  24  ar  
 43  20  46  1   
 44  21  25  ar  
 45  21  47  1   
 46  22  26  ar  
 47  22  48  1   
 48  23  26  ar  
 49  23  49  1   
 50  24  27  ar  
 51  24  50  1   
 52  25  27  ar  
 53  25  51  1   
 54  26  52  1   
 55  27  53  1   
@<TRIPOS>SUBSTRUCTURE
  1 ****  13 GROUP 4 **** **** 0

# MOE 2024.06 (io_trps.svl 2023.06)
