@<TRIPOS>MOLECULE
NONAME
44 46 1 0 0 
SMALL
USER_CHARGES


@<TRIPOS>ATOM
  1 S       -0.1180    -0.2770     0.4050 S.3   1 <1>  -0.0800 
  2 C        0.8930    -1.1030    -0.7410 C.2   1 <1>   0.4420 
  3 C       -1.4820    -0.8670    -0.4800 C.2   1 <1>   0.1980 
  4 N        0.2090    -1.7140    -1.6350 N.2   1 <1>  -0.3380 
  5 N        2.2690    -1.0790    -0.6630 N.am  1 <1>  -0.4940 
  6 N       -1.1430    -1.5770    -1.4820 N.2   1 <1>  -0.3380 
  7 C       -2.8510    -0.4660     0.0470 C.3   1 <1>   0.3000 
  8 C        3.1170    -0.4800     0.2190 C.2   1 <1>   0.5690 
  9 O       -3.8830    -1.0080    -0.7530 O.3   1 <1>  -0.3630 
 10 O        2.7580     0.1850     1.1550 O.2   1 <1>  -0.5700 
 11 C        4.5960    -0.6710    -0.0060 C.3   1 <1>  -0.1790 
 12 C       -5.1880    -0.7790    -0.4660 C.ar  1 <1>   0.0830 
 13 C       -5.6280    -0.0120     0.6090 C.ar  1 <1>  -0.1500 
 14 C       -6.1190    -1.3560    -1.3120 C.ar  1 <1>  -0.1500 
 15 C       -6.9840     0.1660     0.8230 C.ar  1 <1>  -0.1500 
 16 C       -7.4730    -1.1750    -1.0950 C.ar  1 <1>  -0.1500 
 17 C       -7.9200    -0.4120    -0.0240 C.ar  1 <1>  -0.1430 
 18 C       -9.4120    -0.2010     0.2310 C.3   1 <1>   0.0630 
 19 C      -10.1220    -1.5350     0.5180 C.3   1 <1>  -0.1600 
 20 C      -10.0790     0.5370    -0.9410 C.3   1 <1>  -0.1600 
 21 C      -11.6230    -1.3280     0.7670 C.3   1 <1>  -0.1600 
 22 C      -11.5800     0.7440    -0.6920 C.3   1 <1>  -0.1600 
 23 C      -12.2830    -0.5900    -0.4050 C.3   1 <1>  -0.1600 
 24 H        2.7090    -1.6120    -1.4090 H     1 <1>   0.3700 
 25 H       -2.9450     0.6040     0.0330 H     1 <1>   0.0800 
 26 H       -2.9750    -0.8370     1.0480 H     1 <1>   0.0800 
 27 H        4.8430    -1.7150     0.0440 H     1 <1>   0.0800 
 28 H        5.1480    -0.1490     0.7550 H     1 <1>   0.0800 
 29 H        4.8760    -0.2780    -0.9650 H     1 <1>   0.0800 
 30 H       -4.9420     0.4530     1.2900 H     1 <1>   0.1500 
 31 H       -5.7760    -1.9470    -2.1420 H     1 <1>   0.1500 
 32 H       -7.3100     0.7610     1.6580 H     1 <1>   0.1500 
 33 H       -8.1760    -1.6330    -1.7660 H     1 <1>   0.1500 
 34 H       -9.5230     0.4170     1.1060 H     1 <1>   0.0800 
 35 H       -9.6730    -1.9990     1.3790 H     1 <1>   0.0800 
 36 H       -9.9950    -2.2000    -0.3170 H     1 <1>   0.0800 
 37 H       -9.9500    -0.0290    -1.8470 H     1 <1>   0.0800 
 38 H       -9.6020     1.4910    -1.0800 H     1 <1>   0.0800 
 39 H      -11.7600    -0.7580     1.6700 H     1 <1>   0.0800 
 40 H      -12.0990    -2.2840     0.9060 H     1 <1>   0.0800 
 41 H      -12.0270     1.2090    -1.5540 H     1 <1>   0.0800 
 42 H      -11.7150     1.4050     0.1460 H     1 <1>   0.0800 
 43 H      -13.3200    -0.4100    -0.1790 H     1 <1>   0.0800 
 44 H      -12.2410    -1.2100    -1.2840 H     1 <1>   0.0800 
@<TRIPOS>BOND
  1   1   2  1   
  2   1   3  1   
  3   2   4  2   
  4   2   5  1   
  5   3   6  2   
  6   3   7  1   
  7   4   6  1   
  8   5   8  am  
  9   5  24  1   
 10   7   9  1   
 11   7  25  1   
 12   7  26  1   
 13   8  10  2   
 14   8  11  1   
 15   9  12  1   
 16  11  27  1   
 17  11  28  1   
 18  11  29  1   
 19  12  13  ar  
 20  12  14  ar  
 21  13  15  ar  
 22  13  30  1   
 23  14  16  ar  
 24  14  31  1   
 25  15  17  ar  
 26  15  32  1   
 27  16  17  ar  
 28  16  33  1   
 29  17  18  1   
 30  18  19  1   
 31  18  20  1   
 32  18  34  1   
 33  19  21  1   
 34  19  35  1   
 35  19  36  1   
 36  20  22  1   
 37  20  37  1   
 38  20  38  1   
 39  21  23  1   
 40  21  39  1   
 41  21  40  1   
 42  22  23  1   
 43  22  41  1   
 44  22  42  1   
 45  23  43  1   
 46  23  44  1   
@<TRIPOS>SUBSTRUCTURE
  1 ****   9 GROUP 4 **** **** 0

# MOE 2024.06 (io_trps.svl 2023.06)
