@<TRIPOS>MOLECULE
NONAME
46 47 1 0 0 
SMALL
USER_CHARGES


@<TRIPOS>ATOM
  1 N       -0.0330     0.1670     0.1620 N.4   1 <1>  -0.9590 
  2 C       -1.1660    -0.7720    -0.1430 C.3   1 <1>   0.3430 
  3 C       -0.3280     1.5190    -0.4210 C.3   1 <1>   0.3430 
  4 C        1.2720    -0.4320    -0.3030 C.3   1 <1>   0.3430 
  5 C       -2.4520    -0.2580     0.5070 C.3   1 <1>  -0.1600 
  6 C       -1.5910     2.0940     0.2230 C.3   1 <1>  -0.1600 
  7 C        2.5510     0.3260     0.1760 C.3   1 <1>   0.3430 
  8 C       -2.7940     1.1620     0.0410 C.3   1 <1>  -0.1600 
  9 N        3.8550    -0.3390    -0.2200 N.4   1 <1>  -0.9060 
 10 C        5.0850     0.3290     0.3010 C.3   1 <1>   0.4230 
 11 C        5.3440     1.6510    -0.4310 C.3   1 <1>  -0.1600 
 12 C        6.2750    -0.6170     0.1160 C.3   1 <1>  -0.1600 
 13 C        6.6660     2.2880     0.0170 C.3   1 <1>   0.3430 
 14 C        7.5860     0.0360     0.5680 C.3   1 <1>   0.3430 
 15 N        7.7890     1.3230    -0.1580 N.4   1 <1>  -0.9590 
 16 C        9.0800     1.9560     0.2780 C.3   1 <1>   0.2630 
 17 H       -0.0560     0.2730     1.1890 H     1 <1>   0.4500 
 18 H       -0.9510    -1.7580     0.2390 H     1 <1>   0.0800 
 19 H       -1.3100    -0.8450    -1.2090 H     1 <1>   0.0800 
 20 H       -0.4810     1.4360    -1.4860 H     1 <1>   0.0800 
 21 H        0.4900     2.1980    -0.2450 H     1 <1>   0.0800 
 22 H        1.2670    -0.4690    -1.3810 H     1 <1>   0.0800 
 23 H        1.3250    -1.4450     0.0620 H     1 <1>   0.0800 
 24 H       -2.3510    -0.2800     1.5780 H     1 <1>   0.0800 
 25 H       -3.2630    -0.9180     0.2500 H     1 <1>   0.0800 
 26 H       -1.8150     3.0470    -0.2280 H     1 <1>   0.0800 
 27 H       -1.4180     2.2710     1.2700 H     1 <1>   0.0800 
 28 H        2.5140     0.4020     1.2510 H     1 <1>   0.0800 
 29 H        2.5280     1.3240    -0.2300 H     1 <1>   0.0800 
 30 H       -3.6370     1.5370     0.5990 H     1 <1>   0.0800 
 31 H       -3.0790     1.1400    -0.9990 H     1 <1>   0.0800 
 32 H        3.9350    -0.4120    -1.2460 H     1 <1>   0.4500 
 33 H        3.8660    -1.3110     0.1280 H     1 <1>   0.4500 
 34 H        4.9680     0.5270     1.3570 H     1 <1>   0.0800 
 35 H        4.5580     2.3530    -0.2220 H     1 <1>   0.0800 
 36 H        5.3840     1.4970    -1.4960 H     1 <1>   0.0800 
 37 H        6.3770    -0.9100    -0.9150 H     1 <1>   0.0800 
 38 H        6.1310    -1.5060     0.7050 H     1 <1>   0.0800 
 39 H        6.5980     2.5800     1.0540 H     1 <1>   0.0800 
 40 H        6.8550     3.1790    -0.5650 H     1 <1>   0.0800 
 41 H        8.4110    -0.6320     0.3690 H     1 <1>   0.0800 
 42 H        7.5570     0.2190     1.6310 H     1 <1>   0.0800 
 43 H        7.9000     1.1200    -1.1660 H     1 <1>   0.4500 
 44 H        9.0490     2.2000     1.3280 H     1 <1>   0.0800 
 45 H        9.2630     2.8620    -0.2780 H     1 <1>   0.0800 
 46 H        9.9060     1.2840     0.1080 H     1 <1>   0.0800 
@<TRIPOS>BOND
  1   1   2  1   
  2   1   3  1   
  3   1   4  1   
  4   1  17  1   
  5   2   5  1   
  6   2  18  1   
  7   2  19  1   
  8   3   6  1   
  9   3  20  1   
 10   3  21  1   
 11   4   7  1   
 12   4  22  1   
 13   4  23  1   
 14   5   8  1   
 15   5  24  1   
 16   5  25  1   
 17   6   8  1   
 18   6  26  1   
 19   6  27  1   
 20   7   9  1   
 21   7  28  1   
 22   7  29  1   
 23   8  30  1   
 24   8  31  1   
 25   9  10  1   
 26   9  32  1   
 27   9  33  1   
 28  10  11  1   
 29  10  12  1   
 30  10  34  1   
 31  11  13  1   
 32  11  35  1   
 33  11  36  1   
 34  12  14  1   
 35  12  37  1   
 36  12  38  1   
 37  13  15  1   
 38  13  39  1   
 39  13  40  1   
 40  14  15  1   
 41  14  41  1   
 42  14  42  1   
 43  15  16  1   
 44  15  43  1   
 45  16  44  1   
 46  16  45  1   
 47  16  46  1   
@<TRIPOS>SUBSTRUCTURE
  1 ****   7 GROUP 4 **** **** 0

# MOE 2024.06 (io_trps.svl 2023.06)
