@<TRIPOS>MOLECULE
NONAME
50 50 1 0 0 
SMALL
USER_CHARGES


@<TRIPOS>ATOM
  1 O        0.6760    -5.1470    -0.5760 O.3   1 <1>  -0.3620 
  2 C       -0.6510    -5.2590    -0.3200 C.ar  1 <1>   0.0830 
  3 C        1.3450    -3.9100    -0.4590 C.3   1 <1>   0.1200 
  4 C       -1.4530    -4.2100     0.1160 C.ar  1 <1>  -0.1500 
  5 C       -1.2180    -6.5040    -0.5130 C.ar  1 <1>  -0.1500 
  6 C        2.8180    -4.1230    -0.8300 C.3   1 <1>   0.2000 
  7 C       -2.8070    -4.4000     0.3570 C.ar  1 <1>  -0.1440 
  8 C       -2.5650    -6.6990    -0.2750 C.ar  1 <1>  -0.1500 
  9 O        3.3210    -5.1990    -0.0950 O.3   1 <1>  -0.6800 
 10 C        3.6910    -2.8850    -0.5480 C.3   1 <1>   0.3430 
 11 C       -3.3780    -5.6590     0.1610 C.ar  1 <1>  -0.1440 
 12 C       -3.6210    -3.2030     0.8330 C.3   1 <1>  -0.0970 
 13 N        5.1150    -3.3060    -0.3720 N.4   1 <1>  -0.9060 
 14 C       -4.8670    -5.9470     0.4050 C.3   1 <1>   0.0630 
 15 C        6.0160    -2.4340     0.3740 C.3   1 <1>   0.5030 
 16 C       -5.0500    -6.9950     1.5080 C.3   1 <1>  -0.2400 
 17 C       -5.5590    -6.3920    -0.8880 C.3   1 <1>  -0.2400 
 18 C        6.0960    -1.0730    -0.3150 C.3   1 <1>  -0.2400 
 19 C        7.3820    -3.1110     0.3570 C.3   1 <1>  -0.2400 
 20 C        5.5220    -2.2970     1.8130 C.3   1 <1>  -0.2400 
 21 H        1.2510    -3.5700     0.5580 H     1 <1>   0.0800 
 22 H        0.8780    -3.2080    -1.1280 H     1 <1>   0.0800 
 23 H       -1.0380    -3.2350     0.2750 H     1 <1>   0.1500 
 24 H       -0.6070    -7.3210    -0.8500 H     1 <1>   0.1500 
 25 H        2.8810    -4.3810    -1.8740 H     1 <1>   0.0800 
 26 H       -2.9790    -7.6790    -0.4330 H     1 <1>   0.1500 
 27 H        2.6350    -5.9100    -0.0830 H     1 <1>   0.4000 
 28 H        3.3360    -2.4250     0.3580 H     1 <1>   0.0800 
 29 H        3.5980    -2.1670    -1.3460 H     1 <1>   0.0800 
 30 H       -3.0110    -2.3240     0.9270 H     1 <1>   0.0800 
 31 H       -4.0540    -3.4130     1.7950 H     1 <1>   0.0800 
 32 H       -4.4070    -2.9900     0.1310 H     1 <1>   0.0800 
 33 H        5.5350    -3.5320    -1.2760 H     1 <1>   0.4500 
 34 H        5.0430    -4.2130     0.1220 H     1 <1>   0.4500 
 35 H       -5.3690    -5.0580     0.7350 H     1 <1>   0.0800 
 36 H       -4.6410    -7.9440     1.2120 H     1 <1>   0.0800 
 37 H       -6.0950    -7.1260     1.7280 H     1 <1>   0.0800 
 38 H       -4.5500    -6.6710     2.4030 H     1 <1>   0.0800 
 39 H       -5.1620    -7.3280    -1.2370 H     1 <1>   0.0800 
 40 H       -6.6150    -6.5090    -0.7240 H     1 <1>   0.0800 
 41 H       -5.4110    -5.6510    -1.6530 H     1 <1>   0.0800 
 42 H        6.4090    -1.1760    -1.3390 H     1 <1>   0.0800 
 43 H        6.8200    -0.4560     0.1880 H     1 <1>   0.0800 
 44 H        5.1550    -0.5550    -0.2790 H     1 <1>   0.0800 
 45 H        8.0940    -2.5140     0.8990 H     1 <1>   0.0800 
 46 H        7.7490    -3.2230    -0.6480 H     1 <1>   0.0800 
 47 H        7.3410    -4.0780     0.8280 H     1 <1>   0.0800 
 48 H        6.2410    -1.7440     2.3920 H     1 <1>   0.0800 
 49 H        5.4020    -3.2620     2.2740 H     1 <1>   0.0800 
 50 H        4.5930    -1.7600     1.8660 H     1 <1>   0.0800 
@<TRIPOS>BOND
  1   1   2  1   
  2   1   3  1   
  3   2   4  ar  
  4   2   5  ar  
  5   3   6  1   
  6   3  21  1   
  7   3  22  1   
  8   4   7  ar  
  9   4  23  1   
 10   5   8  ar  
 11   5  24  1   
 12   6   9  1   
 13   6  10  1   
 14   6  25  1   
 15   7  11  ar  
 16   7  12  1   
 17   8  11  ar  
 18   8  26  1   
 19   9  27  1   
 20  10  13  1   
 21  10  28  1   
 22  10  29  1   
 23  11  14  1   
 24  12  30  1   
 25  12  31  1   
 26  12  32  1   
 27  13  15  1   
 28  13  33  1   
 29  13  34  1   
 30  14  16  1   
 31  14  17  1   
 32  14  35  1   
 33  15  18  1   
 34  15  19  1   
 35  15  20  1   
 36  16  36  1   
 37  16  37  1   
 38  16  38  1   
 39  17  39  1   
 40  17  40  1   
 41  17  41  1   
 42  18  42  1   
 43  18  43  1   
 44  18  44  1   
 45  19  45  1   
 46  19  46  1   
 47  19  47  1   
 48  20  48  1   
 49  20  49  1   
 50  20  50  1   
@<TRIPOS>SUBSTRUCTURE
  1 ****   1 GROUP 4 **** **** 0

# MOE 2024.06 (io_trps.svl 2023.06)
