@<TRIPOS>MOLECULE
NONAME
27 27 1 0 0 
SMALL
USER_CHARGES


@<TRIPOS>ATOM
  1 S       -0.0820    -0.1380     1.6730 S.o   1 <1>   0.1120 
  2 O        0.6620     1.1830     1.9940 O.co2 1 <1>  -0.6000 
  3 O       -1.5120     0.0910     1.1540 O.co2 1 <1>  -0.6000 
  4 C        0.7910    -0.8090     0.1950 C.3   1 <1>  -0.0720 
  5 C        2.2970    -1.0360     0.4330 C.3   1 <1>  -0.0190 
  6 C        3.1340     0.1240    -0.1300 C.2   1 <1>   0.5690 
  7 C        2.7130    -2.4130    -0.1260 C.3   1 <1>  -0.2400 
  8 O        4.0430    -0.1090    -0.8940 O.2   1 <1>  -0.5700 
  9 N        2.8040     1.3840     0.2740 N.am  1 <1>  -0.5470 
 10 C        3.3040     2.6600    -0.0130 C.ar  1 <1>   0.1170 
 11 C        2.5980     3.7540     0.4720 C.ar  1 <1>  -0.1500 
 12 C        4.4620     2.8950    -0.7480 C.ar  1 <1>  -0.1500 
 13 C        3.0300     5.0460     0.2320 C.ar  1 <1>  -0.1500 
 14 C        4.8990     4.1850    -0.9920 C.ar  1 <1>  -0.1500 
 15 C        4.1840     5.2640    -0.5010 C.ar  1 <1>  -0.1500 
 16 H        0.6560    -0.1470    -0.6400 H     1 <1>   0.0800 
 17 H        0.3260    -1.7390    -0.0740 H     1 <1>   0.0800 
 18 H        2.4680    -1.0580     1.4940 H     1 <1>   0.0800 
 19 H        2.5600    -2.4440    -1.1900 H     1 <1>   0.0800 
 20 H        2.1370    -3.1940     0.3360 H     1 <1>   0.0800 
 21 H        3.7550    -2.5920     0.0750 H     1 <1>   0.0800 
 22 H        1.9730     1.3930     0.8970 H     1 <1>   0.3700 
 23 H        1.7000     3.5820     1.0430 H     1 <1>   0.1500 
 24 H        5.0280     2.0680    -1.1320 H     1 <1>   0.1500 
 25 H        2.4670     5.8780     0.6180 H     1 <1>   0.1500 
 26 H        5.7960     4.3470    -1.5620 H     1 <1>   0.1500 
 27 H        4.5220     6.2680    -0.6900 H     1 <1>   0.1500 
@<TRIPOS>BOND
  1   1   2  ar  
  2   1   3  ar  
  3   1   4  1   
  4   4   5  1   
  5   4  16  1   
  6   4  17  1   
  7   5   6  1   
  8   5   7  1   
  9   5  18  1   
 10   6   8  2   
 11   6   9  am  
 12   7  19  1   
 13   7  20  1   
 14   7  21  1   
 15   9  10  1   
 16   9  22  1   
 17  10  11  ar  
 18  10  12  ar  
 19  11  13  ar  
 20  11  23  1   
 21  12  14  ar  
 22  12  24  1   
 23  13  15  ar  
 24  13  25  1   
 25  14  15  ar  
 26  14  26  1   
 27  15  27  1   
@<TRIPOS>SUBSTRUCTURE
  1 ****   9 GROUP 4 **** **** 0

# MOE 2024.06 (io_trps.svl 2023.06)
