@<TRIPOS>MOLECULE
NONAME
37 38 1 0 0 
SMALL
USER_CHARGES


@<TRIPOS>ATOM
  1 N       -0.0660     0.2420     0.1350 N.4   1 <1>  -0.9590 
  2 C       -0.3460     1.6740     0.4930 C.3   1 <1>   0.3430 
  3 C       -1.1570    -0.6470     0.6550 C.3   1 <1>   0.3430 
  4 C        1.2990    -0.2620     0.4680 C.3   1 <1>   0.3430 
  5 C       -1.7630     2.1030     0.0360 C.3   1 <1>   0.1100 
  6 C       -2.5430    -0.2020     0.1230 C.3   1 <1>   0.1100 
  7 C        2.4040     0.5030    -0.2780 C.3   1 <1>  -0.0800 
  8 N       -2.4610     1.0260    -0.7020 N.3   1 <1>  -0.8100 
  9 C        3.5100    -0.4820    -0.7100 C.3   1 <1>  -0.0220 
 10 C        3.0150     1.6360     0.5750 C.3   1 <1>  -0.1600 
 11 C       -3.7900     1.4580    -1.1530 C.3   1 <1>   0.0300 
 12 C        4.7220     0.2570    -1.2450 C.2   1 <1>  -0.2880 
 13 C        4.0310     2.4600    -0.2330 C.3   1 <1>  -0.0220 
 14 C        4.9450     1.5580    -1.0430 C.2   1 <1>  -0.2880 
 15 H       -0.2110     0.2220    -0.8880 H     1 <1>   0.4500 
 16 H        0.3720     2.3150     0.0120 H     1 <1>   0.0800 
 17 H       -0.2560     1.8160     1.5570 H     1 <1>   0.0800 
 18 H       -1.1680    -0.6240     1.7320 H     1 <1>   0.0800 
 19 H       -0.9810    -1.6650     0.3500 H     1 <1>   0.0800 
 20 H        1.3560    -1.3000     0.1850 H     1 <1>   0.0800 
 21 H        1.4710    -0.2020     1.5310 H     1 <1>   0.0800 
 22 H       -1.6760     2.9700    -0.5960 H     1 <1>   0.0800 
 23 H       -2.3410     2.3900     0.8990 H     1 <1>   0.0800 
 24 H       -3.2050    -0.0410     0.9580 H     1 <1>   0.0800 
 25 H       -2.9600    -0.9980    -0.4700 H     1 <1>   0.0800 
 26 H        1.9970     0.9280    -1.1800 H     1 <1>   0.0800 
 27 H        3.1300    -1.1320    -1.4800 H     1 <1>   0.0800 
 28 H        3.8250    -1.0910     0.1200 H     1 <1>   0.0800 
 29 H        3.5270     1.2040     1.4180 H     1 <1>   0.0800 
 30 H        2.2640     2.3000     0.9580 H     1 <1>   0.0800 
 31 H       -3.7000     2.3230    -1.7890 H     1 <1>   0.0800 
 32 H       -4.4190     1.7050    -0.3140 H     1 <1>   0.0800 
 33 H       -4.2600     0.6720    -1.7220 H     1 <1>   0.0800 
 34 H        5.3970    -0.3700    -1.8060 H     1 <1>   0.1500 
 35 H        4.6210     3.0570     0.4410 H     1 <1>   0.0800 
 36 H        3.5190     3.1250    -0.9070 H     1 <1>   0.0800 
 37 H        5.8040     2.0730    -1.4440 H     1 <1>   0.1500 
@<TRIPOS>BOND
  1   1   2  1   
  2   1   3  1   
  3   1   4  1   
  4   1  15  1   
  5   2   5  1   
  6   2  16  1   
  7   2  17  1   
  8   3   6  1   
  9   3  18  1   
 10   3  19  1   
 11   4   7  1   
 12   4  20  1   
 13   4  21  1   
 14   5   8  1   
 15   5  22  1   
 16   5  23  1   
 17   6   8  1   
 18   6  24  1   
 19   6  25  1   
 20   7   9  1   
 21   7  10  1   
 22   7  26  1   
 23   8  11  1   
 24   9  12  1   
 25   9  27  1   
 26   9  28  1   
 27  10  13  1   
 28  10  29  1   
 29  10  30  1   
 30  11  31  1   
 31  11  32  1   
 32  11  33  1   
 33  12  14  2   
 34  12  34  1   
 35  13  14  1   
 36  13  35  1   
 37  13  36  1   
 38  14  37  1   
@<TRIPOS>SUBSTRUCTURE
  1 ****   1 GROUP 4 **** **** 0

# MOE 2024.06 (io_trps.svl 2023.06)
