@<TRIPOS>MOLECULE
NONAME
51 53 1 0 0 
SMALL
USER_CHARGES


@<TRIPOS>ATOM
  1 S       -0.3400     0.5820    -1.2270 S.o2  1 <1>   1.4470 
  2 O        0.6330    -0.3890    -1.6800 O.2   1 <1>  -0.6500 
  3 O       -0.7280     1.6470    -2.1280 O.2   1 <1>  -0.6500 
  4 N        0.3030     1.3430     0.1460 N.am  1 <1>  -0.8490 
  5 C       -1.8210    -0.2750    -0.5920 C.ar  1 <1>  -0.0090 
  6 C        1.6780     1.7920    -0.0910 C.3   1 <1>   0.1960 
  7 C       -0.5380     2.4540     0.6040 C.3   1 <1>   0.1960 
  8 C       -1.7670    -1.3020     0.3550 C.ar  1 <1>  -0.1440 
  9 C       -3.0750     0.1100    -1.0540 C.ar  1 <1>  -0.1500 
 10 C        2.2920     2.3300     1.2060 C.3   1 <1>  -0.1600 
 11 C       -0.0110     3.0020     1.9340 C.3   1 <1>  -0.1600 
 12 C       -2.9350    -1.9020     0.7980 C.ar  1 <1>  -0.1500 
 13 C       -0.4430    -1.8010     0.9250 C.3   1 <1>  -0.0970 
 14 C       -4.2650    -0.4670    -0.6150 C.ar  1 <1>   0.0860 
 15 C        1.4470     3.4590     1.8050 C.3   1 <1>  -0.1600 
 16 C       -4.1630    -1.4940     0.3200 C.ar  1 <1>  -0.1500 
 17 C       -5.5460    -0.0070    -1.1180 C.2   1 <1>   0.5440 
 18 O       -5.6470     0.3630    -2.2700 O.2   1 <1>  -0.5700 
 19 N       -6.6360     0.0140    -0.2780 N.am  1 <1>  -0.5470 
 20 C       -7.9620     0.4250    -0.4870 C.ar  1 <1>   0.1170 
 21 C       -8.3250     1.3770    -1.4340 C.ar  1 <1>  -0.1500 
 22 C       -8.9600    -0.1270     0.3070 C.ar  1 <1>  -0.1500 
 23 C       -9.6440     1.7680    -1.5910 C.ar  1 <1>   0.0820 
 24 C      -10.2820     0.2540     0.1600 C.ar  1 <1>  -0.1500 
 25 O       -9.8980     2.7050    -2.5400 O.3   1 <1>  -0.3620 
 26 C      -10.6290     1.2010    -0.7870 C.ar  1 <1>  -0.1500 
 27 C      -11.2130     3.1320    -2.8180 C.3   1 <1>   0.0400 
 28 H        1.6870     2.5550    -0.8530 H     1 <1>   0.0800 
 29 H        2.2780     0.9660    -0.4370 H     1 <1>   0.0800 
 30 H       -1.5500     2.1130     0.7450 H     1 <1>   0.0800 
 31 H       -0.5480     3.2390    -0.1360 H     1 <1>   0.0800 
 32 H       -3.1420     0.8940    -1.7910 H     1 <1>   0.1500 
 33 H        3.2860     2.6880     1.0070 H     1 <1>   0.0800 
 34 H        2.3700     1.5200     1.9110 H     1 <1>   0.0800 
 35 H       -0.0870     2.2310     2.6810 H     1 <1>   0.0800 
 36 H       -0.6230     3.8290     2.2480 H     1 <1>   0.0800 
 37 H       -2.8920    -2.7000     1.5210 H     1 <1>   0.1500 
 38 H        0.0820    -1.0030     1.4180 H     1 <1>   0.0800 
 39 H        0.1780    -2.1940     0.1390 H     1 <1>   0.0800 
 40 H       -0.5990    -2.5860     1.6430 H     1 <1>   0.0800 
 41 H        1.4960     4.3220     1.1620 H     1 <1>   0.0800 
 42 H        1.8330     3.7380     2.7710 H     1 <1>   0.0800 
 43 H       -5.0500    -1.9920     0.6710 H     1 <1>   0.1500 
 44 H       -6.4500    -0.3280     0.6610 H     1 <1>   0.3700 
 45 H       -7.5810     1.8300    -2.0610 H     1 <1>   0.1500 
 46 H       -8.7070    -0.8660     1.0460 H     1 <1>   0.1500 
 47 H      -11.0420    -0.1860     0.7820 H     1 <1>   0.1500 
 48 H      -11.6600     1.4820    -0.8830 H     1 <1>   0.1500 
 49 H      -11.1670     3.8540    -3.6140 H     1 <1>   0.0800 
 50 H      -11.6260     3.5870    -1.9350 H     1 <1>   0.0800 
 51 H      -11.7970     2.2840    -3.1260 H     1 <1>   0.0800 
@<TRIPOS>BOND
  1   1   2  2   
  2   1   3  2   
  3   1   4  am  
  4   1   5  1   
  5   4   6  1   
  6   4   7  1   
  7   5   8  ar  
  8   5   9  ar  
  9   6  10  1   
 10   6  28  1   
 11   6  29  1   
 12   7  11  1   
 13   7  30  1   
 14   7  31  1   
 15   8  12  ar  
 16   8  13  1   
 17   9  14  ar  
 18   9  32  1   
 19  10  15  1   
 20  10  33  1   
 21  10  34  1   
 22  11  15  1   
 23  11  35  1   
 24  11  36  1   
 25  12  16  ar  
 26  12  37  1   
 27  13  38  1   
 28  13  39  1   
 29  13  40  1   
 30  14  16  ar  
 31  14  17  1   
 32  15  41  1   
 33  15  42  1   
 34  16  43  1   
 35  17  18  2   
 36  17  19  am  
 37  19  20  1   
 38  19  44  1   
 39  20  21  ar  
 40  20  22  ar  
 41  21  23  ar  
 42  21  45  1   
 43  22  24  ar  
 44  22  46  1   
 45  23  25  1   
 46  23  26  ar  
 47  24  26  ar  
 48  24  47  1   
 49  25  27  1   
 50  26  48  1   
 51  27  49  1   
 52  27  50  1   
 53  27  51  1   
@<TRIPOS>SUBSTRUCTURE
  1 ****  14 GROUP 4 **** **** 0

# MOE 2024.06 (io_trps.svl 2023.06)
