@<TRIPOS>MOLECULE
NONAME
51 52 1 0 0 
SMALL
USER_CHARGES


@<TRIPOS>ATOM
  1 F       -1.2750    -0.4420     2.5570 F     1 <1>  -0.1900 
  2 C       -2.2370    -1.0200     1.8900 C.ar  1 <1>   0.1900 
  3 C       -2.2380    -0.9370     0.5120 C.ar  1 <1>  -0.1500 
  4 C       -3.2190    -1.6950     2.5880 C.ar  1 <1>  -0.1500 
  5 C       -3.2620    -1.5500    -0.1900 C.ar  1 <1>  -0.1500 
  6 C       -4.2390    -2.3050     1.8770 C.ar  1 <1>  -0.1500 
  7 C       -4.2670    -2.2310     0.4880 C.ar  1 <1>  -0.1430 
  8 C       -5.3980    -2.8960    -0.2830 C.3   1 <1>  -0.0160 
  9 C       -6.7310    -2.1240    -0.1360 C.3   1 <1>   0.4230 
 10 N       -7.8670    -2.7580    -0.8920 N.4   1 <1>  -0.9590 
 11 C       -6.5760    -0.6850    -0.6490 C.3   1 <1>  -0.2400 
 12 C       -9.1850    -2.2120    -0.4190 C.3   1 <1>   0.3430 
 13 C       -7.8940    -4.2600    -0.8220 C.3   1 <1>   0.2630 
 14 C      -10.3090    -2.4390    -1.4320 C.3   1 <1>  -0.0170 
 15 C      -11.5800    -1.8400    -0.8670 C.ar  1 <1>  -0.1430 
 16 C      -12.2770    -2.5130     0.1220 C.ar  1 <1>  -0.1500 
 17 C      -12.0540    -0.6170    -1.3110 C.ar  1 <1>  -0.1500 
 18 C      -13.4270    -1.9860     0.6840 C.ar  1 <1>   0.0830 
 19 C      -13.2010    -0.0720    -0.7610 C.ar  1 <1>  -0.1500 
 20 O      -13.9880    -2.7760     1.6450 O.3   1 <1>  -0.3630 
 21 C      -13.9000    -0.7360     0.2460 C.ar  1 <1>   0.0830 
 22 C      -15.3530    -2.6910     1.9860 C.3   1 <1>   0.0400 
 23 O      -15.0120    -0.1850     0.8150 O.3   1 <1>  -0.3630 
 24 C      -15.4810     1.1000     0.4690 C.3   1 <1>   0.0400 
 25 H       -1.4520    -0.4050     0.0060 H     1 <1>   0.1500 
 26 H       -3.1780    -1.7400     3.6620 H     1 <1>   0.1500 
 27 H       -3.2630    -1.4890    -1.2650 H     1 <1>   0.1500 
 28 H       -5.0010    -2.8370     2.4190 H     1 <1>   0.1500 
 29 H       -5.4940    -3.8900     0.1120 H     1 <1>   0.0800 
 30 H       -5.1300    -2.9680    -1.3220 H     1 <1>   0.0800 
 31 H       -6.9780    -2.0930     0.9130 H     1 <1>   0.0800 
 32 H       -7.7470    -2.4800    -1.8750 H     1 <1>   0.4500 
 33 H       -6.2860    -0.6750    -1.6850 H     1 <1>   0.0800 
 34 H       -5.8090    -0.1770    -0.0900 H     1 <1>   0.0800 
 35 H       -7.4710    -0.1070    -0.5240 H     1 <1>   0.0800 
 36 H       -9.1110    -1.1520    -0.2470 H     1 <1>   0.0800 
 37 H       -9.4550    -2.6700     0.5200 H     1 <1>   0.0800 
 38 H       -7.9780    -4.5860     0.2020 H     1 <1>   0.0800 
 39 H       -6.9940    -4.6760    -1.2450 H     1 <1>   0.0800 
 40 H       -8.7320    -4.6510    -1.3760 H     1 <1>   0.0800 
 41 H      -10.4720    -3.4870    -1.6060 H     1 <1>   0.0800 
 42 H      -10.0690    -1.9650    -2.3670 H     1 <1>   0.0800 
 43 H      -11.9430    -3.4710     0.4790 H     1 <1>   0.1500 
 44 H      -11.5400    -0.0750    -2.0860 H     1 <1>   0.1500 
 45 H      -13.5310     0.8770    -1.1350 H     1 <1>   0.1500 
 46 H      -15.6150    -3.5730     2.5410 H     1 <1>   0.0800 
 47 H      -15.9380    -2.6350     1.0840 H     1 <1>   0.0800 
 48 H      -15.5060    -1.8200     2.5960 H     1 <1>   0.0800 
 49 H      -16.3440     1.3140     1.0740 H     1 <1>   0.0800 
 50 H      -15.7560     1.1040    -0.5710 H     1 <1>   0.0800 
 51 H      -14.7080     1.8200     0.6700 H     1 <1>   0.0800 
@<TRIPOS>BOND
  1   1   2  1   
  2   2   3  ar  
  3   2   4  ar  
  4   3   5  ar  
  5   3  25  1   
  6   4   6  ar  
  7   4  26  1   
  8   5   7  ar  
  9   5  27  1   
 10   6   7  ar  
 11   6  28  1   
 12   7   8  1   
 13   8   9  1   
 14   8  29  1   
 15   8  30  1   
 16   9  10  1   
 17   9  11  1   
 18   9  31  1   
 19  10  12  1   
 20  10  13  1   
 21  10  32  1   
 22  11  33  1   
 23  11  34  1   
 24  11  35  1   
 25  12  14  1   
 26  12  36  1   
 27  12  37  1   
 28  13  38  1   
 29  13  39  1   
 30  13  40  1   
 31  14  15  1   
 32  14  41  1   
 33  14  42  1   
 34  15  16  ar  
 35  15  17  ar  
 36  16  18  ar  
 37  16  43  1   
 38  17  19  ar  
 39  17  44  1   
 40  18  20  1   
 41  18  21  ar  
 42  19  21  ar  
 43  19  45  1   
 44  20  22  1   
 45  21  23  1   
 46  22  46  1   
 47  22  47  1   
 48  22  48  1   
 49  23  24  1   
 50  24  49  1   
 51  24  50  1   
 52  24  51  1   
@<TRIPOS>SUBSTRUCTURE
  1 ****  12 GROUP 4 **** **** 0

# MOE 2024.06 (io_trps.svl 2023.06)
