@<TRIPOS>MOLECULE
NONAME
35 35 1 0 0 
SMALL
USER_CHARGES


@<TRIPOS>ATOM
  1 O        1.2570     3.6430     1.9670 O.2   1 <1>  -0.5700 
  2 C        0.4570     3.0450     1.2870 C.2   1 <1>   0.5690 
  3 N        0.8250     2.0240     0.4690 N.am  1 <1>  -0.7300 
  4 C       -1.0080     3.4590     1.3580 C.3   1 <1>   0.1810 
  5 C        2.1820     1.5050     0.2860 C.3   1 <1>   0.2200 
  6 O       -1.8210     2.6580     0.5090 O.3   1 <1>  -0.3630 
  7 C        2.5630     1.6750    -1.1800 C.3   1 <1>  -0.2400 
  8 C        2.1900     0.0370     0.6970 C.3   1 <1>  -0.2400 
  9 C       -3.1580     2.8690     0.4180 C.ar  1 <1>   0.0820 
 10 C       -3.8620     2.0460    -0.4450 C.ar  1 <1>  -0.1500 
 11 C       -3.8390     3.8510     1.1310 C.ar  1 <1>  -0.1500 
 12 C       -5.2290     2.1950    -0.5990 C.ar  1 <1>  -0.1500 
 13 C       -5.2070     3.9970     0.9750 C.ar  1 <1>  -0.1500 
 14 C       -5.9100     3.1710     0.1110 C.ar  1 <1>  -0.1440 
 15 C       -7.4110     3.3360    -0.0590 C.3   1 <1>  -0.0170 
 16 C       -7.7170     4.3290    -1.1830 C.3   1 <1>  -0.2400 
 17 H        0.0900     1.5660    -0.0750 H     1 <1>   0.3700 
 18 H       -1.0980     4.4830     1.0480 H     1 <1>   0.0800 
 19 H       -1.3570     3.3460     2.3680 H     1 <1>   0.0800 
 20 H        2.8710     2.0590     0.9060 H     1 <1>   0.0800 
 21 H        1.8880     1.1310    -1.8160 H     1 <1>   0.0800 
 22 H        3.5600     1.3070    -1.3420 H     1 <1>   0.0800 
 23 H        2.5410     2.7170    -1.4440 H     1 <1>   0.0800 
 24 H        1.5090    -0.5340     0.0920 H     1 <1>   0.0800 
 25 H        1.9110    -0.0530     1.7320 H     1 <1>   0.0800 
 26 H        3.1780    -0.3690     0.5790 H     1 <1>   0.0800 
 27 H       -3.3360     1.2880    -0.9960 H     1 <1>   0.1500 
 28 H       -3.3310     4.5100     1.8090 H     1 <1>   0.1500 
 29 H       -5.7600     1.5480    -1.2750 H     1 <1>   0.1500 
 30 H       -5.7260     4.7600     1.5280 H     1 <1>   0.1500 
 31 H       -7.8450     3.6880     0.8610 H     1 <1>   0.0800 
 32 H       -7.8580     2.3840    -0.2870 H     1 <1>   0.0800 
 33 H       -7.2890     5.2890    -0.9560 H     1 <1>   0.0800 
 34 H       -8.7800     4.4410    -1.2990 H     1 <1>   0.0800 
 35 H       -7.3020     3.9770    -2.1110 H     1 <1>   0.0800 
@<TRIPOS>BOND
  1   1   2  2   
  2   2   3  am  
  3   2   4  1   
  4   3   5  1   
  5   3  17  1   
  6   4   6  1   
  7   4  18  1   
  8   4  19  1   
  9   5   7  1   
 10   5   8  1   
 11   5  20  1   
 12   6   9  1   
 13   7  21  1   
 14   7  22  1   
 15   7  23  1   
 16   8  24  1   
 17   8  25  1   
 18   8  26  1   
 19   9  10  ar  
 20   9  11  ar  
 21  10  12  ar  
 22  10  27  1   
 23  11  13  ar  
 24  11  28  1   
 25  12  14  ar  
 26  12  29  1   
 27  13  14  ar  
 28  13  30  1   
 29  14  15  1   
 30  15  16  1   
 31  15  31  1   
 32  15  32  1   
 33  16  33  1   
 34  16  34  1   
 35  16  35  1   
@<TRIPOS>SUBSTRUCTURE
  1 ****   6 GROUP 4 **** **** 0

# MOE 2024.06 (io_trps.svl 2023.06)
