@<TRIPOS>MOLECULE
NONAME
38 39 1 0 0 
SMALL
USER_CHARGES


@<TRIPOS>ATOM
  1 S       -0.2570     1.1850    -0.5610 S.o2  1 <1>   1.4970 
  2 O        0.5460     0.0750    -1.0360 O.2   1 <1>  -0.6500 
  3 O       -0.4200     2.3450    -1.4140 O.2   1 <1>  -0.6500 
  4 N        0.4080     1.7040     0.8800 N.2   1 <1>  -0.6380 
  5 C       -1.8910     0.5750    -0.0520 C.ar  1 <1>  -0.0090 
  6 C        1.5760     2.2040     0.7890 C.2   1 <1>   0.4860 
  7 C       -2.0920    -0.7600     0.2790 C.ar  1 <1>  -0.1500 
  8 C       -2.9800     1.4340     0.0440 C.ar  1 <1>  -0.1500 
  9 N        2.2430     2.6480     1.8860 N.pl3 1 <1>  -0.4710 
 10 C        2.4950     2.4100    -0.2770 C.2   1 <1>  -0.1360 
 11 C       -3.3330    -1.2230     0.6830 C.ar  1 <1>  -0.1500 
 12 C       -4.2230     0.9780     0.4470 C.ar  1 <1>  -0.1500 
 13 O        3.5160     3.0560     1.5550 O.3   1 <1>  -0.0560 
 14 C        3.6290     2.9080     0.2460 C.2   1 <1>  -0.0620 
 15 C       -4.4070    -0.3550     0.7700 C.ar  1 <1>  -0.1430 
 16 C        4.9330     3.3030    -0.4140 C.3   1 <1>  -0.1020 
 17 C       -5.7720    -0.8600     1.2110 C.3   1 <1>  -0.0170 
 18 C       -6.5920    -1.3220     0.0010 C.3   1 <1>  -0.1600 
 19 C       -7.9760    -1.8360     0.4200 C.3   1 <1>  -0.1600 
 20 C       -8.7830    -2.2940    -0.7970 C.3   1 <1>  -0.2400 
 21 H       -1.2670    -1.4500     0.2180 H     1 <1>   0.1500 
 22 H       -2.8540     2.4750    -0.2030 H     1 <1>   0.1500 
 23 H        2.0790     2.2740     2.8210 H     1 <1>   0.4000 
 24 H        2.2880     2.1900    -1.3070 H     1 <1>   0.1500 
 25 H       -3.4580    -2.2640     0.9280 H     1 <1>   0.1500 
 26 H       -5.0480     1.6670     0.5070 H     1 <1>   0.1500 
 27 H        5.1300     4.3460    -0.2380 H     1 <1>   0.0800 
 28 H        4.8810     3.1330    -1.4740 H     1 <1>   0.0800 
 29 H        5.7410     2.7220    -0.0070 H     1 <1>   0.0800 
 30 H       -6.2970    -0.0750     1.7280 H     1 <1>   0.0800 
 31 H       -5.6480    -1.6780     1.9000 H     1 <1>   0.0800 
 32 H       -6.0570    -2.1030    -0.5100 H     1 <1>   0.0800 
 33 H       -6.7060    -0.4980    -0.6820 H     1 <1>   0.0800 
 34 H       -8.5160    -1.0550     0.9290 H     1 <1>   0.0800 
 35 H       -7.8650    -2.6640     1.1010 H     1 <1>   0.0800 
 36 H       -8.9260    -1.4770    -1.4830 H     1 <1>   0.0800 
 37 H       -9.7490    -2.6510    -0.4850 H     1 <1>   0.0800 
 38 H       -8.2740    -3.0910    -1.3100 H     1 <1>   0.0800 
@<TRIPOS>BOND
  1   1   2  2   
  2   1   3  2   
  3   1   4  1   
  4   1   5  1   
  5   4   6  2   
  6   5   7  ar  
  7   5   8  ar  
  8   6   9  1   
  9   6  10  1   
 10   7  11  ar  
 11   7  21  1   
 12   8  12  ar  
 13   8  22  1   
 14   9  13  1   
 15   9  23  1   
 16  10  14  2   
 17  10  24  1   
 18  11  15  ar  
 19  11  25  1   
 20  12  15  ar  
 21  12  26  1   
 22  13  14  1   
 23  14  16  1   
 24  15  17  1   
 25  16  27  1   
 26  16  28  1   
 27  16  29  1   
 28  17  18  1   
 29  17  30  1   
 30  17  31  1   
 31  18  19  1   
 32  18  32  1   
 33  18  33  1   
 34  19  20  1   
 35  19  34  1   
 36  19  35  1   
 37  20  36  1   
 38  20  37  1   
 39  20  38  1   
@<TRIPOS>SUBSTRUCTURE
  1 ****   5 GROUP 4 **** **** 0

# MOE 2024.06 (io_trps.svl 2023.06)
