@<TRIPOS>MOLECULE
NONAME
32 33 1 0 0 
SMALL
USER_CHARGES


@<TRIPOS>ATOM
  1 CL       0.5390    -0.0160    -0.7710 Cl    1 <1>  -0.1770 
  2 C        0.2250     1.6900    -0.5760 C.ar  1 <1>   0.1770 
  3 C       -1.0510     2.1740    -0.7910 C.ar  1 <1>  -0.1500 
  4 C        1.2590     2.5310    -0.2100 C.ar  1 <1>  -0.1500 
  5 C       -1.3080     3.5280    -0.6380 C.ar  1 <1>  -0.1440 
  6 C        1.0080     3.8830    -0.0560 C.ar  1 <1>  -0.1500 
  7 C       -0.2750     4.3880    -0.2690 C.ar  1 <1>   0.0830 
  8 C       -2.7210     4.0430    -0.8780 C.3   1 <1>   0.2140 
  9 O       -0.5750     5.7060    -0.1310 O.3   1 <1>  -0.3630 
 10 S       -3.7730     3.5270     0.5500 S.3   1 <1>  -0.2860 
 11 C        0.3680     6.6420     0.3370 C.3   1 <1>   0.1200 
 12 C       -5.4050     4.0690     0.0480 C.2   1 <1>   0.2430 
 13 C       -0.3230     7.9990     0.4260 C.3   1 <1>  -0.2400 
 14 N       -5.6840     4.6240    -1.0770 N.2   1 <1>  -0.3380 
 15 N       -6.4580     3.9210     0.8370 N.pl3 1 <1>   0.0330 
 16 N       -7.0020     4.8630    -1.0430 N.2   1 <1>  -0.3380 
 17 C       -7.4410     4.4410     0.0970 C.2   1 <1>   0.0060 
 18 C       -8.8840     4.5190     0.5490 C.3   1 <1>  -0.0600 
 19 H       -1.8330     1.4910    -1.0710 H     1 <1>   0.1500 
 20 H        2.2420     2.1270    -0.0490 H     1 <1>   0.1500 
 21 H        1.8220     4.5230     0.2280 H     1 <1>   0.1500 
 22 H       -3.1510     3.6090    -1.7630 H     1 <1>   0.0800 
 23 H       -2.7760     5.1150    -0.9420 H     1 <1>   0.0800 
 24 H        1.1880     6.6780    -0.3600 H     1 <1>   0.0800 
 25 H        0.7110     6.3250     1.3070 H     1 <1>   0.0800 
 26 H       -0.6780     8.2970    -0.5450 H     1 <1>   0.0800 
 27 H        0.3700     8.7390     0.7810 H     1 <1>   0.0800 
 28 H       -1.1520     7.9460     1.1100 H     1 <1>   0.0800 
 29 H       -6.4780     3.5100     1.7710 H     1 <1>   0.2700 
 30 H       -9.2670     3.5340     0.7410 H     1 <1>   0.0800 
 31 H       -9.4810     4.9770    -0.2200 H     1 <1>   0.0800 
 32 H       -8.9610     5.1130     1.4420 H     1 <1>   0.0800 
@<TRIPOS>BOND
  1   1   2  1   
  2   2   3  ar  
  3   2   4  ar  
  4   3   5  ar  
  5   3  19  1   
  6   4   6  ar  
  7   4  20  1   
  8   5   7  ar  
  9   5   8  1   
 10   6   7  ar  
 11   6  21  1   
 12   7   9  1   
 13   8  10  1   
 14   8  22  1   
 15   8  23  1   
 16   9  11  1   
 17  10  12  1   
 18  11  13  1   
 19  11  24  1   
 20  11  25  1   
 21  12  14  2   
 22  12  15  1   
 23  13  26  1   
 24  13  27  1   
 25  13  28  1   
 26  14  16  1   
 27  15  17  1   
 28  15  29  1   
 29  16  17  2   
 30  17  18  1   
 31  18  30  1   
 32  18  31  1   
 33  18  32  1   
@<TRIPOS>SUBSTRUCTURE
  1 ****   8 GROUP 4 **** **** 0

# MOE 2024.06 (io_trps.svl 2023.06)
