@<TRIPOS>MOLECULE
NONAME
38 39 1 0 0 
SMALL
USER_CHARGES


@<TRIPOS>ATOM
  1 O       -0.6510     0.2770    -0.9650 O.co2 1 <1>  -0.9000 
  2 C       -1.0460     1.3850    -0.5560 C.2   1 <1>   1.0320 
  3 O       -0.2100     2.2780    -0.3570 O.co2 1 <1>  -0.9000 
  4 C       -2.4680     1.5660    -0.3390 C.2   1 <1>  -0.3840 
  5 N       -3.2270     0.4650    -0.6320 N.pl3 1 <1>   0.0330 
  6 C       -3.3320     2.5500     0.0890 C.2   1 <1>  -0.1810 
  7 C       -4.5490     0.7240    -0.4060 C.ar  1 <1>  -0.1520 
  8 C       -4.6460     2.0300     0.0480 C.ar  1 <1>   0.0000 
  9 C       -3.1320     3.9880     0.5590 C.3   1 <1>   0.0210 
 10 C       -5.6820    -0.0780    -0.5610 C.ar  1 <1>  -0.1500 
 11 C       -5.9100     2.5510     0.3550 C.ar  1 <1>  -0.1500 
 12 C       -1.6900     4.4810     0.6190 C.3   1 <1>   0.1400 
 13 C       -6.9170     0.4450    -0.2550 C.ar  1 <1>  -0.1500 
 14 C       -7.0340     1.7720     0.2070 C.ar  1 <1>   0.0830 
 15 N       -1.6540     5.8910     1.0960 N.am  1 <1>  -0.7300 
 16 O       -8.2280     2.3480     0.5250 O.3   1 <1>  -0.3630 
 17 C       -0.9670     6.9270     0.5690 C.2   1 <1>   0.5690 
 18 C       -9.4370     1.6430     0.3760 C.3   1 <1>   0.1200 
 19 O       -1.0420     8.0190     1.0710 O.2   1 <1>  -0.5700 
 20 C       -0.0980     6.7360    -0.6500 C.3   1 <1>  -0.1790 
 21 C      -10.5770     2.5670     0.7950 C.3   1 <1>  -0.2400 
 22 H       -2.7860    -0.4000    -0.9730 H     1 <1>   0.2700 
 23 H       -3.5600     4.0740     1.5410 H     1 <1>   0.0800 
 24 H       -3.6790     4.6310    -0.1070 H     1 <1>   0.0800 
 25 H       -5.5710    -1.0870    -0.9150 H     1 <1>   0.1500 
 26 H       -5.9950     3.5600     0.7060 H     1 <1>   0.1500 
 27 H       -1.2590     4.4100    -0.3630 H     1 <1>   0.0800 
 28 H       -1.1210     3.8610     1.2910 H     1 <1>   0.0800 
 29 H       -7.7840    -0.1740    -0.3750 H     1 <1>   0.1500 
 30 H       -2.1600     6.0860     1.9590 H     1 <1>   0.3700 
 31 H       -9.4040     0.7710     1.0070 H     1 <1>   0.0800 
 32 H       -9.5410     1.3560    -0.6560 H     1 <1>   0.0800 
 33 H       -0.7100     6.4850    -1.4940 H     1 <1>   0.0800 
 34 H        0.6070     5.9450    -0.4730 H     1 <1>   0.0800 
 35 H        0.4390     7.6420    -0.8610 H     1 <1>   0.0800 
 36 H      -10.4550     2.8600     1.8220 H     1 <1>   0.0800 
 37 H      -11.5170     2.0560     0.6920 H     1 <1>   0.0800 
 38 H      -10.5900     3.4420     0.1700 H     1 <1>   0.0800 
@<TRIPOS>BOND
  1   1   2  ar  
  2   2   3  ar  
  3   2   4  1   
  4   4   5  1   
  5   4   6  2   
  6   5   7  1   
  7   5  22  1   
  8   6   8  1   
  9   6   9  1   
 10   7   8  ar  
 11   7  10  ar  
 12   8  11  ar  
 13   9  12  1   
 14   9  23  1   
 15   9  24  1   
 16  10  13  ar  
 17  10  25  1   
 18  11  14  ar  
 19  11  26  1   
 20  12  15  1   
 21  12  27  1   
 22  12  28  1   
 23  13  14  ar  
 24  13  29  1   
 25  14  16  1   
 26  15  17  am  
 27  15  30  1   
 28  16  18  1   
 29  17  19  2   
 30  17  20  1   
 31  18  21  1   
 32  18  31  1   
 33  18  32  1   
 34  20  33  1   
 35  20  34  1   
 36  20  35  1   
 37  21  36  1   
 38  21  37  1   
 39  21  38  1   
@<TRIPOS>SUBSTRUCTURE
  1 ****   6 GROUP 4 **** **** 0

# MOE 2024.06 (io_trps.svl 2023.06)
