@<TRIPOS>MOLECULE
NONAME
46 48 1 0 0 
SMALL
USER_CHARGES


@<TRIPOS>ATOM
  1 S        0.0940     0.1170     0.6750 S.o2  1 <1>   1.4470 
  2 O       -0.2020     0.1650     2.0920 O.2   1 <1>  -0.6500 
  3 O       -0.1090    -1.1200    -0.0490 O.2   1 <1>  -0.6500 
  4 N       -0.8730     1.2960    -0.0650 N.am  1 <1>  -0.8490 
  5 C        1.7780     0.7120     0.3590 C.ar  1 <1>  -0.0090 
  6 C       -0.8350     2.5710     0.6600 C.3   1 <1>   0.1960 
  7 C       -2.2510     0.8260    -0.2270 C.3   1 <1>   0.1960 
  8 C        2.2260     0.9250    -0.9390 C.ar  1 <1>  -0.1500 
  9 C        2.6620     0.9800     1.3970 C.ar  1 <1>  -0.1500 
 10 C       -1.5950     3.6470    -0.1200 C.3   1 <1>  -0.1600 
 11 C       -3.0710     1.8430    -1.0290 C.3   1 <1>  -0.1600 
 12 C        3.5040     1.3900    -1.1930 C.ar  1 <1>  -0.1500 
 13 C        3.9410     1.4460     1.1490 C.ar  1 <1>  -0.1500 
 14 C       -3.0490     3.2280    -0.3690 C.3   1 <1>  -0.0800 
 15 C        4.3820     1.6620    -0.1520 C.ar  1 <1>   0.1170 
 16 C       -3.7750     4.2600    -1.2380 C.3   1 <1>  -0.2400 
 17 N        5.6720     2.1200    -0.4500 N.am  1 <1>  -0.5470 
 18 C        6.5370     2.8970     0.2870 C.2   1 <1>   0.5440 
 19 O        6.1550     3.4320     1.3070 O.2   1 <1>  -0.5700 
 20 C        7.8940     3.1030    -0.1790 C.ar  1 <1>   0.0860 
 21 C        8.5990     4.2640     0.1050 C.ar  1 <1>  -0.1500 
 22 C        8.5950     2.1690    -0.9340 C.ar  1 <1>  -0.1500 
 23 C        9.8860     4.4380    -0.3630 C.ar  1 <1>   0.1600 
 24 C        9.8840     2.4370    -1.3550 C.ar  1 <1>   0.1600 
 25 N       10.5430     3.5520    -1.0930 N.ar  1 <1>  -0.6200 
 26 H        0.1860     2.8900     0.7870 H     1 <1>   0.0800 
 27 H       -1.2740     2.4520     1.6390 H     1 <1>   0.0800 
 28 H       -2.7000     0.6670     0.7400 H     1 <1>   0.0800 
 29 H       -2.2570    -0.1120    -0.7580 H     1 <1>   0.0800 
 30 H        1.5560     0.7230    -1.7590 H     1 <1>   0.1500 
 31 H        2.3470     0.8230     2.4160 H     1 <1>   0.1500 
 32 H       -1.0910     3.8140    -1.0560 H     1 <1>   0.0800 
 33 H       -1.5720     4.5680     0.4360 H     1 <1>   0.0800 
 34 H       -4.0840     1.4940    -1.1090 H     1 <1>   0.0800 
 35 H       -2.6630     1.9020    -2.0230 H     1 <1>   0.0800 
 36 H        3.8150     1.5460    -2.2100 H     1 <1>   0.1500 
 37 H        4.6000     1.6400     1.9760 H     1 <1>   0.1500 
 38 H       -3.5560     3.1630     0.5810 H     1 <1>   0.0800 
 39 H       -3.2960     4.3530    -2.1980 H     1 <1>   0.0800 
 40 H       -3.7700     5.2230    -0.7580 H     1 <1>   0.0800 
 41 H       -4.7980     3.9650    -1.3930 H     1 <1>   0.0800 
 42 H        5.9840     1.9220    -1.3980 H     1 <1>   0.3700 
 43 H        8.1350     5.0340     0.6970 H     1 <1>   0.1500 
 44 H        8.1480     1.2260    -1.1870 H     1 <1>   0.1500 
 45 H       10.4050     5.3520    -0.1270 H     1 <1>   0.1500 
 46 H       10.4040     1.6960    -1.9390 H     1 <1>   0.1500 
@<TRIPOS>BOND
  1   1   2  2   
  2   1   3  2   
  3   1   4  am  
  4   1   5  1   
  5   4   6  1   
  6   4   7  1   
  7   5   8  ar  
  8   5   9  ar  
  9   6  10  1   
 10   6  26  1   
 11   6  27  1   
 12   7  11  1   
 13   7  28  1   
 14   7  29  1   
 15   8  12  ar  
 16   8  30  1   
 17   9  13  ar  
 18   9  31  1   
 19  10  14  1   
 20  10  32  1   
 21  10  33  1   
 22  11  14  1   
 23  11  34  1   
 24  11  35  1   
 25  12  15  ar  
 26  12  36  1   
 27  13  15  ar  
 28  13  37  1   
 29  14  16  1   
 30  14  38  1   
 31  15  17  1   
 32  16  39  1   
 33  16  40  1   
 34  16  41  1   
 35  17  18  am  
 36  17  42  1   
 37  18  19  2   
 38  18  20  1   
 39  20  21  ar  
 40  20  22  ar  
 41  21  23  ar  
 42  21  43  1   
 43  22  24  ar  
 44  22  44  1   
 45  23  25  ar  
 46  23  45  1   
 47  24  25  ar  
 48  24  46  1   
@<TRIPOS>SUBSTRUCTURE
  1 ****  15 GROUP 4 **** **** 0

# MOE 2024.06 (io_trps.svl 2023.06)
