@<TRIPOS>MOLECULE
NONAME
29 29 1 0 0 
SMALL
USER_CHARGES


@<TRIPOS>ATOM
  1 F        0.5160    -0.0360     0.7090 F     1 <1>  -0.3400 
  2 C        0.7910     0.5610    -0.4440 C.3   1 <1>   1.0200 
  3 F        1.6560    -0.2380    -1.0550 F     1 <1>  -0.3400 
  4 F       -0.3160     0.5020    -1.1710 F     1 <1>  -0.3400 
  5 C        1.3580     1.9790    -0.2770 C.3   1 <1>   0.2200 
  6 N        2.7560     2.0220     0.3550 N.am  1 <1>  -0.7300 
  7 C        0.3180     2.8420     0.4530 C.3   1 <1>   1.0200 
  8 C        3.8540     2.4710    -0.2820 C.2   1 <1>   0.7800 
  9 F        0.7070     4.1080     0.5230 F     1 <1>  -0.3400 
 10 F       -0.8760     2.8700    -0.1220 F     1 <1>  -0.3400 
 11 F        0.1210     2.4650     1.7100 F     1 <1>  -0.3400 
 12 O        3.8190     2.8390    -1.4370 O.2   1 <1>  -0.5700 
 13 O        4.9720     2.4840     0.4260 O.3   1 <1>  -0.4300 
 14 C        6.1480     3.0760    -0.0840 C.3   1 <1>   0.2640 
 15 C        6.1060     4.5700     0.1970 C.ar  1 <1>  -0.1440 
 16 C        5.6690     5.4550    -0.7770 C.ar  1 <1>  -0.1500 
 17 C        6.5010     5.0600     1.4330 C.ar  1 <1>  -0.1500 
 18 C        5.6320     6.8150    -0.5210 C.ar  1 <1>  -0.1500 
 19 C        6.4640     6.4190     1.6900 C.ar  1 <1>  -0.1500 
 20 C        6.0300     7.2980     0.7130 C.ar  1 <1>  -0.1500 
 21 H        1.4310     2.3820    -1.2690 H     1 <1>   0.0800 
 22 H        2.8610     1.7600     1.3380 H     1 <1>   0.3700 
 23 H        6.2320     2.8690    -1.1370 H     1 <1>   0.0800 
 24 H        6.9840     2.6270     0.4210 H     1 <1>   0.0800 
 25 H        5.3510     5.0880    -1.7380 H     1 <1>   0.1500 
 26 H        6.8360     4.3840     2.2000 H     1 <1>   0.1500 
 27 H        5.2920     7.4950    -1.2810 H     1 <1>   0.1500 
 28 H        6.7720     6.7940     2.6510 H     1 <1>   0.1500 
 29 H        6.0000     8.3540     0.9130 H     1 <1>   0.1500 
@<TRIPOS>BOND
  1   1   2  1   
  2   2   3  1   
  3   2   4  1   
  4   2   5  1   
  5   5   6  1   
  6   5   7  1   
  7   5  21  1   
  8   6   8  am  
  9   6  22  1   
 10   7   9  1   
 11   7  10  1   
 12   7  11  1   
 13   8  12  2   
 14   8  13  1   
 15  13  14  1   
 16  14  15  1   
 17  14  23  1   
 18  14  24  1   
 19  15  16  ar  
 20  15  17  ar  
 21  16  18  ar  
 22  16  25  1   
 23  17  19  ar  
 24  17  26  1   
 25  18  20  ar  
 26  18  27  1   
 27  19  20  ar  
 28  19  28  1   
 29  20  29  1   
@<TRIPOS>SUBSTRUCTURE
  1 ****   8 GROUP 4 **** **** 0

# MOE 2024.06 (io_trps.svl 2023.06)
