@<TRIPOS>MOLECULE
NONAME
44 44 1 0 0 
SMALL
USER_CHARGES


@<TRIPOS>ATOM
  1 O        4.4850    -6.2010     0.9200 O.3   1 <1>  -0.3630 
  2 C        5.6570    -5.6720     0.4830 C.ar  1 <1>   0.0830 
  3 C        3.4710    -6.4350    -0.0260 C.3   1 <1>   0.1200 
  4 C        5.7420    -4.4420    -0.1810 C.ar  1 <1>   0.0830 
  5 C        6.8040    -6.4030     0.7410 C.ar  1 <1>  -0.1500 
  6 C        2.1930    -5.7970     0.5140 C.3   1 <1>  -0.1600 
  7 O        4.6020    -3.7130    -0.3860 O.3   1 <1>  -0.3630 
  8 C        6.9910    -3.9930    -0.6030 C.ar  1 <1>  -0.1500 
  9 C        8.0380    -5.9390     0.3230 C.ar  1 <1>  -0.1500 
 10 C        1.0920    -5.8370    -0.5400 C.3   1 <1>   0.3430 
 11 C        4.6800    -2.3390    -0.7040 C.3   1 <1>   0.0400 
 12 C        8.1370    -4.7350    -0.3550 C.ar  1 <1>  -0.1430 
 13 N       -0.1740    -5.2680     0.0080 N.4   1 <1>  -0.9590 
 14 C        9.4940    -4.2290    -0.8170 C.3   1 <1>  -0.0170 
 15 C       -1.3310    -5.6070    -0.8760 C.3   1 <1>   0.2630 
 16 C       -0.0850    -3.7850     0.2060 C.3   1 <1>   0.2630 
 17 C       10.1290    -3.3380     0.2560 C.3   1 <1>  -0.1600 
 18 C       11.5000    -2.8150    -0.1840 C.3   1 <1>  -0.2400 
 19 H        3.3660    -7.5010    -0.1350 H     1 <1>   0.0800 
 20 H        3.7580    -6.0110    -0.9740 H     1 <1>   0.0800 
 21 H        6.7270    -7.3360     1.2690 H     1 <1>   0.1500 
 22 H        2.4170    -4.7790     0.7760 H     1 <1>   0.0800 
 23 H        1.8870    -6.3360     1.3930 H     1 <1>   0.0800 
 24 H        7.0970    -3.0640    -1.1280 H     1 <1>   0.1500 
 25 H        8.9200    -6.5180     0.5300 H     1 <1>   0.1500 
 26 H        0.9300    -6.8620    -0.8350 H     1 <1>   0.0800 
 27 H        1.4010    -5.2810    -1.4120 H     1 <1>   0.0800 
 28 H        3.6890    -1.9270    -0.6660 H     1 <1>   0.0800 
 29 H        5.0810    -2.2310    -1.6960 H     1 <1>   0.0800 
 30 H        5.3070    -1.8480     0.0200 H     1 <1>   0.0800 
 31 H       -0.3330    -5.7050     0.9300 H     1 <1>   0.4500 
 32 H        9.3810    -3.6740    -1.7320 H     1 <1>   0.0800 
 33 H       10.1390    -5.0660    -1.0230 H     1 <1>   0.0800 
 34 H       -1.1960    -5.1710    -1.8530 H     1 <1>   0.0800 
 35 H       -2.2480    -5.2300    -0.4540 H     1 <1>   0.0800 
 36 H       -1.4190    -6.6760    -0.9850 H     1 <1>   0.0800 
 37 H        0.1230    -3.2940    -0.7310 H     1 <1>   0.0800 
 38 H        0.7010    -3.5440     0.9020 H     1 <1>   0.0800 
 39 H       -1.0140    -3.4040     0.5970 H     1 <1>   0.0800 
 40 H       10.2370    -3.9010     1.1670 H     1 <1>   0.0800 
 41 H        9.4780    -2.5050     0.4590 H     1 <1>   0.0800 
 42 H       12.1740    -3.6330    -0.3690 H     1 <1>   0.0800 
 43 H       11.9210    -2.1940     0.5870 H     1 <1>   0.0800 
 44 H       11.4100    -2.2290    -1.0820 H     1 <1>   0.0800 
@<TRIPOS>BOND
  1   1   2  1   
  2   1   3  1   
  3   2   4  ar  
  4   2   5  ar  
  5   3   6  1   
  6   3  19  1   
  7   3  20  1   
  8   4   7  1   
  9   4   8  ar  
 10   5   9  ar  
 11   5  21  1   
 12   6  10  1   
 13   6  22  1   
 14   6  23  1   
 15   7  11  1   
 16   8  12  ar  
 17   8  24  1   
 18   9  12  ar  
 19   9  25  1   
 20  10  13  1   
 21  10  26  1   
 22  10  27  1   
 23  11  28  1   
 24  11  29  1   
 25  11  30  1   
 26  12  14  1   
 27  13  15  1   
 28  13  16  1   
 29  13  31  1   
 30  14  17  1   
 31  14  32  1   
 32  14  33  1   
 33  15  34  1   
 34  15  35  1   
 35  15  36  1   
 36  16  37  1   
 37  16  38  1   
 38  16  39  1   
 39  17  18  1   
 40  17  40  1   
 41  17  41  1   
 42  18  42  1   
 43  18  43  1   
 44  18  44  1   
@<TRIPOS>SUBSTRUCTURE
  1 ****   4 GROUP 4 **** **** 0

# MOE 2024.06 (io_trps.svl 2023.06)
