@<TRIPOS>MOLECULE
NONAME
47 49 1 0 0 
SMALL
USER_CHARGES


@<TRIPOS>ATOM
  1 CL       0.1600     0.7570     1.5910 Cl    1 <1>  -0.1770 
  2 C       -0.9630    -0.1510     0.6080 C.ar  1 <1>   0.1770 
  3 C       -0.7830    -1.5150     0.4380 C.ar  1 <1>  -0.1440 
  4 C       -2.0090     0.5230     0.0060 C.ar  1 <1>  -0.1500 
  5 C       -1.6870    -2.2120    -0.3530 C.ar  1 <1>  -0.1500 
  6 C        0.3730    -2.2310     1.1060 C.3   1 <1>   0.4870 
  7 C       -2.9000    -0.1800    -0.7850 C.ar  1 <1>  -0.1500 
  8 C       -2.7380    -1.5440    -0.9620 C.ar  1 <1>  -0.1500 
  9 N        1.4470    -2.4540     0.0990 N.4   1 <1>  -0.9590 
 10 C        2.4610    -3.4440     0.6130 C.3   1 <1>   0.3430 
 11 C        2.1010    -1.1470    -0.2880 C.3   1 <1>   0.3430 
 12 C        3.6330    -3.6360    -0.3720 C.3   1 <1>   0.1400 
 13 C        3.2810    -1.3420    -1.2640 C.3   1 <1>   0.1400 
 14 N        4.2520    -2.3190    -0.6990 N.am  1 <1>  -0.6600 
 15 C        5.1850    -1.8310     0.1680 C.2   1 <1>   0.6900 
 16 O        5.0410    -2.0390     1.3570 O.2   1 <1>  -0.5700 
 17 N        6.2100    -1.0990    -0.3460 N.am  1 <1>  -0.5470 
 18 C        7.2320    -0.3590     0.2680 C.ar  1 <1>   0.1170 
 19 C        8.3590    -0.0370    -0.4800 C.ar  1 <1>  -0.1500 
 20 C        7.1650     0.0870     1.5840 C.ar  1 <1>  -0.1500 
 21 C        9.3970     0.7030     0.0620 C.ar  1 <1>  -0.1430 
 22 C        8.1950     0.8270     2.1340 C.ar  1 <1>  -0.1500 
 23 C        9.3100     1.1360     1.3740 C.ar  1 <1>  -0.1500 
 24 C       10.6230     1.0460    -0.7650 C.3   1 <1>  -0.0970 
 25 H       -2.1260     1.5820     0.1550 H     1 <1>   0.1500 
 26 H       -1.5960    -3.2750    -0.5020 H     1 <1>   0.1500 
 27 H        0.0240    -3.1760     1.4880 H     1 <1>   0.0800 
 28 H        0.7510    -1.6530     1.9340 H     1 <1>   0.0800 
 29 H       -3.7210     0.3320    -1.2590 H     1 <1>   0.1500 
 30 H       -3.4410    -2.0860    -1.5750 H     1 <1>   0.1500 
 31 H        1.0000    -2.8400    -0.7410 H     1 <1>   0.4500 
 32 H        1.9910    -4.3970     0.7930 H     1 <1>   0.0800 
 33 H        2.8680    -3.0940     1.5490 H     1 <1>   0.0800 
 34 H        2.4760    -0.6580     0.5980 H     1 <1>   0.0800 
 35 H        1.3740    -0.4920    -0.7400 H     1 <1>   0.0800 
 36 H        3.2920    -4.1120    -1.2740 H     1 <1>   0.0800 
 37 H        4.3730    -4.2760     0.0800 H     1 <1>   0.0800 
 38 H        3.7660    -0.3930    -1.4230 H     1 <1>   0.0800 
 39 H        2.9230    -1.6930    -2.2160 H     1 <1>   0.0800 
 40 H        6.3070    -1.2110    -1.3500 H     1 <1>   0.3700 
 41 H        8.4280    -0.3730    -1.4980 H     1 <1>   0.1500 
 42 H        6.3080    -0.1390     2.1910 H     1 <1>   0.1500 
 43 H        8.1310     1.1630     3.1540 H     1 <1>   0.1500 
 44 H       10.1070     1.7130     1.8090 H     1 <1>   0.1500 
 45 H       10.6650     0.4490    -1.6570 H     1 <1>   0.0800 
 46 H       11.5150     0.8640    -0.1930 H     1 <1>   0.0800 
 47 H       10.5950     2.0840    -1.0440 H     1 <1>   0.0800 
@<TRIPOS>BOND
  1   1   2  1   
  2   2   3  ar  
  3   2   4  ar  
  4   3   5  ar  
  5   3   6  1   
  6   4   7  ar  
  7   4  25  1   
  8   5   8  ar  
  9   5  26  1   
 10   6   9  1   
 11   6  27  1   
 12   6  28  1   
 13   7   8  ar  
 14   7  29  1   
 15   8  30  1   
 16   9  10  1   
 17   9  11  1   
 18   9  31  1   
 19  10  12  1   
 20  10  32  1   
 21  10  33  1   
 22  11  13  1   
 23  11  34  1   
 24  11  35  1   
 25  12  14  1   
 26  12  36  1   
 27  12  37  1   
 28  13  14  1   
 29  13  38  1   
 30  13  39  1   
 31  14  15  am  
 32  15  16  2   
 33  15  17  am  
 34  17  18  1   
 35  17  40  1   
 36  18  19  ar  
 37  18  20  ar  
 38  19  21  ar  
 39  19  41  1   
 40  20  22  ar  
 41  20  42  1   
 42  21  23  ar  
 43  21  24  1   
 44  22  23  ar  
 45  22  43  1   
 46  23  44  1   
 47  24  45  1   
 48  24  46  1   
 49  24  47  1   
@<TRIPOS>SUBSTRUCTURE
  1 ****  11 GROUP 4 **** **** 0

# MOE 2024.06 (io_trps.svl 2023.06)
