@<TRIPOS>MOLECULE
NONAME
38 38 1 0 0 
SMALL
USER_CHARGES


@<TRIPOS>ATOM
  1 O       -9.8180     2.9380     0.4080 O.3   1 <1>  -0.5600 
  2 C       -9.3180     4.1680    -0.0130 C.3   1 <1>   0.2800 
  3 C       -9.2770     1.7780    -0.1450 C.3   1 <1>   0.1200 
  4 C       -7.7990     4.2120     0.2390 C.3   1 <1>  -0.1600 
  5 C      -10.0230     5.2110     0.8520 C.3   1 <1>  -0.2400 
  6 C       -9.6910     4.4040    -1.4840 C.3   1 <1>  -0.2400 
  7 C       -7.7790     1.7110     0.1640 C.3   1 <1>  -0.1600 
  8 C       -7.0480     2.9810    -0.3140 C.3   1 <1>  -0.0800 
  9 C       -5.5660     2.9690     0.1170 C.3   1 <1>   0.2000 
 10 O       -4.9520     4.1450    -0.3160 O.3   1 <1>  -0.6800 
 11 C       -4.7770     1.7670    -0.4570 C.3   1 <1>   0.3430 
 12 N       -3.3100     2.0670    -0.5020 N.4   1 <1>  -0.9590 
 13 C       -2.6090     1.3140    -1.5830 C.3   1 <1>   0.2630 
 14 C       -2.6480     1.8950     0.8250 C.3   1 <1>   0.2630 
 15 H       -9.4700     1.7670    -1.2030 H     1 <1>   0.0800 
 16 H       -9.7890     0.9430     0.3010 H     1 <1>   0.0800 
 17 H       -7.6390     4.2710     1.3020 H     1 <1>   0.0800 
 18 H       -7.4120     5.1160    -0.1970 H     1 <1>   0.0800 
 19 H       -9.8270     5.0290     1.8930 H     1 <1>   0.0800 
 20 H      -11.0850     5.1690     0.6890 H     1 <1>   0.0800 
 21 H       -9.6800     6.1990     0.6050 H     1 <1>   0.0800 
 22 H       -9.1740     3.7370    -2.1450 H     1 <1>   0.0800 
 23 H       -9.4340     5.4080    -1.7690 H     1 <1>   0.0800 
 24 H      -10.7510     4.2790    -1.6170 H     1 <1>   0.0800 
 25 H       -7.3790     0.8340    -0.3140 H     1 <1>   0.0800 
 26 H       -7.6660     1.5920     1.2280 H     1 <1>   0.0800 
 27 H       -7.0900     3.0040    -1.3900 H     1 <1>   0.0800 
 28 H       -5.5080     2.9520     1.1930 H     1 <1>   0.0800 
 29 H       -5.4800     4.9230    -0.0360 H     1 <1>   0.4000 
 30 H       -5.1340     1.5920    -1.4580 H     1 <1>   0.0800 
 31 H       -4.9720     0.8800     0.1220 H     1 <1>   0.0800 
 32 H       -3.2990     3.0840    -0.7290 H     1 <1>   0.4500 
 33 H       -2.6460     0.2540    -1.3870 H     1 <1>   0.0800 
 34 H       -1.5770     1.6190    -1.6400 H     1 <1>   0.0800 
 35 H       -3.0760     1.5080    -2.5360 H     1 <1>   0.0800 
 36 H       -2.6900     0.8640     1.1360 H     1 <1>   0.0800 
 37 H       -3.1380     2.5030     1.5680 H     1 <1>   0.0800 
 38 H       -1.6140     2.1960     0.7660 H     1 <1>   0.0800 
@<TRIPOS>BOND
  1   1   2  1   
  2   1   3  1   
  3   2   4  1   
  4   2   5  1   
  5   2   6  1   
  6   3   7  1   
  7   3  15  1   
  8   3  16  1   
  9   4   8  1   
 10   4  17  1   
 11   4  18  1   
 12   5  19  1   
 13   5  20  1   
 14   5  21  1   
 15   6  22  1   
 16   6  23  1   
 17   6  24  1   
 18   7   8  1   
 19   7  25  1   
 20   7  26  1   
 21   8   9  1   
 22   8  27  1   
 23   9  10  1   
 24   9  11  1   
 25   9  28  1   
 26  10  29  1   
 27  11  12  1   
 28  11  30  1   
 29  11  31  1   
 30  12  13  1   
 31  12  14  1   
 32  12  32  1   
 33  13  33  1   
 34  13  34  1   
 35  13  35  1   
 36  14  36  1   
 37  14  37  1   
 38  14  38  1   
@<TRIPOS>SUBSTRUCTURE
  1 ****   8 GROUP 4 **** **** 0

# MOE 2024.06 (io_trps.svl 2023.06)
