@<TRIPOS>MOLECULE
NONAME
41 42 1 0 0 
SMALL
USER_CHARGES


@<TRIPOS>ATOM
  1 F        0.6510    -0.0980    -0.0650 F     1 <1>  -0.3400 
  2 C        1.7830     0.5920    -0.0390 C.3   1 <1>   1.1640 
  3 F        2.3490     0.3310     1.1380 F     1 <1>  -0.3400 
  4 F        2.5790     0.0430    -0.9480 F     1 <1>  -0.3400 
  5 C        1.6070     2.0980    -0.2620 C.ar  1 <1>  -0.1430 
  6 C        2.6950     2.9660    -0.1120 C.ar  1 <1>   0.1170 
  7 C        0.3670     2.6140    -0.6310 C.ar  1 <1>  -0.1500 
  8 N        3.9620     2.4920     0.2800 N.am  1 <1>  -0.5470 
  9 C        2.5050     4.3260    -0.3400 C.ar  1 <1>  -0.1500 
 10 C        0.1990     3.9690    -0.8500 C.ar  1 <1>  -0.1500 
 11 C        5.1910     2.8390    -0.2210 C.2   1 <1>   0.5690 
 12 C        1.2710     4.8260    -0.7050 C.ar  1 <1>  -0.1500 
 13 O        5.3430     3.6800    -1.0750 O.2   1 <1>  -0.5700 
 14 C        6.4580     2.1380     0.3020 C.3   1 <1>   0.4040 
 15 N        7.7370     2.8660    -0.0490 N.4   1 <1>  -0.9590 
 16 C        8.9220     1.9660     0.0120 C.3   1 <1>   0.3430 
 17 C        7.8570     4.1310     0.7330 C.3   1 <1>   0.3430 
 18 C        9.9790     2.4320    -0.9890 C.3   1 <1>  -0.1600 
 19 C        8.9880     5.0270     0.2240 C.3   1 <1>  -0.1600 
 20 C       10.9520     3.4990    -0.4600 C.3   1 <1>  -0.1600 
 21 C       10.3860     4.4920     0.5650 C.3   1 <1>  -0.1600 
 22 H       -0.4880     1.9700    -0.7570 H     1 <1>   0.1500 
 23 H        3.9280     1.7450     0.9800 H     1 <1>   0.3700 
 24 H        3.3280     5.0090    -0.2320 H     1 <1>   0.1500 
 25 H       -0.7650     4.3560    -1.1350 H     1 <1>   0.1500 
 26 H        1.1450     5.8820    -0.8790 H     1 <1>   0.1500 
 27 H        6.4810     1.1540    -0.1360 H     1 <1>   0.0800 
 28 H        6.3850     2.0270     1.3690 H     1 <1>   0.0800 
 29 H        7.6090     3.1670    -1.0300 H     1 <1>   0.4500 
 30 H        8.6230     0.9680    -0.2630 H     1 <1>   0.0800 
 31 H        9.3330     1.9330     1.0080 H     1 <1>   0.0800 
 32 H        8.0190     3.9080     1.7750 H     1 <1>   0.0800 
 33 H        6.9340     4.6840     0.6510 H     1 <1>   0.0800 
 34 H        9.4990     2.7870    -1.8850 H     1 <1>   0.0800 
 35 H       10.5660     1.5770    -1.2760 H     1 <1>   0.0800 
 36 H        8.8770     5.9760     0.7180 H     1 <1>   0.0800 
 37 H        8.8860     5.2140    -0.8310 H     1 <1>   0.0800 
 38 H       11.3360     4.0500    -1.3030 H     1 <1>   0.0800 
 39 H       11.7970     3.0070    -0.0070 H     1 <1>   0.0800 
 40 H       10.3760     4.0430     1.5440 H     1 <1>   0.0800 
 41 H       11.0680     5.3250     0.6180 H     1 <1>   0.0800 
@<TRIPOS>BOND
  1   1   2  1   
  2   2   3  1   
  3   2   4  1   
  4   2   5  1   
  5   5   6  ar  
  6   5   7  ar  
  7   6   8  1   
  8   6   9  ar  
  9   7  10  ar  
 10   7  22  1   
 11   8  11  am  
 12   8  23  1   
 13   9  12  ar  
 14   9  24  1   
 15  10  12  ar  
 16  10  25  1   
 17  11  13  2   
 18  11  14  1   
 19  12  26  1   
 20  14  15  1   
 21  14  27  1   
 22  14  28  1   
 23  15  16  1   
 24  15  17  1   
 25  15  29  1   
 26  16  18  1   
 27  16  30  1   
 28  16  31  1   
 29  17  19  1   
 30  17  32  1   
 31  17  33  1   
 32  18  20  1   
 33  18  34  1   
 34  18  35  1   
 35  19  21  1   
 36  19  36  1   
 37  19  37  1   
 38  20  21  1   
 39  20  38  1   
 40  20  39  1   
 41  21  40  1   
 42  21  41  1   
@<TRIPOS>SUBSTRUCTURE
  1 ****  11 GROUP 4 **** **** 0

# MOE 2024.06 (io_trps.svl 2023.06)
