@<TRIPOS>MOLECULE
NONAME
29 29 1 0 0 
SMALL
USER_CHARGES


@<TRIPOS>ATOM
  1 S       -0.5090    -0.2620     2.0620 S.o   1 <1>   0.2430 
  2 O       -0.1900     1.2570     1.7250 O.2   1 <1>  -0.5000 
  3 C       -1.6730    -0.8360     0.7430 C.ar  1 <1>   0.0640 
  4 C        1.0120    -1.2030     1.5190 C.3   1 <1>   0.0330 
  5 C       -2.1380    -2.1400     0.7840 C.ar  1 <1>  -0.1500 
  6 C       -2.0410     0.0290    -0.2740 C.ar  1 <1>  -0.1500 
  7 C        1.5010    -0.6010     0.2000 C.3   1 <1>   0.3430 
  8 C       -2.9750    -2.5880    -0.2230 C.ar  1 <1>  -0.1500 
  9 C       -2.8790    -0.4280    -1.2770 C.ar  1 <1>  -0.1500 
 10 N        2.7670    -1.2320    -0.3030 N.4   1 <1>  -0.9590 
 11 C       -3.3410    -1.7350    -1.2510 C.ar  1 <1>  -0.1500 
 12 C        3.9480    -0.8780     0.5510 C.3   1 <1>   0.2630 
 13 C        3.0150    -0.7980    -1.7140 C.3   1 <1>   0.2630 
 14 H        0.7870    -2.2450     1.3860 H     1 <1>   0.0800 
 15 H        1.7770    -1.1020     2.2660 H     1 <1>   0.0800 
 16 H       -1.8620    -2.7990     1.5880 H     1 <1>   0.1500 
 17 H       -1.6900     1.0470    -0.2850 H     1 <1>   0.1500 
 18 H        1.6520     0.4590     0.3360 H     1 <1>   0.0800 
 19 H        0.7210    -0.7230    -0.5350 H     1 <1>   0.0800 
 20 H       -3.3490    -3.5990    -0.2080 H     1 <1>   0.1500 
 21 H       -3.1780     0.2320    -2.0730 H     1 <1>   0.1500 
 22 H        2.6510    -2.2570    -0.3070 H     1 <1>   0.4500 
 23 H       -3.9960    -2.0860    -2.0320 H     1 <1>   0.1500 
 24 H        4.0790     0.1920     0.5830 H     1 <1>   0.0800 
 25 H        4.8450    -1.3230     0.1510 H     1 <1>   0.0800 
 26 H        3.8090    -1.2380     1.5570 H     1 <1>   0.0800 
 27 H        3.1390     0.2730    -1.7610 H     1 <1>   0.0800 
 28 H        2.1840    -1.0750    -2.3430 H     1 <1>   0.0800 
 29 H        3.9070    -1.2650    -2.0990 H     1 <1>   0.0800 
@<TRIPOS>BOND
  1   1   2  2   
  2   1   3  1   
  3   1   4  1   
  4   3   5  ar  
  5   3   6  ar  
  6   4   7  1   
  7   4  14  1   
  8   4  15  1   
  9   5   8  ar  
 10   5  16  1   
 11   6   9  ar  
 12   6  17  1   
 13   7  10  1   
 14   7  18  1   
 15   7  19  1   
 16   8  11  ar  
 17   8  20  1   
 18   9  11  ar  
 19   9  21  1   
 20  10  12  1   
 21  10  13  1   
 22  10  22  1   
 23  11  23  1   
 24  12  24  1   
 25  12  25  1   
 26  12  26  1   
 27  13  27  1   
 28  13  28  1   
 29  13  29  1   
@<TRIPOS>SUBSTRUCTURE
  1 ****   3 GROUP 4 **** **** 0

# MOE 2024.06 (io_trps.svl 2023.06)
