@<TRIPOS>MOLECULE
NONAME
41 42 1 0 0 
SMALL
USER_CHARGES


@<TRIPOS>ATOM
  1 O       -0.6360    -1.4350     1.8770 O.2   1 <1>  -0.5700 
  2 C       -1.1020    -1.8960     0.8600 C.2   1 <1>   0.5690 
  3 N       -2.3730    -1.5980     0.4330 N.am  1 <1>  -0.6600 
  4 C       -0.2350    -2.8650     0.0470 C.3   1 <1>  -0.0190 
  5 C       -3.3080    -2.7320     0.1700 C.3   1 <1>   0.2200 
  6 C       -3.0120    -0.2550     0.6560 C.3   1 <1>   0.2200 
  7 C       -0.0320    -4.2010     0.7900 C.3   1 <1>  -0.1600 
  8 C        1.1280    -2.2390    -0.3100 C.3   1 <1>  -0.1600 
  9 C       -4.3190    -2.3840    -0.9300 C.3   1 <1>  -0.1600 
 10 C       -3.9850    -3.1420     1.4820 C.3   1 <1>  -0.2400 
 11 C       -4.0230     0.0490    -0.4640 C.3   1 <1>  -0.1600 
 12 C       -1.9910     0.8930     0.6770 C.3   1 <1>  -0.2400 
 13 C        0.8360    -5.1720    -0.0230 C.3   1 <1>  -0.1600 
 14 C        1.9980    -3.2070    -1.1250 C.3   1 <1>  -0.1600 
 15 C       -5.0500    -1.0660    -0.6660 C.3   1 <1>  -0.1600 
 16 C        2.1860    -4.5380    -0.3840 C.3   1 <1>  -0.1600 
 17 H       -0.7370    -3.0650    -0.8820 H     1 <1>   0.0800 
 18 H       -2.7510    -3.5850    -0.1750 H     1 <1>   0.0800 
 19 H       -3.5280    -0.2750     1.6010 H     1 <1>   0.0800 
 20 H       -0.9850    -4.6560     0.9930 H     1 <1>   0.0800 
 21 H        0.4440    -4.0070     1.7360 H     1 <1>   0.0800 
 22 H        1.6460    -1.9750     0.5970 H     1 <1>   0.0800 
 23 H        0.9700    -1.3350    -0.8710 H     1 <1>   0.0800 
 24 H       -5.0340    -3.1810    -1.0270 H     1 <1>   0.0800 
 25 H       -3.7900    -2.3140    -1.8640 H     1 <1>   0.0800 
 26 H       -3.2400    -3.4230     2.2050 H     1 <1>   0.0800 
 27 H       -4.6270    -3.9870     1.3150 H     1 <1>   0.0800 
 28 H       -4.5750    -2.3420     1.8880 H     1 <1>   0.0800 
 29 H       -3.4880     0.2060    -1.3840 H     1 <1>   0.0800 
 30 H       -4.5430     0.9620    -0.2330 H     1 <1>   0.0800 
 31 H       -1.3480     0.8420    -0.1820 H     1 <1>   0.0800 
 32 H       -1.3980     0.8620     1.5720 H     1 <1>   0.0800 
 33 H       -2.4970     1.8400     0.6720 H     1 <1>   0.0800 
 34 H        0.3180    -5.4460    -0.9260 H     1 <1>   0.0800 
 35 H        1.0030    -6.0700     0.5470 H     1 <1>   0.0800 
 36 H        2.9590    -2.7590    -1.3080 H     1 <1>   0.0800 
 37 H        1.5320    -3.3910    -2.0780 H     1 <1>   0.0800 
 38 H       -5.6730    -1.1520     0.2070 H     1 <1>   0.0800 
 39 H       -5.6840    -0.8290    -1.5030 H     1 <1>   0.0800 
 40 H        2.7510    -5.2160    -0.9990 H     1 <1>   0.0800 
 41 H        2.7480    -4.3640     0.5180 H     1 <1>   0.0800 
@<TRIPOS>BOND
  1   1   2  2   
  2   2   3  am  
  3   2   4  1   
  4   3   5  1   
  5   3   6  1   
  6   4   7  1   
  7   4   8  1   
  8   4  17  1   
  9   5   9  1   
 10   5  10  1   
 11   5  18  1   
 12   6  11  1   
 13   6  12  1   
 14   6  19  1   
 15   7  13  1   
 16   7  20  1   
 17   7  21  1   
 18   8  14  1   
 19   8  22  1   
 20   8  23  1   
 21   9  15  1   
 22   9  24  1   
 23   9  25  1   
 24  10  26  1   
 25  10  27  1   
 26  10  28  1   
 27  11  15  1   
 28  11  29  1   
 29  11  30  1   
 30  12  31  1   
 31  12  32  1   
 32  12  33  1   
 33  13  16  1   
 34  13  34  1   
 35  13  35  1   
 36  14  16  1   
 37  14  36  1   
 38  14  37  1   
 39  15  38  1   
 40  15  39  1   
 41  16  40  1   
 42  16  41  1   
@<TRIPOS>SUBSTRUCTURE
  1 ****   2 GROUP 4 **** **** 0

# MOE 2024.06 (io_trps.svl 2023.06)
