@<TRIPOS>MOLECULE
NONAME
32 34 1 0 0 
SMALL
USER_CHARGES


@<TRIPOS>ATOM
  1 O       -0.8360    -0.4270     1.8930 O.2   1 <1>  -0.5700 
  2 C       -1.0630    -1.1310     0.9270 C.2   1 <1>   0.7150 
  3 N       -0.0180    -1.7840     0.3370 N.am  1 <1>  -0.7300 
  4 C       -2.4000    -1.2940     0.3910 C.2   1 <1>   0.0550 
  5 C        1.3910    -1.7220     0.7590 C.3   1 <1>   0.2200 
  6 O       -3.4420    -0.6620     0.9550 O.3   1 <1>  -0.2800 
  7 C       -2.8450    -2.0270    -0.6640 C.2   1 <1>  -0.1500 
  8 C        2.2360    -1.2700    -0.4250 C.3   1 <1>  -0.1600 
  9 C        1.8850    -3.1390     1.0200 C.3   1 <1>  -0.1600 
 10 C       -4.5420    -0.9800     0.2780 C.ar  1 <1>   0.1400 
 11 C       -4.2340    -1.8390    -0.7590 C.ar  1 <1>   0.0000 
 12 C        2.4580    -2.5220    -1.2830 C.3   1 <1>  -0.1600 
 13 C        2.2330    -3.7220    -0.3540 C.3   1 <1>  -0.1600 
 14 C       -5.8400    -0.5510     0.5170 C.ar  1 <1>  -0.1500 
 15 C       -5.2530    -2.2960    -1.5970 C.ar  1 <1>  -0.1500 
 16 C       -6.8430    -1.0050    -0.3150 C.ar  1 <1>  -0.1500 
 17 C       -6.5480    -1.8760    -1.3690 C.ar  1 <1>  -0.1500 
 18 H       -0.1890    -2.3760    -0.4700 H     1 <1>   0.3700 
 19 H        1.5120    -1.0810     1.6180 H     1 <1>   0.0800 
 20 H       -2.2830    -2.6500    -1.3330 H     1 <1>   0.1500 
 21 H        3.1860    -0.9300    -0.0520 H     1 <1>   0.0800 
 22 H        1.7750    -0.4650    -0.9700 H     1 <1>   0.0800 
 23 H        1.1620    -3.7310     1.5550 H     1 <1>   0.0800 
 24 H        2.7820    -3.0810     1.6110 H     1 <1>   0.0800 
 25 H        3.4510    -2.5280    -1.7000 H     1 <1>   0.0800 
 26 H        1.7440    -2.5460    -2.0890 H     1 <1>   0.0800 
 27 H        1.4130    -4.3160    -0.7200 H     1 <1>   0.0800 
 28 H        3.1100    -4.3430    -0.2950 H     1 <1>   0.0800 
 29 H       -6.0350     0.1190     1.3350 H     1 <1>   0.1500 
 30 H       -5.0190    -2.9650    -2.4050 H     1 <1>   0.1500 
 31 H       -7.8610    -0.6910    -0.1560 H     1 <1>   0.1500 
 32 H       -7.3460    -2.2180    -2.0050 H     1 <1>   0.1500 
@<TRIPOS>BOND
  1   1   2  2   
  2   2   3  am  
  3   2   4  1   
  4   3   5  1   
  5   3  18  1   
  6   4   6  1   
  7   4   7  2   
  8   5   8  1   
  9   5   9  1   
 10   5  19  1   
 11   6  10  1   
 12   7  11  1   
 13   7  20  1   
 14   8  12  1   
 15   8  21  1   
 16   8  22  1   
 17   9  13  1   
 18   9  23  1   
 19   9  24  1   
 20  10  11  ar  
 21  10  14  ar  
 22  11  15  ar  
 23  12  13  1   
 24  12  25  1   
 25  12  26  1   
 26  13  27  1   
 27  13  28  1   
 28  14  16  ar  
 29  14  29  1   
 30  15  17  ar  
 31  15  30  1   
 32  16  17  ar  
 33  16  31  1   
 34  17  32  1   
@<TRIPOS>SUBSTRUCTURE
  1 ****   4 GROUP 4 **** **** 0

# MOE 2024.06 (io_trps.svl 2023.06)
