@<TRIPOS>MOLECULE
NONAME
62 63 1 0 0 
SMALL
USER_CHARGES


@<TRIPOS>ATOM
  1 S        0.6870    -1.2110     0.4410 S.o2  1 <1>   1.4470 
  2 O        1.5060    -2.3870     0.5800 O.2   1 <1>  -0.6500 
  3 O       -0.2890    -1.0320     1.4900 O.2   1 <1>  -0.6500 
  4 N       -0.2600    -1.5110    -0.9770 N.am  1 <1>  -0.6400 
  5 C        1.6290     0.3100    -0.0100 C.ar  1 <1>  -0.0090 
  6 N       -1.4300    -2.3970    -0.7450 N.am  1 <1>  -0.3480 
  7 C        1.1320     1.6060     0.2740 C.ar  1 <1>  -0.1440 
  8 C        2.8850     0.2320    -0.6630 C.ar  1 <1>  -0.1430 
  9 C       -1.4200    -3.7320    -1.0210 C.2   1 <1>   0.5440 
 10 C        1.9410     2.7180     0.0730 C.ar  1 <1>  -0.1500 
 11 C       -0.2720     2.0110     0.7860 C.3   1 <1>   0.0640 
 12 C        3.6460     1.3830    -0.8380 C.ar  1 <1>  -0.1500 
 13 C        3.5880    -1.0080    -1.2690 C.3   1 <1>   0.0640 
 14 O       -0.5620    -4.1580    -1.7820 O.2   1 <1>  -0.5700 
 15 C       -2.4040    -4.6140    -0.4300 C.ar  1 <1>   0.0860 
 16 C        3.2030     2.6270    -0.4610 C.ar  1 <1>  -0.1430 
 17 C       -0.3900     1.9780     2.3150 C.3   1 <1>  -0.2400 
 18 C       -1.4670     1.3980     0.0430 C.3   1 <1>  -0.2400 
 19 C        2.7380    -1.9100    -2.1780 C.3   1 <1>  -0.2400 
 20 C        4.4470    -1.7710    -0.2530 C.3   1 <1>  -0.2400 
 21 C       -2.8540    -4.4340     0.8810 C.ar  1 <1>  -0.1500 
 22 C       -2.9420    -5.6790    -1.1530 C.ar  1 <1>  -0.1500 
 23 C        4.0860     3.8590    -0.6580 C.3   1 <1>   0.0630 
 24 C       -3.8090    -5.2640     1.4380 C.ar  1 <1>  -0.1500 
 25 C       -3.8970    -6.5120    -0.6030 C.ar  1 <1>  -0.1500 
 26 C        4.3780     4.5420     0.6820 C.3   1 <1>  -0.2400 
 27 C        3.4430     4.8410    -1.6420 C.3   1 <1>  -0.2400 
 28 C       -4.3430    -6.3120     0.6930 C.ar  1 <1>   0.0830 
 29 O       -5.2810    -7.1670     1.1590 O.3   1 <1>  -0.3620 
 30 C       -5.7820    -7.0780     2.4740 C.3   1 <1>   0.0400 
 31 H        0.3850    -2.0310    -1.5820 H     1 <1>   0.4200 
 32 H       -2.1470    -2.0210    -0.1130 H     1 <1>   0.3700 
 33 H        1.5910     3.7000     0.3350 H     1 <1>   0.1500 
 34 H       -0.3870     3.0550     0.5470 H     1 <1>   0.0800 
 35 H        4.6230     1.3250    -1.2840 H     1 <1>   0.1500 
 36 H        4.3100    -0.6260    -1.9710 H     1 <1>   0.0800 
 37 H       -0.2390     0.9980     2.7190 H     1 <1>   0.0800 
 38 H       -1.3620     2.3240     2.6190 H     1 <1>   0.0800 
 39 H        0.3500     2.6260     2.7470 H     1 <1>   0.0800 
 40 H       -1.7930     0.4720     0.4670 H     1 <1>   0.0800 
 41 H       -1.2240     1.2490    -0.9940 H     1 <1>   0.0800 
 42 H       -2.3030     2.0720     0.0950 H     1 <1>   0.0800 
 43 H        2.2480    -2.7010    -1.6470 H     1 <1>   0.0800 
 44 H        3.3790    -2.3870    -2.8980 H     1 <1>   0.0800 
 45 H        2.0190    -1.3240    -2.7200 H     1 <1>   0.0800 
 46 H        3.8690    -2.1860     0.5480 H     1 <1>   0.0800 
 47 H        5.1730    -1.1060     0.1790 H     1 <1>   0.0800 
 48 H        4.9710    -2.5740    -0.7400 H     1 <1>   0.0800 
 49 H       -2.4410    -3.6400     1.4810 H     1 <1>   0.1500 
 50 H       -2.6000    -5.8510    -2.1600 H     1 <1>   0.1500 
 51 H        5.0280     3.5470    -1.0760 H     1 <1>   0.0800 
 52 H       -4.1250    -5.0870     2.4490 H     1 <1>   0.1500 
 53 H       -4.3040    -7.3280    -1.1740 H     1 <1>   0.1500 
 54 H        3.4770     4.9260     1.1230 H     1 <1>   0.0800 
 55 H        5.0660     5.3570     0.5420 H     1 <1>   0.0800 
 56 H        4.8190     3.8360     1.3630 H     1 <1>   0.0800 
 57 H        2.5190     5.2270    -1.2520 H     1 <1>   0.0800 
 58 H        3.2390     4.3430    -2.5740 H     1 <1>   0.0800 
 59 H        4.1070     5.6650    -1.8330 H     1 <1>   0.0800 
 60 H       -6.5010    -7.8650     2.6110 H     1 <1>   0.0800 
 61 H       -6.2570    -6.1220     2.6030 H     1 <1>   0.0800 
 62 H       -4.9680    -7.2020     3.1660 H     1 <1>   0.0800 
@<TRIPOS>BOND
  1   1   2  2   
  2   1   3  2   
  3   1   4  am  
  4   1   5  1   
  5   4   6  1   
  6   4  31  1   
  7   5   7  ar  
  8   5   8  ar  
  9   6   9  am  
 10   6  32  1   
 11   7  10  ar  
 12   7  11  1   
 13   8  12  ar  
 14   8  13  1   
 15   9  14  2   
 16   9  15  1   
 17  10  16  ar  
 18  10  33  1   
 19  11  17  1   
 20  11  18  1   
 21  11  34  1   
 22  12  16  ar  
 23  12  35  1   
 24  13  19  1   
 25  13  20  1   
 26  13  36  1   
 27  15  21  ar  
 28  15  22  ar  
 29  16  23  1   
 30  17  37  1   
 31  17  38  1   
 32  17  39  1   
 33  18  40  1   
 34  18  41  1   
 35  18  42  1   
 36  19  43  1   
 37  19  44  1   
 38  19  45  1   
 39  20  46  1   
 40  20  47  1   
 41  20  48  1   
 42  21  24  ar  
 43  21  49  1   
 44  22  25  ar  
 45  22  50  1   
 46  23  26  1   
 47  23  27  1   
 48  23  51  1   
 49  24  28  ar  
 50  24  52  1   
 51  25  28  ar  
 52  25  53  1   
 53  26  54  1   
 54  26  55  1   
 55  26  56  1   
 56  27  57  1   
 57  27  58  1   
 58  27  59  1   
 59  28  29  1   
 60  29  30  1   
 61  30  60  1   
 62  30  61  1   
 63  30  62  1   
@<TRIPOS>SUBSTRUCTURE
  1 ****   1 GROUP 4 **** **** 0

# MOE 2024.06 (io_trps.svl 2023.06)
