@<TRIPOS>MOLECULE
NONAME
41 43 1 0 0 
SMALL
USER_CHARGES


@<TRIPOS>ATOM
  1 O        0.3960     3.4020    -1.8330 O.2   1 <1>  -0.5700 
  2 C        0.1670     2.9620    -0.7140 C.2   1 <1>   0.5440 
  3 N        1.2040     2.5630     0.0770 N.am  1 <1>  -0.4300 
  4 C       -1.2040     2.8340    -0.2470 C.ar  1 <1>   0.0860 
  5 N        2.4830     2.0320    -0.3970 N.am  1 <1>  -0.4300 
  6 C       -1.6050     1.9560     0.7780 C.ar  1 <1>   0.0830 
  7 C       -2.2090     3.6060    -0.8390 C.ar  1 <1>  -0.1500 
  8 C        3.7200     2.4020     0.0220 C.2   1 <1>   0.5690 
  9 O       -0.7320     1.1670     1.4400 O.3   1 <1>  -0.3630 
 10 C       -2.9280     1.8840     1.1840 C.ar  1 <1>  -0.1500 
 11 C       -3.5300     3.5280    -0.4380 C.ar  1 <1>  -0.1500 
 12 O        3.9030     3.4270     0.6490 O.2   1 <1>  -0.5700 
 13 C        4.9320     1.5240    -0.3480 C.3   1 <1>  -0.0190 
 14 C       -0.3240    -0.0480     0.8290 C.3   1 <1>   0.0400 
 15 C       -3.8930     2.6640     0.5790 C.ar  1 <1>  -0.1500 
 16 C        4.7270    -0.1880    -0.3560 C.3   1 <1>  -0.1860 
 17 C        6.2910     1.8130     0.5670 C.3   1 <1>   0.0580 
 18 C        3.3430    -0.6780     0.0430 C.2   1 <1>   0.9060 
 19 C        5.9700    -0.8210     0.5400 C.3   1 <1>   0.0580 
 20 C        7.5210     1.0200     1.2520 C.2   1 <1>  -0.2880 
 21 C        6.0160     0.5110     0.5020 C.3   1 <1>  -0.1600 
 22 O        3.0730    -0.9660     1.2080 O.co2 1 <1>  -0.9000 
 23 O        2.4730    -0.6660    -0.8350 O.co2 1 <1>  -0.9000 
 24 C        7.3520    -0.3590     1.2390 C.2   1 <1>  -0.2880 
 25 H        0.9330     2.1960     1.0000 H     1 <1>   0.3700 
 26 H        2.4000     1.0840    -0.8260 H     1 <1>   0.3700 
 27 H       -1.9420     4.2830    -1.6330 H     1 <1>   0.1500 
 28 H       -3.1940     1.2110     1.9790 H     1 <1>   0.1500 
 29 H       -4.2760     4.1380    -0.9180 H     1 <1>   0.1500 
 30 H        5.1550     1.8210    -1.3620 H     1 <1>   0.0800 
 31 H       -1.1510    -0.7330     0.8270 H     1 <1>   0.0800 
 32 H        0.4940    -0.4590     1.3950 H     1 <1>   0.0800 
 33 H        0.0050     0.1380    -0.1780 H     1 <1>   0.0800 
 34 H       -4.9200     2.6020     0.8970 H     1 <1>   0.1500 
 35 H        4.8450    -0.5320    -1.3720 H     1 <1>   0.0800 
 36 H        5.9360     2.4020     1.4010 H     1 <1>   0.0800 
 37 H        5.4750    -1.3370     1.3520 H     1 <1>   0.0800 
 38 H        8.3380     1.5940     1.6540 H     1 <1>   0.1500 
 39 H        5.4340     0.5700     1.5120 H     1 <1>   0.0800 
 40 H        6.6740     0.4410    -0.5200 H     1 <1>   0.0800 
 41 H        8.0040    -1.1220     1.6290 H     1 <1>   0.1500 
@<TRIPOS>BOND
  1   1   2  2   
  2   2   3  am  
  3   2   4  1   
  4   3   5  1   
  5   3  25  1   
  6   4   6  ar  
  7   4   7  ar  
  8   5   8  am  
  9   5  26  1   
 10   6   9  1   
 11   6  10  ar  
 12   7  11  ar  
 13   7  27  1   
 14   8  12  2   
 15   8  13  1   
 16   9  14  1   
 17  10  15  ar  
 18  10  28  1   
 19  11  15  ar  
 20  11  29  1   
 21  13  16  1   
 22  13  17  1   
 23  13  30  1   
 24  14  31  1   
 25  14  32  1   
 26  14  33  1   
 27  15  34  1   
 28  16  18  1   
 29  16  19  1   
 30  16  35  1   
 31  17  20  1   
 32  17  21  1   
 33  17  36  1   
 34  18  22  ar  
 35  18  23  ar  
 36  19  21  1   
 37  19  24  1   
 38  19  37  1   
 39  20  24  2   
 40  20  38  1   
 41  21  39  1   
 42  21  40  1   
 43  24  41  1   
@<TRIPOS>SUBSTRUCTURE
  1 ****   5 GROUP 4 **** **** 0

# MOE 2024.06 (io_trps.svl 2023.06)
