@<TRIPOS>MOLECULE
NONAME
39 40 1 0 0 
SMALL
USER_CHARGES


@<TRIPOS>ATOM
  1 O       -0.1010    -0.2120     0.6250 O.3   1 <1>  -0.3630 
  2 C       -1.2310    -0.8390     0.2140 C.ar  1 <1>   0.0830 
  3 C        1.1690    -0.7770     0.4070 C.3   1 <1>   0.1200 
  4 C       -1.2450    -2.0750    -0.4270 C.ar  1 <1>  -0.1500 
  5 C       -2.4300    -0.1880     0.4580 C.ar  1 <1>  -0.1500 
  6 C        2.2200     0.1790     0.9660 C.3   1 <1>  -0.1600 
  7 C       -2.4480    -2.6410    -0.8130 C.ar  1 <1>  -0.1500 
  8 C       -3.6300    -0.7570     0.0710 C.ar  1 <1>  -0.1500 
  9 C        3.6300    -0.3730     0.7330 C.3   1 <1>   0.1200 
 10 C       -3.6450    -1.9880    -0.5660 C.ar  1 <1>  -0.1430 
 11 O        4.5830     0.5110     1.2820 O.3   1 <1>  -0.3630 
 12 C       -4.9610    -2.6120    -0.9930 C.3   1 <1>  -0.0970 
 13 C        4.9910     1.6430     0.6520 C.ar  1 <1>   0.0830 
 14 C        4.5630     2.0350    -0.6140 C.ar  1 <1>  -0.1500 
 15 C        5.8940     2.4400     1.3360 C.ar  1 <1>  -0.1500 
 16 C        5.0380     3.2090    -1.1750 C.ar  1 <1>  -0.1500 
 17 C        6.3670     3.6120     0.7730 C.ar  1 <1>  -0.1500 
 18 C        5.9400     4.0030    -0.4860 C.ar  1 <1>  -0.1430 
 19 C        6.4590     5.2880    -1.1050 C.3   1 <1>  -0.0970 
 20 H        1.3000    -0.9110    -0.6530 H     1 <1>   0.0800 
 21 H        1.2080    -1.7270     0.9130 H     1 <1>   0.0800 
 22 H       -0.3390    -2.6090    -0.6330 H     1 <1>   0.1500 
 23 H       -2.4150     0.7660     0.9530 H     1 <1>   0.1500 
 24 H        2.0600     0.2980     2.0230 H     1 <1>   0.0800 
 25 H        2.1150     1.1340     0.4840 H     1 <1>   0.0800 
 26 H       -2.4500    -3.5960    -1.3090 H     1 <1>   0.1500 
 27 H       -4.5510    -0.2370     0.2670 H     1 <1>   0.1500 
 28 H        3.8470    -0.5260    -0.3090 H     1 <1>   0.0800 
 29 H        3.7440    -1.3120     1.2460 H     1 <1>   0.0800 
 30 H       -4.8940    -3.6850    -0.9710 H     1 <1>   0.0800 
 31 H       -5.2040    -2.2990    -1.9930 H     1 <1>   0.0800 
 32 H       -5.7530    -2.3090    -0.3320 H     1 <1>   0.0800 
 33 H        3.8650     1.4480    -1.1760 H     1 <1>   0.1500 
 34 H        6.2250     2.1350     2.3120 H     1 <1>   0.1500 
 35 H        4.7020     3.5020    -2.1530 H     1 <1>   0.1500 
 36 H        7.0700     4.2160     1.3200 H     1 <1>   0.1500 
 37 H        7.3410     5.0820    -1.6840 H     1 <1>   0.0800 
 38 H        6.7040     6.0030    -0.3400 H     1 <1>   0.0800 
 39 H        5.7150     5.7220    -1.7480 H     1 <1>   0.0800 
@<TRIPOS>BOND
  1   1   2  1   
  2   1   3  1   
  3   2   4  ar  
  4   2   5  ar  
  5   3   6  1   
  6   3  20  1   
  7   3  21  1   
  8   4   7  ar  
  9   4  22  1   
 10   5   8  ar  
 11   5  23  1   
 12   6   9  1   
 13   6  24  1   
 14   6  25  1   
 15   7  10  ar  
 16   7  26  1   
 17   8  10  ar  
 18   8  27  1   
 19   9  11  1   
 20   9  28  1   
 21   9  29  1   
 22  10  12  1   
 23  11  13  1   
 24  12  30  1   
 25  12  31  1   
 26  12  32  1   
 27  13  14  ar  
 28  13  15  ar  
 29  14  16  ar  
 30  14  33  1   
 31  15  17  ar  
 32  15  34  1   
 33  16  18  ar  
 34  16  35  1   
 35  17  18  ar  
 36  17  36  1   
 37  18  19  1   
 38  19  37  1   
 39  19  38  1   
 40  19  39  1   
@<TRIPOS>SUBSTRUCTURE
  1 ****   6 GROUP 4 **** **** 0

# MOE 2024.06 (io_trps.svl 2023.06)
