@<TRIPOS>MOLECULE
NONAME
29 29 1 0 0 
SMALL
USER_CHARGES


@<TRIPOS>ATOM
  1 O       -5.0840     2.5430    -0.4310 O.3   1 <1>  -0.5600 
  2 C       -6.2980     2.1020     0.1150 C.3   1 <1>   0.2640 
  3 C       -5.0750     3.9130    -0.7040 C.3   1 <1>   0.0400 
  4 C       -6.3270     0.5730     0.2750 C.ar  1 <1>  -0.1440 
  5 C       -7.5440    -0.0900     0.1180 C.ar  1 <1>   0.1000 
  6 C       -5.2260    -0.2230     0.5780 C.ar  1 <1>  -0.1440 
  7 N       -8.7110     0.6320    -0.1380 N.pl3 1 <1>  -0.9000 
  8 C       -7.5690    -1.4880     0.2310 C.ar  1 <1>   0.1670 
  9 C       -5.3890    -1.5950     0.6930 C.ar  1 <1>   0.1600 
 10 C       -3.8270     0.3100     0.7820 C.3   1 <1>   0.4860 
 11 N       -6.5220    -2.2360     0.5150 N.ar  1 <1>  -0.6200 
 12 C       -8.8690    -2.2510     0.0330 C.3   1 <1>  -0.0970 
 13 N       -3.2730     0.5580    -0.5570 N.4   1 <1>  -0.8530 
 14 H       -7.0820     2.4240    -0.5500 H     1 <1>   0.0800 
 15 H       -6.4370     2.5740     1.0720 H     1 <1>   0.0800 
 16 H       -4.1110     4.1790    -1.1020 H     1 <1>   0.0800 
 17 H       -5.2530     4.4640     0.2050 H     1 <1>   0.0800 
 18 H       -5.8360     4.1390    -1.4320 H     1 <1>   0.0800 
 19 H       -9.5260     0.0640    -0.3950 H     1 <1>   0.4000 
 20 H       -8.9880     1.3030     0.5860 H     1 <1>   0.4000 
 21 H       -4.5430    -2.2160     0.9400 H     1 <1>   0.1500 
 22 H       -3.2260    -0.4090     1.3150 H     1 <1>   0.0800 
 23 H       -3.8620     1.2280     1.3480 H     1 <1>   0.0800 
 24 H       -9.2610    -2.0600    -0.9490 H     1 <1>   0.0800 
 25 H       -9.5870    -1.9520     0.7740 H     1 <1>   0.0800 
 26 H       -8.7040    -3.3090     0.1300 H     1 <1>   0.0800 
 27 H       -3.4070    -0.2540    -1.1660 H     1 <1>   0.4500 
 28 H       -2.2970     0.8600    -0.5410 H     1 <1>   0.4500 
 29 H       -3.8560     1.3270    -0.9390 H     1 <1>   0.4500 
@<TRIPOS>BOND
  1   1   2  1   
  2   1   3  1   
  3   2   4  1   
  4   2  14  1   
  5   2  15  1   
  6   3  16  1   
  7   3  17  1   
  8   3  18  1   
  9   4   5  ar  
 10   4   6  ar  
 11   5   7  1   
 12   5   8  ar  
 13   6   9  ar  
 14   6  10  1   
 15   7  19  1   
 16   7  20  1   
 17   8  11  ar  
 18   8  12  1   
 19   9  11  ar  
 20   9  21  1   
 21  10  13  1   
 22  10  22  1   
 23  10  23  1   
 24  12  24  1   
 25  12  25  1   
 26  12  26  1   
 27  13  27  1   
 28  13  28  1   
 29  13  29  1   
@<TRIPOS>SUBSTRUCTURE
  1 ****   4 GROUP 4 **** **** 0

# MOE 2024.06 (io_trps.svl 2023.06)
