@<TRIPOS>MOLECULE
NONAME
51 52 1 0 0 
SMALL
USER_CHARGES


@<TRIPOS>ATOM
  1 S        0.4520     0.1920     1.4280 S.o2  1 <1>   1.4470 
  2 O       -0.7970    -0.1600     2.0680 O.2   1 <1>  -0.6500 
  3 O        1.6630     0.2590     2.2110 O.2   1 <1>  -0.6500 
  4 N        0.6960    -0.9570     0.1980 N.am  1 <1>  -0.8490 
  5 C        0.2700     1.7410     0.5040 C.ar  1 <1>  -0.0090 
  6 C        1.2040    -2.2390     0.7650 C.3   1 <1>   0.2570 
  7 C       -0.5150    -1.2020    -0.5940 C.3   1 <1>   0.1160 
  8 C       -0.9690     2.3540     0.3600 C.ar  1 <1>  -0.1500 
  9 C        1.3650     2.3370    -0.1040 C.ar  1 <1>  -0.1500 
 10 C        2.7190    -2.2900     1.0050 C.2   1 <1>   0.5690 
 11 C       -1.1320     3.5290    -0.3700 C.ar  1 <1>   0.0830 
 12 C        1.2250     3.4990    -0.8400 C.ar  1 <1>  -0.1500 
 13 O        3.1630    -3.1330     1.7480 O.2   1 <1>  -0.5700 
 14 N        3.5170    -1.4090     0.3450 N.am  1 <1>  -0.7300 
 15 O       -2.3620     4.1100    -0.4750 O.3   1 <1>  -0.3630 
 16 C       -0.0100     4.1050    -0.9920 C.ar  1 <1>   0.0830 
 17 C        4.9530    -1.2140     0.5740 C.3   1 <1>   0.2200 
 18 C       -3.4060     3.8250     0.4320 C.3   1 <1>   0.0400 
 19 O        0.0170     5.2340    -1.7570 O.3   1 <1>  -0.3630 
 20 C        5.1560     0.1320     1.2780 C.3   1 <1>  -0.1600 
 21 C        5.6820    -1.2550    -0.7720 C.3   1 <1>  -0.1600 
 22 C       -1.1420     5.9010    -2.2030 C.3   1 <1>   0.0400 
 23 C        6.6490     0.4470     1.4510 C.3   1 <1>  -0.1600 
 24 C        7.1760    -0.9410    -0.6040 C.3   1 <1>  -0.1600 
 25 C        7.3850     0.4050     0.1040 C.3   1 <1>  -0.1600 
 26 H        0.9870    -3.0440     0.0870 H     1 <1>   0.0800 
 27 H        0.7030    -2.4570     1.6930 H     1 <1>   0.0800 
 28 H       -0.8740    -0.2820    -1.0220 H     1 <1>   0.0800 
 29 H       -1.2930    -1.6270     0.0200 H     1 <1>   0.0800 
 30 H       -0.2970    -1.8820    -1.4010 H     1 <1>   0.0800 
 31 H       -1.8100     1.8840     0.8330 H     1 <1>   0.1500 
 32 H        2.3390     1.8880     0.0000 H     1 <1>   0.1500 
 33 H        2.0840     3.9480    -1.3070 H     1 <1>   0.1500 
 34 H        3.0500    -0.6920    -0.2100 H     1 <1>   0.3700 
 35 H        5.3290    -2.0030     1.2060 H     1 <1>   0.0800 
 36 H       -4.2000     4.5280     0.2580 H     1 <1>   0.0800 
 37 H       -3.0370     3.9330     1.4380 H     1 <1>   0.0800 
 38 H       -3.7620     2.8260     0.2560 H     1 <1>   0.0800 
 39 H        4.6820     0.1000     2.2440 H     1 <1>   0.0800 
 40 H        4.6980     0.9140     0.7010 H     1 <1>   0.0800 
 41 H        5.2460    -0.5330    -1.4400 H     1 <1>   0.0800 
 42 H        5.5710    -2.2340    -1.2050 H     1 <1>   0.0800 
 43 H       -0.8400     6.6800    -2.8790 H     1 <1>   0.0800 
 44 H       -1.6450     6.3300    -1.3540 H     1 <1>   0.0800 
 45 H       -1.7760     5.1970    -2.7120 H     1 <1>   0.0800 
 46 H        7.0880    -0.2730     2.1200 H     1 <1>   0.0800 
 47 H        6.7620     1.4210     1.8960 H     1 <1>   0.0800 
 48 H        7.6520    -0.9200    -1.5690 H     1 <1>   0.0800 
 49 H        7.6390    -1.7220    -0.0250 H     1 <1>   0.0800 
 50 H        8.4370     0.5690     0.2640 H     1 <1>   0.0800 
 51 H        7.0200     1.1990    -0.5250 H     1 <1>   0.0800 
@<TRIPOS>BOND
  1   1   2  2   
  2   1   3  2   
  3   1   4  am  
  4   1   5  1   
  5   4   6  1   
  6   4   7  1   
  7   5   8  ar  
  8   5   9  ar  
  9   6  10  1   
 10   6  26  1   
 11   6  27  1   
 12   7  28  1   
 13   7  29  1   
 14   7  30  1   
 15   8  11  ar  
 16   8  31  1   
 17   9  12  ar  
 18   9  32  1   
 19  10  13  2   
 20  10  14  am  
 21  11  15  1   
 22  11  16  ar  
 23  12  16  ar  
 24  12  33  1   
 25  14  17  1   
 26  14  34  1   
 27  15  18  1   
 28  16  19  1   
 29  17  20  1   
 30  17  21  1   
 31  17  35  1   
 32  18  36  1   
 33  18  37  1   
 34  18  38  1   
 35  19  22  1   
 36  20  23  1   
 37  20  39  1   
 38  20  40  1   
 39  21  24  1   
 40  21  41  1   
 41  21  42  1   
 42  22  43  1   
 43  22  44  1   
 44  22  45  1   
 45  23  25  1   
 46  23  46  1   
 47  23  47  1   
 48  24  25  1   
 49  24  48  1   
 50  24  49  1   
 51  25  50  1   
 52  25  51  1   
@<TRIPOS>SUBSTRUCTURE
  1 ****   9 GROUP 4 **** **** 0

# MOE 2024.06 (io_trps.svl 2023.06)
