@<TRIPOS>MOLECULE
NONAME
47 48 1 0 0 
SMALL
USER_CHARGES


@<TRIPOS>ATOM
  1 O        5.5890    -5.8690    -0.0200 O.3   1 <1>  -0.3630 
  2 C        6.3870    -4.7710     0.0760 C.ar  1 <1>   0.0830 
  3 C        4.1950    -5.7990     0.1870 C.3   1 <1>   0.1200 
  4 C        7.7450    -4.9160    -0.2050 C.ar  1 <1>  -0.1440 
  5 C        5.8910    -3.5200     0.4400 C.ar  1 <1>  -0.1500 
  6 C        3.6150    -7.2010    -0.0210 C.3   1 <1>   0.1100 
  7 C        8.5750    -3.8070    -0.1290 C.ar  1 <1>  -0.1500 
  8 C        8.3570    -6.2570    -0.6080 C.3   1 <1>   0.1220 
  9 C        6.7350    -2.4270     0.5140 C.ar  1 <1>  -0.1500 
 10 N        2.1460    -7.2290     0.1670 N.3   1 <1>  -0.8100 
 11 C        8.0810    -2.5630     0.2270 C.ar  1 <1>  -0.1430 
 12 C        9.5530    -6.6010     0.2670 C.2   1 <1>  -0.2880 
 13 C        1.4210    -6.6210    -0.9800 C.3   1 <1>   0.1100 
 14 C        1.6780    -8.6200     0.3860 C.3   1 <1>   0.1100 
 15 C        9.0120    -1.3670     0.3080 C.3   1 <1>  -0.0970 
 16 C       10.7960    -6.8240    -0.1710 C.2   1 <1>  -0.3000 
 17 C       -0.1190    -6.7260    -0.8400 C.3   1 <1>   0.3430 
 18 C        0.1460    -8.7090     0.5990 C.3   1 <1>   0.3430 
 19 N       -0.5040    -7.3630     0.4630 N.4   1 <1>  -0.9590 
 20 C       -1.9750    -7.3890     0.7030 C.3   1 <1>   0.2630 
 21 H        3.7920    -5.1020    -0.5240 H     1 <1>   0.0800 
 22 H        4.0200    -5.4680     1.1950 H     1 <1>   0.0800 
 23 H        4.8550    -3.3720     0.6710 H     1 <1>   0.1500 
 24 H        4.0780    -7.8490     0.7050 H     1 <1>   0.0800 
 25 H        3.8700    -7.5550    -1.0050 H     1 <1>   0.0800 
 26 H        9.6230    -3.9160    -0.3470 H     1 <1>   0.1500 
 27 H        8.6610    -6.2010    -1.6380 H     1 <1>   0.0800 
 28 H        7.6410    -7.0540    -0.5270 H     1 <1>   0.0800 
 29 H        6.3380    -1.4670     0.7970 H     1 <1>   0.1500 
 30 H        9.2880    -6.6450     1.3100 H     1 <1>   0.1500 
 31 H        1.7200    -7.0990    -1.8980 H     1 <1>   0.0800 
 32 H        1.6830    -5.5800    -1.0610 H     1 <1>   0.0800 
 33 H        2.1700    -9.0300     1.2520 H     1 <1>   0.0800 
 34 H        1.9520    -9.2330    -0.4570 H     1 <1>   0.0800 
 35 H        9.7740    -1.4360    -0.4480 H     1 <1>   0.0800 
 36 H        9.4830    -1.3380     1.2740 H     1 <1>   0.0800 
 37 H        8.4680    -0.4520     0.1580 H     1 <1>   0.0800 
 38 H       11.6240    -7.0640     0.4740 H     1 <1>   0.1500 
 39 H       11.0920    -6.7850    -1.2060 H     1 <1>   0.1500 
 40 H       -0.5090    -7.3050    -1.6610 H     1 <1>   0.0800 
 41 H       -0.5440    -5.7380    -0.9060 H     1 <1>   0.0800 
 42 H       -0.0440    -9.1080     1.5820 H     1 <1>   0.0800 
 43 H       -0.2700    -9.3960    -0.1180 H     1 <1>   0.0800 
 44 H       -0.0240    -6.7860     1.1730 H     1 <1>   0.4500 
 45 H       -2.4660    -7.9940    -0.0410 H     1 <1>   0.0800 
 46 H       -2.3780    -6.3900     0.6570 H     1 <1>   0.0800 
 47 H       -2.1870    -7.7990     1.6770 H     1 <1>   0.0800 
@<TRIPOS>BOND
  1   1   2  1   
  2   1   3  1   
  3   2   4  ar  
  4   2   5  ar  
  5   3   6  1   
  6   3  21  1   
  7   3  22  1   
  8   4   7  ar  
  9   4   8  1   
 10   5   9  ar  
 11   5  23  1   
 12   6  10  1   
 13   6  24  1   
 14   6  25  1   
 15   7  11  ar  
 16   7  26  1   
 17   8  12  1   
 18   8  27  1   
 19   8  28  1   
 20   9  11  ar  
 21   9  29  1   
 22  10  13  1   
 23  10  14  1   
 24  11  15  1   
 25  12  16  2   
 26  12  30  1   
 27  13  17  1   
 28  13  31  1   
 29  13  32  1   
 30  14  18  1   
 31  14  33  1   
 32  14  34  1   
 33  15  35  1   
 34  15  36  1   
 35  15  37  1   
 36  16  38  1   
 37  16  39  1   
 38  17  19  1   
 39  17  40  1   
 40  17  41  1   
 41  18  19  1   
 42  18  42  1   
 43  18  43  1   
 44  19  20  1   
 45  19  44  1   
 46  20  45  1   
 47  20  46  1   
 48  20  47  1   
@<TRIPOS>SUBSTRUCTURE
  1 ****   3 GROUP 4 **** **** 0

# MOE 2024.06 (io_trps.svl 2023.06)
