@<TRIPOS>MOLECULE
NONAME
45 47 1 0 0 
SMALL
USER_CHARGES


@<TRIPOS>ATOM
  1 O        1.1780     0.1090     0.9170 O.2   1 <1>  -0.5750 
  2 C        2.0800     0.8660     0.6440 C.2   1 <1>   0.6860 
  3 N        3.3200     0.4170     0.2140 N.am  1 <1>  -0.4420 
  4 N        1.8630     2.2080     0.7690 N.am  1 <1>  -0.4960 
  5 C        4.2890     1.3700    -0.0620 C.2   1 <1>   0.4200 
  6 C        3.6140    -1.0380     0.0710 C.3   1 <1>   0.0510 
  7 C        2.8060     3.1600     0.5020 C.2   1 <1>   0.6990 
  8 N        5.5680     1.1660    -0.4710 N.pl3 1 <1>  -0.7040 
  9 C        4.0910     2.7040     0.0640 C.2   1 <1>   0.2700 
 10 O        2.5190     4.3320     0.6440 O.2   1 <1>  -0.5750 
 11 C        6.1660     2.3460    -0.5830 C.cat 1 <1>   1.0690 
 12 N        5.3080     3.3160    -0.2820 N.pl3 1 <1>  -0.7680 
 13 N        7.4610     2.4780    -0.9050 N.pl3 1 <1>  -0.5970 
 14 C        5.6040     4.7570    -0.1950 C.3   1 <1>   0.4860 
 15 C        7.9720     1.7740    -2.1250 C.3   1 <1>   0.1590 
 16 C        8.4350     2.3530     0.2200 C.3   1 <1>   0.1590 
 17 C        6.2180     5.0120     1.1660 C.2   1 <1>  -0.2950 
 18 C        8.5350     0.3760    -1.7780 C.3   1 <1>   0.1110 
 19 C        8.7530     0.8630     0.5020 C.3   1 <1>   0.1110 
 20 C        7.4420     5.4670     1.4620 C.2   1 <1>  -0.2840 
 21 O        8.1740     0.0220    -0.4700 O.3   1 <1>  -0.5650 
 22 C        7.8840     5.6750     2.9020 C.3   1 <1>  -0.1100 
 23 C        8.5330     5.8510     0.4700 C.3   1 <1>  -0.1100 
 24 H        0.9430     2.5070     1.0860 H     1 <1>   0.3630 
 25 H        4.0400    -1.2340    -0.8980 H     1 <1>   0.0710 
 26 H        2.7140    -1.6210     0.1680 H     1 <1>   0.0710 
 27 H        4.3060    -1.3470     0.8350 H     1 <1>   0.0710 
 28 H        6.1210     0.3040    -0.5330 H     1 <1>   0.4440 
 29 H        6.2720     5.0390    -0.9890 H     1 <1>   0.0710 
 30 H        4.7000     5.3320    -0.3030 H     1 <1>   0.0710 
 31 H        7.1800     1.6680    -2.8470 H     1 <1>   0.0710 
 32 H        8.7450     2.3660    -2.5860 H     1 <1>   0.0710 
 33 H        9.3440     2.8720    -0.0340 H     1 <1>   0.0710 
 34 H        8.0440     2.8100     1.1140 H     1 <1>   0.0710 
 35 H        5.5100     4.7840     1.9450 H     1 <1>   0.1420 
 36 H        9.6090     0.3650    -1.8550 H     1 <1>   0.0710 
 37 H        8.1430    -0.3670    -2.4510 H     1 <1>   0.0710 
 38 H        8.3620     0.5730     1.4610 H     1 <1>   0.0710 
 39 H        9.8180     0.6970     0.5120 H     1 <1>   0.0710 
 40 H        8.1350     6.7090     3.0660 H     1 <1>   0.0710 
 41 H        8.7480     5.0740     3.1210 H     1 <1>   0.0710 
 42 H        7.1020     5.4080     3.5900 H     1 <1>   0.0710 
 43 H        9.4370     5.3070     0.6830 H     1 <1>   0.0710 
 44 H        8.7470     6.9020     0.5580 H     1 <1>   0.0710 
 45 H        8.2570     5.6530    -0.5470 H     1 <1>   0.0710 
@<TRIPOS>BOND
  1   1   2  2   
  2   2   3  am  
  3   2   4  am  
  4   3   5  1   
  5   3   6  1   
  6   4   7  am  
  7   4  24  1   
  8   5   8  1   
  9   5   9  2   
 10   6  25  1   
 11   6  26  1   
 12   6  27  1   
 13   7   9  1   
 14   7  10  2   
 15   8  11  ar  
 16   8  28  1   
 17   9  12  1   
 18  11  12  ar  
 19  11  13  ar  
 20  12  14  1   
 21  13  15  1   
 22  13  16  1   
 23  14  17  1   
 24  14  29  1   
 25  14  30  1   
 26  15  18  1   
 27  15  31  1   
 28  15  32  1   
 29  16  19  1   
 30  16  33  1   
 31  16  34  1   
 32  17  20  2   
 33  17  35  1   
 34  18  21  1   
 35  18  36  1   
 36  18  37  1   
 37  19  21  1   
 38  19  38  1   
 39  19  39  1   
 40  20  22  1   
 41  20  23  1   
 42  22  40  1   
 43  22  41  1   
 44  22  42  1   
 45  23  43  1   
 46  23  44  1   
 47  23  45  1   
@<TRIPOS>SUBSTRUCTURE
  1 ****  11 GROUP 4 **** **** 0

# MOE 2024.06 (io_trps.svl 2023.06)
