@<TRIPOS>MOLECULE
NONAME
22 22 1 0 0 
SMALL
USER_CHARGES


@<TRIPOS>ATOM
  1 O       -1.8870    -1.2360    -0.7130 O.3   1 <1>  -0.6800 
  2 C       -3.1600    -0.6650    -0.7710 C.3   1 <1>   0.2000 
  3 C       -3.0570     0.8710    -0.5230 C.3   1 <1>   0.4230 
  4 C       -4.0430    -1.3710     0.2630 C.3   1 <1>  -0.1600 
  5 N       -1.8270     1.1690     0.2400 N.4   1 <1>  -0.8530 
  6 C       -4.2630     1.4510     0.2350 C.3   1 <1>  -0.1600 
  7 C       -5.4720    -0.7940     0.2750 C.3   1 <1>  -0.1600 
  8 C       -5.5530     0.6950    -0.1130 C.3   1 <1>  -0.1600 
  9 H       -1.9350    -2.1950    -0.9250 H     1 <1>   0.4000 
 10 H       -3.5620    -0.8400    -1.7560 H     1 <1>   0.0800 
 11 H       -3.0000     1.3410    -1.4920 H     1 <1>   0.0800 
 12 H       -4.0950    -2.4260     0.0540 H     1 <1>   0.0800 
 13 H       -3.6120    -1.2460     1.2420 H     1 <1>   0.0800 
 14 H       -1.9820     1.0440     1.2420 H     1 <1>   0.4500 
 15 H       -1.4400     2.0940     0.0410 H     1 <1>   0.4500 
 16 H       -1.1600     0.4310    -0.0490 H     1 <1>   0.4500 
 17 H       -4.1170     1.3780     1.3000 H     1 <1>   0.0800 
 18 H       -4.3810     2.4900    -0.0190 H     1 <1>   0.0800 
 19 H       -6.0930    -1.3560    -0.4020 H     1 <1>   0.0800 
 20 H       -5.8860    -0.9290     1.2610 H     1 <1>   0.0800 
 21 H       -6.3930     1.1480     0.3890 H     1 <1>   0.0800 
 22 H       -5.7370     0.7770    -1.1720 H     1 <1>   0.0800 
@<TRIPOS>BOND
  1   1   2  1   
  2   1   9  1   
  3   2   3  1   
  4   2   4  1   
  5   2  10  1   
  6   3   5  1   
  7   3   6  1   
  8   3  11  1   
  9   4   7  1   
 10   4  12  1   
 11   4  13  1   
 12   5  14  1   
 13   5  15  1   
 14   5  16  1   
 15   6   8  1   
 16   6  17  1   
 17   6  18  1   
 18   7   8  1   
 19   7  19  1   
 20   7  20  1   
 21   8  21  1   
 22   8  22  1   
@<TRIPOS>SUBSTRUCTURE
  1 ****   2 GROUP 4 **** **** 0

# MOE 2024.06 (io_trps.svl 2023.06)
