@<TRIPOS>MOLECULE
NONAME
29 29 1 0 0 
SMALL
USER_CHARGES


@<TRIPOS>ATOM
  1 O        3.0830     0.1620     2.1890 O.2   1 <1>  -0.5700 
  2 C        2.7230     0.3910     1.0540 C.2   1 <1>   0.4950 
  3 C        3.4690     0.0990    -0.1250 C.2   1 <1>   0.0290 
  4 C        1.3860     1.0980     0.8930 C.3   1 <1>  -0.0990 
  5 C        3.4530     1.1030    -1.1320 C.2   1 <1>   0.4950 
  6 C        4.0550    -1.1160    -0.3690 C.2   1 <1>  -0.0500 
  7 C        1.4860     2.2840    -0.0770 C.3   1 <1>  -0.1600 
  8 O        4.4100     1.4300    -1.8000 O.2   1 <1>  -0.5700 
  9 C        2.1430     1.8300    -1.3880 C.3   1 <1>  -0.0990 
 10 N        3.9550    -2.2100     0.4200 N.pl3 1 <1>  -0.8690 
 11 C        3.7050    -3.5760    -0.1740 C.3   1 <1>   0.1830 
 12 C        4.1570    -4.7890     0.6980 C.2   1 <1>   0.9060 
 13 C        2.1960    -3.6450    -0.4950 C.3   1 <1>  -0.2660 
 14 O        3.7600    -4.8990     1.8730 O.co2 1 <1>  -0.9000 
 15 O        4.8950    -5.6590     0.2020 O.co2 1 <1>  -0.9000 
 16 C        1.7140    -2.5990    -1.4740 C.2   1 <1>   0.9060 
 17 O        1.0060    -1.6570    -1.0790 O.co2 1 <1>  -0.9000 
 18 O        1.9970    -2.7230    -2.6710 O.co2 1 <1>  -0.9000 
 19 H        0.6780     0.3780     0.5180 H     1 <1>   0.0800 
 20 H        1.0380     1.4350     1.8520 H     1 <1>   0.0800 
 21 H        4.5190    -1.2670    -1.3330 H     1 <1>   0.1500 
 22 H        2.0840     3.0600     0.3700 H     1 <1>   0.0800 
 23 H        0.5050     2.6810    -0.2750 H     1 <1>   0.0800 
 24 H        2.3160     2.6760    -2.0290 H     1 <1>   0.0800 
 25 H        1.4890     1.1460    -1.9040 H     1 <1>   0.0800 
 26 H        3.5890    -2.1630     1.3850 H     1 <1>   0.4000 
 27 H        4.2460    -3.6480    -1.1000 H     1 <1>   0.0800 
 28 H        1.6350    -3.5560     0.4150 H     1 <1>   0.0800 
 29 H        1.9810    -4.6040    -0.9220 H     1 <1>   0.0800 
@<TRIPOS>BOND
  1   1   2  2   
  2   2   3  1   
  3   2   4  1   
  4   3   5  1   
  5   3   6  2   
  6   4   7  1   
  7   4  19  1   
  8   4  20  1   
  9   5   8  2   
 10   5   9  1   
 11   6  10  1   
 12   6  21  1   
 13   7   9  1   
 14   7  22  1   
 15   7  23  1   
 16   9  24  1   
 17   9  25  1   
 18  10  11  1   
 19  10  26  1   
 20  11  12  1   
 21  11  13  1   
 22  11  27  1   
 23  12  14  ar  
 24  12  15  ar  
 25  13  16  1   
 26  13  28  1   
 27  13  29  1   
 28  16  17  ar  
 29  16  18  ar  
@<TRIPOS>SUBSTRUCTURE
  1 ****   6 GROUP 4 **** **** 0

# MOE 2024.06 (io_trps.svl 2023.06)
