@<TRIPOS>MOLECULE
NONAME
42 43 1 0 0 
SMALL
USER_CHARGES


@<TRIPOS>ATOM
  1 O        8.6720     2.4590    -0.7760 O.3   1 <1>  -0.3630 
  2 C        7.3210     2.5020    -0.6960 C.ar  1 <1>   0.0830 
  3 C        9.4010     2.3880     0.4360 C.3   1 <1>   0.2640 
  4 C        6.5570     1.4580    -0.1630 C.ar  1 <1>   0.0830 
  5 C        6.6870     3.6350    -1.1760 C.ar  1 <1>  -0.1500 
  6 C       10.6160     1.4940     0.2390 C.ar  1 <1>  -0.1440 
  7 O        7.0940     0.3010     0.2920 O.3   1 <1>  -0.3630 
  8 C        5.1810     1.5870    -0.0820 C.ar  1 <1>  -0.1500 
  9 C        5.3090     3.7530    -1.1010 C.ar  1 <1>  -0.1500 
 10 C       11.5090     1.7340    -0.7950 C.ar  1 <1>  -0.1500 
 11 C       10.8420     0.4260     1.0950 C.ar  1 <1>  -0.1500 
 12 C        7.7630    -0.5090    -0.6520 C.3   1 <1>   0.1200 
 13 C        4.5490     2.7320    -0.5460 C.ar  1 <1>  -0.1430 
 14 C       12.6130     0.9180    -0.9710 C.ar  1 <1>  -0.1500 
 15 C       11.9450    -0.3910     0.9200 C.ar  1 <1>  -0.1500 
 16 C        8.0630    -1.8520     0.0050 C.3   1 <1>  -0.2400 
 17 C        3.0470     2.8620    -0.4410 C.3   1 <1>   0.4860 
 18 C       12.8320    -0.1450    -0.1130 C.ar  1 <1>  -0.1500 
 19 N        2.7620     3.3690     0.9180 N.4   1 <1>  -0.9060 
 20 C        1.3080     3.5360     1.2020 C.3   1 <1>   0.2630 
 21 H        8.7690     2.0030     1.2160 H     1 <1>   0.0800 
 22 H        9.7080     3.3860     0.6940 H     1 <1>   0.0800 
 23 H        7.2820     4.4220    -1.6060 H     1 <1>   0.1500 
 24 H        4.6260     0.7670     0.3400 H     1 <1>   0.1500 
 25 H        4.8480     4.6480    -1.4850 H     1 <1>   0.1500 
 26 H       11.3410     2.5560    -1.4690 H     1 <1>   0.1500 
 27 H       10.1580     0.2230     1.9010 H     1 <1>   0.1500 
 28 H        8.6750    -0.0250    -0.9530 H     1 <1>   0.0800 
 29 H        7.1250    -0.6360    -1.5090 H     1 <1>   0.0800 
 30 H       13.3000     1.1110    -1.7760 H     1 <1>   0.1500 
 31 H       12.1130    -1.2180     1.5870 H     1 <1>   0.1500 
 32 H        8.6920    -1.7120     0.8640 H     1 <1>   0.0800 
 33 H        8.5760    -2.4880    -0.6930 H     1 <1>   0.0800 
 34 H        7.1480    -2.3340     0.3010 H     1 <1>   0.0800 
 35 H        2.5840     1.9000    -0.5920 H     1 <1>   0.0800 
 36 H        2.6810     3.5480    -1.1880 H     1 <1>   0.0800 
 37 H       13.6900    -0.7800    -0.2500 H     1 <1>   0.1500 
 38 H        3.2660     4.2590     1.0310 H     1 <1>   0.4500 
 39 H        3.1980     2.7210     1.5880 H     1 <1>   0.4500 
 40 H        0.8670     4.2380     0.5130 H     1 <1>   0.0800 
 41 H        1.1640     3.9060     2.2050 H     1 <1>   0.0800 
 42 H        0.7950     2.5920     1.1100 H     1 <1>   0.0800 
@<TRIPOS>BOND
  1   1   2  1   
  2   1   3  1   
  3   2   4  ar  
  4   2   5  ar  
  5   3   6  1   
  6   3  21  1   
  7   3  22  1   
  8   4   7  1   
  9   4   8  ar  
 10   5   9  ar  
 11   5  23  1   
 12   6  10  ar  
 13   6  11  ar  
 14   7  12  1   
 15   8  13  ar  
 16   8  24  1   
 17   9  13  ar  
 18   9  25  1   
 19  10  14  ar  
 20  10  26  1   
 21  11  15  ar  
 22  11  27  1   
 23  12  16  1   
 24  12  28  1   
 25  12  29  1   
 26  13  17  1   
 27  14  18  ar  
 28  14  30  1   
 29  15  18  ar  
 30  15  31  1   
 31  16  32  1   
 32  16  33  1   
 33  16  34  1   
 34  17  19  1   
 35  17  35  1   
 36  17  36  1   
 37  18  37  1   
 38  19  20  1   
 39  19  38  1   
 40  19  39  1   
 41  20  40  1   
 42  20  41  1   
 43  20  42  1   
@<TRIPOS>SUBSTRUCTURE
  1 ****   2 GROUP 4 **** **** 0

# MOE 2024.06 (io_trps.svl 2023.06)
