@<TRIPOS>MOLECULE
NONAME
45 47 1 0 0 
SMALL
USER_CHARGES


@<TRIPOS>ATOM
  1 O        3.2590    -5.7300    -0.7690 O.3   1 <1>  -0.3630 
  2 C        1.9290    -5.7980    -0.5210 C.ar  1 <1>   0.0830 
  3 C        4.0600    -4.7130    -0.2230 C.3   1 <1>   0.1200 
  4 C        1.2370    -6.8490    -1.1000 C.ar  1 <1>  -0.1500 
  5 C        1.2370    -4.8840     0.2700 C.ar  1 <1>  -0.1500 
  6 C        5.4900    -4.9600    -0.7070 C.3   1 <1>   0.3430 
  7 C       -0.1220    -6.9910    -0.8960 C.ar  1 <1>  -0.1500 
  8 C       -0.1240    -5.0350     0.4690 C.ar  1 <1>  -0.1500 
  9 N        6.4410    -3.9340    -0.1830 N.4   1 <1>  -0.9060 
 10 C       -0.8280    -6.0880    -0.1070 C.ar  1 <1>   0.0000 
 11 C        7.8340    -4.1510    -0.6190 C.3   1 <1>   0.4230 
 12 C       -2.2490    -6.2380     0.1070 C.ar  1 <1>   0.0000 
 13 C        8.4560    -5.2750     0.2060 C.3   1 <1>  -0.1600 
 14 C        8.6500    -2.9360    -0.1980 C.3   1 <1>  -0.1600 
 15 C       -2.7670    -7.3910     0.6920 C.ar  1 <1>  -0.1500 
 16 C       -3.1410    -5.2360    -0.2640 C.ar  1 <1>  -0.1500 
 17 C        8.8430    -4.6440     1.5500 C.3   1 <1>  -0.1600 
 18 C        8.9650    -3.1370     1.2900 C.3   1 <1>  -0.1600 
 19 C       -4.1270    -7.5380     0.8990 C.ar  1 <1>  -0.1500 
 20 C       -4.5010    -5.3770    -0.0590 C.ar  1 <1>  -0.1500 
 21 C       -4.9970    -6.5300     0.5240 C.ar  1 <1>  -0.1500 
 22 H        3.9950    -4.7780     0.8490 H     1 <1>   0.0800 
 23 H        3.6860    -3.7690    -0.5790 H     1 <1>   0.0800 
 24 H        1.7660    -7.5570    -1.7130 H     1 <1>   0.1500 
 25 H        1.7290    -4.0550     0.7400 H     1 <1>   0.1500 
 26 H        5.4970    -4.9420    -1.7850 H     1 <1>   0.0800 
 27 H        5.7950    -5.9410    -0.3810 H     1 <1>   0.0800 
 28 H       -0.6500    -7.8100    -1.3540 H     1 <1>   0.1500 
 29 H       -0.6570    -4.3310     1.0840 H     1 <1>   0.1500 
 30 H        6.4550    -3.9360     0.8440 H     1 <1>   0.4500 
 31 H        6.1550    -2.9960    -0.4830 H     1 <1>   0.4500 
 32 H        7.8910    -4.3310    -1.6820 H     1 <1>   0.0800 
 33 H        9.3570    -5.5930    -0.2900 H     1 <1>   0.0800 
 34 H        7.8230    -6.1370     0.3210 H     1 <1>   0.0800 
 35 H        8.1600    -1.9990    -0.3980 H     1 <1>   0.0800 
 36 H        9.5780    -2.9490    -0.7460 H     1 <1>   0.0800 
 37 H       -2.0950    -8.1760     0.9890 H     1 <1>   0.1500 
 38 H       -2.7620    -4.3400    -0.7220 H     1 <1>   0.1500 
 39 H        9.7750    -5.0530     1.9070 H     1 <1>   0.0800 
 40 H        8.0860    -4.8320     2.2920 H     1 <1>   0.0800 
 41 H        8.2630    -2.5980     1.9040 H     1 <1>   0.0800 
 42 H        9.9570    -2.7820     1.5210 H     1 <1>   0.0800 
 43 H       -4.5080    -8.4360     1.3540 H     1 <1>   0.1500 
 44 H       -5.1750    -4.5910    -0.3530 H     1 <1>   0.1500 
 45 H       -6.0560    -6.6420     0.6850 H     1 <1>   0.1500 
@<TRIPOS>BOND
  1   1   2  1   
  2   1   3  1   
  3   2   4  ar  
  4   2   5  ar  
  5   3   6  1   
  6   3  22  1   
  7   3  23  1   
  8   4   7  ar  
  9   4  24  1   
 10   5   8  ar  
 11   5  25  1   
 12   6   9  1   
 13   6  26  1   
 14   6  27  1   
 15   7  10  ar  
 16   7  28  1   
 17   8  10  ar  
 18   8  29  1   
 19   9  11  1   
 20   9  30  1   
 21   9  31  1   
 22  10  12  1   
 23  11  13  1   
 24  11  14  1   
 25  11  32  1   
 26  12  15  ar  
 27  12  16  ar  
 28  13  17  1   
 29  13  33  1   
 30  13  34  1   
 31  14  18  1   
 32  14  35  1   
 33  14  36  1   
 34  15  19  ar  
 35  15  37  1   
 36  16  20  ar  
 37  16  38  1   
 38  17  18  1   
 39  17  39  1   
 40  17  40  1   
 41  18  41  1   
 42  18  42  1   
 43  19  21  ar  
 44  19  43  1   
 45  20  21  ar  
 46  20  44  1   
 47  21  45  1   
@<TRIPOS>SUBSTRUCTURE
  1 ****   2 GROUP 4 **** **** 0

# MOE 2024.06 (io_trps.svl 2023.06)
