@<TRIPOS>MOLECULE
NONAME
34 34 1 0 0 
SMALL
USER_CHARGES


@<TRIPOS>ATOM
  1 O       -0.7540     0.4850     1.9480 O.2   1 <1>  -0.5700 
  2 C       -1.4080     0.9630     1.0500 C.2   1 <1>   0.4950 
  3 C       -1.0670     2.1900     0.3940 C.2   1 <1>   0.0290 
  4 C       -2.6300     0.1570     0.6440 C.3   1 <1>  -0.0990 
  5 C       -1.9110     2.6470    -0.6770 C.2   1 <1>   0.4950 
  6 C        0.0510     2.8850     0.8100 C.2   1 <1>  -0.0500 
  7 C       -3.7420     1.0170     0.0300 C.3   1 <1>   0.0000 
  8 O       -1.7280     3.6590    -1.3180 O.2   1 <1>  -0.5700 
  9 C       -3.1300     1.8460    -1.1060 C.3   1 <1>  -0.0990 
 10 N        0.5070     4.0530     0.3000 N.pl3 1 <1>  -0.8690 
 11 C       -4.8450     0.1070    -0.5320 C.3   1 <1>  -0.2400 
 12 C       -4.3690     1.9360     1.0960 C.3   1 <1>  -0.2400 
 13 C        1.7060     4.7930     0.7350 C.3   1 <1>   0.2090 
 14 C        2.6690     4.9020    -0.4460 C.3   1 <1>  -0.1600 
 15 C        3.9470     5.6590    -0.0660 C.3   1 <1>  -0.2400 
 16 H       -2.3080    -0.5890    -0.0600 H     1 <1>   0.0800 
 17 H       -3.0080    -0.3600     1.5080 H     1 <1>   0.0800 
 18 H        0.6320     2.4710     1.6210 H     1 <1>   0.1500 
 19 H       -3.8700     2.5230    -1.4950 H     1 <1>   0.0800 
 20 H       -2.8290     1.2030    -1.9130 H     1 <1>   0.0800 
 21 H       -0.0160     4.4880    -0.4840 H     1 <1>   0.4000 
 22 H       -4.4530    -0.5550    -1.2840 H     1 <1>   0.0800 
 23 H       -5.6300     0.6940    -0.9770 H     1 <1>   0.0800 
 24 H       -5.2770    -0.4920     0.2510 H     1 <1>   0.0800 
 25 H       -4.8000     1.3510     1.8900 H     1 <1>   0.0800 
 26 H       -5.1500     2.5350     0.6630 H     1 <1>   0.0800 
 27 H       -3.6450     2.6010     1.5320 H     1 <1>   0.0800 
 28 H        1.4160     5.7740     1.0730 H     1 <1>   0.0800 
 29 H        2.1780     4.2730     1.5520 H     1 <1>   0.0800 
 30 H        2.9280     3.9110    -0.7770 H     1 <1>   0.0800 
 31 H        2.1800     5.4150    -1.2550 H     1 <1>   0.0800 
 32 H        4.4630     5.1510     0.7300 H     1 <1>   0.0800 
 33 H        3.7120     6.6590     0.2530 H     1 <1>   0.0800 
 34 H        4.6040     5.7180    -0.9160 H     1 <1>   0.0800 
@<TRIPOS>BOND
  1   1   2  2   
  2   2   3  1   
  3   2   4  1   
  4   3   5  1   
  5   3   6  2   
  6   4   7  1   
  7   4  16  1   
  8   4  17  1   
  9   5   8  2   
 10   5   9  1   
 11   6  10  1   
 12   6  18  1   
 13   7   9  1   
 14   7  11  1   
 15   7  12  1   
 16   9  19  1   
 17   9  20  1   
 18  10  13  1   
 19  10  21  1   
 20  11  22  1   
 21  11  23  1   
 22  11  24  1   
 23  12  25  1   
 24  12  26  1   
 25  12  27  1   
 26  13  14  1   
 27  13  28  1   
 28  13  29  1   
 29  14  15  1   
 30  14  30  1   
 31  14  31  1   
 32  15  32  1   
 33  15  33  1   
 34  15  34  1   
@<TRIPOS>SUBSTRUCTURE
  1 ****   3 GROUP 4 **** **** 0

# MOE 2024.06 (io_trps.svl 2023.06)
