@<TRIPOS>MOLECULE
NONAME
38 38 1 0 0 
SMALL
USER_CHARGES


@<TRIPOS>ATOM
  1 S        0.3840     0.5360    -0.2710 S.3   1 <1>  -0.4600 
  2 C        1.3460     1.3590    -1.5950 C.3   1 <1>   0.2110 
  3 C       -1.3270     0.6100    -0.8710 C.3   1 <1>   0.2140 
  4 C        2.8050     0.8770    -1.5960 C.2   1 <1>   0.5690 
  5 C        1.2200     2.8690    -1.3640 C.3   1 <1>  -0.2400 
  6 C       -2.2100    -0.1270     0.1210 C.ar  1 <1>  -0.1440 
  7 O        3.4790     1.0720    -2.5810 O.2   1 <1>  -0.5700 
  8 N        3.3030     0.2510    -0.4980 N.am  1 <1>  -0.7300 
  9 C       -2.9670     0.5740     1.0470 C.ar  1 <1>  -0.1500 
 10 C       -2.2680    -1.5130     0.1050 C.ar  1 <1>  -0.1500 
 11 C        4.6850    -0.2420    -0.3180 C.3   1 <1>   0.1400 
 12 C       -3.7780    -0.1010     1.9430 C.ar  1 <1>  -0.1500 
 13 C       -3.0790    -2.1890     1.0000 C.ar  1 <1>  -0.1500 
 14 C        5.2680     0.2680     1.0090 C.3   1 <1>  -0.0800 
 15 C       -3.8350    -1.4830     1.9190 C.ar  1 <1>  -0.1500 
 16 C        6.7260    -0.1860     1.1500 C.3   1 <1>  -0.2400 
 17 C        4.4600    -0.2150     2.2250 C.3   1 <1>  -0.2400 
 18 H        0.8950     1.0790    -2.5290 H     1 <1>   0.0800 
 19 H       -1.3530     0.1430    -1.8390 H     1 <1>   0.0800 
 20 H       -1.6010     1.6460    -0.9510 H     1 <1>   0.0800 
 21 H        1.6300     3.1310    -0.4040 H     1 <1>   0.0800 
 22 H        0.1930     3.1780    -1.4060 H     1 <1>   0.0800 
 23 H        1.7690     3.3970    -2.1240 H     1 <1>   0.0800 
 24 H        2.6560     0.0680     0.2760 H     1 <1>   0.3700 
 25 H       -2.9260     1.6490     1.0780 H     1 <1>   0.1500 
 26 H       -1.6780    -2.0700    -0.6020 H     1 <1>   0.1500 
 27 H        5.2960     0.0980    -1.1380 H     1 <1>   0.0800 
 28 H        4.6780    -1.3190    -0.3290 H     1 <1>   0.0800 
 29 H       -4.3630     0.4490     2.6590 H     1 <1>   0.1500 
 30 H       -3.1190    -3.2640     0.9830 H     1 <1>   0.1500 
 31 H        5.2560     1.3450     0.9880 H     1 <1>   0.0800 
 32 H       -4.4650    -2.0080     2.6150 H     1 <1>   0.1500 
 33 H        6.7900    -1.2600     1.1760 H     1 <1>   0.0800 
 34 H        7.1540     0.2060     2.0560 H     1 <1>   0.0800 
 35 H        7.3100     0.1730     0.3200 H     1 <1>   0.0800 
 36 H        4.4130    -1.2900     2.2460 H     1 <1>   0.0800 
 37 H        3.4580     0.1740     2.1980 H     1 <1>   0.0800 
 38 H        4.9200     0.1260     3.1360 H     1 <1>   0.0800 
@<TRIPOS>BOND
  1   1   2  1   
  2   1   3  1   
  3   2   4  1   
  4   2   5  1   
  5   2  18  1   
  6   3   6  1   
  7   3  19  1   
  8   3  20  1   
  9   4   7  2   
 10   4   8  am  
 11   5  21  1   
 12   5  22  1   
 13   5  23  1   
 14   6   9  ar  
 15   6  10  ar  
 16   8  11  1   
 17   8  24  1   
 18   9  12  ar  
 19   9  25  1   
 20  10  13  ar  
 21  10  26  1   
 22  11  14  1   
 23  11  27  1   
 24  11  28  1   
 25  12  15  ar  
 26  12  29  1   
 27  13  15  ar  
 28  13  30  1   
 29  14  16  1   
 30  14  17  1   
 31  14  31  1   
 32  15  32  1   
 33  16  33  1   
 34  16  34  1   
 35  16  35  1   
 36  17  36  1   
 37  17  37  1   
 38  17  38  1   
@<TRIPOS>SUBSTRUCTURE
  1 ****   1 GROUP 4 **** **** 0

# MOE 2024.06 (io_trps.svl 2023.06)
