@<TRIPOS>MOLECULE
NONAME
47 49 1 0 0 
SMALL
USER_CHARGES


@<TRIPOS>ATOM
  1 F        3.0710    -1.5250     0.7670 F     1 <1>  -0.3400 
  2 C        2.4990    -1.1050    -0.3560 C.3   1 <1>   1.1640 
  3 F        1.1940    -1.2990    -0.1990 F     1 <1>  -0.3400 
  4 F        2.8890    -1.9420    -1.3080 F     1 <1>  -0.3400 
  5 C        2.8530     0.3520    -0.6900 C.ar  1 <1>  -0.1440 
  6 C        4.0990     0.8730    -0.3580 C.ar  1 <1>  -0.1500 
  7 C        1.9400     1.1780    -1.3390 C.ar  1 <1>  -0.1500 
  8 C        4.4460     2.1860    -0.6540 C.ar  1 <1>   0.1170 
  9 C        2.2690     2.4880    -1.6390 C.ar  1 <1>  -0.1500 
 10 N        5.7140     2.6460    -0.2770 N.am  1 <1>  -0.5470 
 11 C        3.5100     2.9880    -1.2980 C.ar  1 <1>  -0.1500 
 12 C        6.4980     3.6640    -0.7600 C.2   1 <1>   0.5690 
 13 O        6.1590     4.3400    -1.7040 O.2   1 <1>  -0.5700 
 14 C        7.8530     3.9240    -0.0510 C.3   1 <1>   0.2040 
 15 C        8.3580     2.5720     0.5210 C.ar  1 <1>  -0.1430 
 16 C        7.6370     4.9840     1.0570 C.3   1 <1>  -0.1600 
 17 C        8.9360     4.4800    -1.0140 C.3   1 <1>  -0.1600 
 18 C        8.4710     2.3050     1.8840 C.ar  1 <1>  -0.1500 
 19 C        8.6850     1.5510    -0.3680 C.ar  1 <1>  -0.1500 
 20 C        7.4180     6.3840     0.4790 C.3   1 <1>   0.1200 
 21 C        8.7140     5.9460    -1.4140 C.3   1 <1>   0.1200 
 22 C        8.9020     1.0710     2.3410 C.ar  1 <1>  -0.1500 
 23 C        9.1150     0.3180     0.0840 C.ar  1 <1>  -0.1500 
 24 O        8.5390     6.7200    -0.2710 O.3   1 <1>  -0.5600 
 25 C        9.2290     0.0660     1.4380 C.ar  1 <1>   0.0830 
 26 O        9.6590    -1.1680     1.8000 O.3   1 <1>  -0.3630 
 27 C        9.8760    -1.5030     3.1530 C.3   1 <1>   0.0400 
 28 H        4.8240     0.2500     0.1370 H     1 <1>   0.1500 
 29 H        0.9660     0.8090    -1.6180 H     1 <1>   0.1500 
 30 H        1.5570     3.1220    -2.1410 H     1 <1>   0.1500 
 31 H        6.1980     2.0590     0.4070 H     1 <1>   0.3700 
 32 H        3.7480     4.0090    -1.5340 H     1 <1>   0.1500 
 33 H        8.5050     5.0410     1.6890 H     1 <1>   0.0800 
 34 H        6.7910     4.7180     1.6660 H     1 <1>   0.0800 
 35 H        8.9760     3.8900    -1.9110 H     1 <1>   0.0800 
 36 H        9.8990     4.4120    -0.5390 H     1 <1>   0.0800 
 37 H        8.2290     3.0420     2.6280 H     1 <1>   0.1500 
 38 H        8.6030     1.7010    -1.4310 H     1 <1>   0.1500 
 39 H        7.3240     7.1090     1.2680 H     1 <1>   0.0800 
 40 H        6.5450     6.4360    -0.1510 H     1 <1>   0.0800 
 41 H        7.8520     6.0690    -2.0480 H     1 <1>   0.0800 
 42 H        9.5760     6.3250    -1.9360 H     1 <1>   0.0800 
 43 H        8.9770     0.9100     3.3990 H     1 <1>   0.1500 
 44 H        9.3670    -0.4610    -0.6140 H     1 <1>   0.1500 
 45 H       10.2430    -2.5130     3.1920 H     1 <1>   0.0800 
 46 H        8.9430    -1.4320     3.6840 H     1 <1>   0.0800 
 47 H       10.6080    -0.8320     3.5650 H     1 <1>   0.0800 
@<TRIPOS>BOND
  1   1   2  1   
  2   2   3  1   
  3   2   4  1   
  4   2   5  1   
  5   5   6  ar  
  6   5   7  ar  
  7   6   8  ar  
  8   6  28  1   
  9   7   9  ar  
 10   7  29  1   
 11   8  10  1   
 12   8  11  ar  
 13   9  11  ar  
 14   9  30  1   
 15  10  12  am  
 16  10  31  1   
 17  11  32  1   
 18  12  13  2   
 19  12  14  1   
 20  14  15  1   
 21  14  16  1   
 22  14  17  1   
 23  15  18  ar  
 24  15  19  ar  
 25  16  20  1   
 26  16  33  1   
 27  16  34  1   
 28  17  21  1   
 29  17  35  1   
 30  17  36  1   
 31  18  22  ar  
 32  18  37  1   
 33  19  23  ar  
 34  19  38  1   
 35  20  24  1   
 36  20  39  1   
 37  20  40  1   
 38  21  24  1   
 39  21  41  1   
 40  21  42  1   
 41  22  25  ar  
 42  22  43  1   
 43  23  25  ar  
 44  23  44  1   
 45  25  26  1   
 46  26  27  1   
 47  27  45  1   
 48  27  46  1   
 49  27  47  1   
@<TRIPOS>SUBSTRUCTURE
  1 ****  10 GROUP 4 **** **** 0

# MOE 2024.06 (io_trps.svl 2023.06)
