@<TRIPOS>MOLECULE
NONAME
36 38 1 0 0 
SMALL
USER_CHARGES


@<TRIPOS>ATOM
  1 O       -0.2590    -3.2930     0.8500 O.2   1 <1>  -0.5700 
  2 C       -0.4950    -2.5580    -0.0770 C.2   1 <1>   0.5690 
  3 N        0.3710    -1.5850    -0.4670 N.am  1 <1>  -0.7300 
  4 C       -1.7830    -2.7410    -0.8570 C.3   1 <1>  -0.0990 
  5 C        1.6690    -1.2840     0.1870 C.3   1 <1>   0.0600 
  6 C       -2.9830    -1.9040    -0.3560 C.3   1 <1>   0.0000 
  7 C       -4.2160    -2.2250    -1.2340 C.3   1 <1>  -0.1600 
  8 C       -3.3310    -2.2470     1.1120 C.3   1 <1>  -0.1600 
  9 C       -2.7020    -0.3850    -0.4510 C.3   1 <1>  -0.1600 
 10 C       -5.4470    -1.4220    -0.7730 C.3   1 <1>  -0.0800 
 11 C       -4.5560    -1.4430     1.5860 C.3   1 <1>  -0.0800 
 12 C       -3.9250     0.4280     0.0150 C.3   1 <1>  -0.0800 
 13 C       -5.7620    -1.7800     0.6910 C.3   1 <1>  -0.1600 
 14 C       -5.1340     0.0820    -0.8730 C.3   1 <1>  -0.1600 
 15 C       -4.2480     0.0620     1.4760 C.3   1 <1>  -0.1600 
 16 H        0.1120    -0.9820    -1.2490 H     1 <1>   0.3700 
 17 H       -2.0410    -3.7840    -0.8080 H     1 <1>   0.0800 
 18 H       -1.5920    -2.5120    -1.8880 H     1 <1>   0.0800 
 19 H        1.8440    -1.9660     1.0020 H     1 <1>   0.0800 
 20 H        1.6580    -0.2800     0.5720 H     1 <1>   0.0800 
 21 H        2.4680    -1.3840    -0.5270 H     1 <1>   0.0800 
 22 H       -4.0060    -1.9900    -2.2630 H     1 <1>   0.0800 
 23 H       -4.4400    -3.2760    -1.1790 H     1 <1>   0.0800 
 24 H       -2.4960    -2.0230     1.7540 H     1 <1>   0.0800 
 25 H       -3.5330    -3.3000     1.2050 H     1 <1>   0.0800 
 26 H       -2.4600    -0.1170    -1.4640 H     1 <1>   0.0800 
 27 H       -1.8630    -0.1240     0.1700 H     1 <1>   0.0800 
 28 H       -6.2920    -1.6600    -1.3960 H     1 <1>   0.0800 
 29 H       -4.7810    -1.6940     2.6090 H     1 <1>   0.0800 
 30 H       -3.7110     1.4810    -0.0560 H     1 <1>   0.0800 
 31 H       -5.9910    -2.8280     0.7690 H     1 <1>   0.0800 
 32 H       -6.6260    -1.2310     1.0220 H     1 <1>   0.0800 
 33 H       -5.9910     0.6530    -0.5600 H     1 <1>   0.0800 
 34 H       -4.9230     0.3440    -1.8950 H     1 <1>   0.0800 
 35 H       -5.0930     0.6330     1.8160 H     1 <1>   0.0800 
 36 H       -3.4110     0.3080     2.1070 H     1 <1>   0.0800 
@<TRIPOS>BOND
  1   1   2  2   
  2   2   3  am  
  3   2   4  1   
  4   3   5  1   
  5   3  16  1   
  6   4   6  1   
  7   4  17  1   
  8   4  18  1   
  9   5  19  1   
 10   5  20  1   
 11   5  21  1   
 12   6   7  1   
 13   6   8  1   
 14   6   9  1   
 15   7  10  1   
 16   7  22  1   
 17   7  23  1   
 18   8  11  1   
 19   8  24  1   
 20   8  25  1   
 21   9  12  1   
 22   9  26  1   
 23   9  27  1   
 24  10  13  1   
 25  10  14  1   
 26  10  28  1   
 27  11  13  1   
 28  11  15  1   
 29  11  29  1   
 30  12  14  1   
 31  12  15  1   
 32  12  30  1   
 33  13  31  1   
 34  13  32  1   
 35  14  33  1   
 36  14  34  1   
 37  15  35  1   
 38  15  36  1   
@<TRIPOS>SUBSTRUCTURE
  1 ****   6 GROUP 4 **** **** 0

# MOE 2024.06 (io_trps.svl 2023.06)
