@<TRIPOS>MOLECULE
NONAME
58 60 1 0 0 
SMALL
USER_CHARGES


@<TRIPOS>ATOM
  1 O       -0.1400     2.1400    -1.6600 O.2   1 <1>  -0.5700 
  2 C       -0.3290     2.0550    -0.4640 C.2   1 <1>   0.5440 
  3 N        0.6500     1.5040     0.3160 N.am  1 <1>  -0.7300 
  4 C       -1.5650     2.5470     0.1210 C.ar  1 <1>   0.0860 
  5 C        1.9100     0.9050    -0.2020 C.3   1 <1>   0.1400 
  6 C       -2.1270     1.9760     1.2640 C.ar  1 <1>  -0.1500 
  7 C       -2.2460     3.6190    -0.4530 C.ar  1 <1>  -0.1500 
  8 C        2.9140     1.9960    -0.5740 C.3   1 <1>   0.1200 
  9 C       -3.3090     2.4510     1.8040 C.ar  1 <1>  -0.1500 
 10 C       -3.4280     4.1010     0.0790 C.ar  1 <1>  -0.1500 
 11 O        4.1480     1.3960    -0.8200 O.3   1 <1>  -0.5600 
 12 C       -3.9740     3.5140     1.2110 C.ar  1 <1>  -0.1430 
 13 C        5.1230     2.2830    -1.2630 C.3   1 <1>   0.0400 
 14 C       -5.2860     4.0220     1.7820 C.3   1 <1>   0.4860 
 15 N       -6.3910     3.6120     0.8740 N.4   1 <1>  -0.9590 
 16 C       -7.6710     4.2790     1.2430 C.3   1 <1>   0.3430 
 17 C       -6.5300     2.1270     0.8030 C.3   1 <1>   0.3430 
 18 C       -8.7410     3.9460     0.2050 C.3   1 <1>  -0.1600 
 19 C       -7.5830     1.7570    -0.2410 C.3   1 <1>  -0.1600 
 20 C       -8.9360     2.4270     0.0490 C.3   1 <1>  -0.0800 
 21 C       -9.9630     2.0870    -1.0480 C.3   1 <1>  -0.0170 
 22 C      -11.3170     2.7180    -0.7570 C.ar  1 <1>  -0.1430 
 23 C      -11.7420     3.8310    -1.4680 C.ar  1 <1>  -0.1500 
 24 C      -12.1350     2.1890     0.2290 C.ar  1 <1>  -0.1500 
 25 C      -12.9660     4.4130    -1.1890 C.ar  1 <1>  -0.1500 
 26 C      -13.3600     2.7710     0.5090 C.ar  1 <1>  -0.1500 
 27 C      -13.7750     3.8850    -0.1990 C.ar  1 <1>  -0.1500 
 28 H        0.5770     1.5600     1.3320 H     1 <1>   0.3700 
 29 H        1.6920     0.3150    -1.0760 H     1 <1>   0.0800 
 30 H        2.3340     0.2670     0.5530 H     1 <1>   0.0800 
 31 H       -1.6330     1.1410     1.7300 H     1 <1>   0.1500 
 32 H       -1.8310     4.0770    -1.3370 H     1 <1>   0.1500 
 33 H        3.0320     2.6920     0.2370 H     1 <1>   0.0800 
 34 H        2.5880     2.5060    -1.4650 H     1 <1>   0.0800 
 35 H       -3.7020     1.9780     2.6890 H     1 <1>   0.1500 
 36 H       -3.9060     4.9380    -0.4020 H     1 <1>   0.1500 
 37 H        6.0330     1.7300    -1.4170 H     1 <1>   0.0800 
 38 H        5.2800     3.0420    -0.5160 H     1 <1>   0.0800 
 39 H        4.8050     2.7240    -2.1920 H     1 <1>   0.0800 
 40 H       -5.2460     5.0960     1.8570 H     1 <1>   0.0800 
 41 H       -5.4420     3.6160     2.7690 H     1 <1>   0.0800 
 42 H       -6.1290     3.9250    -0.0680 H     1 <1>   0.4500 
 43 H       -7.5360     5.3480     1.2860 H     1 <1>   0.0800 
 44 H       -7.9970     3.9380     2.2120 H     1 <1>   0.0800 
 45 H       -6.8250     1.7410     1.7650 H     1 <1>   0.0800 
 46 H       -5.5880     1.6780     0.5310 H     1 <1>   0.0800 
 47 H       -8.4760     4.3890    -0.7400 H     1 <1>   0.0800 
 48 H       -9.6650     4.3990     0.5220 H     1 <1>   0.0800 
 49 H       -7.7060     0.6870    -0.2420 H     1 <1>   0.0800 
 50 H       -7.2270     2.0380    -1.2170 H     1 <1>   0.0800 
 51 H       -9.3120     2.0390     0.9820 H     1 <1>   0.0800 
 52 H      -10.0900     1.0200    -1.1100 H     1 <1>   0.0800 
 53 H       -9.6070     2.4230    -2.0060 H     1 <1>   0.0800 
 54 H      -11.1270     4.2510    -2.2440 H     1 <1>   0.1500 
 55 H      -11.8280     1.3210     0.7840 H     1 <1>   0.1500 
 56 H      -13.2920     5.2760    -1.7440 H     1 <1>   0.1500 
 57 H      -13.9910     2.3560     1.2750 H     1 <1>   0.1500 
 58 H      -14.7270     4.3370     0.0180 H     1 <1>   0.1500 
@<TRIPOS>BOND
  1   1   2  2   
  2   2   3  am  
  3   2   4  1   
  4   3   5  1   
  5   3  28  1   
  6   4   6  ar  
  7   4   7  ar  
  8   5   8  1   
  9   5  29  1   
 10   5  30  1   
 11   6   9  ar  
 12   6  31  1   
 13   7  10  ar  
 14   7  32  1   
 15   8  11  1   
 16   8  33  1   
 17   8  34  1   
 18   9  12  ar  
 19   9  35  1   
 20  10  12  ar  
 21  10  36  1   
 22  11  13  1   
 23  12  14  1   
 24  13  37  1   
 25  13  38  1   
 26  13  39  1   
 27  14  15  1   
 28  14  40  1   
 29  14  41  1   
 30  15  16  1   
 31  15  17  1   
 32  15  42  1   
 33  16  18  1   
 34  16  43  1   
 35  16  44  1   
 36  17  19  1   
 37  17  45  1   
 38  17  46  1   
 39  18  20  1   
 40  18  47  1   
 41  18  48  1   
 42  19  20  1   
 43  19  49  1   
 44  19  50  1   
 45  20  21  1   
 46  20  51  1   
 47  21  22  1   
 48  21  52  1   
 49  21  53  1   
 50  22  23  ar  
 51  22  24  ar  
 52  23  25  ar  
 53  23  54  1   
 54  24  26  ar  
 55  24  55  1   
 56  25  27  ar  
 57  25  56  1   
 58  26  27  ar  
 59  26  57  1   
 60  27  58  1   
@<TRIPOS>SUBSTRUCTURE
  1 ****  17 GROUP 4 **** **** 0

# MOE 2024.06 (io_trps.svl 2023.06)
