@<TRIPOS>MOLECULE
NONAME
53 56 1 0 0 
SMALL
USER_CHARGES


@<TRIPOS>ATOM
  1 S       -0.2780    -0.9340     1.7310 S.3   1 <1>  -0.0800 
  2 C        0.4520     0.6610     1.5750 C.2   1 <1>   0.1040 
  3 C       -1.7360    -0.3960     0.9340 C.2   1 <1>  -0.1400 
  4 N        1.7420     0.8790     2.0400 N.am  1 <1>  -0.4940 
  5 C       -0.4010     1.5310     0.9430 C.2   1 <1>  -0.0860 
  6 C       -1.6560     0.8950     0.6000 C.2   1 <1>  -0.1810 
  7 C       -2.9000    -1.3370     0.7020 C.3   1 <1>   0.3000 
  8 C        2.5720     0.1500     2.8580 C.2   1 <1>   0.5690 
  9 C       -0.0710     2.9050     0.6700 C.2   1 <1>   0.8060 
 10 C       -2.8650     1.5190    -0.0840 C.3   1 <1>   0.0210 
 11 O       -3.8440    -0.7130    -0.1360 O.3   1 <1>  -0.5600 
 12 O        2.2590    -0.8940     3.3750 O.2   1 <1>  -0.5700 
 13 C        3.9590     0.7090     3.1610 C.3   1 <1>   0.2010 
 14 O        0.8550     3.4850     1.2100 O.2   1 <1>  -0.5700 
 15 O       -0.8050     3.5830    -0.2200 O.3   1 <1>  -0.4300 
 16 C       -4.1390     0.6430     0.0830 C.3   1 <1>   0.2800 
 17 N        4.8580     0.7000     1.9750 N.am  1 <1>  -0.4200 
 18 C       -0.5240     4.9260    -0.5450 C.3   1 <1>   0.1200 
 19 C       -4.7710     0.7990     1.4750 C.3   1 <1>  -0.2400 
 20 C       -5.1760     1.0110    -0.9780 C.3   1 <1>  -0.2400 
 21 C        5.9480    -0.1120     1.8030 C.2   1 <1>   0.5440 
 22 C        4.7180     1.4820     0.8630 C.2   1 <1>   0.5440 
 23 C       -1.5530     5.3860    -1.5740 C.3   1 <1>  -0.2400 
 24 O        6.3520    -0.8920     2.6380 O.2   1 <1>  -0.5700 
 25 C        6.5170     0.1480     0.5110 C.ar  1 <1>   0.0860 
 26 O        3.8440     2.3130     0.7400 O.2   1 <1>  -0.5700 
 27 C        5.7510     1.1450    -0.0750 C.ar  1 <1>   0.0860 
 28 C        7.6040    -0.3900    -0.1660 C.ar  1 <1>  -0.1500 
 29 C        6.0640     1.6160    -1.3450 C.ar  1 <1>  -0.1500 
 30 C        7.9150     0.0790    -1.4320 C.ar  1 <1>  -0.1500 
 31 C        7.1480     1.0790    -2.0180 C.ar  1 <1>  -0.1500 
 32 H        2.1600     1.7610     1.7010 H     1 <1>   0.3700 
 33 H       -3.3750    -1.5950     1.6310 H     1 <1>   0.0800 
 34 H       -2.5680    -2.2340     0.2110 H     1 <1>   0.0800 
 35 H       -2.6420     1.6410    -1.1280 H     1 <1>   0.0800 
 36 H       -3.0630     2.4920     0.3260 H     1 <1>   0.0800 
 37 H        4.4010     0.1210     3.9470 H     1 <1>   0.0800 
 38 H        3.8570     1.7180     3.5170 H     1 <1>   0.0800 
 39 H        0.4750     4.9790    -0.9460 H     1 <1>   0.0800 
 40 H       -0.5850     5.5170     0.3530 H     1 <1>   0.0800 
 41 H       -4.0510     0.6240     2.2530 H     1 <1>   0.0800 
 42 H       -5.5940     0.1160     1.5890 H     1 <1>   0.0800 
 43 H       -5.1440     1.8000     1.5990 H     1 <1>   0.0800 
 44 H       -4.7730     0.8520    -1.9630 H     1 <1>   0.0800 
 45 H       -5.4580     2.0440    -0.8870 H     1 <1>   0.0800 
 46 H       -6.0570     0.4050    -0.8630 H     1 <1>   0.0800 
 47 H       -1.4880     4.7790    -2.4590 H     1 <1>   0.0800 
 48 H       -1.3610     6.4080    -1.8450 H     1 <1>   0.0800 
 49 H       -2.5440     5.3210    -1.1630 H     1 <1>   0.0800 
 50 H        8.1900    -1.1640     0.3000 H     1 <1>   0.1500 
 51 H        5.4620     2.3910    -1.7890 H     1 <1>   0.1500 
 52 H        8.7560    -0.3320    -1.9650 H     1 <1>   0.1500 
 53 H        7.4000     1.4360    -3.0030 H     1 <1>   0.1500 
@<TRIPOS>BOND
  1   1   2  1   
  2   1   3  1   
  3   2   4  1   
  4   2   5  2   
  5   3   6  2   
  6   3   7  1   
  7   4   8  am  
  8   4  32  1   
  9   5   6  1   
 10   5   9  1   
 11   6  10  1   
 12   7  11  1   
 13   7  33  1   
 14   7  34  1   
 15   8  12  2   
 16   8  13  1   
 17   9  14  2   
 18   9  15  1   
 19  10  16  1   
 20  10  35  1   
 21  10  36  1   
 22  11  16  1   
 23  13  17  1   
 24  13  37  1   
 25  13  38  1   
 26  15  18  1   
 27  16  19  1   
 28  16  20  1   
 29  17  21  am  
 30  17  22  am  
 31  18  23  1   
 32  18  39  1   
 33  18  40  1   
 34  19  41  1   
 35  19  42  1   
 36  19  43  1   
 37  20  44  1   
 38  20  45  1   
 39  20  46  1   
 40  21  24  2   
 41  21  25  1   
 42  22  26  2   
 43  22  27  1   
 44  23  47  1   
 45  23  48  1   
 46  23  49  1   
 47  25  27  ar  
 48  25  28  ar  
 49  27  29  ar  
 50  28  30  ar  
 51  28  50  1   
 52  29  31  ar  
 53  29  51  1   
 54  30  31  ar  
 55  30  52  1   
 56  31  53  1   
@<TRIPOS>SUBSTRUCTURE
  1 ****   4 GROUP 4 **** **** 0

# MOE 2024.06 (io_trps.svl 2023.06)
