@<TRIPOS>MOLECULE
NONAME
31 32 1 0 0 
SMALL
USER_CHARGES


@<TRIPOS>ATOM
  1 O       -0.6450     0.1190    -0.4010 O.co2 1 <1>  -0.9000 
  2 C       -1.7940     0.5170    -0.0940 C.2   1 <1>   0.9060 
  3 O       -2.6800    -0.2060     0.4270 O.co2 1 <1>  -0.9000 
  4 C       -2.0790     2.0410    -0.2760 C.3   1 <1>   0.1140 
  5 N       -3.4340     2.4710    -0.6840 N.am  1 <1>  -0.6600 
  6 C       -1.8280     2.7990     1.0380 C.3   1 <1>  -0.1600 
  7 C       -4.0710     1.9790    -1.7920 C.2   1 <1>   0.5690 
  8 C       -3.9810     3.4050     0.2790 C.3   1 <1>   0.1400 
  9 C       -2.7520     4.0140     0.9460 C.3   1 <1>  -0.1600 
 10 O       -3.4670     1.4520    -2.6980 O.2   1 <1>  -0.5700 
 11 C       -5.5760     2.1480    -1.9720 C.3   1 <1>   0.0440 
 12 C       -6.4460     1.7400    -0.7820 C.ar  1 <1>  -0.1440 
 13 C       -7.6280     2.4200    -0.5230 C.ar  1 <1>  -0.1500 
 14 C       -6.0750     0.6930     0.0490 C.ar  1 <1>  -0.1500 
 15 C       -8.4240     2.0620     0.5520 C.ar  1 <1>  -0.1500 
 16 C       -6.8670     0.3360     1.1250 C.ar  1 <1>  -0.1500 
 17 C       -8.0430     1.0190     1.3780 C.ar  1 <1>  -0.1500 
 18 H       -1.3740     2.3970    -1.0270 H     1 <1>   0.0800 
 19 H       -2.1310     2.1680     1.8760 H     1 <1>   0.0800 
 20 H       -0.7790     3.0790     1.1350 H     1 <1>   0.0800 
 21 H       -4.5840     4.1790    -0.1980 H     1 <1>   0.0800 
 22 H       -4.5750     2.8610     1.0180 H     1 <1>   0.0800 
 23 H       -2.3130     4.7690     0.2920 H     1 <1>   0.0800 
 24 H       -2.9850     4.4250     1.9280 H     1 <1>   0.0800 
 25 H       -5.7560     3.1760    -2.2200 H     1 <1>   0.0800 
 26 H       -5.8760     1.5570    -2.8170 H     1 <1>   0.0800 
 27 H       -7.9350     3.2310    -1.1590 H     1 <1>   0.1500 
 28 H       -5.1570     0.1490    -0.1260 H     1 <1>   0.1500 
 29 H       -9.3380     2.5940     0.7450 H     1 <1>   0.1500 
 30 H       -6.5540    -0.4750     1.7600 H     1 <1>   0.1500 
 31 H       -8.6570     0.7390     2.2150 H     1 <1>   0.1500 
@<TRIPOS>BOND
  1   1   2  ar  
  2   2   3  ar  
  3   2   4  1   
  4   4   5  1   
  5   4   6  1   
  6   4  18  1   
  7   5   7  am  
  8   5   8  1   
  9   6   9  1   
 10   6  19  1   
 11   6  20  1   
 12   7  10  2   
 13   7  11  1   
 14   8   9  1   
 15   8  21  1   
 16   8  22  1   
 17   9  23  1   
 18   9  24  1   
 19  11  12  1   
 20  11  25  1   
 21  11  26  1   
 22  12  13  ar  
 23  12  14  ar  
 24  13  15  ar  
 25  13  27  1   
 26  14  16  ar  
 27  14  28  1   
 28  15  17  ar  
 29  15  29  1   
 30  16  17  ar  
 31  16  30  1   
 32  17  31  1   
@<TRIPOS>SUBSTRUCTURE
  1 ****   5 GROUP 4 **** **** 0

# MOE 2024.06 (io_trps.svl 2023.06)
