@<TRIPOS>MOLECULE
NONAME
51 54 1 0 0 
SMALL
USER_CHARGES


@<TRIPOS>ATOM
  1 O       -3.0120    -0.7660     1.5050 O.2   1 <1>  -0.5700 
  2 C       -3.0570    -1.0930     0.3430 C.2   1 <1>   0.5690 
  3 N       -4.1700    -1.6520    -0.2030 N.am  1 <1>  -0.7300 
  4 C       -1.8170    -0.8980    -0.5390 C.3   1 <1>   0.1710 
  5 C       -5.4200    -1.9490     0.5280 C.3   1 <1>   0.2200 
  6 N       -0.7440    -1.9190    -0.3410 N.3   1 <1>  -0.8100 
  7 C       -5.5960    -3.4750     0.6770 C.3   1 <1>  -0.0800 
  8 C       -6.6320    -1.3620    -0.2270 C.3   1 <1>  -0.0800 
  9 C       -1.2070    -3.3170    -0.5230 C.3   1 <1>   0.1100 
 10 C        0.4680    -1.6410    -1.1430 C.3   1 <1>   0.1100 
 11 C       -6.8670    -3.7400     1.5100 C.3   1 <1>  -0.1600 
 12 C       -5.7650    -4.1480    -0.7050 C.3   1 <1>  -0.1600 
 13 C       -7.9010    -1.6300     0.6080 C.3   1 <1>  -0.1600 
 14 C       -6.8030    -2.0360    -1.6080 C.3   1 <1>  -0.1600 
 15 C       -0.0790    -4.3450    -0.2550 C.3   1 <1>   0.3430 
 16 C        1.6110    -2.6410    -0.8290 C.3   1 <1>   0.3430 
 17 C       -8.0990    -3.1480     0.7970 C.3   1 <1>  -0.0800 
 18 C       -6.9880    -3.5560    -1.4340 C.3   1 <1>  -0.0800 
 19 N        1.1800    -3.6580     0.1870 N.4   1 <1>  -0.9590 
 20 C       -8.2480    -3.8120    -0.5850 C.3   1 <1>  -0.1600 
 21 C        2.2640    -4.5960     0.5960 C.3   1 <1>   0.2630 
 22 H       -4.2090    -1.8970    -1.1900 H     1 <1>   0.3700 
 23 H       -1.4170     0.0730    -0.3090 H     1 <1>   0.0800 
 24 H       -2.1230    -0.8910    -1.5690 H     1 <1>   0.0800 
 25 H       -5.3680    -1.5030     1.5080 H     1 <1>   0.0800 
 26 H       -4.7460    -3.8840     1.1930 H     1 <1>   0.0800 
 27 H       -6.5030    -0.3000    -0.3410 H     1 <1>   0.0800 
 28 H       -1.5860    -3.4540    -1.5220 H     1 <1>   0.0800 
 29 H       -2.0150    -3.5200     0.1610 H     1 <1>   0.0800 
 30 H        0.8140    -0.6430    -0.9320 H     1 <1>   0.0800 
 31 H        0.2320    -1.6880    -2.1930 H     1 <1>   0.0800 
 32 H       -6.7630    -3.2960     2.4850 H     1 <1>   0.0800 
 33 H       -7.0000    -4.7990     1.6480 H     1 <1>   0.0800 
 34 H       -5.9020    -5.2080    -0.5760 H     1 <1>   0.0800 
 35 H       -4.8810    -4.0100    -1.3020 H     1 <1>   0.0800 
 36 H       -8.7600    -1.2100     0.1140 H     1 <1>   0.0800 
 37 H       -7.8140    -1.1520     1.5690 H     1 <1>   0.0800 
 38 H       -7.6640    -1.6240    -2.1050 H     1 <1>   0.0800 
 39 H       -5.9520    -1.8380    -2.2340 H     1 <1>   0.0800 
 40 H        0.1060    -4.9110    -1.1520 H     1 <1>   0.0800 
 41 H       -0.4100    -5.0320     0.5060 H     1 <1>   0.0800 
 42 H        2.4600    -2.0910    -0.4570 H     1 <1>   0.0800 
 43 H        1.9120    -3.1320    -1.7390 H     1 <1>   0.0800 
 44 H       -8.9830    -3.3300     1.3850 H     1 <1>   0.0800 
 45 H       -7.1010    -4.0240    -2.3970 H     1 <1>   0.0800 
 46 H        0.8670    -3.0820     0.9900 H     1 <1>   0.4500 
 47 H       -9.1130    -3.4150    -1.0880 H     1 <1>   0.0800 
 48 H       -8.3990    -4.8710    -0.4650 H     1 <1>   0.0800 
 49 H        2.5800    -5.1920    -0.2440 H     1 <1>   0.0800 
 50 H        1.9140    -5.2530     1.3760 H     1 <1>   0.0800 
 51 H        3.1120    -4.0450     0.9700 H     1 <1>   0.0800 
@<TRIPOS>BOND
  1   1   2  2   
  2   2   3  am  
  3   2   4  1   
  4   3   5  1   
  5   3  22  1   
  6   4   6  1   
  7   4  23  1   
  8   4  24  1   
  9   5   7  1   
 10   5   8  1   
 11   5  25  1   
 12   6   9  1   
 13   6  10  1   
 14   7  11  1   
 15   7  12  1   
 16   7  26  1   
 17   8  13  1   
 18   8  14  1   
 19   8  27  1   
 20   9  15  1   
 21   9  28  1   
 22   9  29  1   
 23  10  16  1   
 24  10  30  1   
 25  10  31  1   
 26  11  17  1   
 27  11  32  1   
 28  11  33  1   
 29  12  18  1   
 30  12  34  1   
 31  12  35  1   
 32  13  17  1   
 33  13  36  1   
 34  13  37  1   
 35  14  18  1   
 36  14  38  1   
 37  14  39  1   
 38  15  19  1   
 39  15  40  1   
 40  15  41  1   
 41  16  19  1   
 42  16  42  1   
 43  16  43  1   
 44  17  20  1   
 45  17  44  1   
 46  18  20  1   
 47  18  45  1   
 48  19  21  1   
 49  19  46  1   
 50  20  47  1   
 51  20  48  1   
 52  21  49  1   
 53  21  50  1   
 54  21  51  1   
@<TRIPOS>SUBSTRUCTURE
  1 ****   3 GROUP 4 **** **** 0

# MOE 2024.06 (io_trps.svl 2023.06)
