@<TRIPOS>MOLECULE
NONAME
36 37 1 0 0 
SMALL
USER_CHARGES


@<TRIPOS>ATOM
  1 O        0.4730     0.8680     1.6200 O.2   1 <1>  -0.5700 
  2 C       -0.3560     0.2060     1.0480 C.2   1 <1>   0.4230 
  3 C       -1.4330     0.7630     0.2540 C.ar  1 <1>   0.0860 
  4 C       -0.2150    -1.3080     1.1810 C.3   1 <1>  -0.0990 
  5 C       -1.2760     1.9160    -0.5360 C.ar  1 <1>   0.0830 
  6 C       -2.7000     0.1680     0.2460 C.ar  1 <1>  -0.1500 
  7 C       -0.0280    -2.0140    -0.1720 C.3   1 <1>  -0.2400 
  8 O       -0.1070     2.5780    -0.6160 O.3   1 <1>  -0.3630 
  9 C       -2.3320     2.4390    -1.2660 C.ar  1 <1>  -0.1500 
 10 C       -3.7490     0.6820    -0.4920 C.ar  1 <1>  -0.1500 
 11 C        0.9290     2.0180    -1.3900 C.3   1 <1>   0.1200 
 12 C       -3.5680     1.8250    -1.2510 C.ar  1 <1>  -0.1500 
 13 C        2.2160     2.7930    -1.1060 C.3   1 <1>  -0.1600 
 14 C        2.6090     2.7060     0.3780 C.3   1 <1>   0.0960 
 15 N        3.8220     3.4990     0.6510 N.pl3 1 <1>   0.3140 
 16 N        5.0230     3.1860     0.1790 N.2   1 <1>  -0.7070 
 17 C        3.9290     4.6180     1.3730 C.2   1 <1>   0.0360 
 18 C        5.7620     4.1350     0.6510 C.2   1 <1>   0.3660 
 19 N        5.1370     5.0530     1.3990 N.2   1 <1>  -0.5650 
 20 H       -1.0680    -1.7090     1.6940 H     1 <1>   0.0800 
 21 H        0.6450    -1.5150     1.7940 H     1 <1>   0.0800 
 22 H       -2.8830    -0.7120     0.8360 H     1 <1>   0.1500 
 23 H       -0.8850    -1.8680    -0.8050 H     1 <1>   0.0800 
 24 H        0.1060    -3.0700    -0.0190 H     1 <1>   0.0800 
 25 H        0.8430    -1.6300    -0.6730 H     1 <1>   0.0800 
 26 H       -2.1790     3.3320    -1.8460 H     1 <1>   0.1500 
 27 H       -4.7120     0.2010    -0.4760 H     1 <1>   0.1500 
 28 H        0.6520     2.0980    -2.4270 H     1 <1>   0.0800 
 29 H        1.0460     0.9820    -1.1270 H     1 <1>   0.0800 
 30 H       -4.3850     2.2310    -1.8220 H     1 <1>   0.1500 
 31 H        2.0760     3.8210    -1.3920 H     1 <1>   0.0800 
 32 H        3.0080     2.3800    -1.7050 H     1 <1>   0.0800 
 33 H        2.8060     1.6850     0.6500 H     1 <1>   0.0800 
 34 H        1.8120     3.0730     0.9990 H     1 <1>   0.0800 
 35 H        3.0900     5.0780     1.8640 H     1 <1>   0.1500 
 36 H        6.8220     4.2050     0.4680 H     1 <1>   0.1500 
@<TRIPOS>BOND
  1   1   2  2   
  2   2   3  1   
  3   2   4  1   
  4   3   5  ar  
  5   3   6  ar  
  6   4   7  1   
  7   4  20  1   
  8   4  21  1   
  9   5   8  1   
 10   5   9  ar  
 11   6  10  ar  
 12   6  22  1   
 13   7  23  1   
 14   7  24  1   
 15   7  25  1   
 16   8  11  1   
 17   9  12  ar  
 18   9  26  1   
 19  10  12  ar  
 20  10  27  1   
 21  11  13  1   
 22  11  28  1   
 23  11  29  1   
 24  12  30  1   
 25  13  14  1   
 26  13  31  1   
 27  13  32  1   
 28  14  15  1   
 29  14  33  1   
 30  14  34  1   
 31  15  16  1   
 32  15  17  1   
 33  16  18  2   
 34  17  19  2   
 35  17  35  1   
 36  18  19  1   
 37  18  36  1   
@<TRIPOS>SUBSTRUCTURE
  1 ****   8 GROUP 4 **** **** 0

# MOE 2024.06 (io_trps.svl 2023.06)
