@<TRIPOS>MOLECULE
NONAME
48 51 1 0 0 
SMALL
USER_CHARGES


@<TRIPOS>ATOM
  1 O        1.0300     1.5020     2.4780 O.2   1 <1>  -0.5700 
  2 C        0.4920     1.8920     1.4760 C.2   1 <1>   0.4230 
  3 C        1.1350     2.6380     0.4310 C.ar  1 <1>   0.0860 
  4 C       -0.9800     1.5990     1.2990 C.3   1 <1>  -0.0990 
  5 C        0.3540     3.2480    -0.5560 C.ar  1 <1>   0.0820 
  6 C        2.5200     2.7820     0.3520 C.ar  1 <1>  -0.1500 
  7 C       -1.6860     2.8040     0.6630 C.3   1 <1>   0.2800 
  8 O       -0.9980     3.1930    -0.5150 O.3   1 <1>  -0.3630 
  9 C        0.9450     3.9400    -1.6000 C.ar  1 <1>  -0.1500 
 10 C        3.1140     3.4840    -0.6810 C.ar  1 <1>  -0.1440 
 11 C       -1.7310     4.0230     1.5990 C.3   1 <1>  -0.1600 
 12 C       -3.1130     2.4470     0.2350 C.3   1 <1>  -0.1600 
 13 C        2.3200     4.0590    -1.6620 C.ar  1 <1>  -0.1500 
 14 C        4.6230     3.6280    -0.7570 C.3   1 <1>  -0.0970 
 15 C       -2.4270     5.2030     0.9250 C.3   1 <1>   0.3430 
 16 C       -3.8020     3.6410    -0.4220 C.3   1 <1>   0.3430 
 17 N       -3.8040     4.8080     0.5120 N.4   1 <1>  -0.9590 
 18 C       -4.5390     5.9620    -0.0760 C.3   1 <1>   0.4860 
 19 C       -5.9950     5.5710    -0.2260 C.ar  1 <1>  -0.1430 
 20 C       -6.8170     5.4910     0.8900 C.ar  1 <1>  -0.1500 
 21 C       -6.5160     5.2830    -1.4800 C.ar  1 <1>  -0.1500 
 22 C       -8.1400     5.1110     0.7540 C.ar  1 <1>  -0.1500 
 23 C       -7.8400     4.9040    -1.6130 C.ar  1 <1>  -0.1500 
 24 C       -8.6510     4.8160    -0.4970 C.ar  1 <1>  -0.1500 
 25 H       -1.4170     1.3700     2.2540 H     1 <1>   0.0800 
 26 H       -1.0820     0.7320     0.6730 H     1 <1>   0.0800 
 27 H        3.1280     2.3260     1.1160 H     1 <1>   0.1500 
 28 H        0.3320     4.3860    -2.3620 H     1 <1>   0.1500 
 29 H       -0.7360     4.3200     1.8780 H     1 <1>   0.0800 
 30 H       -2.2490     3.7730     2.5080 H     1 <1>   0.0800 
 31 H       -3.6880     2.1220     1.0840 H     1 <1>   0.0800 
 32 H       -3.0850     1.6300    -0.4650 H     1 <1>   0.0800 
 33 H        2.7770     4.6000    -2.4740 H     1 <1>   0.1500 
 34 H        4.9920     3.1590    -1.6510 H     1 <1>   0.0800 
 35 H        5.0980     3.1680     0.0920 H     1 <1>   0.0800 
 36 H        4.8920     4.6690    -0.7740 H     1 <1>   0.0800 
 37 H       -1.8570     5.5010     0.0580 H     1 <1>   0.0800 
 38 H       -2.4670     6.0360     1.6090 H     1 <1>   0.0800 
 39 H       -4.8140     3.3710    -0.6820 H     1 <1>   0.0800 
 40 H       -3.2780     3.9000    -1.3280 H     1 <1>   0.0800 
 41 H       -4.3390     4.5290     1.3440 H     1 <1>   0.4500 
 42 H       -4.1230     6.2220    -1.0360 H     1 <1>   0.0800 
 43 H       -4.4680     6.8200     0.5730 H     1 <1>   0.0800 
 44 H       -6.4470     5.7240     1.8740 H     1 <1>   0.1500 
 45 H       -5.9070     5.3500    -2.3650 H     1 <1>   0.1500 
 46 H       -8.7790     5.0480     1.6190 H     1 <1>   0.1500 
 47 H       -8.2450     4.6800    -2.5860 H     1 <1>   0.1500 
 48 H       -9.6820     4.5210    -0.6020 H     1 <1>   0.1500 
@<TRIPOS>BOND
  1   1   2  2   
  2   2   3  1   
  3   2   4  1   
  4   3   5  ar  
  5   3   6  ar  
  6   4   7  1   
  7   4  25  1   
  8   4  26  1   
  9   5   8  1   
 10   5   9  ar  
 11   6  10  ar  
 12   6  27  1   
 13   7   8  1   
 14   7  11  1   
 15   7  12  1   
 16   9  13  ar  
 17   9  28  1   
 18  10  13  ar  
 19  10  14  1   
 20  11  15  1   
 21  11  29  1   
 22  11  30  1   
 23  12  16  1   
 24  12  31  1   
 25  12  32  1   
 26  13  33  1   
 27  14  34  1   
 28  14  35  1   
 29  14  36  1   
 30  15  17  1   
 31  15  37  1   
 32  15  38  1   
 33  16  17  1   
 34  16  39  1   
 35  16  40  1   
 36  17  18  1   
 37  17  41  1   
 38  18  19  1   
 39  18  42  1   
 40  18  43  1   
 41  19  20  ar  
 42  19  21  ar  
 43  20  22  ar  
 44  20  44  1   
 45  21  23  ar  
 46  21  45  1   
 47  22  24  ar  
 48  22  46  1   
 49  23  24  ar  
 50  23  47  1   
 51  24  48  1   
@<TRIPOS>SUBSTRUCTURE
  1 ****   7 GROUP 4 **** **** 0

# MOE 2024.06 (io_trps.svl 2023.06)
