@<TRIPOS>MOLECULE
NONAME
53 55 1 0 0 
SMALL
USER_CHARGES


@<TRIPOS>ATOM
  1 O       -1.7930     0.8670    -2.3790 O.2   1 <1>  -0.5700 
  2 C       -1.2310     1.4870    -1.5130 C.2   1 <1>   0.5690 
  3 N       -1.7640     1.7190    -0.2770 N.am  1 <1>  -0.5470 
  4 C        0.1330     2.0610    -1.8010 C.3   1 <1>  -0.1790 
  5 C       -2.9840     1.2830     0.2600 C.ar  1 <1>   0.1170 
  6 C       -3.5600     0.0700    -0.0980 C.ar  1 <1>  -0.1500 
  7 C       -3.6410     2.0740     1.1930 C.ar  1 <1>  -0.1500 
  8 C       -4.7650    -0.3350     0.4440 C.ar  1 <1>  -0.1500 
  9 C       -4.8500     1.6780     1.7370 C.ar  1 <1>  -0.1500 
 10 C       -5.4260     0.4730     1.3590 C.ar  1 <1>  -0.1430 
 11 C       -6.7650     0.0480     1.9290 C.3   1 <1>   0.4860 
 12 N       -7.7910     0.1430     0.8550 N.4   1 <1>  -0.9590 
 13 C       -7.9290     1.5540     0.3310 C.3   1 <1>   0.3430 
 14 C       -9.1230    -0.4040     1.3010 C.3   1 <1>   0.3430 
 15 C       -8.9960     1.6850    -0.7770 C.3   1 <1>   0.2090 
 16 C      -10.1910    -0.3420     0.1900 C.3   1 <1>   0.2090 
 17 N      -10.2800     1.0240    -0.3970 N.pl3 1 <1>  -0.8380 
 18 C      -11.3660     1.8130    -0.0120 C.ar  1 <1>   0.1000 
 19 C      -12.5850     1.7620    -0.6970 C.ar  1 <1>  -0.1430 
 20 C      -11.2420     2.6510     1.0910 C.ar  1 <1>  -0.1500 
 21 C      -13.6600     2.5280    -0.2520 C.ar  1 <1>  -0.1430 
 22 C      -12.7360     0.8650    -1.9270 C.3   1 <1>  -0.0970 
 23 C      -12.3030     3.4200     1.5200 C.ar  1 <1>  -0.1500 
 24 C      -13.5090     3.3550     0.8510 C.ar  1 <1>  -0.1500 
 25 C      -15.0200     2.4960    -0.9390 C.3   1 <1>  -0.0970 
 26 H       -1.2130     2.3270     0.3250 H     1 <1>   0.3700 
 27 H        0.0950     3.1330    -1.7620 H     1 <1>   0.0800 
 28 H        0.4510     1.7610    -2.7830 H     1 <1>   0.0800 
 29 H        0.8430     1.6970    -1.0820 H     1 <1>   0.0800 
 30 H       -3.0570    -0.5660    -0.8070 H     1 <1>   0.1500 
 31 H       -3.2050     3.0110     1.4900 H     1 <1>   0.1500 
 32 H       -5.1700    -1.2850     0.1400 H     1 <1>   0.1500 
 33 H       -5.3300     2.3200     2.4570 H     1 <1>   0.1500 
 34 H       -7.0320     0.6850     2.7570 H     1 <1>   0.0800 
 35 H       -6.6930    -0.9670     2.2860 H     1 <1>   0.0800 
 36 H       -7.4560    -0.4240     0.0670 H     1 <1>   0.4500 
 37 H       -6.9830     1.8960    -0.0590 H     1 <1>   0.0800 
 38 H       -8.2040     2.2110     1.1380 H     1 <1>   0.0800 
 39 H       -9.4860     0.1680     2.1390 H     1 <1>   0.0800 
 40 H       -9.0150    -1.4270     1.6210 H     1 <1>   0.0800 
 41 H       -8.6300     1.2400    -1.6860 H     1 <1>   0.0800 
 42 H       -9.1760     2.7280    -0.9800 H     1 <1>   0.0800 
 43 H      -11.1490    -0.6180     0.5990 H     1 <1>   0.0800 
 44 H       -9.9530    -1.0450    -0.5890 H     1 <1>   0.0800 
 45 H      -10.3150     2.7040     1.6240 H     1 <1>   0.1500 
 46 H      -11.7900     0.6910    -2.4040 H     1 <1>   0.0800 
 47 H      -13.3740     1.3200    -2.6620 H     1 <1>   0.0800 
 48 H      -13.1550    -0.0800    -1.6370 H     1 <1>   0.0800 
 49 H      -12.2000     4.0680     2.3730 H     1 <1>   0.1500 
 50 H      -14.3330     3.9560     1.1960 H     1 <1>   0.1500 
 51 H      -15.3420     1.4810    -1.0800 H     1 <1>   0.0800 
 52 H      -14.9580     2.9840    -1.8950 H     1 <1>   0.0800 
 53 H      -15.7630     3.0010    -0.3480 H     1 <1>   0.0800 
@<TRIPOS>BOND
  1   1   2  2   
  2   2   3  am  
  3   2   4  1   
  4   3   5  1   
  5   3  26  1   
  6   4  27  1   
  7   4  28  1   
  8   4  29  1   
  9   5   6  ar  
 10   5   7  ar  
 11   6   8  ar  
 12   6  30  1   
 13   7   9  ar  
 14   7  31  1   
 15   8  10  ar  
 16   8  32  1   
 17   9  10  ar  
 18   9  33  1   
 19  10  11  1   
 20  11  12  1   
 21  11  34  1   
 22  11  35  1   
 23  12  13  1   
 24  12  14  1   
 25  12  36  1   
 26  13  15  1   
 27  13  37  1   
 28  13  38  1   
 29  14  16  1   
 30  14  39  1   
 31  14  40  1   
 32  15  17  1   
 33  15  41  1   
 34  15  42  1   
 35  16  17  1   
 36  16  43  1   
 37  16  44  1   
 38  17  18  1   
 39  18  19  ar  
 40  18  20  ar  
 41  19  21  ar  
 42  19  22  1   
 43  20  23  ar  
 44  20  45  1   
 45  21  24  ar  
 46  21  25  1   
 47  22  46  1   
 48  22  47  1   
 49  22  48  1   
 50  23  24  ar  
 51  23  49  1   
 52  24  50  1   
 53  25  51  1   
 54  25  52  1   
 55  25  53  1   
@<TRIPOS>SUBSTRUCTURE
  1 ****  13 GROUP 4 **** **** 0

# MOE 2024.06 (io_trps.svl 2023.06)
