@<TRIPOS>MOLECULE
NONAME
34 33 1 0 0 
SMALL
USER_CHARGES


@<TRIPOS>ATOM
  1 O        0.2290    -1.4570     2.1520 O.2   1 <1>  -0.5700 
  2 C       -0.0270    -1.9160     1.0740 C.2   1 <1>   0.4480 
  3 C       -1.3020    -1.5030     0.2900 C.3   1 <1>   0.3410 
  4 C        0.9280    -2.9290     0.4680 C.3   1 <1>  -0.0380 
  5 O       -1.7000    -2.5910    -0.5150 O.3   1 <1>  -0.5600 
  6 C       -2.4620    -1.2200     1.2590 C.3   1 <1>  -0.2400 
  7 C       -1.0130    -0.2490    -0.5570 C.3   1 <1>  -0.2400 
  8 C        1.7170    -2.3290    -0.6800 C.2   1 <1>   0.4480 
  9 C       -2.5820    -2.3950    -1.5810 C.3   1 <1>   0.0400 
 10 O        1.2930    -2.4340    -1.7940 O.2   1 <1>  -0.5700 
 11 C        3.0780    -1.6410    -0.3930 C.3   1 <1>   0.0610 
 12 C        4.1480    -2.7030    -0.0820 C.3   1 <1>  -0.2400 
 13 C        3.0040    -0.6560     0.7880 C.3   1 <1>  -0.2400 
 14 C        3.5540    -0.8420    -1.6230 C.3   1 <1>  -0.2400 
 15 H        0.3780    -3.7790     0.1110 H     1 <1>   0.0800 
 16 H        1.5970    -3.2810     1.2280 H     1 <1>   0.0800 
 17 H       -2.1860    -0.4350     1.9400 H     1 <1>   0.0800 
 18 H       -2.6800    -2.1010     1.8350 H     1 <1>   0.0800 
 19 H       -3.3460    -0.9070     0.7370 H     1 <1>   0.0800 
 20 H       -0.5850     0.5140     0.0690 H     1 <1>   0.0800 
 21 H       -1.9130     0.1510    -0.9850 H     1 <1>   0.0800 
 22 H       -0.3140    -0.4670    -1.3430 H     1 <1>   0.0800 
 23 H       -3.4600    -1.8720    -1.2470 H     1 <1>   0.0800 
 24 H       -2.8640    -3.3630    -1.9580 H     1 <1>   0.0800 
 25 H       -2.0830    -1.8480    -2.3620 H     1 <1>   0.0800 
 26 H        3.9050    -3.2500     0.8110 H     1 <1>   0.0800 
 27 H        5.1100    -2.2420     0.0600 H     1 <1>   0.0800 
 28 H        4.2250    -3.4020    -0.8970 H     1 <1>   0.0800 
 29 H        2.8020    -1.1670     1.7120 H     1 <1>   0.0800 
 30 H        2.2300     0.0720     0.6240 H     1 <1>   0.0800 
 31 H        3.9370    -0.1330     0.9060 H     1 <1>   0.0800 
 32 H        3.6690    -1.4930    -2.4730 H     1 <1>   0.0800 
 33 H        4.4970    -0.3620    -1.4350 H     1 <1>   0.0800 
 34 H        2.8310    -0.0870    -1.8790 H     1 <1>   0.0800 
@<TRIPOS>BOND
  1   1   2  2   
  2   2   3  1   
  3   2   4  1   
  4   3   5  1   
  5   3   6  1   
  6   3   7  1   
  7   4   8  1   
  8   4  15  1   
  9   4  16  1   
 10   5   9  1   
 11   6  17  1   
 12   6  18  1   
 13   6  19  1   
 14   7  20  1   
 15   7  21  1   
 16   7  22  1   
 17   8  10  2   
 18   8  11  1   
 19   9  23  1   
 20   9  24  1   
 21   9  25  1   
 22  11  12  1   
 23  11  13  1   
 24  11  14  1   
 25  12  26  1   
 26  12  27  1   
 27  12  28  1   
 28  13  29  1   
 29  13  30  1   
 30  13  31  1   
 31  14  32  1   
 32  14  33  1   
 33  14  34  1   
@<TRIPOS>SUBSTRUCTURE
  1 ****   4 GROUP 4 **** **** 0

# MOE 2024.06 (io_trps.svl 2023.06)
