@<TRIPOS>MOLECULE
NONAME
54 56 1 0 0 
SMALL
USER_CHARGES


@<TRIPOS>ATOM
  1 O       -1.6050     1.3200     1.5930 O.3   1 <1>  -0.3630 
  2 C       -2.3070     1.3090     0.4240 C.ar  1 <1>   0.0830 
  3 C       -0.2010     1.4510     1.6430 C.3   1 <1>   0.0400 
  4 C       -1.8660     1.7630    -0.8310 C.ar  1 <1>   0.0830 
  5 C       -3.5840     0.7880     0.5480 C.ar  1 <1>  -0.1500 
  6 O       -0.6190     2.3010    -0.9690 O.3   1 <1>  -0.3630 
  7 C       -2.7300     1.6660    -1.9200 C.ar  1 <1>  -0.1500 
  8 C       -4.4430     0.7100    -0.5360 C.ar  1 <1>  -0.1430 
  9 C       -0.0820     2.6720    -2.2200 C.3   1 <1>   0.0400 
 10 C       -4.0040     1.1460    -1.7750 C.ar  1 <1>  -0.1500 
 11 C       -5.8470     0.1670    -0.3560 C.3   1 <1>   0.4860 
 12 N       -6.6140     1.1220     0.4880 N.4   1 <1>  -0.9590 
 13 C       -7.9720     0.5860     0.8610 C.3   1 <1>   0.3430 
 14 C       -6.7240     2.4840    -0.1600 C.3   1 <1>   0.3430 
 15 C       -8.7680     1.5570     1.7580 C.3   1 <1>   0.2090 
 16 C       -7.5010     3.4960     0.7070 C.3   1 <1>   0.2090 
 17 N       -8.7980     2.9340     1.1880 N.pl3 1 <1>  -0.8380 
 18 C       -9.9620     3.3310     0.5310 C.ar  1 <1>   0.1000 
 19 C      -10.8780     4.1770     1.1550 C.ar  1 <1>  -0.1430 
 20 C      -10.2270     2.8850    -0.7600 C.ar  1 <1>  -0.1500 
 21 C      -12.0300     4.5550     0.4860 C.ar  1 <1>  -0.1500 
 22 C      -10.6280     4.6930     2.5660 C.3   1 <1>  -0.0970 
 23 C      -11.3770     3.2630    -1.4280 C.ar  1 <1>  -0.1430 
 24 C      -12.2790     4.1020    -0.7970 C.ar  1 <1>  -0.1500 
 25 C      -11.6680     2.7770    -2.8370 C.3   1 <1>  -0.0970 
 26 H        0.1230     1.2170     2.6400 H     1 <1>   0.0800 
 27 H        0.0620     2.4660     1.4050 H     1 <1>   0.0800 
 28 H        0.2410     0.7660     0.9420 H     1 <1>   0.0800 
 29 H       -3.8830     0.4420     1.5220 H     1 <1>   0.1500 
 30 H       -2.4300     1.9940    -2.8980 H     1 <1>   0.1500 
 31 H        0.9240     3.0180    -2.0620 H     1 <1>   0.0800 
 32 H       -0.6760     3.4660    -2.6360 H     1 <1>   0.0800 
 33 H       -0.0730     1.8130    -2.8670 H     1 <1>   0.0800 
 34 H       -4.6420     1.0870    -2.6420 H     1 <1>   0.1500 
 35 H       -5.7950    -0.7960     0.1250 H     1 <1>   0.0800 
 36 H       -6.3230     0.0480    -1.3150 H     1 <1>   0.0800 
 37 H       -6.0740     1.2600     1.3510 H     1 <1>   0.4500 
 38 H       -7.8700    -0.3560     1.3740 H     1 <1>   0.0800 
 39 H       -8.5490     0.4130    -0.0330 H     1 <1>   0.0800 
 40 H       -7.2330     2.3940    -1.1040 H     1 <1>   0.0800 
 41 H       -5.7410     2.8800    -0.3540 H     1 <1>   0.0800 
 42 H       -8.3280     1.5930     2.7390 H     1 <1>   0.0800 
 43 H       -9.7770     1.1960     1.8680 H     1 <1>   0.0800 
 44 H       -7.6900     4.3870     0.1330 H     1 <1>   0.0800 
 45 H       -6.9060     3.7790     1.5570 H     1 <1>   0.0800 
 46 H       -9.5280     2.2360    -1.2450 H     1 <1>   0.1500 
 47 H      -12.7430     5.2070     0.9580 H     1 <1>   0.1500 
 48 H      -10.5750     3.8670     3.2510 H     1 <1>   0.0800 
 49 H      -11.4150     5.3530     2.8840 H     1 <1>   0.0800 
 50 H       -9.6980     5.2300     2.5970 H     1 <1>   0.0800 
 51 H      -13.1800     4.4070    -1.3020 H     1 <1>   0.1500 
 52 H      -10.8980     2.1160    -3.1880 H     1 <1>   0.0800 
 53 H      -11.7310     3.6170    -3.5060 H     1 <1>   0.0800 
 54 H      -12.6060     2.2510    -2.8550 H     1 <1>   0.0800 
@<TRIPOS>BOND
  1   1   2  1   
  2   1   3  1   
  3   2   4  ar  
  4   2   5  ar  
  5   3  26  1   
  6   3  27  1   
  7   3  28  1   
  8   4   6  1   
  9   4   7  ar  
 10   5   8  ar  
 11   5  29  1   
 12   6   9  1   
 13   7  10  ar  
 14   7  30  1   
 15   8  10  ar  
 16   8  11  1   
 17   9  31  1   
 18   9  32  1   
 19   9  33  1   
 20  10  34  1   
 21  11  12  1   
 22  11  35  1   
 23  11  36  1   
 24  12  13  1   
 25  12  14  1   
 26  12  37  1   
 27  13  15  1   
 28  13  38  1   
 29  13  39  1   
 30  14  16  1   
 31  14  40  1   
 32  14  41  1   
 33  15  17  1   
 34  15  42  1   
 35  15  43  1   
 36  16  17  1   
 37  16  44  1   
 38  16  45  1   
 39  17  18  1   
 40  18  19  ar  
 41  18  20  ar  
 42  19  21  ar  
 43  19  22  1   
 44  20  23  ar  
 45  20  46  1   
 46  21  24  ar  
 47  21  47  1   
 48  22  48  1   
 49  22  49  1   
 50  22  50  1   
 51  23  24  ar  
 52  23  25  1   
 53  24  51  1   
 54  25  52  1   
 55  25  53  1   
 56  25  54  1   
@<TRIPOS>SUBSTRUCTURE
  1 ****  14 GROUP 4 **** **** 0

# MOE 2024.06 (io_trps.svl 2023.06)
