@<TRIPOS>MOLECULE
NONAME
57 60 1 0 0 
SMALL
USER_CHARGES


@<TRIPOS>ATOM
  1 S        0.7590     0.2360    -0.2170 S.o2  1 <1>   1.4470 
  2 O        1.7630    -0.5670     0.4430 O.2   1 <1>  -0.6500 
  3 O        1.0920     0.9450    -1.4330 O.2   1 <1>  -0.6500 
  4 N        0.3350     1.4750     0.9140 N.am  1 <1>  -0.6930 
  5 C       -0.7850    -0.7010    -0.3800 C.ar  1 <1>  -0.0090 
  6 C       -0.7430     2.3220     0.6990 C.ar  1 <1>   0.1990 
  7 C        1.3600     1.8540     1.9370 C.3   1 <1>   0.2570 
  8 C       -1.8230    -0.2380    -1.1800 C.ar  1 <1>  -0.1500 
  9 C       -0.9830    -1.8900     0.3130 C.ar  1 <1>  -0.1500 
 10 C       -0.7240     3.2820    -0.3060 C.ar  1 <1>  -0.1500 
 11 C       -1.8760     2.2080     1.4940 C.ar  1 <1>  -0.1500 
 12 C        2.6200     2.5580     1.4100 C.2   1 <1>   0.5690 
 13 C       -3.0140    -0.9360    -1.2880 C.ar  1 <1>  -0.1500 
 14 C       -2.1710    -2.5930     0.2080 C.ar  1 <1>  -0.1500 
 15 C       -1.8120     4.1100    -0.5210 C.ar  1 <1>  -0.1430 
 16 C       -2.9660     3.0320     1.2890 C.ar  1 <1>  -0.1500 
 17 O        3.4380     2.8820     2.2350 O.2   1 <1>  -0.5700 
 18 N        2.7720     2.7790     0.0680 N.am  1 <1>  -0.7300 
 19 C       -3.1940    -2.1180    -0.5930 C.ar  1 <1>  -0.1430 
 20 C       -2.9340     3.9820     0.2820 C.ar  1 <1>  -0.1500 
 21 C       -1.7800     5.1540    -1.6220 C.3   1 <1>  -0.0970 
 22 C        3.9020     3.2800    -0.7570 C.3   1 <1>   0.2200 
 23 C       -4.4980    -2.8870    -0.7120 C.3   1 <1>  -0.0970 
 24 C        4.7350     2.1290    -1.3600 C.3   1 <1>  -0.0800 
 25 C        4.9690     4.1640    -0.0820 C.3   1 <1>  -0.1600 
 26 C        5.9900     2.8740    -1.7880 C.3   1 <1>  -0.1600 
 27 C        5.3100     1.2270    -0.2520 C.3   1 <1>  -0.1600 
 28 C        6.2820     3.4290    -0.4030 C.3   1 <1>  -0.0800 
 29 C        6.3370     2.1420     0.4380 C.3   1 <1>  -0.1600 
 30 H        1.6730     0.9710     2.4640 H     1 <1>   0.0800 
 31 H        0.9050     2.5100     2.6570 H     1 <1>   0.0800 
 32 H       -1.7010     0.6840    -1.7250 H     1 <1>   0.1500 
 33 H       -0.1980    -2.2740     0.9420 H     1 <1>   0.1500 
 34 H        0.1500     3.3790    -0.9220 H     1 <1>   0.1500 
 35 H       -1.9000     1.4660     2.2710 H     1 <1>   0.1500 
 36 H       -3.7990    -0.5520    -1.9170 H     1 <1>   0.1500 
 37 H       -2.2940    -3.5130     0.7530 H     1 <1>   0.1500 
 38 H       -3.8400     2.9360     1.9090 H     1 <1>   0.1500 
 39 H        2.0500     2.3630    -0.5320 H     1 <1>   0.3700 
 40 H       -3.7860     4.6220     0.1280 H     1 <1>   0.1500 
 41 H       -1.0510     4.8970    -2.3700 H     1 <1>   0.0800 
 42 H       -1.5270     6.1130    -1.2070 H     1 <1>   0.0800 
 43 H       -2.7420     5.2250    -2.0980 H     1 <1>   0.0800 
 44 H        3.4790     3.8450    -1.5700 H     1 <1>   0.0800 
 45 H       -5.3170    -2.2140    -0.8940 H     1 <1>   0.0800 
 46 H       -4.7000    -3.4280     0.1950 H     1 <1>   0.0800 
 47 H       -4.4350    -3.5860    -1.5260 H     1 <1>   0.0800 
 48 H        4.2340     1.5980    -2.1510 H     1 <1>   0.0800 
 49 H        4.8410     4.3090     0.9710 H     1 <1>   0.0800 
 50 H        4.9770     5.1290    -0.5560 H     1 <1>   0.0800 
 51 H        5.7960     3.6450    -2.5150 H     1 <1>   0.0800 
 52 H        6.7660     2.2170    -2.1450 H     1 <1>   0.0800 
 53 H        5.8070     0.3780    -0.6890 H     1 <1>   0.0800 
 54 H        4.5610     0.8690     0.4310 H     1 <1>   0.0800 
 55 H        7.1620     4.0440    -0.3240 H     1 <1>   0.0800 
 56 H        7.3180     1.7020     0.3950 H     1 <1>   0.0800 
 57 H        6.0760     2.3280     1.4660 H     1 <1>   0.0800 
@<TRIPOS>BOND
  1   1   2  2   
  2   1   3  2   
  3   1   4  am  
  4   1   5  1   
  5   4   6  1   
  6   4   7  1   
  7   5   8  ar  
  8   5   9  ar  
  9   6  10  ar  
 10   6  11  ar  
 11   7  12  1   
 12   7  30  1   
 13   7  31  1   
 14   8  13  ar  
 15   8  32  1   
 16   9  14  ar  
 17   9  33  1   
 18  10  15  ar  
 19  10  34  1   
 20  11  16  ar  
 21  11  35  1   
 22  12  17  2   
 23  12  18  am  
 24  13  19  ar  
 25  13  36  1   
 26  14  19  ar  
 27  14  37  1   
 28  15  20  ar  
 29  15  21  1   
 30  16  20  ar  
 31  16  38  1   
 32  18  22  1   
 33  18  39  1   
 34  19  23  1   
 35  20  40  1   
 36  21  41  1   
 37  21  42  1   
 38  21  43  1   
 39  22  24  1   
 40  22  25  1   
 41  22  44  1   
 42  23  45  1   
 43  23  46  1   
 44  23  47  1   
 45  24  26  1   
 46  24  27  1   
 47  24  48  1   
 48  25  28  1   
 49  25  49  1   
 50  25  50  1   
 51  26  28  1   
 52  26  51  1   
 53  26  52  1   
 54  27  29  1   
 55  27  53  1   
 56  27  54  1   
 57  28  29  1   
 58  28  55  1   
 59  29  56  1   
 60  29  57  1   
@<TRIPOS>SUBSTRUCTURE
  1 ****   4 GROUP 4 **** **** 0

# MOE 2024.06 (io_trps.svl 2023.06)
