@<TRIPOS>MOLECULE
NONAME
43 44 1 0 0 
SMALL
USER_CHARGES


@<TRIPOS>ATOM
  1 O        0.4320    -0.3560     0.9380 O.2   1 <1>  -0.5700 
  2 C        0.3320    -1.5530     1.0630 C.2   1 <1>   0.5690 
  3 N        1.2640    -2.2730     1.7340 N.am  1 <1>  -0.7300 
  4 C       -0.8530    -2.2890     0.4390 C.3   1 <1>  -0.0190 
  5 C        2.5050    -1.7160     2.3560 C.3   1 <1>   0.2010 
  6 C       -0.7720    -2.2630    -1.1000 C.3   1 <1>  -0.1600 
  7 C       -2.1980    -1.7130     0.9210 C.3   1 <1>  -0.1600 
  8 C        3.7710    -2.4130     1.8470 C.2   1 <1>   0.5690 
  9 C       -1.9620    -2.9930    -1.7400 C.3   1 <1>  -0.1600 
 10 C       -3.3870    -2.4440     0.2820 C.3   1 <1>  -0.1600 
 11 O        3.9590    -3.5630     2.1600 O.2   1 <1>  -0.5700 
 12 N        4.6920    -1.7780     1.0700 N.am  1 <1>  -0.5470 
 13 C       -3.2960    -2.4150    -1.2500 C.3   1 <1>  -0.1600 
 14 C        4.7010    -0.4860     0.5320 C.ar  1 <1>   0.1170 
 15 C        5.8310     0.3080     0.6730 C.ar  1 <1>  -0.1500 
 16 C        3.6070     0.0250    -0.1560 C.ar  1 <1>  -0.1500 
 17 C        5.8600     1.5900     0.1540 C.ar  1 <1>  -0.1500 
 18 C        3.6270     1.3080    -0.6720 C.ar  1 <1>  -0.1500 
 19 C        4.7600     2.1020    -0.5160 C.ar  1 <1>   0.0820 
 20 O        4.8660     3.3720    -0.9870 O.3   1 <1>  -0.3630 
 21 C        3.7680     4.0050    -1.6070 C.3   1 <1>   0.0400 
 22 H        1.1930    -3.2930     1.7800 H     1 <1>   0.3700 
 23 H       -0.8070    -3.3160     0.7530 H     1 <1>   0.0800 
 24 H        2.4490    -1.8640     3.4190 H     1 <1>   0.0800 
 25 H        2.5650    -0.6570     2.1820 H     1 <1>   0.0800 
 26 H        0.1460    -2.7220    -1.4210 H     1 <1>   0.0800 
 27 H       -0.7620    -1.2400    -1.4350 H     1 <1>   0.0800 
 28 H       -2.2480    -0.6670     0.6670 H     1 <1>   0.0800 
 29 H       -2.2610    -1.7910     1.9930 H     1 <1>   0.0800 
 30 H       -1.9150    -4.0400    -1.4930 H     1 <1>   0.0800 
 31 H       -1.9040    -2.9040    -2.8110 H     1 <1>   0.0800 
 32 H       -4.3060    -1.9790     0.5950 H     1 <1>   0.0800 
 33 H       -3.4030    -3.4660     0.6190 H     1 <1>   0.0800 
 34 H        5.5150    -2.3510     0.8820 H     1 <1>   0.3700 
 35 H       -4.1100    -2.9780    -1.6710 H     1 <1>   0.0800 
 36 H       -3.3880    -1.3970    -1.5910 H     1 <1>   0.0800 
 37 H        6.6900    -0.0740     1.1950 H     1 <1>   0.1500 
 38 H        2.7300    -0.5820    -0.2940 H     1 <1>   0.1500 
 39 H        6.7340     2.2060     0.2660 H     1 <1>   0.1500 
 40 H        2.7560     1.6660    -1.1860 H     1 <1>   0.1500 
 41 H        4.0620     5.0060    -1.8650 H     1 <1>   0.0800 
 42 H        2.9440     4.0320    -0.9160 H     1 <1>   0.0800 
 43 H        3.5080     3.4600    -2.4970 H     1 <1>   0.0800 
@<TRIPOS>BOND
  1   1   2  2   
  2   2   3  am  
  3   2   4  1   
  4   3   5  1   
  5   3  22  1   
  6   4   6  1   
  7   4   7  1   
  8   4  23  1   
  9   5   8  1   
 10   5  24  1   
 11   5  25  1   
 12   6   9  1   
 13   6  26  1   
 14   6  27  1   
 15   7  10  1   
 16   7  28  1   
 17   7  29  1   
 18   8  11  2   
 19   8  12  am  
 20   9  13  1   
 21   9  30  1   
 22   9  31  1   
 23  10  13  1   
 24  10  32  1   
 25  10  33  1   
 26  12  14  1   
 27  12  34  1   
 28  13  35  1   
 29  13  36  1   
 30  14  15  ar  
 31  14  16  ar  
 32  15  17  ar  
 33  15  37  1   
 34  16  18  ar  
 35  16  38  1   
 36  17  19  ar  
 37  17  39  1   
 38  18  19  ar  
 39  18  40  1   
 40  19  20  1   
 41  20  21  1   
 42  21  41  1   
 43  21  42  1   
 44  21  43  1   
@<TRIPOS>SUBSTRUCTURE
  1 ****   1 GROUP 4 **** **** 0

# MOE 2024.06 (io_trps.svl 2023.06)
