@<TRIPOS>MOLECULE
NONAME
33 34 1 0 0 
SMALL
USER_CHARGES


@<TRIPOS>ATOM
  1 O       -0.3550     0.5760     1.2730 O.2   1 <1>  -0.5700 
  2 C       -1.2700     1.2790     0.8660 C.2   1 <1>   0.6160 
  3 N       -2.5660     0.9620     1.1160 N.am  1 <1>  -0.5470 
  4 C       -1.2130     2.4890     0.1050 C.2   1 <1>  -0.0140 
  5 C       -3.3850     1.9190     0.5510 C.ar  1 <1>   0.1170 
  6 C       -2.5860     2.8680    -0.0750 C.ar  1 <1>   0.0280 
  7 C       -0.1120     3.1540    -0.3560 C.2   1 <1>  -0.0500 
  8 C       -4.7670     2.0180     0.5470 C.ar  1 <1>  -0.1500 
  9 C       -3.1870     3.9440    -0.7210 C.ar  1 <1>  -0.1500 
 10 N        1.1740     2.7570    -0.1540 N.pl3 1 <1>  -0.8690 
 11 C       -5.3550     3.0910    -0.0990 C.ar  1 <1>  -0.1500 
 12 C       -4.5670     4.0500    -0.7300 C.ar  1 <1>  -0.1500 
 13 C        2.3810     3.4580    -0.6400 C.3   1 <1>   0.2890 
 14 C        2.5640     4.8220     0.0560 C.3   1 <1>   0.1200 
 15 C        3.5640     2.5340    -0.3670 C.3   1 <1>  -0.2400 
 16 O        1.6650     5.7670    -0.4540 O.3   1 <1>  -0.5600 
 17 C        1.6530     6.9670     0.2470 C.3   1 <1>   0.0400 
 18 H       -2.8290     0.1340     1.6470 H     1 <1>   0.3700 
 19 H       -0.2440     4.0650    -0.9190 H     1 <1>   0.1500 
 20 H       -5.3640     1.2710     1.0380 H     1 <1>   0.1500 
 21 H       -2.5760     4.6840    -1.2070 H     1 <1>   0.1500 
 22 H        1.3520     1.8930     0.3830 H     1 <1>   0.4000 
 23 H       -6.4270     3.1890    -0.1150 H     1 <1>   0.1500 
 24 H       -5.0370     4.8800    -1.2280 H     1 <1>   0.1500 
 25 H        2.2980     3.6170    -1.7020 H     1 <1>   0.0800 
 26 H        3.5580     5.1920    -0.1200 H     1 <1>   0.0800 
 27 H        2.4020     4.7100     1.1140 H     1 <1>   0.0800 
 28 H        3.6700     2.3600     0.6890 H     1 <1>   0.0800 
 29 H        4.4700     2.9790    -0.7360 H     1 <1>   0.0800 
 30 H        3.4200     1.5960    -0.8710 H     1 <1>   0.0800 
 31 H        0.9510     7.6270    -0.2310 H     1 <1>   0.0800 
 32 H        2.6360     7.4030     0.2240 H     1 <1>   0.0800 
 33 H        1.3420     6.7810     1.2610 H     1 <1>   0.0800 
@<TRIPOS>BOND
  1   1   2  2   
  2   2   3  am  
  3   2   4  1   
  4   3   5  1   
  5   3  18  1   
  6   4   6  1   
  7   4   7  2   
  8   5   6  ar  
  9   5   8  ar  
 10   6   9  ar  
 11   7  10  1   
 12   7  19  1   
 13   8  11  ar  
 14   8  20  1   
 15   9  12  ar  
 16   9  21  1   
 17  10  13  1   
 18  10  22  1   
 19  11  12  ar  
 20  11  23  1   
 21  12  24  1   
 22  13  14  1   
 23  13  15  1   
 24  13  25  1   
 25  14  16  1   
 26  14  26  1   
 27  14  27  1   
 28  15  28  1   
 29  15  29  1   
 30  15  30  1   
 31  16  17  1   
 32  17  31  1   
 33  17  32  1   
 34  17  33  1   
@<TRIPOS>SUBSTRUCTURE
  1 ****   4 GROUP 4 **** **** 0

# MOE 2024.06 (io_trps.svl 2023.06)
