@<TRIPOS>MOLECULE
NONAME
31 33 1 0 0 
SMALL
USER_CHARGES


@<TRIPOS>ATOM
  1 S        0.6370    -0.1740     1.7060 S.3   1 <1>  -0.0800 
  2 C        1.5970    -0.8180     0.3690 C.2   1 <1>   0.0410 
  3 C       -0.8660    -0.7110     0.9810 C.2   1 <1>  -0.1100 
  4 C        3.0310    -0.6730     0.3920 C.2   1 <1>   0.5150 
  5 C        0.7570    -1.3890    -0.5310 C.2   1 <1>  -0.1500 
  6 C       -0.6270    -1.3300    -0.1890 C.2   1 <1>  -0.1500 
  7 N        3.7210    -0.0990     1.3210 N.2   1 <1>  -0.4100 
  8 N        3.7970    -1.1490    -0.6060 N.2   1 <1>  -0.5650 
  9 O        4.9280    -0.2070     0.9220 O.3   1 <1>  -0.0190 
 10 C        4.9880    -0.8280    -0.2230 C.2   1 <1>   0.3930 
 11 C        6.2870    -1.0490    -0.8440 C.2   1 <1>   0.7150 
 12 O        6.3970    -1.6240    -1.9130 O.2   1 <1>  -0.5700 
 13 N        7.4370    -0.6090    -0.2360 N.am  1 <1>  -0.7300 
 14 C        8.8090    -0.7630    -0.7480 C.3   1 <1>   0.2200 
 15 C        9.6460    -1.4720     0.3080 C.3   1 <1>  -0.1600 
 16 C        9.4530     0.6150    -0.8370 C.3   1 <1>  -0.1600 
 17 C       10.0450    -0.3920     1.3200 C.3   1 <1>  -0.1600 
 18 C        9.9210     0.9490     0.5850 C.3   1 <1>  -0.1600 
 19 H       -1.7780    -0.5040     1.5130 H     1 <1>   0.1500 
 20 H        1.0830    -1.8590    -1.4430 H     1 <1>   0.1500 
 21 H       -1.3770    -1.7540    -0.8350 H     1 <1>   0.1500 
 22 H        7.3810    -0.1230     0.6600 H     1 <1>   0.3700 
 23 H        8.8170    -1.2810    -1.6940 H     1 <1>   0.0800 
 24 H       10.5360    -1.8520    -0.1640 H     1 <1>   0.0800 
 25 H        9.1220    -2.2960     0.7610 H     1 <1>   0.0800 
 26 H        8.7840     1.3540    -1.2420 H     1 <1>   0.0800 
 27 H       10.3140     0.5450    -1.4790 H     1 <1>   0.0800 
 28 H       11.0480    -0.5530     1.6760 H     1 <1>   0.0800 
 29 H        9.3730    -0.4090     2.1610 H     1 <1>   0.0800 
 30 H        9.1900     1.5680     1.0770 H     1 <1>   0.0800 
 31 H       10.8610     1.4750     0.5640 H     1 <1>   0.0800 
@<TRIPOS>BOND
  1   1   2  1   
  2   1   3  1   
  3   2   4  1   
  4   2   5  2   
  5   3   6  2   
  6   3  19  1   
  7   4   7  2   
  8   4   8  1   
  9   5   6  1   
 10   5  20  1   
 11   6  21  1   
 12   7   9  1   
 13   8  10  2   
 14   9  10  1   
 15  10  11  1   
 16  11  12  2   
 17  11  13  am  
 18  13  14  1   
 19  13  22  1   
 20  14  15  1   
 21  14  16  1   
 22  14  23  1   
 23  15  17  1   
 24  15  24  1   
 25  15  25  1   
 26  16  18  1   
 27  16  26  1   
 28  16  27  1   
 29  17  18  1   
 30  17  28  1   
 31  17  29  1   
 32  18  30  1   
 33  18  31  1   
@<TRIPOS>SUBSTRUCTURE
  1 ****  10 GROUP 4 **** **** 0

# MOE 2024.06 (io_trps.svl 2023.06)
