@<TRIPOS>MOLECULE
NONAME
54 56 1 0 0 
SMALL
USER_CHARGES


@<TRIPOS>ATOM
  1 O       -0.6220     0.5670    -0.1050 O.2   1 <1>  -0.5700 
  2 C       -1.6020    -0.1200    -0.3210 C.2   1 <1>   0.7800 
  3 O       -1.4730    -1.4450    -0.4110 O.3   1 <1>  -0.4300 
  4 N       -2.8550     0.4080    -0.4720 N.am  1 <1>  -0.6600 
  5 C       -0.2130    -2.0590    -0.2670 C.3   1 <1>   0.1200 
  6 C       -3.1160     1.8730    -0.3440 C.3   1 <1>   0.1400 
  7 C       -4.0840    -0.4160    -0.6710 C.3   1 <1>   0.1400 
  8 C       -0.4010    -3.5650    -0.4130 C.3   1 <1>  -0.2400 
  9 C       -4.1370     2.1440     0.7700 C.3   1 <1>   0.1400 
 10 C       -5.1150    -0.1370     0.4360 C.3   1 <1>   0.1400 
 11 N       -5.3780     1.3310     0.5650 N.am  1 <1>  -0.6600 
 12 C       -6.5840     1.9200     0.2480 C.2   1 <1>   0.5440 
 13 O       -6.5980     3.0970    -0.0590 O.2   1 <1>  -0.5700 
 14 C       -7.8270     1.1700     0.2520 C.ar  1 <1>   0.0860 
 15 C       -8.6880     1.2070    -0.8420 C.ar  1 <1>  -0.1500 
 16 C       -8.2080     0.3910     1.3450 C.ar  1 <1>  -0.1500 
 17 C       -9.8660     0.4820    -0.8550 C.ar  1 <1>  -0.1500 
 18 C       -9.3850    -0.3360     1.3370 C.ar  1 <1>  -0.1500 
 19 C      -10.2210    -0.2990     0.2330 C.ar  1 <1>  -0.1440 
 20 C      -11.5150    -1.0990     0.2080 C.3   1 <1>   0.2630 
 21 O      -12.5990    -0.2070     0.0730 O.3   1 <1>  -0.3630 
 22 C      -13.8760    -0.6570     0.0020 C.ar  1 <1>   0.0820 
 23 C      -14.8670     0.3050    -0.1210 C.ar  1 <1>  -0.1500 
 24 C      -14.2300    -2.0030     0.0460 C.ar  1 <1>  -0.1500 
 25 C      -16.2010    -0.0570    -0.2000 C.ar  1 <1>  -0.1440 
 26 C      -15.5630    -2.3670    -0.0340 C.ar  1 <1>  -0.1500 
 27 C      -16.5440    -1.3990    -0.1580 C.ar  1 <1>  -0.1500 
 28 C      -17.2810     1.0010    -0.3360 C.3   1 <1>  -0.0970 
 29 H        0.1790    -1.8100     0.7050 H     1 <1>   0.0800 
 30 H        0.4430    -1.6740    -1.0300 H     1 <1>   0.0800 
 31 H       -3.5030     2.2480    -1.2750 H     1 <1>   0.0800 
 32 H       -2.2050     2.4040    -0.1270 H     1 <1>   0.0800 
 33 H       -3.8480    -1.4650    -0.6770 H     1 <1>   0.0800 
 34 H       -4.5170    -0.1710    -1.6250 H     1 <1>   0.0800 
 35 H       -1.0670    -3.9310     0.3470 H     1 <1>   0.0800 
 36 H        0.5470    -4.0610    -0.3060 H     1 <1>   0.0800 
 37 H       -0.8000    -3.7960    -1.3850 H     1 <1>   0.0800 
 38 H       -4.3690     3.1940     0.7930 H     1 <1>   0.0800 
 39 H       -3.7000     1.8870     1.7190 H     1 <1>   0.0800 
 40 H       -4.7390    -0.5120     1.3720 H     1 <1>   0.0800 
 41 H       -6.0190    -0.6700     0.2040 H     1 <1>   0.0800 
 42 H       -8.4260     1.8190    -1.6870 H     1 <1>   0.1500 
 43 H       -7.5700     0.3640     2.2110 H     1 <1>   0.1500 
 44 H      -10.5160     0.5340    -1.7130 H     1 <1>   0.1500 
 45 H       -9.6500    -0.9250     2.1980 H     1 <1>   0.1500 
 46 H      -11.6460    -1.6500     1.1220 H     1 <1>   0.0800 
 47 H      -11.5210    -1.7690    -0.6330 H     1 <1>   0.0800 
 48 H      -14.5770     1.3390    -0.1540 H     1 <1>   0.1500 
 49 H      -13.4940    -2.7770     0.1410 H     1 <1>   0.1500 
 50 H      -15.8400    -3.4060    -0.0020 H     1 <1>   0.1500 
 51 H      -17.5770    -1.6930    -0.2210 H     1 <1>   0.1500 
 52 H      -16.9140     1.9610    -0.0170 H     1 <1>   0.0800 
 53 H      -18.1310     0.7450     0.2690 H     1 <1>   0.0800 
 54 H      -17.5920     1.0730    -1.3630 H     1 <1>   0.0800 
@<TRIPOS>BOND
  1   1   2  2   
  2   2   3  1   
  3   2   4  am  
  4   3   5  1   
  5   4   6  1   
  6   4   7  1   
  7   5   8  1   
  8   5  29  1   
  9   5  30  1   
 10   6   9  1   
 11   6  31  1   
 12   6  32  1   
 13   7  10  1   
 14   7  33  1   
 15   7  34  1   
 16   8  35  1   
 17   8  36  1   
 18   8  37  1   
 19   9  11  1   
 20   9  38  1   
 21   9  39  1   
 22  10  11  1   
 23  10  40  1   
 24  10  41  1   
 25  11  12  am  
 26  12  13  2   
 27  12  14  1   
 28  14  15  ar  
 29  14  16  ar  
 30  15  17  ar  
 31  15  42  1   
 32  16  18  ar  
 33  16  43  1   
 34  17  19  ar  
 35  17  44  1   
 36  18  19  ar  
 37  18  45  1   
 38  19  20  1   
 39  20  21  1   
 40  20  46  1   
 41  20  47  1   
 42  21  22  1   
 43  22  23  ar  
 44  22  24  ar  
 45  23  25  ar  
 46  23  48  1   
 47  24  26  ar  
 48  24  49  1   
 49  25  27  ar  
 50  25  28  1   
 51  26  27  ar  
 52  26  50  1   
 53  27  51  1   
 54  28  52  1   
 55  28  53  1   
 56  28  54  1   
@<TRIPOS>SUBSTRUCTURE
  1 ****  14 GROUP 4 **** **** 0

# MOE 2024.06 (io_trps.svl 2023.06)
