@<TRIPOS>MOLECULE
NONAME
52 53 1 0 0 
SMALL
USER_CHARGES


@<TRIPOS>ATOM
  1 S        0.3920     1.5570    -1.0100 S.o2  1 <1>   1.4470 
  2 O        1.0870     2.7970    -0.7460 O.2   1 <1>  -0.6500 
  3 O        0.7400     0.8210    -2.2020 O.2   1 <1>  -0.6500 
  4 N        0.8630     0.4910     0.1980 N.am  1 <1>  -0.9140 
  5 C       -1.3980     1.7200    -0.7940 C.ar  1 <1>  -0.0090 
  6 C        2.2530     0.4860     0.6230 C.3   1 <1>   0.3560 
  7 C       -1.9370     2.1300     0.4190 C.ar  1 <1>  -0.1500 
  8 C       -2.2770     1.4420    -1.8350 C.ar  1 <1>  -0.1500 
  9 C        3.3100     0.7430    -0.5220 C.3   1 <1>   0.3430 
 10 C        2.4860    -0.9260     1.1670 C.3   1 <1>  -0.2400 
 11 C        2.3470     1.4490     1.8190 C.3   1 <1>  -0.2400 
 12 C       -3.3040     2.2570     0.5900 C.ar  1 <1>  -0.1500 
 13 C       -3.6460     1.5660    -1.6690 C.ar  1 <1>  -0.1500 
 14 N        4.4140     1.7300    -0.2240 N.4   1 <1>  -0.9590 
 15 C       -4.1670     1.9760    -0.4550 C.ar  1 <1>  -0.1430 
 16 C        3.9830     3.1380    -0.5720 C.3   1 <1>   0.3430 
 17 C        5.6670     1.3700    -0.9760 C.3   1 <1>   0.3430 
 18 C       -5.6670     2.1130    -0.2690 C.3   1 <1>  -0.0970 
 19 C        5.0980     4.1660    -0.3210 C.3   1 <1>   0.1400 
 20 C        6.8140     2.3730    -0.7310 C.3   1 <1>   0.1400 
 21 N        6.3660     3.7700    -1.0120 N.am  1 <1>  -0.6600 
 22 C        6.9960     4.6480    -1.8600 C.2   1 <1>   0.5690 
 23 O        6.5040     5.7100    -2.1440 O.2   1 <1>  -0.5700 
 24 C        8.3320     4.3100    -2.4800 C.3   1 <1>  -0.1790 
 25 H        0.6440    -0.4250    -0.1900 H     1 <1>   0.4200 
 26 H       -1.2810     2.3540     1.2430 H     1 <1>   0.1500 
 27 H       -1.8920     1.1230    -2.7890 H     1 <1>   0.1500 
 28 H        2.8160     1.0580    -1.4230 H     1 <1>   0.0800 
 29 H        3.7610    -0.2080    -0.7460 H     1 <1>   0.0800 
 30 H        3.4740    -1.0120     1.5840 H     1 <1>   0.0800 
 31 H        2.3870    -1.6610     0.3880 H     1 <1>   0.0800 
 32 H        1.7800    -1.1560     1.9480 H     1 <1>   0.0800 
 33 H        3.3130     1.3970     2.2860 H     1 <1>   0.0800 
 34 H        1.6170     1.1810     2.5640 H     1 <1>   0.0800 
 35 H        2.1570     2.4650     1.5320 H     1 <1>   0.0800 
 36 H       -3.6950     2.5750     1.5420 H     1 <1>   0.1500 
 37 H       -4.3040     1.3430    -2.4910 H     1 <1>   0.1500 
 38 H        4.6180     1.7080     0.7830 H     1 <1>   0.4500 
 39 H        3.1230     3.4200     0.0100 H     1 <1>   0.0800 
 40 H        3.6980     3.1880    -1.6100 H     1 <1>   0.0800 
 41 H        5.4560     1.3510    -2.0340 H     1 <1>   0.0800 
 42 H        5.9960     0.3850    -0.6890 H     1 <1>   0.0800 
 43 H       -5.8890     2.8930     0.4370 H     1 <1>   0.0800 
 44 H       -6.0750     1.1880     0.0970 H     1 <1>   0.0800 
 45 H       -6.1420     2.3570    -1.2020 H     1 <1>   0.0800 
 46 H        5.2820     4.2540     0.7350 H     1 <1>   0.0800 
 47 H        4.7580     5.1290    -0.6660 H     1 <1>   0.0800 
 48 H        7.6440     2.1040    -1.3590 H     1 <1>   0.0800 
 49 H        7.1430     2.3060     0.2910 H     1 <1>   0.0800 
 50 H        9.0340     4.0300    -1.7180 H     1 <1>   0.0800 
 51 H        8.7160     5.1730    -2.9940 H     1 <1>   0.0800 
 52 H        8.2190     3.5140    -3.1890 H     1 <1>   0.0800 
@<TRIPOS>BOND
  1   1   2  2   
  2   1   3  2   
  3   1   4  am  
  4   1   5  1   
  5   4   6  1   
  6   4  25  1   
  7   5   7  ar  
  8   5   8  ar  
  9   6   9  1   
 10   6  10  1   
 11   6  11  1   
 12   7  12  ar  
 13   7  26  1   
 14   8  13  ar  
 15   8  27  1   
 16   9  14  1   
 17   9  28  1   
 18   9  29  1   
 19  10  30  1   
 20  10  31  1   
 21  10  32  1   
 22  11  33  1   
 23  11  34  1   
 24  11  35  1   
 25  12  15  ar  
 26  12  36  1   
 27  13  15  ar  
 28  13  37  1   
 29  14  16  1   
 30  14  17  1   
 31  14  38  1   
 32  15  18  1   
 33  16  19  1   
 34  16  39  1   
 35  16  40  1   
 36  17  20  1   
 37  17  41  1   
 38  17  42  1   
 39  18  43  1   
 40  18  44  1   
 41  18  45  1   
 42  19  21  1   
 43  19  46  1   
 44  19  47  1   
 45  20  21  1   
 46  20  48  1   
 47  20  49  1   
 48  21  22  am  
 49  22  23  2   
 50  22  24  1   
 51  24  50  1   
 52  24  51  1   
 53  24  52  1   
@<TRIPOS>SUBSTRUCTURE
  1 ****   2 GROUP 4 **** **** 0

# MOE 2024.06 (io_trps.svl 2023.06)
