@<TRIPOS>MOLECULE
NONAME
52 54 1 0 0 
SMALL
USER_CHARGES


@<TRIPOS>ATOM
  1 O        0.2270    -2.9360    -3.2540 O.2   1 <1>  -0.5700 
  2 C        0.3940    -3.1600    -2.0800 C.2   1 <1>   0.5690 
  3 N        1.6460    -3.4650    -1.5960 N.am  1 <1>  -0.6600 
  4 C       -0.8050    -2.9930    -1.1540 C.3   1 <1>   0.0440 
  5 C        2.8500    -3.1810    -2.4210 C.3   1 <1>   0.1400 
  6 C        1.9850    -3.5860    -0.1530 C.3   1 <1>   0.1400 
  7 C       -0.6530    -1.7370    -0.2880 C.ar  1 <1>  -0.1440 
  8 C        3.4530    -1.8380    -1.9670 C.3   1 <1>   0.3430 
  9 C        2.5750    -2.2510     0.3400 C.3   1 <1>   0.3430 
 10 C       -0.6480    -1.7820     1.1050 C.ar  1 <1>   0.0830 
 11 C       -0.5070    -0.5140    -0.9260 C.ar  1 <1>  -0.1500 
 12 N        3.7650    -1.7870    -0.4800 N.4   1 <1>  -0.9590 
 13 O       -0.7850    -2.9840     1.7160 O.3   1 <1>  -0.3630 
 14 C       -0.4830    -0.6090     1.8360 C.ar  1 <1>  -0.1500 
 15 C       -0.3440     0.6500    -0.1950 C.ar  1 <1>  -0.1500 
 16 C        4.2340    -0.4280    -0.0570 C.3   1 <1>   0.4230 
 17 C       -1.4130    -3.0730     2.9790 C.3   1 <1>   0.0400 
 18 C       -0.3300     0.6020     1.1860 C.ar  1 <1>  -0.1500 
 19 C        5.4870    -0.0240    -0.8600 C.3   1 <1>  -0.1600 
 20 C        4.5450    -0.4090     1.4540 C.3   1 <1>  -0.1600 
 21 C        6.0650     1.3210    -0.3970 C.3   1 <1>  -0.1600 
 22 C        5.1270     0.9360     1.9100 C.3   1 <1>  -0.1600 
 23 C        6.3740     1.3070     1.1030 C.3   1 <1>  -0.1600 
 24 H       -0.9250    -3.8840    -0.5690 H     1 <1>   0.0800 
 25 H       -1.6910    -2.8910    -1.7530 H     1 <1>   0.0800 
 26 H        2.5930    -3.1260    -3.4650 H     1 <1>   0.0800 
 27 H        3.5680    -3.9750    -2.3050 H     1 <1>   0.0800 
 28 H        2.7030    -4.3760    -0.0180 H     1 <1>   0.0800 
 29 H        1.1200    -3.8480     0.4260 H     1 <1>   0.0800 
 30 H        2.7470    -1.0610    -2.2110 H     1 <1>   0.0800 
 31 H        4.3480    -1.6600    -2.5380 H     1 <1>   0.0800 
 32 H        2.8610    -2.3680     1.3720 H     1 <1>   0.0800 
 33 H        1.8010    -1.5020     0.3000 H     1 <1>   0.0800 
 34 H       -0.5270    -0.4600    -2.0030 H     1 <1>   0.1500 
 35 H        4.5370    -2.4390    -0.3020 H     1 <1>   0.4500 
 36 H       -0.4730    -0.6220     2.9100 H     1 <1>   0.1500 
 37 H       -0.2400     1.5940    -0.7030 H     1 <1>   0.1500 
 38 H        3.4560     0.2940    -0.2510 H     1 <1>   0.0800 
 39 H       -1.6360    -4.1080     3.1710 H     1 <1>   0.0800 
 40 H       -2.3260    -2.5030     2.9570 H     1 <1>   0.0800 
 41 H       -0.7460    -2.7000     3.7340 H     1 <1>   0.0800 
 42 H       -0.2100     1.5090     1.7550 H     1 <1>   0.1500 
 43 H        5.2540     0.0800    -1.9030 H     1 <1>   0.0800 
 44 H        6.2470    -0.7770    -0.7490 H     1 <1>   0.0800 
 45 H        5.2540    -1.1840     1.6890 H     1 <1>   0.0800 
 46 H        3.6520    -0.5710     2.0290 H     1 <1>   0.0800 
 47 H        5.3640     2.1110    -0.6080 H     1 <1>   0.0800 
 48 H        6.9690     1.5350    -0.9430 H     1 <1>   0.0800 
 49 H        5.3840     0.8850     2.9560 H     1 <1>   0.0800 
 50 H        4.3870     1.7110     1.7960 H     1 <1>   0.0800 
 51 H        6.7250     2.2790     1.4070 H     1 <1>   0.0800 
 52 H        7.1610     0.6000     1.3050 H     1 <1>   0.0800 
@<TRIPOS>BOND
  1   1   2  2   
  2   2   3  am  
  3   2   4  1   
  4   3   5  1   
  5   3   6  1   
  6   4   7  1   
  7   4  24  1   
  8   4  25  1   
  9   5   8  1   
 10   5  26  1   
 11   5  27  1   
 12   6   9  1   
 13   6  28  1   
 14   6  29  1   
 15   7  10  ar  
 16   7  11  ar  
 17   8  12  1   
 18   8  30  1   
 19   8  31  1   
 20   9  12  1   
 21   9  32  1   
 22   9  33  1   
 23  10  13  1   
 24  10  14  ar  
 25  11  15  ar  
 26  11  34  1   
 27  12  16  1   
 28  12  35  1   
 29  13  17  1   
 30  14  18  ar  
 31  14  36  1   
 32  15  18  ar  
 33  15  37  1   
 34  16  19  1   
 35  16  20  1   
 36  16  38  1   
 37  17  39  1   
 38  17  40  1   
 39  17  41  1   
 40  18  42  1   
 41  19  21  1   
 42  19  43  1   
 43  19  44  1   
 44  20  22  1   
 45  20  45  1   
 46  20  46  1   
 47  21  23  1   
 48  21  47  1   
 49  21  48  1   
 50  22  23  1   
 51  22  49  1   
 52  22  50  1   
 53  23  51  1   
 54  23  52  1   
@<TRIPOS>SUBSTRUCTURE
  1 ****   9 GROUP 4 **** **** 0

# MOE 2024.06 (io_trps.svl 2023.06)
