@<TRIPOS>MOLECULE
NONAME
56 58 1 0 0 
SMALL
USER_CHARGES


@<TRIPOS>ATOM
  1 O       -1.6840    -1.1890     2.3390 O.2   1 <1>  -0.5700 
  2 C       -1.8640    -1.1280     1.1390 C.2   1 <1>   0.5440 
  3 N       -1.2980    -2.0760     0.3290 N.am  1 <1>  -0.7300 
  4 C       -2.6610    -0.0700     0.5640 C.ar  1 <1>   0.0860 
  5 C       -0.5930    -3.2800     0.7800 C.3   1 <1>   0.2200 
  6 C       -3.7460    -0.3490    -0.2830 C.ar  1 <1>   0.1170 
  7 C       -2.3560     1.2620     0.8440 C.ar  1 <1>  -0.1500 
  8 C        0.8310    -3.2280     0.2380 C.3   1 <1>  -0.2400 
  9 C       -1.3480    -4.4920     0.2470 C.3   1 <1>  -0.2400 
 10 N       -4.1210    -1.6780    -0.5320 N.am  1 <1>  -0.5470 
 11 C       -4.4330     0.7090    -0.8750 C.ar  1 <1>  -0.1500 
 12 C       -3.0640     2.2990     0.2720 C.ar  1 <1>  -0.1500 
 13 C       -5.3040    -2.2770    -0.8630 C.2   1 <1>   0.5440 
 14 C       -4.1010     2.0210    -0.6000 C.ar  1 <1>  -0.1500 
 15 O       -5.2250    -3.4180    -1.2620 O.2   1 <1>  -0.5700 
 16 C       -6.6010    -1.6380    -0.7280 C.ar  1 <1>   0.0860 
 17 C       -6.9340    -0.8600     0.3800 C.ar  1 <1>  -0.1500 
 18 C       -7.5780    -1.8040    -1.7080 C.ar  1 <1>  -0.1500 
 19 C       -8.1830    -0.2790     0.5060 C.ar  1 <1>  -0.1500 
 20 C       -8.8290    -1.2270    -1.5910 C.ar  1 <1>  -0.1500 
 21 C       -9.1440    -0.4670    -0.4750 C.ar  1 <1>  -0.1430 
 22 C      -10.5290     0.1350    -0.3210 C.3   1 <1>   0.4860 
 23 N      -11.4770    -0.9560     0.0340 N.4   1 <1>  -0.9590 
 24 C      -12.9040    -0.4840     0.0410 C.3   1 <1>   0.3430 
 25 C      -11.1210    -1.6020     1.3490 C.3   1 <1>   0.3430 
 26 C      -13.8630    -1.5930     0.5160 C.3   1 <1>   0.1200 
 27 C      -12.1650    -2.6570     1.7600 C.3   1 <1>   0.1200 
 28 O      -13.4450    -2.0950     1.7520 O.3   1 <1>  -0.5600 
 29 H       -1.2550    -1.9080    -0.6770 H     1 <1>   0.3700 
 30 H       -0.5690    -3.3140     1.8580 H     1 <1>   0.0800 
 31 H       -1.5450     1.4750     1.5210 H     1 <1>   0.1500 
 32 H        0.8340    -3.2020    -0.8370 H     1 <1>   0.0800 
 33 H        1.3740    -4.0970     0.5610 H     1 <1>   0.0800 
 34 H        1.3350    -2.3580     0.6200 H     1 <1>   0.0800 
 35 H       -1.3890    -4.4810    -0.8270 H     1 <1>   0.0800 
 36 H       -2.3480    -4.5050     0.6420 H     1 <1>   0.0800 
 37 H       -0.8550    -5.3950     0.5600 H     1 <1>   0.0800 
 38 H       -3.3850    -2.3780    -0.3920 H     1 <1>   0.3700 
 39 H       -5.2330     0.5120    -1.5650 H     1 <1>   0.1500 
 40 H       -2.8080     3.3210     0.4990 H     1 <1>   0.1500 
 41 H       -4.6450     2.8280    -1.0610 H     1 <1>   0.1500 
 42 H       -6.1990    -0.7140     1.1550 H     1 <1>   0.1500 
 43 H       -7.3410    -2.4040    -2.5730 H     1 <1>   0.1500 
 44 H       -8.3890     0.3180     1.3800 H     1 <1>   0.1500 
 45 H       -9.5440    -1.3820    -2.3820 H     1 <1>   0.1500 
 46 H      -10.8230     0.5970    -1.2500 H     1 <1>   0.0800 
 47 H      -10.5210     0.8890     0.4490 H     1 <1>   0.0800 
 48 H      -11.3770    -1.6830    -0.6850 H     1 <1>   0.4500 
 49 H      -13.1940    -0.1630    -0.9470 H     1 <1>   0.0800 
 50 H      -13.0070     0.3570     0.7070 H     1 <1>   0.0800 
 51 H      -11.0740    -0.8540     2.1230 H     1 <1>   0.0800 
 52 H      -10.1520    -2.0700     1.2810 H     1 <1>   0.0800 
 53 H      -13.9080    -2.4030    -0.1910 H     1 <1>   0.0800 
 54 H      -14.8550    -1.1950     0.6440 H     1 <1>   0.0800 
 55 H      -11.9660    -3.0050     2.7590 H     1 <1>   0.0800 
 56 H      -12.1500    -3.5020     1.0940 H     1 <1>   0.0800 
@<TRIPOS>BOND
  1   1   2  2   
  2   2   3  am  
  3   2   4  1   
  4   3   5  1   
  5   3  29  1   
  6   4   6  ar  
  7   4   7  ar  
  8   5   8  1   
  9   5   9  1   
 10   5  30  1   
 11   6  10  1   
 12   6  11  ar  
 13   7  12  ar  
 14   7  31  1   
 15   8  32  1   
 16   8  33  1   
 17   8  34  1   
 18   9  35  1   
 19   9  36  1   
 20   9  37  1   
 21  10  13  am  
 22  10  38  1   
 23  11  14  ar  
 24  11  39  1   
 25  12  14  ar  
 26  12  40  1   
 27  13  15  2   
 28  13  16  1   
 29  14  41  1   
 30  16  17  ar  
 31  16  18  ar  
 32  17  19  ar  
 33  17  42  1   
 34  18  20  ar  
 35  18  43  1   
 36  19  21  ar  
 37  19  44  1   
 38  20  21  ar  
 39  20  45  1   
 40  21  22  1   
 41  22  23  1   
 42  22  46  1   
 43  22  47  1   
 44  23  24  1   
 45  23  25  1   
 46  23  48  1   
 47  24  26  1   
 48  24  49  1   
 49  24  50  1   
 50  25  27  1   
 51  25  51  1   
 52  25  52  1   
 53  26  28  1   
 54  26  53  1   
 55  26  54  1   
 56  27  28  1   
 57  27  55  1   
 58  27  56  1   
@<TRIPOS>SUBSTRUCTURE
  1 ****  17 GROUP 4 **** **** 0

# MOE 2024.06 (io_trps.svl 2023.06)
