@<TRIPOS>MOLECULE
NONAME
47 49 1 0 0 
SMALL
USER_CHARGES


@<TRIPOS>ATOM
  1 CL      -0.6970     0.0740     0.3130 Cl    1 <1>  -0.1770 
  2 C       -1.9810    -1.0740    -0.0080 C.ar  1 <1>   0.1770 
  3 C       -1.7420    -2.4380     0.0970 C.ar  1 <1>   0.0830 
  4 C       -3.2160    -0.5750    -0.3670 C.ar  1 <1>  -0.1500 
  5 O       -0.4870    -2.8330     0.4630 O.3   1 <1>  -0.3630 
  6 C       -2.8020    -3.3170    -0.1660 C.ar  1 <1>   0.0830 
  7 C       -4.2760    -1.4330    -0.6390 C.ar  1 <1>   0.0280 
  8 C        0.1200    -3.9300    -0.1790 C.3   1 <1>   0.1200 
  9 O       -2.6230    -4.6610    -0.0260 O.3   1 <1>  -0.3630 
 10 C       -4.0340    -2.8010    -0.5530 C.ar  1 <1>  -0.1500 
 11 C       -5.5570    -0.8880    -0.9980 C.2   1 <1>  -0.1780 
 12 C        1.6320    -3.7560    -0.0790 C.3   1 <1>  -0.2400 
 13 C       -3.7140    -5.4990     0.2910 C.3   1 <1>   0.1200 
 14 C       -6.7900    -1.1650    -0.5180 C.2   1 <1>  -0.0380 
 15 C       -3.1570    -6.8480     0.7320 C.3   1 <1>  -0.2400 
 16 N       -7.9080    -0.4430    -0.9390 N.pl3 1 <1>  -0.8380 
 17 C       -7.1130    -2.1700     0.6110 C.3   1 <1>   0.3380 
 18 C       -9.0750    -1.3070    -1.3050 C.3   1 <1>   0.2090 
 19 C       -8.3390     0.4890     0.1500 C.3   1 <1>   0.2090 
 20 O       -7.0930    -3.4520     0.0930 O.3   1 <1>  -0.6800 
 21 C       -8.5490    -1.8570     1.1150 C.3   1 <1>  -0.0800 
 22 C       -9.5510    -2.0760    -0.0480 C.3   1 <1>  -0.1600 
 23 C       -8.6040    -0.3400     1.4340 C.3   1 <1>  -0.1600 
 24 H       -3.3580     0.4880    -0.4320 H     1 <1>   0.1500 
 25 H       -0.1920    -4.8310     0.3210 H     1 <1>   0.0800 
 26 H       -0.1970    -3.9500    -1.2080 H     1 <1>   0.0800 
 27 H       -4.8340    -3.4630    -0.8110 H     1 <1>   0.1500 
 28 H       -5.4940    -0.1190    -1.7470 H     1 <1>   0.1500 
 29 H        1.9320    -3.7280     0.9530 H     1 <1>   0.0800 
 30 H        1.9290    -2.8430    -0.5650 H     1 <1>   0.0800 
 31 H        2.1260    -4.5800    -0.5600 H     1 <1>   0.0800 
 32 H       -4.2810    -5.0420     1.0850 H     1 <1>   0.0800 
 33 H       -4.3280    -5.6100    -0.5860 H     1 <1>   0.0800 
 34 H       -2.5340    -6.7230     1.5990 H     1 <1>   0.0800 
 35 H       -2.5850    -7.2900    -0.0640 H     1 <1>   0.0800 
 36 H       -3.9660    -7.5100     0.9820 H     1 <1>   0.0800 
 37 H       -6.3890    -2.1100     1.4060 H     1 <1>   0.0800 
 38 H       -9.8700    -0.6990    -1.7030 H     1 <1>   0.0800 
 39 H       -8.7670    -1.9980    -2.0700 H     1 <1>   0.0800 
 40 H       -7.5640     1.2160     0.3260 H     1 <1>   0.0800 
 41 H       -9.2300     1.0120    -0.1530 H     1 <1>   0.0800 
 42 H       -7.4570    -3.3860    -0.8090 H     1 <1>   0.4000 
 43 H       -8.7920    -2.4470     1.9800 H     1 <1>   0.0800 
 44 H      -10.5270    -1.7250     0.2360 H     1 <1>   0.0800 
 45 H       -9.6500    -3.1210    -0.2790 H     1 <1>   0.0800 
 46 H       -7.8620    -0.0950     2.1730 H     1 <1>   0.0800 
 47 H       -9.5640    -0.0740     1.8390 H     1 <1>   0.0800 
@<TRIPOS>BOND
  1   1   2  1   
  2   2   3  ar  
  3   2   4  ar  
  4   3   5  1   
  5   3   6  ar  
  6   4   7  ar  
  7   4  24  1   
  8   5   8  1   
  9   6   9  1   
 10   6  10  ar  
 11   7  10  ar  
 12   7  11  1   
 13   8  12  1   
 14   8  25  1   
 15   8  26  1   
 16   9  13  1   
 17  10  27  1   
 18  11  14  2   
 19  11  28  1   
 20  12  29  1   
 21  12  30  1   
 22  12  31  1   
 23  13  15  1   
 24  13  32  1   
 25  13  33  1   
 26  14  16  1   
 27  14  17  1   
 28  15  34  1   
 29  15  35  1   
 30  15  36  1   
 31  16  18  1   
 32  16  19  1   
 33  17  20  1   
 34  17  21  1   
 35  17  37  1   
 36  18  22  1   
 37  18  38  1   
 38  18  39  1   
 39  19  23  1   
 40  19  40  1   
 41  19  41  1   
 42  20  42  1   
 43  21  22  1   
 44  21  23  1   
 45  21  43  1   
 46  22  44  1   
 47  22  45  1   
 48  23  46  1   
 49  23  47  1   
@<TRIPOS>SUBSTRUCTURE
  1 ****  10 GROUP 4 **** **** 0

# MOE 2024.06 (io_trps.svl 2023.06)
