@<TRIPOS>MOLECULE
NONAME
47 49 1 0 0 
SMALL
USER_CHARGES


@<TRIPOS>ATOM
  1 F        0.8240     2.7130    -1.4960 F     1 <1>  -0.1900 
  2 C        0.6580     2.5020    -0.2120 C.ar  1 <1>   0.1900 
  3 C       -0.5880     2.7850     0.3570 C.ar  1 <1>   0.1170 
  4 C        1.7290     2.0070     0.5030 C.ar  1 <1>  -0.1500 
  5 N       -1.6230     3.2860    -0.4580 N.am  1 <1>  -0.5470 
  6 C       -0.7330     2.5380     1.7230 C.ar  1 <1>  -0.1500 
  7 C        1.5320     1.7850     1.8510 C.ar  1 <1>   0.1900 
  8 C       -2.8290     3.8470    -0.1770 C.2   1 <1>   0.6900 
  9 C        0.3220     2.0400     2.4730 C.ar  1 <1>  -0.1500 
 10 F        2.5220     1.3160     2.5640 F     1 <1>  -0.1900 
 11 O       -3.2270     4.0400     0.9550 O.2   1 <1>  -0.5700 
 12 N       -3.6450     4.1640    -1.2220 N.am  1 <1>  -0.6600 
 13 C       -4.3630     3.0400    -1.8830 C.3   1 <1>   0.1400 
 14 C       -4.4780     5.3960    -1.0930 C.3   1 <1>   0.1400 
 15 C       -5.6720     2.7270    -1.1250 C.3   1 <1>   0.3430 
 16 C       -5.7840     5.0860    -0.3350 C.3   1 <1>   0.3430 
 17 N       -6.5500     3.9430    -0.9660 N.4   1 <1>  -0.9590 
 18 C       -7.8170     3.6000    -0.2540 C.3   1 <1>   0.4230 
 19 C       -8.8450     4.7240    -0.4410 C.3   1 <1>  -0.1600 
 20 C       -7.6030     3.2920     1.2390 C.3   1 <1>  -0.1600 
 21 C      -10.1790     4.3550     0.2240 C.3   1 <1>  -0.1600 
 22 C       -8.9340     2.9170     1.9070 C.3   1 <1>  -0.1600 
 23 C       -9.9850     4.0180     1.7090 C.3   1 <1>  -0.1600 
 24 H        2.6740     1.8020     0.0360 H     1 <1>   0.1500 
 25 H       -1.3700     3.3670    -1.4420 H     1 <1>   0.3700 
 26 H       -1.6680     2.7300     2.2170 H     1 <1>   0.1500 
 27 H        0.2120     1.8520     3.5270 H     1 <1>   0.1500 
 28 H       -3.7390     2.1620    -1.8890 H     1 <1>   0.0800 
 29 H       -4.5770     3.2980    -2.9060 H     1 <1>   0.0800 
 30 H       -4.6970     5.7910    -2.0700 H     1 <1>   0.0800 
 31 H       -3.9260     6.1460    -0.5510 H     1 <1>   0.0800 
 32 H       -5.4080     2.3450    -0.1530 H     1 <1>   0.0800 
 33 H       -6.2080     1.9530    -1.6500 H     1 <1>   0.0800 
 34 H       -6.3940     5.9730    -0.3070 H     1 <1>   0.0800 
 35 H       -5.5220     4.8320     0.6790 H     1 <1>   0.0800 
 36 H       -6.8200     4.2480    -1.9080 H     1 <1>   0.4500 
 37 H       -8.2310     2.7140    -0.7090 H     1 <1>   0.0800 
 38 H       -9.0190     4.8930    -1.4890 H     1 <1>   0.0800 
 39 H       -8.4900     5.6360     0.0030 H     1 <1>   0.0800 
 40 H       -7.2070     4.1510     1.7510 H     1 <1>   0.0800 
 41 H       -6.9180     2.4740     1.3630 H     1 <1>   0.0800 
 42 H      -10.6150     3.5070    -0.2780 H     1 <1>   0.0800 
 43 H      -10.8700     5.1770     0.1330 H     1 <1>   0.0800 
 44 H       -8.7770     2.7590     2.9620 H     1 <1>   0.0800 
 45 H       -9.3030     1.9940     1.4920 H     1 <1>   0.0800 
 46 H      -10.9230     3.6980     2.1300 H     1 <1>   0.0800 
 47 H       -9.6790     4.9040     2.2400 H     1 <1>   0.0800 
@<TRIPOS>BOND
  1   1   2  1   
  2   2   3  ar  
  3   2   4  ar  
  4   3   5  1   
  5   3   6  ar  
  6   4   7  ar  
  7   4  24  1   
  8   5   8  am  
  9   5  25  1   
 10   6   9  ar  
 11   6  26  1   
 12   7   9  ar  
 13   7  10  1   
 14   8  11  2   
 15   8  12  am  
 16   9  27  1   
 17  12  13  1   
 18  12  14  1   
 19  13  15  1   
 20  13  28  1   
 21  13  29  1   
 22  14  16  1   
 23  14  30  1   
 24  14  31  1   
 25  15  17  1   
 26  15  32  1   
 27  15  33  1   
 28  16  17  1   
 29  16  34  1   
 30  16  35  1   
 31  17  18  1   
 32  17  36  1   
 33  18  19  1   
 34  18  20  1   
 35  18  37  1   
 36  19  21  1   
 37  19  38  1   
 38  19  39  1   
 39  20  22  1   
 40  20  40  1   
 41  20  41  1   
 42  21  23  1   
 43  21  42  1   
 44  21  43  1   
 45  22  23  1   
 46  22  44  1   
 47  22  45  1   
 48  23  46  1   
 49  23  47  1   
@<TRIPOS>SUBSTRUCTURE
  1 ****   8 GROUP 4 **** **** 0

# MOE 2024.06 (io_trps.svl 2023.06)
