@<TRIPOS>MOLECULE
NONAME
35 36 1 0 0 
SMALL
USER_CHARGES


@<TRIPOS>ATOM
  1 BR      -0.5500     0.7030     1.4270 Br    1 <1>  -0.1110 
  2 C       -0.7440     1.9160    -0.0580 C.ar  1 <1>   0.1110 
  3 C       -2.0030     2.1900    -0.5990 C.ar  1 <1>   0.0860 
  4 C        0.4260     2.4660    -0.5490 C.ar  1 <1>  -0.1500 
  5 C       -3.2440     1.6420    -0.0890 C.2   1 <1>   0.5440 
  6 C       -2.0210     3.0490    -1.7010 C.ar  1 <1>  -0.1500 
  7 C        0.3650     3.3230    -1.6320 C.ar  1 <1>  -0.1500 
  8 O       -4.1030     1.2410    -0.8490 O.2   1 <1>  -0.5700 
  9 N       -3.5270     1.6160     1.2490 N.am  1 <1>  -0.7300 
 10 C       -0.8610     3.6100    -2.2080 C.ar  1 <1>  -0.1500 
 11 C       -4.5480     0.7510     1.9160 C.3   1 <1>   0.1400 
 12 C       -5.9560     1.3810     1.9080 C.3   1 <1>   0.3430 
 13 N       -6.4660     1.5400     0.5180 N.4   1 <1>  -0.9590 
 14 C       -7.4340     2.6390     0.3190 C.3   1 <1>   0.3430 
 15 C       -7.0600     0.3240    -0.0750 C.3   1 <1>   0.3430 
 16 C       -8.1210     2.3110    -1.0010 C.3   1 <1>  -0.1600 
 17 C       -7.8050     0.8410    -1.2960 C.3   1 <1>  -0.1600 
 18 H        1.3720     2.2260    -0.0940 H     1 <1>   0.1500 
 19 H       -2.9630     3.2800    -2.1690 H     1 <1>   0.1500 
 20 H        1.2650     3.7620    -2.0290 H     1 <1>   0.1500 
 21 H       -2.7760     1.9370     1.8730 H     1 <1>   0.3700 
 22 H       -0.9090     4.2710    -3.0570 H     1 <1>   0.1500 
 23 H       -4.2450     0.5890     2.9360 H     1 <1>   0.0800 
 24 H       -4.5760    -0.2090     1.4290 H     1 <1>   0.0800 
 25 H       -5.8950     2.3450     2.3860 H     1 <1>   0.0800 
 26 H       -6.6340     0.7680     2.4770 H     1 <1>   0.0800 
 27 H       -5.6290     1.7320    -0.0740 H     1 <1>   0.4500 
 28 H       -6.9420     3.5980     0.2840 H     1 <1>   0.0800 
 29 H       -8.1620     2.6350     1.1150 H     1 <1>   0.0800 
 30 H       -7.7570    -0.1220     0.6170 H     1 <1>   0.0800 
 31 H       -6.3020    -0.3940    -0.3480 H     1 <1>   0.0800 
 32 H       -7.7350     2.9420    -1.7830 H     1 <1>   0.0800 
 33 H       -9.1810     2.4790    -0.9180 H     1 <1>   0.0800 
 34 H       -8.6930     0.2620    -1.4780 H     1 <1>   0.0800 
 35 H       -7.1630     0.7650    -2.1570 H     1 <1>   0.0800 
@<TRIPOS>BOND
  1   1   2  1   
  2   2   3  ar  
  3   2   4  ar  
  4   3   5  1   
  5   3   6  ar  
  6   4   7  ar  
  7   4  18  1   
  8   5   8  2   
  9   5   9  am  
 10   6  10  ar  
 11   6  19  1   
 12   7  10  ar  
 13   7  20  1   
 14   9  11  1   
 15   9  21  1   
 16  10  22  1   
 17  11  12  1   
 18  11  23  1   
 19  11  24  1   
 20  12  13  1   
 21  12  25  1   
 22  12  26  1   
 23  13  14  1   
 24  13  15  1   
 25  13  27  1   
 26  14  16  1   
 27  14  28  1   
 28  14  29  1   
 29  15  17  1   
 30  15  30  1   
 31  15  31  1   
 32  16  17  1   
 33  16  32  1   
 34  16  33  1   
 35  17  34  1   
 36  17  35  1   
@<TRIPOS>SUBSTRUCTURE
  1 ****   5 GROUP 4 **** **** 0

# MOE 2024.06 (io_trps.svl 2023.06)
