@<TRIPOS>MOLECULE
NONAME
44 47 1 0 0 
SMALL
USER_CHARGES


@<TRIPOS>ATOM
  1 BR      -0.5420    -0.9440    -2.6290 Br    1 <1>  -0.1100 
  2 C       -2.1490    -1.4020    -1.6660 C.2   1 <1>   0.1240 
  3 C       -2.3180    -2.7600    -1.2720 C.2   1 <1>   0.3760 
  4 C       -3.0720    -0.4520    -1.3840 C.2   1 <1>  -0.1810 
  5 N       -3.3620    -3.1620    -0.6230 N.2   1 <1>  -0.5760 
  6 N       -4.1880    -0.8720    -0.6930 N.pl3 1 <1>   0.6010 
  7 C       -4.3090    -2.1940    -0.3330 C.2   1 <1>  -0.0260 
  8 N       -5.2390    -0.1430    -0.2940 N.2   1 <1>  -0.7070 
  9 C       -5.4910    -2.2810     0.3190 C.2   1 <1>  -0.1500 
 10 C       -6.0470    -0.9990     0.3290 C.2   1 <1>   0.2030 
 11 C       -7.3410    -0.7160     0.9580 C.2   1 <1>   0.7160 
 12 O       -7.9370    -1.6200     1.5230 O.2   1 <1>  -0.5700 
 13 N       -7.9430     0.5280     0.9520 N.am  1 <1>  -0.6600 
 14 C       -9.2430     0.8170     1.5900 C.3   1 <1>   0.2200 
 15 C       -7.3990     1.7800     0.3680 C.3   1 <1>   0.1400 
 16 C      -10.3870     0.5750     0.5900 C.3   1 <1>  -0.1600 
 17 C       -9.1520     2.3070     1.8810 C.3   1 <1>  -0.1600 
 18 C       -8.5080     2.8180     0.5970 C.3   1 <1>   0.0000 
 19 C      -10.3040     1.4060    -0.7240 C.3   1 <1>   0.0000 
 20 C       -9.5800     2.7730    -0.5230 C.3   1 <1>  -0.1600 
 21 C       -7.9500     4.2380     0.7590 C.3   1 <1>  -0.2400 
 22 C      -11.7350     1.6810    -1.2210 C.3   1 <1>  -0.2400 
 23 C       -9.6220     0.5810    -1.8350 C.3   1 <1>  -0.2400 
 24 H       -1.5440    -3.4620    -1.5280 H     1 <1>   0.0600 
 25 H       -3.0140     0.5860    -1.6480 H     1 <1>   0.1500 
 26 H       -5.9300    -3.1620     0.7510 H     1 <1>   0.1500 
 27 H       -9.3770     0.2390     2.4900 H     1 <1>   0.0800 
 28 H       -7.1650     1.6680    -0.6750 H     1 <1>   0.0800 
 29 H       -6.5060     2.0520     0.9040 H     1 <1>   0.0800 
 30 H      -11.2980     0.8220     1.1050 H     1 <1>   0.0800 
 31 H      -10.4420    -0.4760     0.3690 H     1 <1>   0.0800 
 32 H      -10.1120     2.7490     2.0780 H     1 <1>   0.0800 
 33 H       -8.5100     2.4670     2.7290 H     1 <1>   0.0800 
 34 H       -9.1390     3.0880    -1.4520 H     1 <1>   0.0800 
 35 H      -10.3180     3.5160    -0.2740 H     1 <1>   0.0800 
 36 H       -7.2260     4.2720     1.5540 H     1 <1>   0.0800 
 37 H       -8.7410     4.9290     0.9920 H     1 <1>   0.0800 
 38 H       -7.4720     4.5570    -0.1500 H     1 <1>   0.0800 
 39 H      -12.2880     2.2550    -0.4990 H     1 <1>   0.0800 
 40 H      -12.2610     0.7570    -1.3880 H     1 <1>   0.0800 
 41 H      -11.7150     2.2320    -2.1450 H     1 <1>   0.0800 
 42 H       -8.6260     0.2880    -1.5710 H     1 <1>   0.0800 
 43 H       -9.5730     1.1430    -2.7500 H     1 <1>   0.0800 
 44 H      -10.1790    -0.3190    -2.0280 H     1 <1>   0.0800 
@<TRIPOS>BOND
  1   1   2  1   
  2   2   3  1   
  3   2   4  2   
  4   3   5  2   
  5   3  24  1   
  6   4   6  1   
  7   4  25  1   
  8   5   7  1   
  9   6   7  1   
 10   6   8  1   
 11   7   9  2   
 12   8  10  2   
 13   9  10  1   
 14   9  26  1   
 15  10  11  1   
 16  11  12  2   
 17  11  13  am  
 18  13  14  1   
 19  13  15  1   
 20  14  16  1   
 21  14  17  1   
 22  14  27  1   
 23  15  18  1   
 24  15  28  1   
 25  15  29  1   
 26  16  19  1   
 27  16  30  1   
 28  16  31  1   
 29  17  18  1   
 30  17  32  1   
 31  17  33  1   
 32  18  20  1   
 33  18  21  1   
 34  19  20  1   
 35  19  22  1   
 36  19  23  1   
 37  20  34  1   
 38  20  35  1   
 39  21  36  1   
 40  21  37  1   
 41  21  38  1   
 42  22  39  1   
 43  22  40  1   
 44  22  41  1   
 45  23  42  1   
 46  23  43  1   
 47  23  44  1   
@<TRIPOS>SUBSTRUCTURE
  1 ****  10 GROUP 4 **** **** 0

# MOE 2024.06 (io_trps.svl 2023.06)
