@<TRIPOS>MOLECULE
NONAME
31 31 1 0 0 
SMALL
USER_CHARGES


@<TRIPOS>ATOM
  1 O       -2.2190    -2.0340    -2.1110 O.co2 1 <1>  -0.9000 
  2 C       -3.3410    -1.5820    -1.8620 C.2   1 <1>   1.0500 
  3 O       -4.3600    -2.1620    -2.2940 O.co2 1 <1>  -0.9000 
  4 C       -3.5520    -0.5020    -0.9320 C.2   1 <1>  -0.3880 
  5 C       -4.6730     0.2570    -1.0070 C.2   1 <1>  -0.1360 
  6 C       -2.5160    -0.3400     0.1780 C.3   1 <1>  -0.1020 
  7 C       -5.3300     1.0940    -0.0490 C.2   1 <1>   0.6160 
  8 O       -5.3300     2.3040    -0.1220 O.2   1 <1>  -0.5700 
  9 N       -6.1780     0.4650     0.8330 N.am  1 <1>  -0.6600 
 10 C       -7.6050     0.4230     0.4330 C.3   1 <1>   0.1400 
 11 C       -5.7630    -0.8100     1.4880 C.3   1 <1>   0.1400 
 12 C       -7.8200    -0.7210    -0.5860 C.3   1 <1>   0.3430 
 13 C       -5.9770    -2.0270     0.5570 C.3   1 <1>   0.3430 
 14 N       -7.3340    -2.0710    -0.1080 N.4   1 <1>  -0.9590 
 15 C       -7.2040    -2.9880    -1.2870 C.3   1 <1>   0.2630 
 16 H       -5.2670     0.1650    -1.8960 H     1 <1>   0.1500 
 17 H       -1.5540    -0.1420    -0.2630 H     1 <1>   0.0800 
 18 H       -2.4380    -1.2470     0.7500 H     1 <1>   0.0800 
 19 H       -2.7600     0.4770     0.8330 H     1 <1>   0.0800 
 20 H       -8.2250     0.2790     1.3000 H     1 <1>   0.0800 
 21 H       -7.8770     1.3630    -0.0170 H     1 <1>   0.0800 
 22 H       -4.7250    -0.7510     1.7640 H     1 <1>   0.0800 
 23 H       -6.3270    -0.9430     2.3940 H     1 <1>   0.0800 
 24 H       -7.2880    -0.4590    -1.4870 H     1 <1>   0.0800 
 25 H       -8.8650    -0.7800    -0.8370 H     1 <1>   0.0800 
 26 H       -5.8170    -2.9330     1.1170 H     1 <1>   0.0800 
 27 H       -5.2200    -2.0060    -0.2050 H     1 <1>   0.0800 
 28 H       -8.0100    -2.4550     0.5620 H     1 <1>   0.4500 
 29 H       -6.5170    -2.5730    -2.0080 H     1 <1>   0.0800 
 30 H       -8.1580    -3.1300    -1.7660 H     1 <1>   0.0800 
 31 H       -6.8220    -3.9480    -0.9800 H     1 <1>   0.0800 
@<TRIPOS>BOND
  1   1   2  ar  
  2   2   3  ar  
  3   2   4  1   
  4   4   5  2   
  5   4   6  1   
  6   5   7  1   
  7   5  16  1   
  8   6  17  1   
  9   6  18  1   
 10   6  19  1   
 11   7   8  2   
 12   7   9  am  
 13   9  10  1   
 14   9  11  1   
 15  10  12  1   
 16  10  20  1   
 17  10  21  1   
 18  11  13  1   
 19  11  22  1   
 20  11  23  1   
 21  12  14  1   
 22  12  24  1   
 23  12  25  1   
 24  13  14  1   
 25  13  26  1   
 26  13  27  1   
 27  14  15  1   
 28  14  28  1   
 29  15  29  1   
 30  15  30  1   
 31  15  31  1   
@<TRIPOS>SUBSTRUCTURE
  1 ****   5 GROUP 4 **** **** 0

# MOE 2024.06 (io_trps.svl 2023.06)
