@<TRIPOS>MOLECULE
NONAME
40 41 1 0 0 
SMALL
USER_CHARGES


@<TRIPOS>ATOM
  1 S        0.1030     0.0700     0.9810 S.3   1 <1>   0.1810 
  2 N        1.8050     0.0180     0.9270 N.2   1 <1>  -0.5100 
  3 C       -0.1060    -1.5910     0.4950 C.2   1 <1>   0.1040 
  4 C        2.1570    -1.1550     0.5730 C.2   1 <1>   0.1080 
  5 N       -1.3610    -2.1630     0.3540 N.am  1 <1>  -0.4940 
  6 C        1.1310    -2.1320     0.3080 C.2   1 <1>  -0.0860 
  7 C        3.6440    -1.4400     0.4550 C.3   1 <1>  -0.0590 
  8 C       -2.6270    -1.6640     0.5300 C.2   1 <1>   0.5690 
  9 C        1.3240    -3.4980    -0.1000 C.2   1 <1>   0.8060 
 10 O       -2.8480    -0.5290     0.8700 O.2   1 <1>  -0.5700 
 11 C       -3.7980    -2.6140     0.2750 C.3   1 <1>  -0.0190 
 12 O        0.3910    -4.2560    -0.3030 O.2   1 <1>  -0.5700 
 13 O        2.5620    -3.9730    -0.2670 O.3   1 <1>  -0.4300 
 14 C       -4.6900    -2.1100    -0.8760 C.3   1 <1>  -0.1600 
 15 C       -4.6340    -2.8290     1.5520 C.3   1 <1>  -0.1600 
 16 C        2.8070    -5.3040    -0.6650 C.3   1 <1>   0.1200 
 17 C       -5.8740    -3.0550    -1.1290 C.3   1 <1>  -0.1600 
 18 C       -5.8180    -3.7740     1.3000 C.3   1 <1>  -0.1600 
 19 C        4.3170    -5.4970    -0.7560 C.3   1 <1>  -0.2400 
 20 C       -6.6960    -3.2670     0.1490 C.3   1 <1>  -0.1600 
 21 H       -1.3310    -3.1460     0.0630 H     1 <1>   0.3700 
 22 H        4.2130    -0.5610     0.7020 H     1 <1>   0.0800 
 23 H        3.8900    -1.7270    -0.5510 H     1 <1>   0.0800 
 24 H        3.9280    -2.2240     1.1340 H     1 <1>   0.0800 
 25 H       -3.4000    -3.5700    -0.0170 H     1 <1>   0.0800 
 26 H       -4.1050    -2.0180    -1.7750 H     1 <1>   0.0800 
 27 H       -5.0660    -1.1310    -0.6300 H     1 <1>   0.0800 
 28 H       -5.0080    -1.8780     1.8950 H     1 <1>   0.0800 
 29 H       -4.0100    -3.2340     2.3300 H     1 <1>   0.0800 
 30 H        2.3390    -5.4680    -1.6220 H     1 <1>   0.0800 
 31 H        2.3760    -5.9660     0.0670 H     1 <1>   0.0800 
 32 H       -5.5070    -4.0050    -1.4790 H     1 <1>   0.0800 
 33 H       -6.5050    -2.6430    -1.8980 H     1 <1>   0.0800 
 34 H       -6.4110    -3.8550     2.1950 H     1 <1>   0.0800 
 35 H       -5.4480    -4.7570     1.0610 H     1 <1>   0.0800 
 36 H        4.7360    -4.8250    -1.4830 H     1 <1>   0.0800 
 37 H        4.5350    -6.5060    -1.0580 H     1 <1>   0.0800 
 38 H        4.7730    -5.3230     0.2020 H     1 <1>   0.0800 
 39 H       -7.4850    -3.9740    -0.0430 H     1 <1>   0.0800 
 40 H       -7.1530    -2.3350     0.4350 H     1 <1>   0.0800 
@<TRIPOS>BOND
  1   1   2  1   
  2   1   3  1   
  3   2   4  2   
  4   3   5  1   
  5   3   6  2   
  6   4   6  1   
  7   4   7  1   
  8   5   8  am  
  9   5  21  1   
 10   6   9  1   
 11   7  22  1   
 12   7  23  1   
 13   7  24  1   
 14   8  10  2   
 15   8  11  1   
 16   9  12  2   
 17   9  13  1   
 18  11  14  1   
 19  11  15  1   
 20  11  25  1   
 21  13  16  1   
 22  14  17  1   
 23  14  26  1   
 24  14  27  1   
 25  15  18  1   
 26  15  28  1   
 27  15  29  1   
 28  16  19  1   
 29  16  30  1   
 30  16  31  1   
 31  17  20  1   
 32  17  32  1   
 33  17  33  1   
 34  18  20  1   
 35  18  34  1   
 36  18  35  1   
 37  19  36  1   
 38  19  37  1   
 39  19  38  1   
 40  20  39  1   
 41  20  40  1   
@<TRIPOS>SUBSTRUCTURE
  1 ****   5 GROUP 4 **** **** 0

# MOE 2024.06 (io_trps.svl 2023.06)
