@<TRIPOS>MOLECULE
NONAME
58 60 1 0 0 
SMALL
USER_CHARGES


@<TRIPOS>ATOM
  1 BR       1.6880     2.3430    -4.0080 Br    1 <1>  -0.1110 
  2 C        2.3200     3.2330    -2.4220 C.ar  1 <1>   0.1110 
  3 C        3.4480     2.7470    -1.7910 C.ar  1 <1>  -0.1500 
  4 C        1.6320     4.3350    -1.9580 C.ar  1 <1>  -0.1500 
  5 C        3.9080     3.3830    -0.6480 C.ar  1 <1>  -0.1440 
  6 C        2.0930     4.9730    -0.8200 C.ar  1 <1>  -0.1500 
  7 C        3.2300     4.5030    -0.1590 C.ar  1 <1>   0.0830 
  8 C        5.1480     2.8360     0.0450 C.3   1 <1>   0.2540 
  9 O        3.7180     5.1090     0.9590 O.3   1 <1>  -0.3630 
 10 N        6.3800     3.0790    -0.7450 N.3   1 <1>  -0.8100 
 11 C        2.8850     5.9400     1.7420 C.3   1 <1>   0.0400 
 12 C        6.5260     4.4700    -1.2370 C.3   1 <1>   0.1100 
 13 C        7.5930     2.6500    -0.0210 C.3   1 <1>   0.1100 
 14 C        6.8420     5.4610    -0.1010 C.3   1 <1>   0.3430 
 15 C        7.9780     3.6140     1.1260 C.3   1 <1>   0.3430 
 16 N        8.0720     5.0390     0.6600 N.4   1 <1>  -0.9590 
 17 C        8.3750     5.9770     1.7710 C.3   1 <1>   0.4860 
 18 C        8.7170     7.3260     1.1710 C.ar  1 <1>  -0.1430 
 19 C        9.8950     7.4870     0.4610 C.ar  1 <1>  -0.1500 
 20 C        7.8620     8.4060     1.3110 C.ar  1 <1>  -0.1500 
 21 C       10.2290     8.6960    -0.1250 C.ar  1 <1>   0.0830 
 22 C        8.1790     9.6240     0.7360 C.ar  1 <1>  -0.1500 
 23 O       11.4170     8.6660    -0.7930 O.3   1 <1>  -0.3620 
 24 C        9.3560     9.7920     0.0090 C.ar  1 <1>   0.0830 
 25 C       12.0810     9.8230    -1.2460 C.3   1 <1>   0.1200 
 26 O        9.6590    10.9890    -0.5720 O.3   1 <1>  -0.3630 
 27 C       13.4620     9.4090    -1.7440 C.3   1 <1>  -0.2400 
 28 C        8.8750    12.1480    -0.3850 C.3   1 <1>   0.0400 
 29 H        3.9580     1.8880    -2.1900 H     1 <1>   0.1500 
 30 H        0.7570     4.6830    -2.4780 H     1 <1>   0.1500 
 31 H        1.5570     5.8340    -0.4690 H     1 <1>   0.1500 
 32 H        5.0230     1.7740     0.1720 H     1 <1>   0.0800 
 33 H        5.2410     3.2640     1.0270 H     1 <1>   0.0800 
 34 H        3.3980     6.1660     2.6600 H     1 <1>   0.0800 
 35 H        1.9700     5.4160     1.9580 H     1 <1>   0.0800 
 36 H        2.6870     6.8500     1.2030 H     1 <1>   0.0800 
 37 H        5.6360     4.7850    -1.7530 H     1 <1>   0.0800 
 38 H        7.3230     4.5020    -1.9600 H     1 <1>   0.0800 
 39 H        8.4100     2.5910    -0.7200 H     1 <1>   0.0800 
 40 H        7.4440     1.6580     0.3730 H     1 <1>   0.0800 
 41 H        5.9940     5.5070     0.5620 H     1 <1>   0.0800 
 42 H        6.9880     6.4420    -0.5220 H     1 <1>   0.0800 
 43 H        8.9210     3.3020     1.5440 H     1 <1>   0.0800 
 44 H        7.2320     3.5360     1.9000 H     1 <1>   0.0800 
 45 H        8.8510     5.1080    -0.0070 H     1 <1>   0.4500 
 46 H        9.2170     5.6200     2.3410 H     1 <1>   0.0800 
 47 H        7.5250     6.0660     2.4280 H     1 <1>   0.0800 
 48 H       10.5910     6.6740     0.3470 H     1 <1>   0.1500 
 49 H        6.9420     8.3170     1.8650 H     1 <1>   0.1500 
 50 H        7.4880    10.4350     0.8670 H     1 <1>   0.1500 
 51 H       12.1620    10.5160    -0.4260 H     1 <1>   0.0800 
 52 H       11.5040    10.2550    -2.0450 H     1 <1>   0.0800 
 53 H       14.0270     8.9670    -0.9430 H     1 <1>   0.0800 
 54 H       13.9920    10.2740    -2.1000 H     1 <1>   0.0800 
 55 H       13.3690     8.7060    -2.5520 H     1 <1>   0.0800 
 56 H        9.3510    12.9590    -0.9060 H     1 <1>   0.0800 
 57 H        8.8240    12.3710     0.6660 H     1 <1>   0.0800 
 58 H        7.8950    11.9790    -0.7950 H     1 <1>   0.0800 
@<TRIPOS>BOND
  1   1   2  1   
  2   2   3  ar  
  3   2   4  ar  
  4   3   5  ar  
  5   3  29  1   
  6   4   6  ar  
  7   4  30  1   
  8   5   7  ar  
  9   5   8  1   
 10   6   7  ar  
 11   6  31  1   
 12   7   9  1   
 13   8  10  1   
 14   8  32  1   
 15   8  33  1   
 16   9  11  1   
 17  10  12  1   
 18  10  13  1   
 19  11  34  1   
 20  11  35  1   
 21  11  36  1   
 22  12  14  1   
 23  12  37  1   
 24  12  38  1   
 25  13  15  1   
 26  13  39  1   
 27  13  40  1   
 28  14  16  1   
 29  14  41  1   
 30  14  42  1   
 31  15  16  1   
 32  15  43  1   
 33  15  44  1   
 34  16  17  1   
 35  16  45  1   
 36  17  18  1   
 37  17  46  1   
 38  17  47  1   
 39  18  19  ar  
 40  18  20  ar  
 41  19  21  ar  
 42  19  48  1   
 43  20  22  ar  
 44  20  49  1   
 45  21  23  1   
 46  21  24  ar  
 47  22  24  ar  
 48  22  50  1   
 49  23  25  1   
 50  24  26  1   
 51  25  27  1   
 52  25  51  1   
 53  25  52  1   
 54  26  28  1   
 55  27  53  1   
 56  27  54  1   
 57  27  55  1   
 58  28  56  1   
 59  28  57  1   
 60  28  58  1   
@<TRIPOS>SUBSTRUCTURE
  1 ****  14 GROUP 4 **** **** 0

# MOE 2024.06 (io_trps.svl 2023.06)
