@<TRIPOS>MOLECULE
NONAME
51 53 1 0 0 
SMALL
USER_CHARGES


@<TRIPOS>ATOM
  1 O        4.9840    -4.0840    -0.3660 O.3   1 <1>  -0.3630 
  2 C        3.8090    -4.7630    -0.2510 C.ar  1 <1>   0.0830 
  3 C        6.2240    -4.7470    -0.2530 C.3   1 <1>   0.0400 
  4 C        2.6540    -4.0280    -0.3680 C.ar  1 <1>  -0.1500 
  5 C        3.7400    -6.1520    -0.0230 C.ar  1 <1>  -0.1500 
  6 C        1.4090    -4.6610    -0.2600 C.ar  1 <1>   0.0000 
  7 C        2.5240    -6.7840     0.0850 C.ar  1 <1>  -0.1500 
  8 C        1.3500    -6.0300    -0.0320 C.ar  1 <1>  -0.1520 
  9 C        0.0840    -4.2080    -0.3360 C.2   1 <1>  -0.1500 
 10 N        0.0320    -6.3920     0.0340 N.pl3 1 <1>   0.0480 
 11 C       -0.7530    -5.2780    -0.1580 C.2   1 <1>  -0.2270 
 12 C       -0.5190    -7.7510     0.1930 C.3   1 <1>   0.0960 
 13 C       -2.1760    -5.3930    -0.1410 C.cat 1 <1>   0.7840 
 14 C       -1.9360    -7.6860     0.7910 C.3   1 <1>   0.3300 
 15 N       -2.7280    -6.5190     0.2810 N.pl3 1 <1>  -0.7940 
 16 N       -2.9070    -4.3710    -0.5540 N.pl3 1 <1>  -0.7940 
 17 C       -4.3830    -4.1800    -0.6620 C.3   1 <1>   0.3290 
 18 C       -4.8610    -2.9460     0.1500 C.3   1 <1>   0.3430 
 19 N       -6.2990    -2.5300    -0.0720 N.4   1 <1>  -0.9590 
 20 C       -6.5390    -1.2080     0.5800 C.3   1 <1>   0.3430 
 21 C       -7.3000    -3.5280     0.4100 C.3   1 <1>   0.3430 
 22 C       -7.7490    -0.5390    -0.0620 C.3   1 <1>  -0.2400 
 23 C       -7.8400    -4.3020    -0.7850 C.3   1 <1>  -0.2400 
 24 H        7.0040    -4.0160    -0.3740 H     1 <1>   0.0800 
 25 H        6.2970    -5.4880    -1.0300 H     1 <1>   0.0800 
 26 H        6.2940    -5.1970     0.7210 H     1 <1>   0.0800 
 27 H        2.7020    -2.9700    -0.5420 H     1 <1>   0.1500 
 28 H        4.6370    -6.7340     0.0680 H     1 <1>   0.1500 
 29 H        2.4760    -7.8440     0.2580 H     1 <1>   0.1500 
 30 H       -0.1570    -3.1740    -0.5050 H     1 <1>   0.1500 
 31 H        0.1260    -8.3290     0.8290 H     1 <1>   0.0800 
 32 H       -0.5510    -8.2190    -0.7750 H     1 <1>   0.0800 
 33 H       -1.8580    -7.6120     1.8640 H     1 <1>   0.0800 
 34 H       -2.4510    -8.6050     0.5650 H     1 <1>   0.0800 
 35 H       -3.7350    -6.6570     0.2990 H     1 <1>   0.4500 
 36 H       -2.3450    -3.5980    -0.9310 H     1 <1>   0.4500 
 37 H       -4.8910    -5.0590    -0.3060 H     1 <1>   0.0800 
 38 H       -4.6300    -4.0400    -1.7010 H     1 <1>   0.0800 
 39 H       -4.2270    -2.1160    -0.1180 H     1 <1>   0.0800 
 40 H       -4.7110    -3.1450     1.1990 H     1 <1>   0.0800 
 41 H       -6.4780    -2.3740    -1.0760 H     1 <1>   0.4500 
 42 H       -5.6820    -0.5670     0.4430 H     1 <1>   0.0800 
 43 H       -6.7000    -1.3320     1.6400 H     1 <1>   0.0800 
 44 H       -8.1240    -3.0260     0.8940 H     1 <1>   0.0800 
 45 H       -6.8570    -4.1990     1.1300 H     1 <1>   0.0800 
 46 H       -7.5950    -0.3930    -1.1170 H     1 <1>   0.0800 
 47 H       -7.8900     0.4310     0.3840 H     1 <1>   0.0800 
 48 H       -8.6500    -1.1020     0.0980 H     1 <1>   0.0800 
 49 H       -8.3270    -3.6380    -1.4780 H     1 <1>   0.0800 
 50 H       -8.5780    -5.0060    -0.4410 H     1 <1>   0.0800 
 51 H       -7.0730    -4.8550    -1.2930 H     1 <1>   0.0800 
@<TRIPOS>BOND
  1   1   2  1   
  2   1   3  1   
  3   2   4  ar  
  4   2   5  ar  
  5   3  24  1   
  6   3  25  1   
  7   3  26  1   
  8   4   6  ar  
  9   4  27  1   
 10   5   7  ar  
 11   5  28  1   
 12   6   8  ar  
 13   6   9  1   
 14   7   8  ar  
 15   7  29  1   
 16   8  10  1   
 17   9  11  2   
 18   9  30  1   
 19  10  11  1   
 20  10  12  1   
 21  11  13  1   
 22  12  14  1   
 23  12  31  1   
 24  12  32  1   
 25  13  15  ar  
 26  13  16  ar  
 27  14  15  1   
 28  14  33  1   
 29  14  34  1   
 30  15  35  1   
 31  16  17  1   
 32  16  36  1   
 33  17  18  1   
 34  17  37  1   
 35  17  38  1   
 36  18  19  1   
 37  18  39  1   
 38  18  40  1   
 39  19  20  1   
 40  19  21  1   
 41  19  41  1   
 42  20  22  1   
 43  20  42  1   
 44  20  43  1   
 45  21  23  1   
 46  21  44  1   
 47  21  45  1   
 48  22  46  1   
 49  22  47  1   
 50  22  48  1   
 51  23  49  1   
 52  23  50  1   
 53  23  51  1   
@<TRIPOS>SUBSTRUCTURE
  1 ****  11 GROUP 4 **** **** 0

# MOE 2024.06 (io_trps.svl 2023.06)
