@<TRIPOS>MOLECULE
NONAME
53 55 1 0 0 
SMALL
USER_CHARGES


@<TRIPOS>ATOM
  1 S       -0.1270    -0.6200    -1.8110 S.o2  1 <1>   1.4470 
  2 O       -1.1650    -1.5580    -2.1770 O.2   1 <1>  -0.6500 
  3 O        1.2260    -0.8190    -2.2820 O.2   1 <1>  -0.6500 
  4 N       -0.0560    -0.6560    -0.1190 N.am  1 <1>  -0.8490 
  5 C       -0.6880     1.0650    -2.1860 C.ar  1 <1>  -0.0090 
  6 C        0.5610    -1.9000     0.4140 C.3   1 <1>   0.3370 
  7 C        0.7640     0.4280     0.4110 C.3   1 <1>   0.1960 
  8 C        0.0840     1.9300    -2.9540 C.ar  1 <1>  -0.1500 
  9 C       -1.9020     1.5370    -1.7020 C.ar  1 <1>  -0.1500 
 10 C       -0.3100    -3.1800     0.5080 C.2   1 <1>   0.5690 
 11 C        1.0680    -1.5010     1.8090 C.3   1 <1>  -0.1600 
 12 C        1.0780     0.0230     1.8380 C.3   1 <1>  -0.1600 
 13 C       -0.3380     3.2210    -3.2230 C.ar  1 <1>  -0.1500 
 14 C       -2.3300     2.8260    -1.9670 C.ar  1 <1>  -0.1500 
 15 O        0.1770    -4.1570     1.0290 O.2   1 <1>  -0.5700 
 16 N       -1.5890    -3.1820     0.0180 N.am  1 <1>  -0.5470 
 17 C       -1.5480     3.6760    -2.7290 C.ar  1 <1>  -0.1430 
 18 C       -2.5960    -4.1440     0.0950 C.ar  1 <1>   0.1170 
 19 C       -2.0140     5.0900    -3.0250 C.3   1 <1>  -0.0970 
 20 C       -2.6840    -5.0620     1.1370 C.ar  1 <1>  -0.1500 
 21 C       -3.5690    -4.1850    -0.8960 C.ar  1 <1>  -0.1500 
 22 C       -3.7010    -5.9960     1.1760 C.ar  1 <1>  -0.1500 
 23 C       -4.5850    -5.1210    -0.8550 C.ar  1 <1>  -0.1500 
 24 C       -4.6710    -6.0610     0.1730 C.ar  1 <1>   0.0860 
 25 C       -5.7280    -7.0500     0.1910 C.2   1 <1>   0.6340 
 26 O       -6.8910    -6.7620     0.0200 O.2   1 <1>  -0.5700 
 27 O       -5.4470    -8.3430     0.3750 O.3   1 <1>  -0.4300 
 28 C       -4.2240    -8.9200    -0.0250 C.3   1 <1>   0.1200 
 29 C       -4.3900   -10.4350     0.0090 C.3   1 <1>  -0.2400 
 30 H        1.4230    -2.1460    -0.1830 H     1 <1>   0.0800 
 31 H        0.2400     1.3700     0.3790 H     1 <1>   0.0800 
 32 H        1.6850     0.5110    -0.1450 H     1 <1>   0.0800 
 33 H        1.0280     1.5920    -3.3490 H     1 <1>   0.1500 
 34 H       -2.5210     0.8860    -1.1070 H     1 <1>   0.1500 
 35 H        2.0490    -1.9110     1.9700 H     1 <1>   0.0800 
 36 H        0.4130    -1.8780     2.5760 H     1 <1>   0.0800 
 37 H        0.3020     0.3860     2.4910 H     1 <1>   0.0800 
 38 H        2.0240     0.4210     2.1610 H     1 <1>   0.0800 
 39 H        0.2780     3.8680    -3.8230 H     1 <1>   0.1500 
 40 H       -3.2760     3.1630    -1.5800 H     1 <1>   0.1500 
 41 H       -1.7700    -2.4130    -0.6390 H     1 <1>   0.3700 
 42 H       -1.1720     5.7510    -3.1320 H     1 <1>   0.0800 
 43 H       -2.6330     5.4580    -2.2260 H     1 <1>   0.0800 
 44 H       -2.5820     5.1020    -3.9370 H     1 <1>   0.0800 
 45 H       -1.9530    -5.0400     1.9250 H     1 <1>   0.1500 
 46 H       -3.5240    -3.4780    -1.7060 H     1 <1>   0.1500 
 47 H       -3.7510    -6.6860     2.0000 H     1 <1>   0.1500 
 48 H       -5.3330    -5.1330    -1.6310 H     1 <1>   0.1500 
 49 H       -3.4500    -8.6120     0.6550 H     1 <1>   0.0800 
 50 H       -3.9930    -8.5850    -1.0230 H     1 <1>   0.0800 
 51 H       -4.6320   -10.7590     1.0050 H     1 <1>   0.0800 
 52 H       -3.4750   -10.9100    -0.2940 H     1 <1>   0.0800 
 53 H       -5.1730   -10.7360    -0.6660 H     1 <1>   0.0800 
@<TRIPOS>BOND
  1   1   2  2   
  2   1   3  2   
  3   1   4  am  
  4   1   5  1   
  5   4   6  1   
  6   4   7  1   
  7   5   8  ar  
  8   5   9  ar  
  9   6  10  1   
 10   6  11  1   
 11   6  30  1   
 12   7  12  1   
 13   7  31  1   
 14   7  32  1   
 15   8  13  ar  
 16   8  33  1   
 17   9  14  ar  
 18   9  34  1   
 19  10  15  2   
 20  10  16  am  
 21  11  12  1   
 22  11  35  1   
 23  11  36  1   
 24  12  37  1   
 25  12  38  1   
 26  13  17  ar  
 27  13  39  1   
 28  14  17  ar  
 29  14  40  1   
 30  16  18  1   
 31  16  41  1   
 32  17  19  1   
 33  18  20  ar  
 34  18  21  ar  
 35  19  42  1   
 36  19  43  1   
 37  19  44  1   
 38  20  22  ar  
 39  20  45  1   
 40  21  23  ar  
 41  21  46  1   
 42  22  24  ar  
 43  22  47  1   
 44  23  24  ar  
 45  23  48  1   
 46  24  25  1   
 47  25  26  2   
 48  25  27  1   
 49  27  28  1   
 50  28  29  1   
 51  28  49  1   
 52  28  50  1   
 53  29  51  1   
 54  29  52  1   
 55  29  53  1   
@<TRIPOS>SUBSTRUCTURE
  1 ****  16 GROUP 4 **** **** 0

# MOE 2024.06 (io_trps.svl 2023.06)
