@<TRIPOS>MOLECULE
NONAME
56 58 1 0 0 
SMALL
USER_CHARGES


@<TRIPOS>ATOM
  1 N       -0.3300    -0.4430     1.0290 N.3   1 <1>  -0.8100 
  2 C        0.9280     0.3290     0.8350 C.3   1 <1>   0.1900 
  3 C       -0.1150    -1.8520     1.4790 C.3   1 <1>   0.1100 
  4 C       -1.2940     0.2190     1.9650 C.3   1 <1>   0.1100 
  5 C        0.6070     1.7630     0.3720 C.3   1 <1>  -0.1600 
  6 C        1.8170    -0.3550    -0.2210 C.3   1 <1>  -0.1600 
  7 C       -1.4240    -2.6790     1.5420 C.3   1 <1>   0.3430 
  8 C       -2.5390    -0.6350     2.3120 C.3   1 <1>   0.3430 
  9 C        1.8470     2.5500    -0.0470 C.3   1 <1>   0.3430 
 10 C        3.0230     0.4880    -0.6300 C.3   1 <1>   0.3430 
 11 N       -2.6380    -1.8170     1.4040 N.4   1 <1>  -0.9590 
 12 N        2.5680     1.8180    -1.1180 N.4   1 <1>  -0.9590 
 13 C       -3.9030    -2.5760     1.5090 C.3   1 <1>   0.4810 
 14 C        3.6900     2.6390    -1.6470 C.3   1 <1>   0.3430 
 15 C       -5.0110    -1.6950     0.9850 C.2   1 <1>  -0.2880 
 16 C        4.1470     2.0800    -2.9890 C.3   1 <1>  -0.2400 
 17 C       -5.5970    -1.8350    -0.2170 C.2   1 <1>  -0.1780 
 18 C       -6.6620    -1.0360    -0.7840 C.ar  1 <1>   0.0280 
 19 C       -6.9380    -1.1120    -2.1470 C.ar  1 <1>  -0.1500 
 20 C       -7.4460    -0.1780    -0.0140 C.ar  1 <1>  -0.1500 
 21 C       -7.9470    -0.3600    -2.7210 C.ar  1 <1>  -0.1500 
 22 C       -8.4560     0.5770    -0.5820 C.ar  1 <1>  -0.1500 
 23 C       -8.7080     0.4890    -1.9390 C.ar  1 <1>  -0.1500 
 24 H        1.4660     0.3750     1.7700 H     1 <1>   0.0800 
 25 H        0.5430    -2.3730     0.8080 H     1 <1>   0.0800 
 26 H        0.3500    -1.8530     2.4510 H     1 <1>   0.0800 
 27 H       -0.7940     0.4870     2.8810 H     1 <1>   0.0800 
 28 H       -1.6580     1.1270     1.5180 H     1 <1>   0.0800 
 29 H       -0.0830     1.7350    -0.4540 H     1 <1>   0.0800 
 30 H        0.1520     2.3150     1.1730 H     1 <1>   0.0800 
 31 H        2.2120    -1.2740     0.1670 H     1 <1>   0.0800 
 32 H        1.2360    -0.5810    -1.0980 H     1 <1>   0.0800 
 33 H       -1.4530    -3.2170     2.4760 H     1 <1>   0.0800 
 34 H       -1.4100    -3.4090     0.7490 H     1 <1>   0.0800 
 35 H       -3.4180    -0.0190     2.2250 H     1 <1>   0.0800 
 36 H       -2.4700    -0.9660     3.3350 H     1 <1>   0.0800 
 37 H        2.4960     2.6860     0.8040 H     1 <1>   0.0800 
 38 H        1.5480     3.5230    -0.4030 H     1 <1>   0.0800 
 39 H        3.5670    -0.0260    -1.4050 H     1 <1>   0.0800 
 40 H        3.6810     0.6160     0.2150 H     1 <1>   0.0800 
 41 H       -2.5900    -1.4210     0.4540 H     1 <1>   0.4500 
 42 H        1.9080     1.6620    -1.8920 H     1 <1>   0.4500 
 43 H       -3.8440    -3.4650     0.9020 H     1 <1>   0.0800 
 44 H       -4.0980    -2.8670     2.5290 H     1 <1>   0.0800 
 45 H        3.3590     3.6550    -1.7910 H     1 <1>   0.0800 
 46 H        4.5110     2.6480    -0.9470 H     1 <1>   0.0800 
 47 H       -5.3010    -0.9290     1.6800 H     1 <1>   0.1500 
 48 H        3.3320     2.0480    -3.6900 H     1 <1>   0.0800 
 49 H        4.5780     1.1010    -2.8860 H     1 <1>   0.0800 
 50 H        4.9060     2.7260    -3.3970 H     1 <1>   0.0800 
 51 H       -5.2710    -2.6200    -0.8800 H     1 <1>   0.1500 
 52 H       -6.3580    -1.7650    -2.7740 H     1 <1>   0.1500 
 53 H       -7.2800    -0.0970     1.0430 H     1 <1>   0.1500 
 54 H       -8.1420    -0.4330    -3.7770 H     1 <1>   0.1500 
 55 H       -9.0500     1.2340     0.0300 H     1 <1>   0.1500 
 56 H       -9.4940     1.0750    -2.3830 H     1 <1>   0.1500 
@<TRIPOS>BOND
  1   1   2  1   
  2   1   3  1   
  3   1   4  1   
  4   2   5  1   
  5   2   6  1   
  6   2  24  1   
  7   3   7  1   
  8   3  25  1   
  9   3  26  1   
 10   4   8  1   
 11   4  27  1   
 12   4  28  1   
 13   5   9  1   
 14   5  29  1   
 15   5  30  1   
 16   6  10  1   
 17   6  31  1   
 18   6  32  1   
 19   7  11  1   
 20   7  33  1   
 21   7  34  1   
 22   8  11  1   
 23   8  35  1   
 24   8  36  1   
 25   9  12  1   
 26   9  37  1   
 27   9  38  1   
 28  10  12  1   
 29  10  39  1   
 30  10  40  1   
 31  11  13  1   
 32  11  41  1   
 33  12  14  1   
 34  12  42  1   
 35  13  15  1   
 36  13  43  1   
 37  13  44  1   
 38  14  16  1   
 39  14  45  1   
 40  14  46  1   
 41  15  17  2   
 42  15  47  1   
 43  16  48  1   
 44  16  49  1   
 45  16  50  1   
 46  17  18  1   
 47  17  51  1   
 48  18  19  ar  
 49  18  20  ar  
 50  19  21  ar  
 51  19  52  1   
 52  20  22  ar  
 53  20  53  1   
 54  21  23  ar  
 55  21  54  1   
 56  22  23  ar  
 57  22  55  1   
 58  23  56  1   
@<TRIPOS>SUBSTRUCTURE
  1 ****   1 GROUP 4 **** **** 0

# MOE 2024.06 (io_trps.svl 2023.06)
