@<TRIPOS>MOLECULE
NONAME
39 40 1 0 0 
SMALL
USER_CHARGES


@<TRIPOS>ATOM
  1 O       -8.0060     2.8770     0.2830 O.3   1 <1>  -0.3630 
  2 C       -6.8300     3.4930    -0.0300 C.ar  1 <1>   0.0830 
  3 C       -9.2510     3.4560    -0.0270 C.3   1 <1>   0.1200 
  4 C       -5.6400     2.8510     0.3250 C.ar  1 <1>   0.0820 
  5 C       -6.7780     4.7220    -0.6810 C.ar  1 <1>  -0.1500 
  6 C      -10.3400     2.5060     0.4590 C.3   1 <1>   0.0960 
  7 O       -5.7280     1.6480     0.9650 O.3   1 <1>  -0.3630 
  8 C       -4.4210     3.4510     0.0200 C.ar  1 <1>  -0.1500 
  9 C       -5.5580     5.3050    -0.9770 C.ar  1 <1>  -0.1500 
 10 N      -11.6640     3.0660     0.1390 N.pl3 1 <1>   0.0480 
 11 C       -4.5790     0.9460     1.3820 C.3   1 <1>   0.0400 
 12 C       -4.3750     4.6740    -0.6300 C.ar  1 <1>  -0.1440 
 13 C      -12.4110     2.8470    -0.9670 C.2   1 <1>   0.0360 
 14 C      -12.3850     3.9330     0.8710 C.2   1 <1>  -0.3020 
 15 C       -3.0380     5.3200    -0.9570 C.3   1 <1>  -0.0170 
 16 N      -13.5270     3.5010    -0.9860 N.2   1 <1>  -0.5650 
 17 C      -13.5140     4.1850     0.1730 C.2   1 <1>   0.0770 
 18 C       -2.5680     6.1990     0.2080 C.3   1 <1>  -0.1600 
 19 C       -1.2210     6.8630    -0.0950 C.3   1 <1>  -0.2400 
 20 H       -9.3070     3.5840    -1.0940 H     1 <1>   0.0800 
 21 H       -9.3190     4.4030     0.4780 H     1 <1>   0.0800 
 22 H       -7.6690     5.2450    -0.9680 H     1 <1>   0.1500 
 23 H      -10.2650     2.3760     1.5240 H     1 <1>   0.0800 
 24 H      -10.2370     1.5520    -0.0250 H     1 <1>   0.0800 
 25 H       -3.4940     2.9800     0.2830 H     1 <1>   0.1500 
 26 H       -5.5330     6.2560    -1.4790 H     1 <1>   0.1500 
 27 H       -4.8990     0.0420     1.8670 H     1 <1>   0.0800 
 28 H       -4.0290     1.5570     2.0760 H     1 <1>   0.0800 
 29 H       -3.9830     0.7070     0.5190 H     1 <1>   0.0800 
 30 H      -12.0880     2.1860    -1.7520 H     1 <1>   0.1500 
 31 H      -12.0690     4.3150     1.8250 H     1 <1>   0.1500 
 32 H       -3.1340     5.9170    -1.8470 H     1 <1>   0.0800 
 33 H       -2.3070     4.5560    -1.1550 H     1 <1>   0.0800 
 34 H      -14.3310     4.8320     0.4470 H     1 <1>   0.1500 
 35 H       -2.4780     5.5960     1.0950 H     1 <1>   0.0800 
 36 H       -3.3060     6.9590     0.4000 H     1 <1>   0.0800 
 37 H       -0.4640     6.1180    -0.2670 H     1 <1>   0.0800 
 38 H       -0.9170     7.4720     0.7380 H     1 <1>   0.0800 
 39 H       -1.2970     7.4900    -0.9660 H     1 <1>   0.0800 
@<TRIPOS>BOND
  1   1   2  1   
  2   1   3  1   
  3   2   4  ar  
  4   2   5  ar  
  5   3   6  1   
  6   3  20  1   
  7   3  21  1   
  8   4   7  1   
  9   4   8  ar  
 10   5   9  ar  
 11   5  22  1   
 12   6  10  1   
 13   6  23  1   
 14   6  24  1   
 15   7  11  1   
 16   8  12  ar  
 17   8  25  1   
 18   9  12  ar  
 19   9  26  1   
 20  10  13  1   
 21  10  14  1   
 22  11  27  1   
 23  11  28  1   
 24  11  29  1   
 25  12  15  1   
 26  13  16  2   
 27  13  30  1   
 28  14  17  2   
 29  14  31  1   
 30  15  18  1   
 31  15  32  1   
 32  15  33  1   
 33  16  17  1   
 34  17  34  1   
 35  18  19  1   
 36  18  35  1   
 37  18  36  1   
 38  19  37  1   
 39  19  38  1   
 40  19  39  1   
@<TRIPOS>SUBSTRUCTURE
  1 ****   2 GROUP 4 **** **** 0

# MOE 2024.06 (io_trps.svl 2023.06)
