@<TRIPOS>MOLECULE
NONAME
37 38 1 0 0 
SMALL
USER_CHARGES


@<TRIPOS>ATOM
  1 S       -0.0710    -0.2800     0.2540 S.3   1 <1>  -0.0800 
  2 C       -1.6500     0.5050     0.1130 C.2   1 <1>  -0.0450 
  3 C        0.6050     1.0620     1.1470 C.2   1 <1>  -0.1100 
  4 C       -2.6990    -0.1840    -0.5880 C.2   1 <1>   0.5940 
  5 C       -1.5820     1.7130     0.7360 C.2   1 <1>  -0.1500 
  6 C       -0.3190     2.0250     1.3150 C.2   1 <1>  -0.1500 
  7 O       -2.5660    -1.2640    -1.1090 O.2   1 <1>  -0.5700 
  8 C       -4.0500     0.4950    -0.7320 C.3   1 <1>   0.1310 
  9 S       -4.9060     0.6090     0.9100 S.3   1 <1>  -0.3320 
 10 C       -6.4950     1.3340     0.5050 C.ar  1 <1>   0.4120 
 11 N       -7.4720     0.4560     0.4740 N.ar  1 <1>  -0.6200 
 12 C       -6.6040     2.6970     0.2550 C.ar  1 <1>   0.0730 
 13 C       -8.6640     0.9410     0.1870 C.ar  1 <1>   0.1670 
 14 C       -5.4240     3.5070     0.2970 C.1   1 <1>   0.4840 
 15 C       -7.8680     3.2000    -0.0430 C.ar  1 <1>  -0.1440 
 16 C       -8.9230     2.2890    -0.0800 C.ar  1 <1>  -0.1440 
 17 C       -9.7560    -0.1170     0.1630 C.3   1 <1>  -0.0960 
 18 N       -4.4710     4.1340     0.2890 N.1   1 <1>  -0.5570 
 19 C       -8.0780     4.6920    -0.3310 C.3   1 <1>  -0.0970 
 20 C      -10.3470     2.7520    -0.4170 C.3   1 <1>  -0.0170 
 21 C      -11.1160     3.1520     0.8480 C.3   1 <1>  -0.2400 
 22 H        1.6330     0.9890     1.4560 H     1 <1>   0.1500 
 23 H       -2.3930     2.4160     0.8160 H     1 <1>   0.1500 
 24 H       -0.1600     2.9560     1.8310 H     1 <1>   0.1500 
 25 H       -4.6900    -0.0780    -1.3790 H     1 <1>   0.0800 
 26 H       -3.9340     1.4910    -1.1150 H     1 <1>   0.0800 
 27 H       -9.4000    -1.0350     0.5970 H     1 <1>   0.0800 
 28 H      -10.0480    -0.3160    -0.8510 H     1 <1>   0.0800 
 29 H      -10.6120     0.2000     0.7280 H     1 <1>   0.0800 
 30 H       -8.1900     4.8460    -1.3900 H     1 <1>   0.0800 
 31 H       -7.2620     5.3020     0.0110 H     1 <1>   0.0800 
 32 H       -8.9590     5.0580     0.1630 H     1 <1>   0.0800 
 33 H      -10.8880     1.9770    -0.9280 H     1 <1>   0.0800 
 34 H      -10.3260     3.5830    -1.0980 H     1 <1>   0.0800 
 35 H      -11.1930     2.3200     1.5250 H     1 <1>   0.0800 
 36 H      -12.1090     3.4760     0.5890 H     1 <1>   0.0800 
 37 H      -10.6170     3.9550     1.3600 H     1 <1>   0.0800 
@<TRIPOS>BOND
  1   1   2  1   
  2   1   3  1   
  3   2   4  1   
  4   2   5  2   
  5   3   6  2   
  6   3  22  1   
  7   4   7  2   
  8   4   8  1   
  9   5   6  1   
 10   5  23  1   
 11   6  24  1   
 12   8   9  1   
 13   8  25  1   
 14   8  26  1   
 15   9  10  1   
 16  10  11  ar  
 17  10  12  ar  
 18  11  13  ar  
 19  12  14  1   
 20  12  15  ar  
 21  13  16  ar  
 22  13  17  1   
 23  14  18  3   
 24  15  16  ar  
 25  15  19  1   
 26  16  20  1   
 27  17  27  1   
 28  17  28  1   
 29  17  29  1   
 30  19  30  1   
 31  19  31  1   
 32  19  32  1   
 33  20  21  1   
 34  20  33  1   
 35  20  34  1   
 36  21  35  1   
 37  21  36  1   
 38  21  37  1   
@<TRIPOS>SUBSTRUCTURE
  1 ****  10 GROUP 4 **** **** 0

# MOE 2024.06 (io_trps.svl 2023.06)
