@<TRIPOS>MOLECULE
NONAME
55 56 1 0 0 
SMALL
USER_CHARGES


@<TRIPOS>ATOM
  1 S       -0.0680    -1.0500    -0.1150 S.o2  1 <1>   1.4470 
  2 O        0.3550    -2.3230     0.4180 O.2   1 <1>  -0.6500 
  3 O       -0.8310    -1.0230    -1.3410 O.2   1 <1>  -0.6500 
  4 N       -0.9860    -0.3890     1.1240 N.am  1 <1>  -0.9140 
  5 C        1.3700     0.0500    -0.2290 C.ar  1 <1>  -0.0090 
  6 C       -1.9240     0.6750     0.8450 C.3   1 <1>   0.4190 
  7 C        1.7700     0.5900    -1.4450 C.ar  1 <1>  -0.1500 
  8 C        2.1080     0.3780     0.9020 C.ar  1 <1>  -0.1500 
  9 C       -3.2610     0.0820     0.4050 C.ar  1 <1>  -0.1440 
 10 C       -1.3630     1.8000    -0.0300 C.3   1 <1>  -0.2400 
 11 C        2.8650     1.4330    -1.5290 C.ar  1 <1>  -0.1500 
 12 C        3.2040     1.2200     0.8260 C.ar  1 <1>  -0.1500 
 13 C       -4.1330    -0.3760     1.3860 C.ar  1 <1>  -0.1500 
 14 C       -3.6480    -0.0190    -0.9260 C.ar  1 <1>  -0.1500 
 15 C        3.5880     1.7520    -0.3930 C.ar  1 <1>  -0.1430 
 16 C       -5.3600    -0.9190     1.0480 C.ar  1 <1>  -0.1500 
 17 C       -4.8750    -0.5620    -1.2660 C.ar  1 <1>  -0.1500 
 18 C        4.7970     2.6660    -0.4910 C.3   1 <1>  -0.0170 
 19 C       -5.7330    -1.0120    -0.2800 C.ar  1 <1>  -0.1500 
 20 C        6.0450     1.8540    -0.8490 C.3   1 <1>  -0.0990 
 21 C        7.2540     2.7520    -0.9700 C.2   1 <1>   0.5690 
 22 O        7.3500     3.4630    -1.9390 O.2   1 <1>  -0.5700 
 23 N        8.1810     2.7340     0.0190 N.am  1 <1>  -0.7300 
 24 C        9.4230     3.5410     0.0350 C.3   1 <1>   0.1400 
 25 C       10.6510     2.6370     0.2300 C.3   1 <1>  -0.0800 
 26 C       10.6070     1.8680     1.5600 C.3   1 <1>  -0.2400 
 27 C       11.9330     3.4770     0.1660 C.3   1 <1>  -0.2400 
 28 H       -1.5650    -1.1760     1.4080 H     1 <1>   0.4200 
 29 H       -2.1210     1.1410     1.7970 H     1 <1>   0.0800 
 30 H        1.2190     0.3490    -2.3390 H     1 <1>   0.1500 
 31 H        1.8180    -0.0330     1.8540 H     1 <1>   0.1500 
 32 H       -1.1630     1.4800    -1.0340 H     1 <1>   0.0800 
 33 H       -0.4640     2.1960     0.4080 H     1 <1>   0.0800 
 34 H       -2.0860     2.5930    -0.0800 H     1 <1>   0.0800 
 35 H        3.1540     1.8370    -2.4850 H     1 <1>   0.1500 
 36 H        3.7550     1.4550     1.7190 H     1 <1>   0.1500 
 37 H       -3.8630    -0.3130     2.4260 H     1 <1>   0.1500 
 38 H       -2.9980     0.3140    -1.7160 H     1 <1>   0.1500 
 39 H       -6.0260    -1.2700     1.8180 H     1 <1>   0.1500 
 40 H       -5.1580    -0.6360    -2.3020 H     1 <1>   0.1500 
 41 H        4.9500     3.1770     0.4440 H     1 <1>   0.0800 
 42 H        4.6250     3.4140    -1.2460 H     1 <1>   0.0800 
 43 H       -6.6860    -1.4340    -0.5460 H     1 <1>   0.1500 
 44 H        5.8950     1.3600    -1.7920 H     1 <1>   0.0800 
 45 H        6.2190     1.1010    -0.1030 H     1 <1>   0.0800 
 46 H        8.0680     2.1080     0.8150 H     1 <1>   0.3700 
 47 H        9.3640     4.2610     0.8330 H     1 <1>   0.0800 
 48 H        9.5150     4.0790    -0.8940 H     1 <1>   0.0800 
 49 H       10.6780     1.9300    -0.5830 H     1 <1>   0.0800 
 50 H       10.5300     2.5490     2.3900 H     1 <1>   0.0800 
 51 H       11.5030     1.2840     1.6800 H     1 <1>   0.0800 
 52 H        9.7710     1.1930     1.5860 H     1 <1>   0.0800 
 53 H       11.9540     4.2020     0.9610 H     1 <1>   0.0800 
 54 H       11.9930     3.9960    -0.7740 H     1 <1>   0.0800 
 55 H       12.7990     2.8450     0.2550 H     1 <1>   0.0800 
@<TRIPOS>BOND
  1   1   2  2   
  2   1   3  2   
  3   1   4  am  
  4   1   5  1   
  5   4   6  1   
  6   4  28  1   
  7   5   7  ar  
  8   5   8  ar  
  9   6   9  1   
 10   6  10  1   
 11   6  29  1   
 12   7  11  ar  
 13   7  30  1   
 14   8  12  ar  
 15   8  31  1   
 16   9  13  ar  
 17   9  14  ar  
 18  10  32  1   
 19  10  33  1   
 20  10  34  1   
 21  11  15  ar  
 22  11  35  1   
 23  12  15  ar  
 24  12  36  1   
 25  13  16  ar  
 26  13  37  1   
 27  14  17  ar  
 28  14  38  1   
 29  15  18  1   
 30  16  19  ar  
 31  16  39  1   
 32  17  19  ar  
 33  17  40  1   
 34  18  20  1   
 35  18  41  1   
 36  18  42  1   
 37  19  43  1   
 38  20  21  1   
 39  20  44  1   
 40  20  45  1   
 41  21  22  2   
 42  21  23  am  
 43  23  24  1   
 44  23  46  1   
 45  24  25  1   
 46  24  47  1   
 47  24  48  1   
 48  25  26  1   
 49  25  27  1   
 50  25  49  1   
 51  26  50  1   
 52  26  51  1   
 53  26  52  1   
 54  27  53  1   
 55  27  54  1   
 56  27  55  1   
@<TRIPOS>SUBSTRUCTURE
  1 ****   8 GROUP 4 **** **** 0

# MOE 2024.06 (io_trps.svl 2023.06)
