@<TRIPOS>MOLECULE
NONAME
38 39 1 0 0 
SMALL
USER_CHARGES


@<TRIPOS>ATOM
  1 O        0.5690     1.2070     2.1840 O.2   1 <1>  -0.5700 
  2 C        0.7220     1.5140     1.0180 C.2   1 <1>   0.5440 
  3 N       -0.3610     1.8850     0.2760 N.am  1 <1>  -0.7300 
  4 C        2.0320     1.4960     0.3970 C.ar  1 <1>   0.0860 
  5 C       -1.7520     1.9580     0.7470 C.3   1 <1>   0.2200 
  6 C        2.8460     2.6350     0.4060 C.ar  1 <1>  -0.1440 
  7 C        2.5070     0.3450    -0.2430 C.ar  1 <1>  -0.1430 
  8 C       -2.6190     1.0870    -0.1530 C.3   1 <1>  -0.1600 
  9 C       -2.2820     3.3630     0.4920 C.3   1 <1>  -0.1600 
 10 C        4.0820     2.6190    -0.2170 C.ar  1 <1>  -0.1500 
 11 C        2.3850     3.9070     1.1080 C.3   1 <1>  -0.0970 
 12 C        3.7450     0.3470    -0.8620 C.ar  1 <1>  -0.1500 
 13 C        1.6680    -0.9270    -0.2630 C.3   1 <1>  -0.0970 
 14 C       -2.9070     1.9320    -1.4000 C.3   1 <1>  -0.1600 
 15 C       -2.6900     3.3940    -0.9850 C.3   1 <1>  -0.1600 
 16 C        4.5370     1.4800    -0.8570 C.ar  1 <1>  -0.1430 
 17 C        5.8950     1.4720    -1.5360 C.3   1 <1>  -0.0970 
 18 H       -0.2260     2.1420    -0.7010 H     1 <1>   0.3700 
 19 H       -1.8220     1.6740     1.7850 H     1 <1>   0.0800 
 20 H       -3.5450     0.8900     0.3570 H     1 <1>   0.0800 
 21 H       -2.1480     0.1470    -0.3840 H     1 <1>   0.0800 
 22 H       -1.5600     4.1200     0.7430 H     1 <1>   0.0800 
 23 H       -3.1580     3.5100     1.1000 H     1 <1>   0.0800 
 24 H        4.7010     3.4990    -0.2050 H     1 <1>   0.1500 
 25 H        3.1430     4.6680     1.0720 H     1 <1>   0.0800 
 26 H        1.4970     4.2880     0.6370 H     1 <1>   0.0800 
 27 H        2.1660     3.6960     2.1400 H     1 <1>   0.0800 
 28 H        4.1020    -0.5430    -1.3510 H     1 <1>   0.1500 
 29 H        0.7480    -0.7560    -0.7940 H     1 <1>   0.0800 
 30 H        1.4350    -1.2280     0.7430 H     1 <1>   0.0800 
 31 H        2.1940    -1.7320    -0.7430 H     1 <1>   0.0800 
 32 H       -3.9110     1.7670    -1.7510 H     1 <1>   0.0800 
 33 H       -2.2170     1.6720    -2.1850 H     1 <1>   0.0800 
 34 H       -1.8990     3.8240    -1.5750 H     1 <1>   0.0800 
 35 H       -3.5830     3.9790    -1.1240 H     1 <1>   0.0800 
 36 H        6.1400     2.4530    -1.9010 H     1 <1>   0.0800 
 37 H        5.8950     0.7910    -2.3690 H     1 <1>   0.0800 
 38 H        6.6490     1.1630    -0.8350 H     1 <1>   0.0800 
@<TRIPOS>BOND
  1   1   2  2   
  2   2   3  am  
  3   2   4  1   
  4   3   5  1   
  5   3  18  1   
  6   4   6  ar  
  7   4   7  ar  
  8   5   8  1   
  9   5   9  1   
 10   5  19  1   
 11   6  10  ar  
 12   6  11  1   
 13   7  12  ar  
 14   7  13  1   
 15   8  14  1   
 16   8  20  1   
 17   8  21  1   
 18   9  15  1   
 19   9  22  1   
 20   9  23  1   
 21  10  16  ar  
 22  10  24  1   
 23  11  25  1   
 24  11  26  1   
 25  11  27  1   
 26  12  16  ar  
 27  12  28  1   
 28  13  29  1   
 29  13  30  1   
 30  13  31  1   
 31  14  15  1   
 32  14  32  1   
 33  14  33  1   
 34  15  34  1   
 35  15  35  1   
 36  16  17  1   
 37  17  36  1   
 38  17  37  1   
 39  17  38  1   
@<TRIPOS>SUBSTRUCTURE
  1 ****   4 GROUP 4 **** **** 0

# MOE 2024.06 (io_trps.svl 2023.06)
