@<TRIPOS>MOLECULE
NONAME
44 46 1 0 0 
SMALL
USER_CHARGES


@<TRIPOS>ATOM
  1 O        0.1640     2.5890    -1.6290 O.2   1 <1>  -0.5700 
  2 C        0.7160     1.9490    -0.7650 C.2   1 <1>   0.5690 
  3 N        0.2040     1.7740     0.4820 N.am  1 <1>  -0.7300 
  4 C        2.0610     1.2840    -1.0920 C.3   1 <1>   0.2700 
  5 C       -1.1310     2.1250     1.0240 C.3   1 <1>   0.2200 
  6 N        2.5040     0.2060    -0.1170 N.pl3 1 <1>  -0.8380 
  7 C       -2.3350     1.2290     0.3710 C.3   1 <1>  -0.0800 
  8 C       -1.5250     3.7350     0.8150 C.3   1 <1>  -0.1600 
  9 C        1.6500    -0.8610     0.1820 C.ar  1 <1>   0.1000 
 10 C        3.9520    -0.1090    -0.1750 C.3   1 <1>   0.2090 
 11 C       -2.7160     2.5140     0.3210 C.3   1 <1>  -0.1600 
 12 C       -3.8700     1.2910    -0.1920 C.3   1 <1>  -0.1600 
 13 C       -3.0580     3.8030     0.2410 C.3   1 <1>  -0.0800 
 14 C        0.7400    -1.3750    -0.7380 C.ar  1 <1>  -0.1500 
 15 C        1.6890    -1.4240     1.4520 C.ar  1 <1>  -0.1500 
 16 C        4.6890     0.7960     0.8060 C.3   1 <1>  -0.2400 
 17 C       -4.2790     2.9060    -0.3800 C.3   1 <1>  -0.1600 
 18 C       -0.1070    -2.4130    -0.3950 C.ar  1 <1>  -0.1500 
 19 C        0.8470    -2.4640     1.8000 C.ar  1 <1>  -0.1500 
 20 C       -0.0560    -2.9600     0.8750 C.ar  1 <1>  -0.1500 
 21 H        0.7240     1.0790     1.0330 H     1 <1>   0.3700 
 22 H        2.7990     2.0630    -1.1130 H     1 <1>   0.0800 
 23 H        2.0020     0.8670    -2.0800 H     1 <1>   0.0800 
 24 H       -1.1020     1.9260     2.0850 H     1 <1>   0.0800 
 25 H       -1.8330     0.7550    -0.4630 H     1 <1>   0.0800 
 26 H       -0.8510     4.2070     0.1170 H     1 <1>   0.0800 
 27 H       -1.4440     4.2580     1.7520 H     1 <1>   0.0800 
 28 H        4.3230     0.0400    -1.1740 H     1 <1>   0.0800 
 29 H        4.1150    -1.1410     0.0920 H     1 <1>   0.0800 
 30 H       -2.2550     2.5830    -0.7630 H     1 <1>   0.0800 
 31 H       -3.1660     2.4560     1.4060 H     1 <1>   0.0800 
 32 H       -4.5420     0.8150     0.5070 H     1 <1>   0.0800 
 33 H       -3.9560     0.7700    -1.1320 H     1 <1>   0.0800 
 34 H       -3.5630     4.3030     1.0560 H     1 <1>   0.0800 
 35 H        0.6880    -0.9670    -1.7290 H     1 <1>   0.1500 
 36 H        2.3860    -1.0350     2.1710 H     1 <1>   0.1500 
 37 H        4.5610     1.8280     0.5360 H     1 <1>   0.0800 
 38 H        5.7380     0.5650     0.7940 H     1 <1>   0.0800 
 39 H        4.3140     0.6400     1.8010 H     1 <1>   0.0800 
 40 H       -5.2120     3.1210     0.1160 H     1 <1>   0.0800 
 41 H       -4.4070     3.1350    -1.4270 H     1 <1>   0.0800 
 42 H       -0.8070    -2.7970    -1.1170 H     1 <1>   0.1500 
 43 H        0.8910    -2.8870     2.7880 H     1 <1>   0.1500 
 44 H       -0.7140    -3.7680     1.1420 H     1 <1>   0.1500 
@<TRIPOS>BOND
  1   1   2  2   
  2   2   3  am  
  3   2   4  1   
  4   3   5  1   
  5   3  21  1   
  6   4   6  1   
  7   4  22  1   
  8   4  23  1   
  9   5   7  1   
 10   5   8  1   
 11   5  24  1   
 12   6   9  1   
 13   6  10  1   
 14   7  11  1   
 15   7  12  1   
 16   7  25  1   
 17   8  13  1   
 18   8  26  1   
 19   8  27  1   
 20   9  14  ar  
 21   9  15  ar  
 22  10  16  1   
 23  10  28  1   
 24  10  29  1   
 25  11  13  1   
 26  11  30  1   
 27  11  31  1   
 28  12  17  1   
 29  12  32  1   
 30  12  33  1   
 31  13  17  1   
 32  13  34  1   
 33  14  18  ar  
 34  14  35  1   
 35  15  19  ar  
 36  15  36  1   
 37  16  37  1   
 38  16  38  1   
 39  16  39  1   
 40  17  40  1   
 41  17  41  1   
 42  18  20  ar  
 43  18  42  1   
 44  19  20  ar  
 45  19  43  1   
 46  20  44  1   
@<TRIPOS>SUBSTRUCTURE
  1 ****   3 GROUP 4 **** **** 0

# MOE 2024.06 (io_trps.svl 2023.06)
