@<TRIPOS>MOLECULE
NONAME
47 49 1 0 0 
SMALL
USER_CHARGES


@<TRIPOS>ATOM
  1 F       -1.7350     2.2540     1.7330 F     1 <1>  -0.1900 
  2 C       -1.3090     2.7950     0.6160 C.ar  1 <1>   0.1900 
  3 C       -2.0950     2.6660    -0.5290 C.ar  1 <1>   0.1170 
  4 C       -0.1040     3.4680     0.6380 C.ar  1 <1>  -0.1500 
  5 N       -3.3110     1.9560    -0.4620 N.am  1 <1>  -0.5470 
  6 C       -1.6040     3.2540    -1.6930 C.ar  1 <1>  -0.1500 
  7 C        0.3550     4.0450    -0.5340 C.ar  1 <1>  -0.1500 
  8 C       -4.4030     1.9390    -1.2890 C.2   1 <1>   0.5690 
  9 C       -0.3970     3.9350    -1.6940 C.ar  1 <1>  -0.1500 
 10 O       -4.4690     2.5680    -2.3160 O.2   1 <1>  -0.5700 
 11 C       -5.6130     1.0960    -0.8620 C.3   1 <1>   0.1710 
 12 N       -6.7350     1.8730    -0.2540 N.3   1 <1>  -0.8100 
 13 C       -7.9210     1.0320     0.0330 C.3   1 <1>   0.1100 
 14 C       -6.3510     2.6890     0.9230 C.3   1 <1>   0.1100 
 15 C       -9.1090     1.8660     0.5780 C.3   1 <1>   0.3430 
 16 C       -7.5260     3.5650     1.4280 C.3   1 <1>   0.3430 
 17 N       -8.7640     3.3270     0.6170 N.4   1 <1>  -0.9590 
 18 C       -9.8990     4.2210     0.9600 C.3   1 <1>   0.4860 
 19 C      -11.0360     3.9740    -0.0140 C.ar  1 <1>  -0.1430 
 20 C      -10.9200     4.3600    -1.3430 C.ar  1 <1>  -0.1500 
 21 C      -12.2050     3.3530     0.4150 C.ar  1 <1>  -0.1500 
 22 C      -11.9690     4.1060    -2.2060 C.ar  1 <1>   0.1900 
 23 C      -13.2460     3.1090    -0.4680 C.ar  1 <1>  -0.1500 
 24 F      -11.8520     4.4640    -3.4550 F     1 <1>  -0.1900 
 25 C      -13.1320     3.4860    -1.7950 C.ar  1 <1>  -0.1500 
 26 H        0.4630     3.5390     1.5490 H     1 <1>   0.1500 
 27 H       -3.3920     1.4030     0.3910 H     1 <1>   0.3700 
 28 H       -2.1580     3.1820    -2.6120 H     1 <1>   0.1500 
 29 H        1.2920     4.5760    -0.5460 H     1 <1>   0.1500 
 30 H       -0.0390     4.3820    -2.6060 H     1 <1>   0.1500 
 31 H       -5.2860     0.3360    -0.1750 H     1 <1>   0.0800 
 32 H       -5.9760     0.6000    -1.7450 H     1 <1>   0.0800 
 33 H       -7.6680     0.2660     0.7460 H     1 <1>   0.0800 
 34 H       -8.2350     0.5410    -0.8730 H     1 <1>   0.0800 
 35 H       -5.5350     3.3440     0.6620 H     1 <1>   0.0800 
 36 H       -6.0130     2.0500     1.7210 H     1 <1>   0.0800 
 37 H       -9.3660     1.5190     1.5650 H     1 <1>   0.0800 
 38 H       -9.9640     1.7040    -0.0590 H     1 <1>   0.0800 
 39 H       -7.2370     4.6020     1.3600 H     1 <1>   0.0800 
 40 H       -7.7120     3.3440     2.4660 H     1 <1>   0.0800 
 41 H       -8.4690     3.5200    -0.3530 H     1 <1>   0.4500 
 42 H       -9.5910     5.2520     0.8930 H     1 <1>   0.0800 
 43 H      -10.2320     4.0280     1.9660 H     1 <1>   0.0800 
 44 H      -10.0430     4.8520    -1.7260 H     1 <1>   0.1500 
 45 H      -12.3240     3.0540     1.4430 H     1 <1>   0.1500 
 46 H      -14.1480     2.6290    -0.1250 H     1 <1>   0.1500 
 47 H      -13.9270     3.3070    -2.4990 H     1 <1>   0.1500 
@<TRIPOS>BOND
  1   1   2  1   
  2   2   3  ar  
  3   2   4  ar  
  4   3   5  1   
  5   3   6  ar  
  6   4   7  ar  
  7   4  26  1   
  8   5   8  am  
  9   5  27  1   
 10   6   9  ar  
 11   6  28  1   
 12   7   9  ar  
 13   7  29  1   
 14   8  10  2   
 15   8  11  1   
 16   9  30  1   
 17  11  12  1   
 18  11  31  1   
 19  11  32  1   
 20  12  13  1   
 21  12  14  1   
 22  13  15  1   
 23  13  33  1   
 24  13  34  1   
 25  14  16  1   
 26  14  35  1   
 27  14  36  1   
 28  15  17  1   
 29  15  37  1   
 30  15  38  1   
 31  16  17  1   
 32  16  39  1   
 33  16  40  1   
 34  17  18  1   
 35  17  41  1   
 36  18  19  1   
 37  18  42  1   
 38  18  43  1   
 39  19  20  ar  
 40  19  21  ar  
 41  20  22  ar  
 42  20  44  1   
 43  21  23  ar  
 44  21  45  1   
 45  22  24  1   
 46  22  25  ar  
 47  23  25  ar  
 48  23  46  1   
 49  25  47  1   
@<TRIPOS>SUBSTRUCTURE
  1 ****  12 GROUP 4 **** **** 0

# MOE 2024.06 (io_trps.svl 2023.06)
