@<TRIPOS>MOLECULE
NONAME
36 38 1 0 0 
SMALL
USER_CHARGES


@<TRIPOS>ATOM
  1 O       -0.6140     0.2440     1.1890 O.2   1 <1>  -0.5700 
  2 C       -1.5960     0.8850     0.8730 C.2   1 <1>   0.7060 
  3 O       -2.7420     0.2360     0.6740 O.3   1 <1>  -0.2320 
  4 C       -1.5880     2.3000     0.7020 C.2   1 <1>  -0.1360 
  5 C       -3.8870     0.8560     0.3150 C.ar  1 <1>   0.0820 
  6 C       -2.6990     2.9820     0.3450 C.2   1 <1>  -0.1670 
  7 C       -3.9170     2.2470     0.1360 C.ar  1 <1>   0.0280 
  8 C       -5.0430     0.0840     0.1240 C.ar  1 <1>   0.0000 
  9 C       -2.6680     4.4940     0.1690 C.3   1 <1>  -0.1020 
 10 C       -5.1350     2.8480    -0.2410 C.ar  1 <1>  -0.1500 
 11 C       -6.2060     0.7260    -0.2460 C.ar  1 <1>   0.1400 
 12 C       -5.4020    -1.2870     0.2040 C.2   1 <1>  -0.1810 
 13 C       -6.2740     2.1010    -0.4320 C.ar  1 <1>  -0.1500 
 14 O       -7.1950    -0.1450    -0.3890 O.3   1 <1>  -0.2800 
 15 C       -6.7160    -1.3600    -0.1240 C.2   1 <1>  -0.0400 
 16 C       -4.4010    -2.3680     0.5900 C.3   1 <1>   0.0210 
 17 C       -7.7450    -2.4840    -0.2700 C.3   1 <1>   0.3800 
 18 C       -3.5600    -2.7810    -0.6190 C.3   1 <1>  -0.2400 
 19 O       -8.7770    -2.2020     0.5950 O.3   1 <1>  -0.6800 
 20 C       -7.2880    -3.9050     0.0350 C.3   1 <1>  -0.2400 
 21 H       -0.6420     2.7750     0.8760 H     1 <1>   0.1500 
 22 H       -2.9370     4.7560    -0.8400 H     1 <1>   0.0800 
 23 H       -1.6840     4.8830     0.3650 H     1 <1>   0.0800 
 24 H       -3.3560     4.9620     0.8500 H     1 <1>   0.0800 
 25 H       -5.1840     3.9120    -0.3840 H     1 <1>   0.1500 
 26 H       -7.2090     2.5470    -0.7200 H     1 <1>   0.1500 
 27 H       -4.9010    -3.2280     0.9870 H     1 <1>   0.0800 
 28 H       -3.7590    -2.0030     1.3730 H     1 <1>   0.0800 
 29 H       -8.1460    -2.4460    -1.2690 H     1 <1>   0.0800 
 30 H       -4.1920    -3.1660    -1.3990 H     1 <1>   0.0800 
 31 H       -2.8540    -3.5410    -0.3360 H     1 <1>   0.0800 
 32 H       -3.0170    -1.9360    -1.0020 H     1 <1>   0.0800 
 33 H       -8.8420    -1.2280     0.6480 H     1 <1>   0.4000 
 34 H       -7.0030    -3.9930     1.0670 H     1 <1>   0.0800 
 35 H       -6.4580    -4.1670    -0.5940 H     1 <1>   0.0800 
 36 H       -8.0920    -4.5910    -0.1640 H     1 <1>   0.0800 
@<TRIPOS>BOND
  1   1   2  2   
  2   2   3  1   
  3   2   4  1   
  4   3   5  1   
  5   4   6  2   
  6   4  21  1   
  7   5   7  ar  
  8   5   8  ar  
  9   6   7  1   
 10   6   9  1   
 11   7  10  ar  
 12   8  11  ar  
 13   8  12  1   
 14   9  22  1   
 15   9  23  1   
 16   9  24  1   
 17  10  13  ar  
 18  10  25  1   
 19  11  13  ar  
 20  11  14  1   
 21  12  15  2   
 22  12  16  1   
 23  13  26  1   
 24  14  15  1   
 25  15  17  1   
 26  16  18  1   
 27  16  27  1   
 28  16  28  1   
 29  17  19  1   
 30  17  20  1   
 31  17  29  1   
 32  18  30  1   
 33  18  31  1   
 34  18  32  1   
 35  19  33  1   
 36  20  34  1   
 37  20  35  1   
 38  20  36  1   
@<TRIPOS>SUBSTRUCTURE
  1 ****   8 GROUP 4 **** **** 0

# MOE 2024.06 (io_trps.svl 2023.06)
