@<TRIPOS>MOLECULE
NONAME
40 42 1 0 0 
SMALL
USER_CHARGES


@<TRIPOS>ATOM
  1 O       -0.3920    -2.4000    -1.8600 O.3   1 <1>  -0.6800 
  2 C       -0.3220    -2.0600    -0.5200 C.3   1 <1>   0.1200 
  3 C       -1.5060    -2.6760     0.2420 C.3   1 <1>  -0.1600 
  4 C       -2.8940    -1.9980     0.1080 C.3   1 <1>   0.0000 
  5 C       -2.8630    -0.5320     0.6050 C.3   1 <1>  -0.1600 
  6 C       -3.8950    -2.7860     0.9850 C.3   1 <1>  -0.1600 
  7 C       -3.4200    -2.0070    -1.3460 C.3   1 <1>  -0.1600 
  8 C       -4.2650     0.1210     0.5390 C.3   1 <1>   0.0000 
  9 C       -5.3010    -2.1670     0.9150 C.3   1 <1>  -0.0800 
 10 C       -4.8260    -1.3850    -1.4270 C.3   1 <1>  -0.0800 
 11 C       -5.2330    -0.7130     1.4090 C.3   1 <1>  -0.1600 
 12 C       -4.7640     0.0700    -0.9250 C.3   1 <1>  -0.1600 
 13 C       -4.2450     1.5690     1.0830 C.3   1 <1>  -0.1600 
 14 C       -5.7920    -2.1890    -0.5420 C.3   1 <1>  -0.1600 
 15 C       -3.3350     2.5380     0.3200 C.3   1 <1>   0.1200 
 16 O       -3.4130     3.7750     0.9300 O.3   1 <1>  -0.6800 
 17 H        0.3660    -2.0290    -2.3520 H     1 <1>   0.4000 
 18 H       -0.3020    -0.9880    -0.4350 H     1 <1>   0.0800 
 19 H        0.6020    -2.4580    -0.1360 H     1 <1>   0.0800 
 20 H       -1.2410    -2.6640     1.2840 H     1 <1>   0.0800 
 21 H       -1.5830    -3.7120    -0.0420 H     1 <1>   0.0800 
 22 H       -2.1840     0.0290    -0.0070 H     1 <1>   0.0800 
 23 H       -2.4990    -0.5010     1.6170 H     1 <1>   0.0800 
 24 H       -3.5620    -2.7920     2.0080 H     1 <1>   0.0800 
 25 H       -3.9420    -3.8090     0.6530 H     1 <1>   0.0800 
 26 H       -3.4450    -3.0170    -1.7180 H     1 <1>   0.0800 
 27 H       -2.7600    -1.4460    -1.9820 H     1 <1>   0.0800 
 28 H       -5.9770    -2.7310     1.5340 H     1 <1>   0.0800 
 29 H       -5.1700    -1.4030    -2.4470 H     1 <1>   0.0800 
 30 H       -6.2190    -0.2820     1.3770 H     1 <1>   0.0800 
 31 H       -4.9070    -0.7010     2.4340 H     1 <1>   0.0800 
 32 H       -4.1030     0.6230    -1.5670 H     1 <1>   0.0800 
 33 H       -5.7400     0.5150    -0.9960 H     1 <1>   0.0800 
 34 H       -3.9210     1.5440     2.1090 H     1 <1>   0.0800 
 35 H       -5.2490     1.9540     1.0610 H     1 <1>   0.0800 
 36 H       -6.7800    -1.7670    -0.6010 H     1 <1>   0.0800 
 37 H       -5.8480    -3.2050    -0.8930 H     1 <1>   0.0800 
 38 H       -3.6430     2.6510    -0.7050 H     1 <1>   0.0800 
 39 H       -2.3070     2.2240     0.3540 H     1 <1>   0.0800 
 40 H       -4.3350     4.0950     0.9360 H     1 <1>   0.4000 
@<TRIPOS>BOND
  1   1   2  1   
  2   1  17  1   
  3   2   3  1   
  4   2  18  1   
  5   2  19  1   
  6   3   4  1   
  7   3  20  1   
  8   3  21  1   
  9   4   5  1   
 10   4   6  1   
 11   4   7  1   
 12   5   8  1   
 13   5  22  1   
 14   5  23  1   
 15   6   9  1   
 16   6  24  1   
 17   6  25  1   
 18   7  10  1   
 19   7  26  1   
 20   7  27  1   
 21   8  11  1   
 22   8  12  1   
 23   8  13  1   
 24   9  11  1   
 25   9  14  1   
 26   9  28  1   
 27  10  12  1   
 28  10  14  1   
 29  10  29  1   
 30  11  30  1   
 31  11  31  1   
 32  12  32  1   
 33  12  33  1   
 34  13  15  1   
 35  13  34  1   
 36  13  35  1   
 37  14  36  1   
 38  14  37  1   
 39  15  16  1   
 40  15  38  1   
 41  15  39  1   
 42  16  40  1   
@<TRIPOS>SUBSTRUCTURE
  1 ****   5 GROUP 4 **** **** 0

# MOE 2024.06 (io_trps.svl 2023.06)
