@<TRIPOS>MOLECULE
NONAME
48 49 1 0 0 
SMALL
USER_CHARGES


@<TRIPOS>ATOM
  1 O       -0.5440    -0.2700    -0.0780 O.2   1 <1>  -0.5700 
  2 C       -0.9060    -1.4130     0.0560 C.2   1 <1>   0.5690 
  3 N       -0.1400    -2.5350     0.0360 N.am  1 <1>  -0.6600 
  4 C       -2.3560    -1.7440     0.2630 C.3   1 <1>  -0.0990 
  5 C        1.3160    -2.6030    -0.2890 C.3   1 <1>   0.3000 
  6 C       -0.9760    -3.7470     0.2210 C.3   1 <1>   0.1400 
  7 C       -2.3220    -3.2090     0.7290 C.3   1 <1>  -0.0190 
  8 C        1.8340    -4.0470    -0.2420 C.3   1 <1>  -0.2400 
  9 C        1.5370    -2.0550    -1.7010 C.3   1 <1>  -0.2400 
 10 C        2.0970    -1.7790     0.7380 C.3   1 <1>  -0.2400 
 11 C       -3.5150    -4.0460     0.2890 C.2   1 <1>   0.5690 
 12 O       -3.3270    -5.1790    -0.0780 O.2   1 <1>  -0.5700 
 13 N       -4.7540    -3.4680     0.3470 N.am  1 <1>  -0.5470 
 14 C       -6.0180    -3.9680    -0.0070 C.ar  1 <1>   0.1170 
 15 C       -7.0040    -3.1210    -0.5290 C.ar  1 <1>  -0.1440 
 16 C       -6.3180    -5.3130     0.1910 C.ar  1 <1>  -0.1500 
 17 C       -8.2580    -3.6460    -0.8190 C.ar  1 <1>  -0.1500 
 18 C       -6.7500    -1.6300    -0.8000 C.3   1 <1>   0.0630 
 19 C       -7.5660    -5.8220    -0.1110 C.ar  1 <1>  -0.1500 
 20 C       -8.5410    -4.9840    -0.6140 C.ar  1 <1>  -0.1500 
 21 C       -7.5820    -0.7600     0.1480 C.3   1 <1>  -0.2400 
 22 C       -7.0380    -1.2670    -2.2620 C.3   1 <1>  -0.2400 
 23 H       -2.8580    -1.6370    -0.6810 H     1 <1>   0.0800 
 24 H       -2.7920    -1.0920     0.9970 H     1 <1>   0.0800 
 25 H       -0.5480    -4.4220     0.9410 H     1 <1>   0.0800 
 26 H       -1.0860    -4.2450    -0.7280 H     1 <1>   0.0800 
 27 H       -2.2870    -3.2270     1.8030 H     1 <1>   0.0800 
 28 H        1.7210    -4.4630     0.7430 H     1 <1>   0.0800 
 29 H        2.8820    -4.0680    -0.4850 H     1 <1>   0.0800 
 30 H        1.3220    -4.6640    -0.9580 H     1 <1>   0.0800 
 31 H        0.9530    -2.6100    -2.4120 H     1 <1>   0.0800 
 32 H        2.5730    -2.1340    -1.9730 H     1 <1>   0.0800 
 33 H        1.2610    -1.0180    -1.7570 H     1 <1>   0.0800 
 34 H        1.8960    -2.1340     1.7320 H     1 <1>   0.0800 
 35 H        1.8330    -0.7400     0.6790 H     1 <1>   0.0800 
 36 H        3.1530    -1.8590     0.5540 H     1 <1>   0.0800 
 37 H       -4.7710    -2.4950     0.6430 H     1 <1>   0.3700 
 38 H       -5.5710    -5.9740     0.5900 H     1 <1>   0.1500 
 39 H       -9.0350    -3.0150    -1.2110 H     1 <1>   0.1500 
 40 H       -5.7170    -1.3890    -0.6320 H     1 <1>   0.0800 
 41 H       -7.7760    -6.8650     0.0480 H     1 <1>   0.1500 
 42 H       -9.5170    -5.3720    -0.8480 H     1 <1>   0.1500 
 43 H       -8.6340    -0.9080    -0.0240 H     1 <1>   0.0800 
 44 H       -7.3540     0.2800    -0.0010 H     1 <1>   0.0800 
 45 H       -7.3660    -1.0180     1.1690 H     1 <1>   0.0800 
 46 H       -8.0810    -1.3750    -2.4940 H     1 <1>   0.0800 
 47 H       -6.4740    -1.9100    -2.9140 H     1 <1>   0.0800 
 48 H       -6.7510    -0.2490    -2.4560 H     1 <1>   0.0800 
@<TRIPOS>BOND
  1   1   2  2   
  2   2   3  am  
  3   2   4  1   
  4   3   5  1   
  5   3   6  1   
  6   4   7  1   
  7   4  23  1   
  8   4  24  1   
  9   5   8  1   
 10   5   9  1   
 11   5  10  1   
 12   6   7  1   
 13   6  25  1   
 14   6  26  1   
 15   7  11  1   
 16   7  27  1   
 17   8  28  1   
 18   8  29  1   
 19   8  30  1   
 20   9  31  1   
 21   9  32  1   
 22   9  33  1   
 23  10  34  1   
 24  10  35  1   
 25  10  36  1   
 26  11  12  2   
 27  11  13  am  
 28  13  14  1   
 29  13  37  1   
 30  14  15  ar  
 31  14  16  ar  
 32  15  17  ar  
 33  15  18  1   
 34  16  19  ar  
 35  16  38  1   
 36  17  20  ar  
 37  17  39  1   
 38  18  21  1   
 39  18  22  1   
 40  18  40  1   
 41  19  20  ar  
 42  19  41  1   
 43  20  42  1   
 44  21  43  1   
 45  21  44  1   
 46  21  45  1   
 47  22  46  1   
 48  22  47  1   
 49  22  48  1   
@<TRIPOS>SUBSTRUCTURE
  1 ****  11 GROUP 4 **** **** 0

# MOE 2024.06 (io_trps.svl 2023.06)
