@<TRIPOS>MOLECULE
NONAME
50 51 1 0 0 
SMALL
USER_CHARGES


@<TRIPOS>ATOM
  1 O        0.1250    -0.6460     1.5660 O.2   1 <1>  -0.5700 
  2 C        0.7040    -1.3660     0.7760 C.2   1 <1>   0.5440 
  3 N       -0.0610    -2.1610    -0.0350 N.am  1 <1>  -0.7300 
  4 C        2.1530    -1.3600     0.6780 C.ar  1 <1>   0.0860 
  5 C       -1.5270    -2.2370     0.0540 C.3   1 <1>   0.2200 
  6 C        2.8720    -2.4560     0.1920 C.ar  1 <1>  -0.1500 
  7 C        2.8910    -0.2420     1.0720 C.ar  1 <1>  -0.1500 
  8 C       -2.0050    -3.6040    -0.4200 C.3   1 <1>  -0.1600 
  9 C       -2.1380    -1.1490    -0.8230 C.3   1 <1>  -0.1600 
 10 C        4.2500    -2.4270     0.0920 C.ar  1 <1>  -0.1500 
 11 C        4.2700    -0.2040     0.9780 C.ar  1 <1>  -0.1500 
 12 C       -3.5370    -3.7160    -0.3810 C.3   1 <1>   0.5030 
 13 C       -3.6700    -1.1800    -0.7900 C.3   1 <1>   0.5030 
 14 C        4.9620    -1.3050     0.4800 C.ar  1 <1>   0.0830 
 15 N       -4.1800    -2.5460    -1.0060 N.4   1 <1>  -0.9060 
 16 C       -4.0650    -3.9040     1.0430 C.3   1 <1>  -0.2400 
 17 C       -3.9800    -4.9180    -1.2120 C.3   1 <1>  -0.2400 
 18 C       -4.2210    -0.3500    -1.9480 C.3   1 <1>  -0.2400 
 19 C       -4.2320    -0.6080     0.5140 C.3   1 <1>  -0.2400 
 20 O        6.3060    -1.3590     0.3490 O.3   1 <1>  -0.3620 
 21 C        7.1320    -0.2830     0.7340 C.3   1 <1>   0.3200 
 22 C        8.5520    -0.6560     0.4700 C.1   1 <1>  -0.2000 
 23 C        9.6840    -0.9540     0.2600 C.1   1 <1>  -0.1770 
 24 H        0.3920    -2.6610    -0.8010 H     1 <1>   0.3700 
 25 H       -1.8110    -2.0850     1.0820 H     1 <1>   0.0800 
 26 H        2.3520    -3.3490    -0.1040 H     1 <1>   0.1500 
 27 H        2.3650     0.6140     1.4620 H     1 <1>   0.1500 
 28 H       -1.5770    -4.3670     0.2080 H     1 <1>   0.0800 
 29 H       -1.6560    -3.7720    -1.4230 H     1 <1>   0.0800 
 30 H       -1.7900    -1.2710    -1.8330 H     1 <1>   0.0800 
 31 H       -1.7970    -0.1870    -0.4780 H     1 <1>   0.0800 
 32 H        4.7910    -3.2780    -0.2850 H     1 <1>   0.1500 
 33 H        4.7820     0.6840     1.2950 H     1 <1>   0.1500 
 34 H       -5.1680    -2.5540    -0.7470 H     1 <1>   0.4500 
 35 H       -4.1490    -2.7050    -2.0140 H     1 <1>   0.4500 
 36 H       -3.6870    -3.1680     1.7240 H     1 <1>   0.0800 
 37 H       -3.7460    -4.8590     1.4230 H     1 <1>   0.0800 
 38 H       -5.1400    -3.8890     1.0670 H     1 <1>   0.0800 
 39 H       -3.6590    -4.8290    -2.2350 H     1 <1>   0.0800 
 40 H       -5.0490    -5.0370    -1.1880 H     1 <1>   0.0800 
 41 H       -3.5440    -5.8190    -0.8150 H     1 <1>   0.0800 
 42 H       -3.8780    -0.7220    -2.8980 H     1 <1>   0.0800 
 43 H       -3.8820     0.6680    -1.8600 H     1 <1>   0.0800 
 44 H       -5.2970    -0.3350    -1.9410 H     1 <1>   0.0800 
 45 H       -3.7840    -1.0470     1.3830 H     1 <1>   0.0800 
 46 H       -5.2990    -0.7230     0.5660 H     1 <1>   0.0800 
 47 H       -4.0150     0.4450     0.5660 H     1 <1>   0.0800 
 48 H        6.9840    -0.0970     1.7830 H     1 <1>   0.0800 
 49 H        6.8600     0.5810     0.1550 H     1 <1>   0.0800 
 50 H       10.7050    -1.2310     0.0670 H     1 <1>   0.1770 
@<TRIPOS>BOND
  1   1   2  2   
  2   2   3  am  
  3   2   4  1   
  4   3   5  1   
  5   3  24  1   
  6   4   6  ar  
  7   4   7  ar  
  8   5   8  1   
  9   5   9  1   
 10   5  25  1   
 11   6  10  ar  
 12   6  26  1   
 13   7  11  ar  
 14   7  27  1   
 15   8  12  1   
 16   8  28  1   
 17   8  29  1   
 18   9  13  1   
 19   9  30  1   
 20   9  31  1   
 21  10  14  ar  
 22  10  32  1   
 23  11  14  ar  
 24  11  33  1   
 25  12  15  1   
 26  12  16  1   
 27  12  17  1   
 28  13  15  1   
 29  13  18  1   
 30  13  19  1   
 31  14  20  1   
 32  15  34  1   
 33  15  35  1   
 34  16  36  1   
 35  16  37  1   
 36  16  38  1   
 37  17  39  1   
 38  17  40  1   
 39  17  41  1   
 40  18  42  1   
 41  18  43  1   
 42  18  44  1   
 43  19  45  1   
 44  19  46  1   
 45  19  47  1   
 46  20  21  1   
 47  21  22  1   
 48  21  48  1   
 49  21  49  1   
 50  22  23  3   
 51  23  50  1   
@<TRIPOS>SUBSTRUCTURE
  1 ****   2 GROUP 4 **** **** 0

# MOE 2024.06 (io_trps.svl 2023.06)
