@<TRIPOS>MOLECULE
NONAME
34 35 1 0 0 
SMALL
USER_CHARGES


@<TRIPOS>ATOM
  1 O       -0.0770     0.2620    -0.1210 O.2   1 <1>  -0.5700 
  2 C       -0.0820     1.4610     0.0730 C.2   1 <1>   0.5440 
  3 N        1.0800     2.0710     0.4590 N.am  1 <1>  -0.7300 
  4 C       -1.3030     2.2220    -0.0830 C.ar  1 <1>   0.0860 
  5 C        2.3900     1.3940     0.6090 C.3   1 <1>   0.1400 
  6 C       -1.2840     3.5480    -0.5160 C.ar  1 <1>   0.1600 
  7 C       -2.5490     1.6710     0.1880 C.ar  1 <1>  -0.1500 
  8 C        3.5220     2.2730     0.0520 C.3   1 <1>  -0.0800 
  9 N       -2.3380     4.3330    -0.6690 N.ar  1 <1>  -0.6200 
 10 C       -3.6630     2.4660     0.0300 C.ar  1 <1>  -0.1500 
 11 C        4.8520     1.4990     0.1070 C.3   1 <1>  -0.1600 
 12 C        3.6490     3.6110     0.8090 C.3   1 <1>  -0.1600 
 13 C       -3.5060     3.7750    -0.3930 C.ar  1 <1>   0.1600 
 14 C        6.0200     2.3400    -0.4250 C.3   1 <1>  -0.1600 
 15 C        4.8220     4.4500     0.2810 C.3   1 <1>  -0.1600 
 16 C        6.1380     3.6650     0.3360 C.3   1 <1>  -0.1600 
 17 H        1.0620     3.0380     0.7820 H     1 <1>   0.3700 
 18 H        2.3720     0.4550     0.0800 H     1 <1>   0.0800 
 19 H        2.5620     1.1860     1.6510 H     1 <1>   0.0800 
 20 H       -0.3300     3.9850    -0.7570 H     1 <1>   0.1500 
 21 H       -2.6290     0.6470     0.5130 H     1 <1>   0.1500 
 22 H        3.3030     2.4770    -0.9830 H     1 <1>   0.0800 
 23 H       -4.6450     2.0780     0.2310 H     1 <1>   0.1500 
 24 H        4.7720     0.5990    -0.4780 H     1 <1>   0.0800 
 25 H        5.0610     1.2130     1.1240 H     1 <1>   0.0800 
 26 H        3.8010     3.4160     1.8580 H     1 <1>   0.0800 
 27 H        2.7460     4.1850     0.7060 H     1 <1>   0.0800 
 28 H       -4.3820     4.3910    -0.5110 H     1 <1>   0.1500 
 29 H        5.8670     2.5420    -1.4710 H     1 <1>   0.0800 
 30 H        6.9380     1.7860    -0.3270 H     1 <1>   0.0800 
 31 H        4.9140     5.3490     0.8660 H     1 <1>   0.0800 
 32 H        4.6230     4.7380    -0.7370 H     1 <1>   0.0800 
 33 H        6.9290     4.2580    -0.0910 H     1 <1>   0.0800 
 34 H        6.3930     3.4660     1.3630 H     1 <1>   0.0800 
@<TRIPOS>BOND
  1   1   2  2   
  2   2   3  am  
  3   2   4  1   
  4   3   5  1   
  5   3  17  1   
  6   4   6  ar  
  7   4   7  ar  
  8   5   8  1   
  9   5  18  1   
 10   5  19  1   
 11   6   9  ar  
 12   6  20  1   
 13   7  10  ar  
 14   7  21  1   
 15   8  11  1   
 16   8  12  1   
 17   8  22  1   
 18   9  13  ar  
 19  10  13  ar  
 20  10  23  1   
 21  11  14  1   
 22  11  24  1   
 23  11  25  1   
 24  12  15  1   
 25  12  26  1   
 26  12  27  1   
 27  13  28  1   
 28  14  16  1   
 29  14  29  1   
 30  14  30  1   
 31  15  16  1   
 32  15  31  1   
 33  15  32  1   
 34  16  33  1   
 35  16  34  1   
@<TRIPOS>SUBSTRUCTURE
  1 ****   3 GROUP 4 **** **** 0

# MOE 2024.06 (io_trps.svl 2023.06)
