@<TRIPOS>MOLECULE
NONAME
27 27 1 0 0 
SMALL
USER_CHARGES


@<TRIPOS>ATOM
  1 I       -0.1420    -0.7660     1.7690 I     1 <1>  -0.0810 
  2 C       -2.0590    -0.1880     1.0410 C.ar  1 <1>   0.0810 
  3 C       -3.1940    -0.7610     1.5850 C.ar  1 <1>   0.1600 
  4 C       -2.1390     0.7510     0.0380 C.ar  1 <1>  -0.1500 
  5 N       -4.4230    -0.4590     1.1910 N.ar  1 <1>  -0.6200 
  6 C       -3.4160     1.0650    -0.3710 C.ar  1 <1>  -0.1500 
  7 C       -4.5210     0.4460     0.2230 C.ar  1 <1>   0.4270 
  8 N       -5.8310     0.7000    -0.1210 N.am  1 <1>  -0.5470 
  9 C       -6.4140     1.5450    -1.0150 C.2   1 <1>   0.5690 
 10 O       -5.7970     2.2790    -1.7460 O.2   1 <1>  -0.5700 
 11 C       -7.9300     1.5470    -1.0920 C.3   1 <1>  -0.0990 
 12 C       -8.6140     2.0600     0.1920 C.3   1 <1>  -0.0800 
 13 C      -10.1370     1.9560     0.0540 C.3   1 <1>  -0.2400 
 14 C       -8.2210     3.5120     0.4940 C.3   1 <1>  -0.2400 
 15 H       -3.0880    -1.4910     2.3680 H     1 <1>   0.1500 
 16 H       -1.2650     1.2060    -0.3960 H     1 <1>   0.1500 
 17 H       -3.5530     1.7900    -1.1500 H     1 <1>   0.1500 
 18 H       -6.4610     0.1380     0.4430 H     1 <1>   0.3700 
 19 H       -8.2550     0.5440    -1.3000 H     1 <1>   0.0800 
 20 H       -8.2270     2.1600    -1.9240 H     1 <1>   0.0800 
 21 H       -8.3110     1.4460     1.0230 H     1 <1>   0.0800 
 22 H      -10.4880     2.5650    -0.7610 H     1 <1>   0.0800 
 23 H      -10.6170     2.2880     0.9580 H     1 <1>   0.0800 
 24 H      -10.4310     0.9370    -0.1260 H     1 <1>   0.0800 
 25 H       -8.4910     4.1570    -0.3240 H     1 <1>   0.0800 
 26 H       -7.1600     3.5960     0.6560 H     1 <1>   0.0800 
 27 H       -8.7210     3.8580     1.3810 H     1 <1>   0.0800 
@<TRIPOS>BOND
  1   1   2  1   
  2   2   3  ar  
  3   2   4  ar  
  4   3   5  ar  
  5   3  15  1   
  6   4   6  ar  
  7   4  16  1   
  8   5   7  ar  
  9   6   7  ar  
 10   6  17  1   
 11   7   8  1   
 12   8   9  am  
 13   8  18  1   
 14   9  10  2   
 15   9  11  1   
 16  11  12  1   
 17  11  19  1   
 18  11  20  1   
 19  12  13  1   
 20  12  14  1   
 21  12  21  1   
 22  13  22  1   
 23  13  23  1   
 24  13  24  1   
 25  14  25  1   
 26  14  26  1   
 27  14  27  1   
@<TRIPOS>SUBSTRUCTURE
  1 ****   8 GROUP 4 **** **** 0

# MOE 2024.06 (io_trps.svl 2023.06)
