@<TRIPOS>MOLECULE
NONAME
45 47 1 0 0 
SMALL
USER_CHARGES


@<TRIPOS>ATOM
  1 O        0.6010     4.1480    -2.7060 O.2   1 <1>  -0.5700 
  2 C        0.4130     3.8050    -1.5540 C.2   1 <1>   0.5440 
  3 N       -0.8700     3.8250    -1.0510 N.am  1 <1>  -0.6600 
  4 C        1.5330     3.3820    -0.7290 C.ar  1 <1>   0.0860 
  5 C       -1.1870     3.4540     0.3670 C.3   1 <1>   0.1400 
  6 C       -2.0360     4.2040    -1.9120 C.3   1 <1>   0.1400 
  7 C        1.8880     2.0310    -0.6360 C.ar  1 <1>  -0.1440 
  8 C        2.2720     4.3150     0.0080 C.ar  1 <1>  -0.1440 
  9 C       -2.5060     4.0710     0.8640 C.3   1 <1>   0.2090 
 10 C       -3.3400     3.5120    -1.4800 C.3   1 <1>   0.2090 
 11 C        2.9330     1.6340     0.1800 C.ar  1 <1>  -0.1500 
 12 C        1.1340     0.9790    -1.4410 C.3   1 <1>  -0.0960 
 13 C        3.3140     3.9010     0.8210 C.ar  1 <1>  -0.1500 
 14 C        1.9420     5.8000    -0.0780 C.3   1 <1>  -0.0960 
 15 N       -3.6580     3.7410    -0.0340 N.pl3 1 <1>  -0.8380 
 16 C        3.6470     2.5620     0.9150 C.ar  1 <1>  -0.1440 
 17 C       -4.9500     3.6730     0.4390 C.ar  1 <1>   0.7200 
 18 C        4.7930     2.1180     1.8060 C.3   1 <1>  -0.0970 
 19 N       -5.1710     4.1370     1.6690 N.ar  1 <1>  -0.6200 
 20 N       -5.8650     3.1490    -0.3770 N.ar  1 <1>  -0.6200 
 21 C       -6.4060     4.0660     2.1020 C.ar  1 <1>   0.1600 
 22 C       -7.0900     3.0910     0.0850 C.ar  1 <1>   0.1600 
 23 C       -7.4190     3.5430     1.3390 C.ar  1 <1>  -0.1500 
 24 H       -0.3910     3.7760     1.0150 H     1 <1>   0.0800 
 25 H       -1.2610     2.3840     0.4390 H     1 <1>   0.0800 
 26 H       -1.8300     3.9460    -2.9370 H     1 <1>   0.0800 
 27 H       -2.1730     5.2700    -1.8630 H     1 <1>   0.0800 
 28 H       -2.4010     5.1400     0.9190 H     1 <1>   0.0800 
 29 H       -2.6990     3.7060     1.8580 H     1 <1>   0.0800 
 30 H       -3.2530     2.4540    -1.6550 H     1 <1>   0.0800 
 31 H       -4.1430     3.8840    -2.0920 H     1 <1>   0.0800 
 32 H        3.1990     0.5940     0.2450 H     1 <1>   0.1500 
 33 H        0.1040     0.9430    -1.1330 H     1 <1>   0.0800 
 34 H        1.5640     0.0030    -1.3050 H     1 <1>   0.0800 
 35 H        1.1730     1.2220    -2.4880 H     1 <1>   0.0800 
 36 H        3.8770     4.6250     1.3830 H     1 <1>   0.1500 
 37 H        0.9410     5.9800     0.2710 H     1 <1>   0.0800 
 38 H        2.0160     6.1310    -1.0990 H     1 <1>   0.0800 
 39 H        2.6210     6.3850     0.5160 H     1 <1>   0.0800 
 40 H        4.6140     1.1270     2.1840 H     1 <1>   0.0800 
 41 H        4.9010     2.7850     2.6420 H     1 <1>   0.0800 
 42 H        5.7100     2.1140     1.2440 H     1 <1>   0.0800 
 43 H       -6.6150     4.4340     3.0930 H     1 <1>   0.1500 
 44 H       -7.8490     2.6710    -0.5520 H     1 <1>   0.1500 
 45 H       -8.4270     3.4900     1.7060 H     1 <1>   0.1500 
@<TRIPOS>BOND
  1   1   2  2   
  2   2   3  am  
  3   2   4  1   
  4   3   5  1   
  5   3   6  1   
  6   4   7  ar  
  7   4   8  ar  
  8   5   9  1   
  9   5  24  1   
 10   5  25  1   
 11   6  10  1   
 12   6  26  1   
 13   6  27  1   
 14   7  11  ar  
 15   7  12  1   
 16   8  13  ar  
 17   8  14  1   
 18   9  15  1   
 19   9  28  1   
 20   9  29  1   
 21  10  15  1   
 22  10  30  1   
 23  10  31  1   
 24  11  16  ar  
 25  11  32  1   
 26  12  33  1   
 27  12  34  1   
 28  12  35  1   
 29  13  16  ar  
 30  13  36  1   
 31  14  37  1   
 32  14  38  1   
 33  14  39  1   
 34  15  17  1   
 35  16  18  1   
 36  17  19  ar  
 37  17  20  ar  
 38  18  40  1   
 39  18  41  1   
 40  18  42  1   
 41  19  21  ar  
 42  20  22  ar  
 43  21  23  ar  
 44  21  43  1   
 45  22  23  ar  
 46  22  44  1   
 47  23  45  1   
@<TRIPOS>SUBSTRUCTURE
  1 ****   5 GROUP 4 **** **** 0

# MOE 2024.06 (io_trps.svl 2023.06)
