@<TRIPOS>MOLECULE
NONAME
28 27 1 0 0 
SMALL
USER_CHARGES


@<TRIPOS>ATOM
  1 O       -0.6030    -0.8690     1.0310 O.co2 1 <1>  -0.9000 
  2 C       -0.3090    -1.6430     0.1330 C.2   1 <1>   0.9060 
  3 O        0.8460    -2.0010    -0.1240 O.co2 1 <1>  -0.9000 
  4 C       -1.3990    -2.4300    -0.5090 C.3   1 <1>  -0.2660 
  5 C       -1.4590    -3.7380     0.2660 C.3   1 <1>   0.4230 
  6 N       -0.1740    -4.4240     0.0430 N.4   1 <1>  -0.8530 
  7 C       -2.6570    -4.6340    -0.1470 C.3   1 <1>  -0.0800 
  8 C       -3.9890    -4.0070     0.3490 C.3   1 <1>  -0.1600 
  9 C       -2.5190    -6.0950     0.3630 C.3   1 <1>  -0.1600 
 10 C       -5.0510    -3.9350    -0.7560 C.3   1 <1>  -0.2400 
 11 C       -3.6450    -7.0250    -0.1110 C.3   1 <1>  -0.2400 
 12 H       -1.1830    -2.5790    -1.5490 H     1 <1>   0.0800 
 13 H       -2.3060    -1.8670    -0.4190 H     1 <1>   0.0800 
 14 H       -1.5480    -3.4980     1.3150 H     1 <1>   0.0800 
 15 H       -0.1150    -4.8200    -0.8930 H     1 <1>   0.4500 
 16 H        0.0470    -5.0980     0.7730 H     1 <1>   0.4500 
 17 H        0.5470    -3.6580     0.0750 H     1 <1>   0.4500 
 18 H       -2.6730    -4.6610    -1.2240 H     1 <1>   0.0800 
 19 H       -3.8350    -3.0070     0.7170 H     1 <1>   0.0800 
 20 H       -4.3830    -4.5640     1.1820 H     1 <1>   0.0800 
 21 H       -2.4920    -6.1040     1.4400 H     1 <1>   0.0800 
 22 H       -1.6020    -6.5300     0.0090 H     1 <1>   0.0800 
 23 H       -4.7130    -3.3120    -1.5650 H     1 <1>   0.0800 
 24 H       -5.9590    -3.5110    -0.3630 H     1 <1>   0.0800 
 25 H       -5.2770    -4.9120    -1.1440 H     1 <1>   0.0800 
 26 H       -4.5920    -6.7440     0.3150 H     1 <1>   0.0800 
 27 H       -3.4370    -8.0360     0.1930 H     1 <1>   0.0800 
 28 H       -3.7280    -7.0060    -1.1840 H     1 <1>   0.0800 
@<TRIPOS>BOND
  1   1   2  ar  
  2   2   3  ar  
  3   2   4  1   
  4   4   5  1   
  5   4  12  1   
  6   4  13  1   
  7   5   6  1   
  8   5   7  1   
  9   5  14  1   
 10   6  15  1   
 11   6  16  1   
 12   6  17  1   
 13   7   8  1   
 14   7   9  1   
 15   7  18  1   
 16   8  10  1   
 17   8  19  1   
 18   8  20  1   
 19   9  11  1   
 20   9  21  1   
 21   9  22  1   
 22  10  23  1   
 23  10  24  1   
 24  10  25  1   
 25  11  26  1   
 26  11  27  1   
 27  11  28  1   
@<TRIPOS>SUBSTRUCTURE
  1 ****   5 GROUP 4 **** **** 0

# MOE 2024.06 (io_trps.svl 2023.06)
