@<TRIPOS>MOLECULE
NONAME
36 36 1 0 0 
SMALL
USER_CHARGES


@<TRIPOS>ATOM
  1 N        1.0150    -0.7750     0.9180 N.ar  1 <1>  -0.6200 
  2 C        1.5400    -1.0830    -0.2570 C.ar  1 <1>   0.1660 
  3 C       -0.1110    -1.4050     1.2240 C.ar  1 <1>   0.1600 
  4 C        0.9910    -2.0000    -1.1410 C.ar  1 <1>  -0.1500 
  5 C        2.8220    -0.3550    -0.6080 C.3   1 <1>  -0.0160 
  6 C       -0.7370    -2.3350     0.4120 C.ar  1 <1>  -0.1500 
  7 C       -0.1780    -2.6500    -0.8070 C.ar  1 <1>  -0.1500 
  8 C        3.7650    -0.4040     0.5980 C.3   1 <1>   0.3430 
  9 N        5.0580     0.3060     0.3450 N.4   1 <1>  -0.9590 
 10 C        6.0450    -0.0450     1.3900 C.3   1 <1>   0.4810 
 11 C        4.8830     1.7900     0.2390 C.3   1 <1>   0.2630 
 12 C        7.4060     0.2510     0.8070 C.2   1 <1>  -0.2880 
 13 C        8.2540    -0.6230     0.2530 C.2   1 <1>  -0.2760 
 14 C        9.6080    -0.1930    -0.2910 C.3   1 <1>  -0.1020 
 15 C        8.0160    -2.1190     0.0890 C.3   1 <1>  -0.1020 
 16 H       -0.5630    -1.1670     2.1730 H     1 <1>   0.1500 
 17 H        1.4600    -2.2090    -2.0860 H     1 <1>   0.1500 
 18 H        3.2860    -0.8150    -1.4600 H     1 <1>   0.0800 
 19 H        2.5650     0.6600    -0.8450 H     1 <1>   0.0800 
 20 H       -1.6500    -2.8040     0.7320 H     1 <1>   0.1500 
 21 H       -0.6350    -3.3670    -1.4670 H     1 <1>   0.1500 
 22 H        3.9570    -1.4390     0.8310 H     1 <1>   0.0800 
 23 H        3.2690     0.0340     1.4490 H     1 <1>   0.0800 
 24 H        5.4790    -0.0430    -0.5280 H     1 <1>   0.4500 
 25 H        5.8780     0.5160     2.2960 H     1 <1>   0.0800 
 26 H        5.9770    -1.0960     1.6190 H     1 <1>   0.0800 
 27 H        4.4670     2.1840     1.1530 H     1 <1>   0.0800 
 28 H        4.2190     2.0340    -0.5740 H     1 <1>   0.0800 
 29 H        5.8310     2.2680     0.0570 H     1 <1>   0.0800 
 30 H        7.6540     1.2960     0.8870 H     1 <1>   0.1500 
 31 H       10.3980    -0.7100     0.2270 H     1 <1>   0.0800 
 32 H        9.7610     0.8640    -0.1630 H     1 <1>   0.0800 
 33 H        9.6810    -0.4200    -1.3400 H     1 <1>   0.0800 
 34 H        8.7700    -2.6700     0.6250 H     1 <1>   0.0800 
 35 H        8.0780    -2.3920    -0.9500 H     1 <1>   0.0800 
 36 H        7.0560    -2.4260     0.4590 H     1 <1>   0.0800 
@<TRIPOS>BOND
  1   1   2  ar  
  2   1   3  ar  
  3   2   4  ar  
  4   2   5  1   
  5   3   6  ar  
  6   3  16  1   
  7   4   7  ar  
  8   4  17  1   
  9   5   8  1   
 10   5  18  1   
 11   5  19  1   
 12   6   7  ar  
 13   6  20  1   
 14   7  21  1   
 15   8   9  1   
 16   8  22  1   
 17   8  23  1   
 18   9  10  1   
 19   9  11  1   
 20   9  24  1   
 21  10  12  1   
 22  10  25  1   
 23  10  26  1   
 24  11  27  1   
 25  11  28  1   
 26  11  29  1   
 27  12  13  2   
 28  12  30  1   
 29  13  14  1   
 30  13  15  1   
 31  14  31  1   
 32  14  32  1   
 33  14  33  1   
 34  15  34  1   
 35  15  35  1   
 36  15  36  1   
@<TRIPOS>SUBSTRUCTURE
  1 ****   8 GROUP 4 **** **** 0

# MOE 2024.06 (io_trps.svl 2023.06)
