@<TRIPOS>MOLECULE
NONAME
50 51 1 0 0 
SMALL
USER_CHARGES


@<TRIPOS>ATOM
  1 CL       3.6030     2.5430     4.0160 Cl    1 <1>  -0.1770 
  2 C        3.2750     2.0530     2.3670 C.ar  1 <1>   0.1770 
  3 C        1.9920     2.1750     1.8430 C.ar  1 <1>   0.0830 
  4 C        4.3180     1.5470     1.6170 C.ar  1 <1>  -0.1500 
  5 O        1.0110     2.6840     2.6430 O.3   1 <1>  -0.3630 
  6 C        1.7710     1.7720     0.5270 C.ar  1 <1>  -0.1500 
  7 C        4.0950     1.1460     0.3070 C.ar  1 <1>   0.1990 
  8 C       -0.3040     2.8660     2.1660 C.3   1 <1>   0.0400 
  9 C        2.8170     1.2650    -0.2250 C.ar  1 <1>  -0.1500 
 10 N        5.1210     0.6240    -0.4710 N.am  1 <1>  -0.6930 
 11 S        5.5040    -1.0620    -0.3780 S.o2  1 <1>   1.4470 
 12 C        6.2150     1.5480    -0.9060 C.3   1 <1>   0.2570 
 13 O        6.6430    -1.2520    -1.2520 O.2   1 <1>  -0.6500 
 14 O        5.6190    -1.3820     1.0250 O.2   1 <1>  -0.6500 
 15 C        4.0310    -1.8270    -1.1060 C.ar  1 <1>  -0.0090 
 16 C        7.3940     1.6420     0.0700 C.2   1 <1>   0.5690 
 17 C        2.9500    -2.1930    -0.3110 C.ar  1 <1>  -0.1500 
 18 C        3.9290    -2.0330    -2.4770 C.ar  1 <1>  -0.1500 
 19 O        7.5070     2.6360     0.7480 O.2   1 <1>  -0.5700 
 20 N        8.2830     0.6170     0.1460 N.am  1 <1>  -0.7300 
 21 C        1.8080    -2.7490    -0.8620 C.ar  1 <1>  -0.1500 
 22 C        2.7910    -2.5890    -3.0370 C.ar  1 <1>  -0.1500 
 23 C        9.4300     0.5410     1.0760 C.3   1 <1>   0.1400 
 24 C        1.7280    -2.9480    -2.2280 C.ar  1 <1>  -0.1500 
 25 C       10.6600    -0.0490     0.3680 C.3   1 <1>  -0.0800 
 26 C       11.8110    -0.2160     1.3680 C.3   1 <1>  -0.2400 
 27 C       11.1240     0.8260    -0.8070 C.3   1 <1>  -0.2400 
 28 H        5.2960     1.4610     2.0540 H     1 <1>   0.1500 
 29 H        0.8000     1.8450     0.0750 H     1 <1>   0.1500 
 30 H       -0.8910     3.2880     2.9620 H     1 <1>   0.0800 
 31 H       -0.7090     1.9120     1.8820 H     1 <1>   0.0800 
 32 H       -0.2830     3.5440     1.3310 H     1 <1>   0.0800 
 33 H        2.6430     0.9530    -1.2400 H     1 <1>   0.1500 
 34 H        5.8070     2.5360    -1.0270 H     1 <1>   0.0800 
 35 H        6.5870     1.2340    -1.8640 H     1 <1>   0.0800 
 36 H        3.0020    -2.0400     0.7550 H     1 <1>   0.1500 
 37 H        4.7500    -1.7580    -3.1170 H     1 <1>   0.1500 
 38 H        8.1080    -0.2360    -0.4040 H     1 <1>   0.3700 
 39 H        0.9840    -3.0270    -0.2270 H     1 <1>   0.1500 
 40 H        2.7320    -2.7440    -4.1010 H     1 <1>   0.1500 
 41 H        9.1550    -0.0820     1.9100 H     1 <1>   0.0800 
 42 H        9.6590     1.5250     1.4530 H     1 <1>   0.0800 
 43 H        0.8420    -3.3820    -2.6600 H     1 <1>   0.1500 
 44 H       10.4010    -1.0260    -0.0050 H     1 <1>   0.0800 
 45 H       12.1060     0.7390     1.7690 H     1 <1>   0.0800 
 46 H       12.6630    -0.6630     0.8860 H     1 <1>   0.0800 
 47 H       11.5120    -0.8530     2.1810 H     1 <1>   0.0800 
 48 H       11.3600     1.8190    -0.4670 H     1 <1>   0.0800 
 49 H       10.3530     0.8970    -1.5540 H     1 <1>   0.0800 
 50 H       11.9980     0.4030    -1.2680 H     1 <1>   0.0800 
@<TRIPOS>BOND
  1   1   2  1   
  2   2   3  ar  
  3   2   4  ar  
  4   3   5  1   
  5   3   6  ar  
  6   4   7  ar  
  7   4  28  1   
  8   5   8  1   
  9   6   9  ar  
 10   6  29  1   
 11   7   9  ar  
 12   7  10  1   
 13   8  30  1   
 14   8  31  1   
 15   8  32  1   
 16   9  33  1   
 17  10  11  am  
 18  10  12  1   
 19  11  13  2   
 20  11  14  2   
 21  11  15  1   
 22  12  16  1   
 23  12  34  1   
 24  12  35  1   
 25  15  17  ar  
 26  15  18  ar  
 27  16  19  2   
 28  16  20  am  
 29  17  21  ar  
 30  17  36  1   
 31  18  22  ar  
 32  18  37  1   
 33  20  23  1   
 34  20  38  1   
 35  21  24  ar  
 36  21  39  1   
 37  22  24  ar  
 38  22  40  1   
 39  23  25  1   
 40  23  41  1   
 41  23  42  1   
 42  24  43  1   
 43  25  26  1   
 44  25  27  1   
 45  25  44  1   
 46  26  45  1   
 47  26  46  1   
 48  26  47  1   
 49  27  48  1   
 50  27  49  1   
 51  27  50  1   
@<TRIPOS>SUBSTRUCTURE
  1 ****  10 GROUP 4 **** **** 0

# MOE 2024.06 (io_trps.svl 2023.06)
