@<TRIPOS>MOLECULE
NONAME
46 49 1 0 0 
SMALL
USER_CHARGES


@<TRIPOS>ATOM
  1 S       -0.3390     0.4210     1.8620 S.3   1 <1>  -0.2420 
  2 C       -0.7480     1.8620     0.9290 C.2   1 <1>   0.6510 
  3 C       -1.7110    -0.4760     1.1830 C.2   1 <1>  -0.0490 
  4 N       -0.0610     2.9590     0.9870 N.2   1 <1>  -0.6210 
  5 N       -1.8580     1.6100     0.1680 N.am  1 <1>  -0.2290 
  6 C       -2.3800     0.3060     0.3250 C.2   1 <1>  -0.0410 
  7 C       -0.5120     3.9870     0.1990 C.2   1 <1>   0.0330 
  8 C       -2.3140     2.6180    -0.6430 C.2   1 <1>   0.6160 
  9 C       -1.6010     3.8440    -0.6040 C.2   1 <1>  -0.1360 
 10 C        0.2820     5.2910     0.2880 C.3   1 <1>   0.4810 
 11 O       -3.2840     2.4560    -1.3640 O.2   1 <1>  -0.5700 
 12 N        1.7280     4.9590     0.3890 N.4   1 <1>  -0.9590 
 13 C        2.5360     6.0610     1.0280 C.3   1 <1>   0.3430 
 14 C        2.3110     4.5190    -0.9320 C.3   1 <1>   0.3430 
 15 C        4.0390     5.7200     1.1180 C.3   1 <1>   0.2090 
 16 C        3.8150     4.1850    -0.8360 C.3   1 <1>   0.2090 
 17 N        4.5650     5.3160    -0.2170 N.pl3 1 <1>  -0.8380 
 18 C        5.9500     5.2510    -0.3260 C.ar  1 <1>   0.1000 
 19 C        6.6920     4.3010     0.3650 C.ar  1 <1>  -0.1500 
 20 C        6.6170     6.1550    -1.1410 C.ar  1 <1>  -0.1500 
 21 C        8.0690     4.2490     0.2500 C.ar  1 <1>   0.0830 
 22 C        7.9940     6.1130    -1.2650 C.ar  1 <1>  -0.1500 
 23 O        8.7040     3.2860     0.9650 O.3   1 <1>  -0.3620 
 24 C        8.7240     5.1630    -0.5720 C.ar  1 <1>  -0.1500 
 25 C       10.1070     3.1480     0.9180 C.3   1 <1>   0.0400 
 26 H       -1.8500    -1.4910     1.5150 H     1 <1>   0.1500 
 27 H       -3.2590     0.0370    -0.2410 H     1 <1>   0.1500 
 28 H       -1.9810     4.6260    -1.2360 H     1 <1>   0.1500 
 29 H       -0.0290     5.8130     1.1770 H     1 <1>   0.0800 
 30 H        0.0890     5.9190    -0.5670 H     1 <1>   0.0800 
 31 H        1.7410     4.1300     1.0080 H     1 <1>   0.4500 
 32 H        2.1650     6.2630     2.0180 H     1 <1>   0.0800 
 33 H        2.4390     6.9620     0.4460 H     1 <1>   0.0800 
 34 H        2.1950     5.3070    -1.6580 H     1 <1>   0.0800 
 35 H        1.7830     3.6530    -1.2950 H     1 <1>   0.0800 
 36 H        4.1930     4.9240     1.8260 H     1 <1>   0.0800 
 37 H        4.5830     6.5820     1.4650 H     1 <1>   0.0800 
 38 H        4.2050     3.9990    -1.8230 H     1 <1>   0.0800 
 39 H        3.9550     3.2920    -0.2520 H     1 <1>   0.0800 
 40 H        6.2020     3.5900     1.0010 H     1 <1>   0.1500 
 41 H        6.0480     6.8920    -1.6780 H     1 <1>   0.1500 
 42 H        8.4980     6.8200    -1.9010 H     1 <1>   0.1500 
 43 H        9.7920     5.1510    -0.6840 H     1 <1>   0.1500 
 44 H       10.3840     2.3280     1.5570 H     1 <1>   0.0800 
 45 H       10.5600     4.0570     1.2730 H     1 <1>   0.0800 
 46 H       10.4040     2.9380    -0.0940 H     1 <1>   0.0800 
@<TRIPOS>BOND
  1   1   2  1   
  2   1   3  1   
  3   2   4  2   
  4   2   5  1   
  5   3   6  2   
  6   3  26  1   
  7   4   7  1   
  8   5   6  1   
  9   5   8  am  
 10   6  27  1   
 11   7   9  2   
 12   7  10  1   
 13   8   9  1   
 14   8  11  2   
 15   9  28  1   
 16  10  12  1   
 17  10  29  1   
 18  10  30  1   
 19  12  13  1   
 20  12  14  1   
 21  12  31  1   
 22  13  15  1   
 23  13  32  1   
 24  13  33  1   
 25  14  16  1   
 26  14  34  1   
 27  14  35  1   
 28  15  17  1   
 29  15  36  1   
 30  15  37  1   
 31  16  17  1   
 32  16  38  1   
 33  16  39  1   
 34  17  18  1   
 35  18  19  ar  
 36  18  20  ar  
 37  19  21  ar  
 38  19  40  1   
 39  20  22  ar  
 40  20  41  1   
 41  21  23  1   
 42  21  24  ar  
 43  22  24  ar  
 44  22  42  1   
 45  23  25  1   
 46  24  43  1   
 47  25  44  1   
 48  25  45  1   
 49  25  46  1   
@<TRIPOS>SUBSTRUCTURE
  1 ****  14 GROUP 4 **** **** 0

# MOE 2024.06 (io_trps.svl 2023.06)
