@<TRIPOS>MOLECULE
NONAME
39 41 1 0 0 
SMALL
USER_CHARGES


@<TRIPOS>ATOM
  1 F       -2.2230     1.5550    -1.7130 F     1 <1>  -0.1900 
  2 C       -1.3620     2.2530    -1.0190 C.ar  1 <1>   0.1900 
  3 C       -1.6120     2.4690     0.3300 C.ar  1 <1>  -0.1440 
  4 C       -0.2500     2.7540    -1.6660 C.ar  1 <1>  -0.1500 
  5 C       -0.6990     3.2210     1.0620 C.ar  1 <1>  -0.1500 
  6 C       -2.8520     1.8860     0.9820 C.3   1 <1>   0.4870 
  7 C        0.6310     3.4970    -0.9070 C.ar  1 <1>   0.1900 
  8 C        0.4290     3.7390     0.4410 C.ar  1 <1>  -0.1500 
  9 N       -4.0630     2.5230     0.3980 N.4   1 <1>  -0.9590 
 10 F        1.6920     3.9910    -1.4820 F     1 <1>  -0.1900 
 11 C       -4.1160     4.0090     0.6580 C.3   1 <1>   0.3430 
 12 C       -5.3300     1.8500     0.8570 C.3   1 <1>   0.3430 
 13 C       -5.3710     4.6670     0.0500 C.3   1 <1>   0.2090 
 14 C       -6.5920     2.4950     0.2480 C.3   1 <1>   0.2090 
 15 N       -6.6200     3.9700     0.4800 N.pl3 1 <1>  -0.8380 
 16 C       -7.7740     4.5790     0.0400 C.ar  1 <1>   0.4100 
 17 N       -7.9750     4.5680    -1.2710 N.ar  1 <1>  -0.6200 
 18 C       -8.6480     5.1590     0.9540 C.ar  1 <1>  -0.1500 
 19 C       -9.0880     5.1560    -1.6820 C.ar  1 <1>   0.1600 
 20 C       -9.8000     5.7660     0.5110 C.ar  1 <1>  -0.1500 
 21 C      -10.0170     5.7590    -0.8520 C.ar  1 <1>  -0.1500 
 22 H       -0.0730     2.5760    -2.7120 H     1 <1>   0.1500 
 23 H       -0.8460     3.4090     2.1140 H     1 <1>   0.1500 
 24 H       -2.8220     2.0520     2.0470 H     1 <1>   0.0800 
 25 H       -2.8750     0.8230     0.8040 H     1 <1>   0.0800 
 26 H        1.1500     4.3230     0.9890 H     1 <1>   0.1500 
 27 H       -3.9960     2.3970    -0.6230 H     1 <1>   0.4500 
 28 H       -3.2410     4.4860     0.2490 H     1 <1>   0.0800 
 29 H       -4.1260     4.1900     1.7200 H     1 <1>   0.0800 
 30 H       -5.4080     1.9160     1.9290 H     1 <1>   0.0800 
 31 H       -5.3110     0.8060     0.5890 H     1 <1>   0.0800 
 32 H       -5.3010     4.6520    -1.0250 H     1 <1>   0.0800 
 33 H       -5.4180     5.6970     0.3580 H     1 <1>   0.0800 
 34 H       -7.4680     2.0530     0.6900 H     1 <1>   0.0800 
 35 H       -6.6260     2.2960    -0.8110 H     1 <1>   0.0800 
 36 H       -8.4090     5.1230     1.9990 H     1 <1>   0.1500 
 37 H       -9.2710     5.1590    -2.7430 H     1 <1>   0.1500 
 38 H      -10.4980     6.2240     1.1910 H     1 <1>   0.1500 
 39 H      -10.8970     6.2160    -1.2660 H     1 <1>   0.1500 
@<TRIPOS>BOND
  1   1   2  1   
  2   2   3  ar  
  3   2   4  ar  
  4   3   5  ar  
  5   3   6  1   
  6   4   7  ar  
  7   4  22  1   
  8   5   8  ar  
  9   5  23  1   
 10   6   9  1   
 11   6  24  1   
 12   6  25  1   
 13   7   8  ar  
 14   7  10  1   
 15   8  26  1   
 16   9  11  1   
 17   9  12  1   
 18   9  27  1   
 19  11  13  1   
 20  11  28  1   
 21  11  29  1   
 22  12  14  1   
 23  12  30  1   
 24  12  31  1   
 25  13  15  1   
 26  13  32  1   
 27  13  33  1   
 28  14  15  1   
 29  14  34  1   
 30  14  35  1   
 31  15  16  1   
 32  16  17  ar  
 33  16  18  ar  
 34  17  19  ar  
 35  18  20  ar  
 36  18  36  1   
 37  19  21  ar  
 38  19  37  1   
 39  20  21  ar  
 40  20  38  1   
 41  21  39  1   
@<TRIPOS>SUBSTRUCTURE
  1 ****  11 GROUP 4 **** **** 0

# MOE 2024.06 (io_trps.svl 2023.06)
