@<TRIPOS>MOLECULE
NONAME
41 43 1 0 0 
SMALL
USER_CHARGES


@<TRIPOS>ATOM
  1 N        0.0460     0.4810     0.0390 N.ar  1 <1>  -0.6200 
  2 C        1.0420     1.3130     0.0510 C.ar  1 <1>   0.7200 
  3 C       -1.1950     1.0040     0.0240 C.ar  1 <1>   0.3100 
  4 N        0.9380     2.6580     0.0490 N.ar  1 <1>  -0.6200 
  5 N        2.2650     0.7280     0.0660 N.pl3 1 <1>  -0.6000 
  6 C       -1.4060     2.3880     0.0210 C.ar  1 <1>   0.0000 
  7 C       -2.3060     0.1500     0.0110 C.ar  1 <1>  -0.1500 
  8 C       -0.2380     3.1770     0.0340 C.ar  1 <1>   0.1660 
  9 C        3.5590     1.1370     0.0800 C.ar  1 <1>   0.7200 
 10 C       -2.7320     2.8660     0.0040 C.ar  1 <1>  -0.1500 
 11 C       -3.5920     0.6260    -0.0050 C.ar  1 <1>  -0.1440 
 12 C       -0.3250     4.6910     0.0330 C.3   1 <1>  -0.0960 
 13 N        3.8660     2.4290     0.0800 N.ar  1 <1>  -0.6200 
 14 N        4.4160     0.1230     0.0940 N.ar  1 <1>  -0.6200 
 15 C       -3.8090     2.0140    -0.0090 C.ar  1 <1>  -0.1430 
 16 C       -4.7580    -0.3530    -0.0190 C.3   1 <1>  -0.0960 
 17 C        5.1400     2.7250     0.0940 C.ar  1 <1>   0.1670 
 18 C        5.6870     0.4390     0.1090 C.ar  1 <1>   0.1670 
 19 C       -5.2210     2.5830    -0.0260 C.3   1 <1>  -0.0970 
 20 C        6.1060     1.7480     0.1090 C.ar  1 <1>  -0.1500 
 21 C        5.4990     4.1950     0.0930 C.3   1 <1>  -0.0970 
 22 C        6.6790    -0.7040     0.1250 C.3   1 <1>  -0.0970 
 23 H        2.1990    -0.2770     0.0670 H     1 <1>   0.4000 
 24 H       -2.1050    -0.9050     0.0140 H     1 <1>   0.1500 
 25 H       -2.8940     3.9280     0.0020 H     1 <1>   0.1500 
 26 H        0.6620     5.1200     0.0450 H     1 <1>   0.0800 
 27 H       -0.8530     5.0290     0.9040 H     1 <1>   0.0800 
 28 H       -0.8320     5.0280    -0.8520 H     1 <1>   0.0800 
 29 H       -4.4070    -1.3690    -0.0140 H     1 <1>   0.0800 
 30 H       -5.3540    -0.2070    -0.9020 H     1 <1>   0.0800 
 31 H       -5.3750    -0.2060     0.8490 H     1 <1>   0.0800 
 32 H       -5.2050     3.6580    -0.0260 H     1 <1>   0.0800 
 33 H       -5.7620     2.2550     0.8430 H     1 <1>   0.0800 
 34 H       -5.7400     2.2550    -0.9080 H     1 <1>   0.0800 
 35 H        7.1490     1.9990     0.1210 H     1 <1>   0.1500 
 36 H        5.0720     4.6670     0.9590 H     1 <1>   0.0800 
 37 H        5.0930     4.6610    -0.7870 H     1 <1>   0.0800 
 38 H        6.5630     4.3350     0.1050 H     1 <1>   0.0800 
 39 H        6.5170    -1.3080     0.9990 H     1 <1>   0.0800 
 40 H        7.6890    -0.3400     0.1360 H     1 <1>   0.0800 
 41 H        6.5380    -1.3150    -0.7490 H     1 <1>   0.0800 
@<TRIPOS>BOND
  1   1   2  ar  
  2   1   3  ar  
  3   2   4  ar  
  4   2   5  1   
  5   3   6  ar  
  6   3   7  ar  
  7   4   8  ar  
  8   5   9  1   
  9   5  23  1   
 10   6   8  ar  
 11   6  10  ar  
 12   7  11  ar  
 13   7  24  1   
 14   8  12  1   
 15   9  13  ar  
 16   9  14  ar  
 17  10  15  ar  
 18  10  25  1   
 19  11  15  ar  
 20  11  16  1   
 21  12  26  1   
 22  12  27  1   
 23  12  28  1   
 24  13  17  ar  
 25  14  18  ar  
 26  15  19  1   
 27  16  29  1   
 28  16  30  1   
 29  16  31  1   
 30  17  20  ar  
 31  17  21  1   
 32  18  20  ar  
 33  18  22  1   
 34  19  32  1   
 35  19  33  1   
 36  19  34  1   
 37  20  35  1   
 38  21  36  1   
 39  21  37  1   
 40  21  38  1   
 41  22  39  1   
 42  22  40  1   
 43  22  41  1   
@<TRIPOS>SUBSTRUCTURE
  1 ****   2 GROUP 4 **** **** 0

# MOE 2024.06 (io_trps.svl 2023.06)
