@<TRIPOS>MOLECULE
NONAME
50 52 1 0 0 
SMALL
USER_CHARGES


@<TRIPOS>ATOM
  1 N       -0.8980    -0.5840    -1.3540 N.4   1 <1>  -0.9590 
  2 C       -2.1880    -0.0450    -1.8740 C.3   1 <1>   0.3430 
  3 C       -0.7610    -0.4550     0.1250 C.3   1 <1>   0.3430 
  4 C        0.2570     0.0870    -2.0400 C.3   1 <1>   0.2630 
  5 C       -3.3630    -0.7520    -1.1950 C.3   1 <1>  -0.1600 
  6 C       -1.9220    -1.1710     0.8190 C.3   1 <1>  -0.1600 
  7 C       -3.2730    -0.6450     0.3320 C.3   1 <1>   0.4230 
  8 N       -4.3450    -1.4490     0.9620 N.4   1 <1>  -0.9060 
  9 C       -5.7440    -0.9030     0.8200 C.3   1 <1>   0.3430 
 10 C       -6.8060    -2.0190     0.9090 C.3   1 <1>   0.2070 
 11 C       -6.2540    -3.2130     0.1220 C.ar  1 <1>  -0.1440 
 12 C       -8.1720    -1.5230     0.4180 C.ar  1 <1>  -0.1440 
 13 C       -6.1030    -3.1440    -1.2580 C.ar  1 <1>  -0.1500 
 14 C       -5.8490    -4.3600     0.7900 C.ar  1 <1>  -0.1500 
 15 C       -8.6040    -0.2300     0.7010 C.ar  1 <1>  -0.1500 
 16 C       -9.0220    -2.3590    -0.2990 C.ar  1 <1>  -0.1500 
 17 C       -5.5370    -4.1960    -1.9550 C.ar  1 <1>  -0.1500 
 18 C       -5.2800    -5.4110     0.0930 C.ar  1 <1>  -0.1500 
 19 C       -9.8320     0.2210     0.2510 C.ar  1 <1>  -0.1500 
 20 C      -10.2500    -1.9080    -0.7480 C.ar  1 <1>  -0.1500 
 21 C       -5.1200    -5.3270    -1.2780 C.ar  1 <1>  -0.1500 
 22 C      -10.6550    -0.6150    -0.4780 C.ar  1 <1>  -0.1500 
 23 H       -0.8400    -1.5860    -1.6020 H     1 <1>   0.4500 
 24 H       -2.2450    -0.1950    -2.9420 H     1 <1>   0.0800 
 25 H       -2.2410     1.0160    -1.6850 H     1 <1>   0.0800 
 26 H       -0.7570     0.5880     0.4010 H     1 <1>   0.0800 
 27 H        0.1740    -0.8880     0.4470 H     1 <1>   0.0800 
 28 H        0.2620     1.1450    -1.8260 H     1 <1>   0.0800 
 29 H        0.1900    -0.0460    -3.1080 H     1 <1>   0.0800 
 30 H        1.1910    -0.3350    -1.7040 H     1 <1>   0.0800 
 31 H       -3.3700    -1.7830    -1.5040 H     1 <1>   0.0800 
 32 H       -4.2690    -0.2920    -1.5470 H     1 <1>   0.0800 
 33 H       -1.8300    -1.0070     1.8790 H     1 <1>   0.0800 
 34 H       -1.8350    -2.2280     0.6340 H     1 <1>   0.0800 
 35 H       -3.3740     0.3890     0.6280 H     1 <1>   0.0800 
 36 H       -4.1460    -1.6040     1.9590 H     1 <1>   0.4500 
 37 H       -4.3620    -2.3920     0.5320 H     1 <1>   0.4500 
 38 H       -5.8530    -0.4400    -0.1470 H     1 <1>   0.0800 
 39 H       -5.9360    -0.1540     1.5700 H     1 <1>   0.0800 
 40 H       -6.9260    -2.2960     1.9420 H     1 <1>   0.0800 
 41 H       -6.4410    -2.2800    -1.8070 H     1 <1>   0.1500 
 42 H       -5.9770    -4.4590     1.8560 H     1 <1>   0.1500 
 43 H       -8.0130     0.4550     1.2820 H     1 <1>   0.1500 
 44 H       -8.7510    -3.3780    -0.5180 H     1 <1>   0.1500 
 45 H       -5.4330    -4.1460    -3.0260 H     1 <1>   0.1500 
 46 H       -4.9720    -6.3030     0.6130 H     1 <1>   0.1500 
 47 H      -10.1570     1.2240     0.4720 H     1 <1>   0.1500 
 48 H      -10.8930    -2.5660    -1.3070 H     1 <1>   0.1500 
 49 H       -4.6860    -6.1520    -1.8200 H     1 <1>   0.1500 
 50 H      -11.6110    -0.2650    -0.8290 H     1 <1>   0.1500 
@<TRIPOS>BOND
  1   1   2  1   
  2   1   3  1   
  3   1   4  1   
  4   1  23  1   
  5   2   5  1   
  6   2  24  1   
  7   2  25  1   
  8   3   6  1   
  9   3  26  1   
 10   3  27  1   
 11   4  28  1   
 12   4  29  1   
 13   4  30  1   
 14   5   7  1   
 15   5  31  1   
 16   5  32  1   
 17   6   7  1   
 18   6  33  1   
 19   6  34  1   
 20   7   8  1   
 21   7  35  1   
 22   8   9  1   
 23   8  36  1   
 24   8  37  1   
 25   9  10  1   
 26   9  38  1   
 27   9  39  1   
 28  10  11  1   
 29  10  12  1   
 30  10  40  1   
 31  11  13  ar  
 32  11  14  ar  
 33  12  15  ar  
 34  12  16  ar  
 35  13  17  ar  
 36  13  41  1   
 37  14  18  ar  
 38  14  42  1   
 39  15  19  ar  
 40  15  43  1   
 41  16  20  ar  
 42  16  44  1   
 43  17  21  ar  
 44  17  45  1   
 45  18  21  ar  
 46  18  46  1   
 47  19  22  ar  
 48  19  47  1   
 49  20  22  ar  
 50  20  48  1   
 51  21  49  1   
 52  22  50  1   
@<TRIPOS>SUBSTRUCTURE
  1 ****   9 GROUP 4 **** **** 0

# MOE 2024.06 (io_trps.svl 2023.06)
