@<TRIPOS>MOLECULE
NONAME
43 46 1 0 0 
SMALL
USER_CHARGES


@<TRIPOS>ATOM
  1 S        0.3700     0.4230    -1.1740 S.3   1 <1>  -0.0800 
  2 C        1.2530     1.6050    -0.2060 C.ar  1 <1>   0.2970 
  3 C       -1.1720     1.0950    -0.6520 C.2   1 <1>  -0.1400 
  4 N        2.5660     1.6310    -0.1530 N.ar  1 <1>  -0.5670 
  5 C        0.3850     2.4470     0.4530 C.ar  1 <1>   0.0000 
  6 C       -1.0000     2.1400     0.1720 C.2   1 <1>  -0.1810 
  7 C       -2.4670     0.4810    -1.1360 C.3   1 <1>   0.0200 
  8 C        2.9990     2.5910     0.6410 C.ar  1 <1>   0.7220 
  9 C        1.0190     3.4030     1.2540 C.ar  1 <1>   0.4100 
 10 C       -2.1960     2.8900     0.7420 C.3   1 <1>   0.0210 
 11 C       -3.6240     1.0120    -0.2710 C.3   1 <1>  -0.1600 
 12 S        4.7710     2.7250     0.7920 S.3   1 <1>  -0.3320 
 13 N        2.3240     3.4820     1.3500 N.ar  1 <1>  -0.6200 
 14 N        0.3590     4.3280     1.9930 N.pl3 1 <1>  -0.9000 
 15 C       -3.4960     2.5260    -0.0070 C.3   1 <1>  -0.1600 
 16 C        5.4160     1.3730    -0.2850 C.3   1 <1>   0.2130 
 17 C        6.9360     1.4050    -0.2420 C.ar  1 <1>  -0.1430 
 18 C        7.6140     0.9170     0.8640 C.ar  1 <1>  -0.1500 
 19 C        7.6570     1.9200    -1.3090 C.ar  1 <1>  -0.1500 
 20 C        8.9980     0.9350     0.9060 C.ar  1 <1>  -0.1500 
 21 C        9.0400     1.9390    -1.2690 C.ar  1 <1>  -0.1500 
 22 C        9.7200     1.4480    -0.1670 C.ar  1 <1>   0.0830 
 23 O       11.0750     1.5030    -0.2090 O.3   1 <1>  -0.3620 
 24 C       11.8610     1.0490     0.8700 C.3   1 <1>   0.0400 
 25 H       -2.4190    -0.5910    -1.0650 H     1 <1>   0.0800 
 26 H       -2.6170     0.7510    -2.1670 H     1 <1>   0.0800 
 27 H       -2.0400     3.9500     0.6560 H     1 <1>   0.0800 
 28 H       -2.2940     2.6400     1.7840 H     1 <1>   0.0800 
 29 H       -3.6170     0.4940     0.6720 H     1 <1>   0.0800 
 30 H       -4.5600     0.8000    -0.7570 H     1 <1>   0.0800 
 31 H        0.9350     5.0380     2.4500 H     1 <1>   0.4000 
 32 H       -0.5970     4.6020     1.7760 H     1 <1>   0.4000 
 33 H       -3.5070     3.0410    -0.9520 H     1 <1>   0.0800 
 34 H       -4.3420     2.8680     0.5620 H     1 <1>   0.0800 
 35 H        5.0410     1.5460    -1.2780 H     1 <1>   0.0800 
 36 H        5.0320     0.4440     0.0970 H     1 <1>   0.0800 
 37 H        7.0620     0.5230     1.7000 H     1 <1>   0.1500 
 38 H        7.1470     2.3090    -2.1720 H     1 <1>   0.1500 
 39 H        9.4910     0.5500     1.7780 H     1 <1>   0.1500 
 40 H        9.6020     2.3380    -2.0940 H     1 <1>   0.1500 
 41 H       12.8950     1.1970     0.6150 H     1 <1>   0.0800 
 42 H       11.6680     0.0020     1.0250 H     1 <1>   0.0800 
 43 H       11.6140     1.6220     1.7460 H     1 <1>   0.0800 
@<TRIPOS>BOND
  1   1   2  1   
  2   1   3  1   
  3   2   4  ar  
  4   2   5  ar  
  5   3   6  2   
  6   3   7  1   
  7   4   8  ar  
  8   5   6  1   
  9   5   9  ar  
 10   6  10  1   
 11   7  11  1   
 12   7  25  1   
 13   7  26  1   
 14   8  12  1   
 15   8  13  ar  
 16   9  13  ar  
 17   9  14  1   
 18  10  15  1   
 19  10  27  1   
 20  10  28  1   
 21  11  15  1   
 22  11  29  1   
 23  11  30  1   
 24  12  16  1   
 25  14  31  1   
 26  14  32  1   
 27  15  33  1   
 28  15  34  1   
 29  16  17  1   
 30  16  35  1   
 31  16  36  1   
 32  17  18  ar  
 33  17  19  ar  
 34  18  20  ar  
 35  18  37  1   
 36  19  21  ar  
 37  19  38  1   
 38  20  22  ar  
 39  20  39  1   
 40  21  22  ar  
 41  21  40  1   
 42  22  23  1   
 43  23  24  1   
 44  24  41  1   
 45  24  42  1   
 46  24  43  1   
@<TRIPOS>SUBSTRUCTURE
  1 ****   4 GROUP 4 **** **** 0

# MOE 2024.06 (io_trps.svl 2023.06)
