@<TRIPOS>MOLECULE
NONAME
39 40 1 0 0 
SMALL
USER_CHARGES


@<TRIPOS>ATOM
  1 O        0.4830     0.4730     0.1000 O.3   1 <1>  -0.3630 
  2 C       -0.7310     1.0560    -0.0670 C.ar  1 <1>   0.0830 
  3 C        1.6730     1.1740    -0.1540 C.3   1 <1>   0.1200 
  4 C       -1.8400     0.2770     0.2160 C.ar  1 <1>  -0.1500 
  5 C       -0.9090     2.3690    -0.4990 C.ar  1 <1>  -0.1500 
  6 C        2.8270     0.2160     0.1380 C.3   1 <1>  -0.1600 
  7 C       -3.1200     0.7850     0.0750 C.ar  1 <1>   0.0830 
  8 C       -2.1860     2.8830    -0.6410 C.ar  1 <1>  -0.1500 
  9 C        4.1710     0.8910    -0.1230 C.3   1 <1>   0.3430 
 10 O       -4.1450    -0.0500     0.3750 O.3   1 <1>  -0.3630 
 11 C       -3.2910     2.0980    -0.3570 C.ar  1 <1>  -0.1500 
 12 N        5.2840    -0.0260     0.2430 N.4   1 <1>  -0.9590 
 13 C       -5.4870     0.3680     0.2650 C.3   1 <1>   0.0400 
 14 C        6.6100     0.6390     0.2260 C.3   1 <1>   0.3430 
 15 C        5.4180    -1.2120    -0.6430 C.3   1 <1>   0.3430 
 16 C        7.6080    -0.5090     0.1660 C.3   1 <1>  -0.1600 
 17 C        6.8400    -1.7030    -0.4080 C.3   1 <1>  -0.1600 
 18 H        1.7020     2.0330     0.4950 H     1 <1>   0.0800 
 19 H        1.6680     1.4800    -1.1860 H     1 <1>   0.0800 
 20 H       -1.7100    -0.7350     0.5490 H     1 <1>   0.1500 
 21 H       -0.0760     3.0040    -0.7270 H     1 <1>   0.1500 
 22 H        2.7150    -0.6460    -0.4950 H     1 <1>   0.0800 
 23 H        2.7650    -0.0850     1.1690 H     1 <1>   0.0800 
 24 H       -2.3230     3.8970    -0.9750 H     1 <1>   0.1500 
 25 H        4.2330     1.7880     0.4730 H     1 <1>   0.0800 
 26 H        4.2470     1.1690    -1.1620 H     1 <1>   0.0800 
 27 H       -4.2700     2.5230    -0.4770 H     1 <1>   0.1500 
 28 H        5.1300    -0.3760     1.1990 H     1 <1>   0.4500 
 29 H       -6.1170    -0.4550     0.5520 H     1 <1>   0.0800 
 30 H       -5.6850     0.6410    -0.7560 H     1 <1>   0.0800 
 31 H       -5.6480     1.2000     0.9280 H     1 <1>   0.0800 
 32 H        6.7620     1.2550     1.0980 H     1 <1>   0.0800 
 33 H        6.7050     1.2440    -0.6620 H     1 <1>   0.0800 
 34 H        5.3070    -0.9130    -1.6730 H     1 <1>   0.0800 
 35 H        4.6890    -1.9710    -0.4090 H     1 <1>   0.0800 
 36 H        7.9660    -0.7330     1.1560 H     1 <1>   0.0800 
 37 H        8.4510    -0.2420    -0.4480 H     1 <1>   0.0800 
 38 H        7.2730    -2.0510    -1.3300 H     1 <1>   0.0800 
 39 H        6.8340    -2.5190     0.2940 H     1 <1>   0.0800 
@<TRIPOS>BOND
  1   1   2  1   
  2   1   3  1   
  3   2   4  ar  
  4   2   5  ar  
  5   3   6  1   
  6   3  18  1   
  7   3  19  1   
  8   4   7  ar  
  9   4  20  1   
 10   5   8  ar  
 11   5  21  1   
 12   6   9  1   
 13   6  22  1   
 14   6  23  1   
 15   7  10  1   
 16   7  11  ar  
 17   8  11  ar  
 18   8  24  1   
 19   9  12  1   
 20   9  25  1   
 21   9  26  1   
 22  10  13  1   
 23  11  27  1   
 24  12  14  1   
 25  12  15  1   
 26  12  28  1   
 27  13  29  1   
 28  13  30  1   
 29  13  31  1   
 30  14  16  1   
 31  14  32  1   
 32  14  33  1   
 33  15  17  1   
 34  15  34  1   
 35  15  35  1   
 36  16  17  1   
 37  16  36  1   
 38  16  37  1   
 39  17  38  1   
 40  17  39  1   
@<TRIPOS>SUBSTRUCTURE
  1 ****   1 GROUP 4 **** **** 0

# MOE 2024.06 (io_trps.svl 2023.06)
