@<TRIPOS>MOLECULE
Structure913
17 18 1 0 0 
SMALL
USER_CHARGES


@<TRIPOS>ATOM
  1 CL      -0.0220     0.2200    -0.5340 Cl    1 <1>  -0.1770 
  2 C       -1.5290     1.0780    -0.4500 C.ar  1 <1>   0.7970 
  3 N       -2.5820     0.4100    -0.8770 N.ar  1 <1>  -0.6200 
  4 N       -1.4550     2.3060     0.0330 N.ar  1 <1>  -0.6200 
  5 C       -3.6930     1.0960    -0.7930 C.ar  1 <1>   0.4870 
  6 C       -2.5950     2.9550     0.0920 C.ar  1 <1>   0.2780 
  7 CL      -5.1490     0.3130    -1.3260 Cl    1 <1>  -0.1770 
  8 C       -3.7710     2.3780    -0.3150 C.ar  1 <1>  -0.1500 
  9 C       -2.5650     4.3740     0.6380 C.3   1 <1>  -0.0680 
 10 C       -3.4230     5.4670     0.0710 C.3   1 <1>  -0.2000 
 11 C       -1.9460     5.4710    -0.1730 C.3   1 <1>  -0.2000 
 12 H       -4.7100     2.8940    -0.2650 H     1 <1>   0.1500 
 13 H       -2.3670     4.3890     1.6960 H     1 <1>   0.1000 
 14 H       -3.8350     6.2010     0.7420 H     1 <1>   0.1000 
 15 H       -4.0660     5.2730    -0.7710 H     1 <1>   0.1000 
 16 H       -1.5750     5.2330    -1.1550 H     1 <1>   0.1000 
 17 H       -1.3320     6.1960     0.3330 H     1 <1>   0.1000 
@<TRIPOS>BOND
  1   1   2  1   
  2   2   3  ar  
  3   2   4  ar  
  4   3   5  ar  
  5   4   6  ar  
  6   5   7  1   
  7   5   8  ar  
  8   6   8  ar  
  9   6   9  1   
 10   8  12  1   
 11   9  10  1   
 12   9  11  1   
 13   9  13  1   
 14  10  11  1   
 15  10  14  1   
 16  10  15  1   
 17  11  16  1   
 18  11  17  1   
@<TRIPOS>SUBSTRUCTURE
  1 ****   6 GROUP 4 **** **** 0

# MOE 2024.06 (io_trps.svl 2023.06)
