@<TRIPOS>MOLECULE
NONAME
40 41 1 0 0 
SMALL
USER_CHARGES


@<TRIPOS>ATOM
  1 CL       1.6670     0.3960    -2.0420 Cl    1 <1>  -0.1770 
  2 C        2.0730     1.2360    -0.5590 C.ar  1 <1>   0.1770 
  3 C        1.1470     2.0990     0.0350 C.ar  1 <1>   0.1990 
  4 C        3.3130     0.9990     0.0010 C.ar  1 <1>  -0.1500 
  5 N       -0.0950     2.3640    -0.5370 N.am  1 <1>  -0.6930 
  6 C        1.4950     2.7070     1.2380 C.ar  1 <1>  -0.1500 
  7 C        3.6300     1.6290     1.1900 C.ar  1 <1>   0.1770 
  8 S       -0.2870     3.5620    -1.7690 S.o2  1 <1>   1.3330 
  9 C       -1.3200     1.7060     0.0090 C.3   1 <1>   0.2570 
 10 C        2.7330     2.4770     1.8160 C.ar  1 <1>  -0.1500 
 11 CL       5.1910     1.3450     1.9190 Cl    1 <1>  -0.1770 
 12 O       -1.5070     3.2480    -2.4740 O.2   1 <1>  -0.6500 
 13 O        0.9700     3.6670    -2.4670 O.2   1 <1>  -0.6500 
 14 C       -0.5240     5.0610    -0.8370 C.3   1 <1>  -0.1350 
 15 C       -2.2750     2.6780     0.7210 C.2   1 <1>   0.5690 
 16 O       -1.8490     3.1960     1.7300 O.2   1 <1>  -0.5700 
 17 N       -3.5370     2.9750     0.2540 N.am  1 <1>  -0.6600 
 18 C       -4.4590     3.8470     1.0380 C.3   1 <1>   0.1400 
 19 C       -4.1300     2.5220    -1.0410 C.3   1 <1>   0.1400 
 20 C       -5.7560     3.0890     1.3370 C.3   1 <1>  -0.1600 
 21 C       -5.4210     1.7420    -0.7710 C.3   1 <1>  -0.1600 
 22 C       -6.4180     2.5690     0.0520 C.3   1 <1>  -0.1600 
 23 H        4.0140     0.3390    -0.4740 H     1 <1>   0.1500 
 24 H        0.7900     3.3610     1.7220 H     1 <1>   0.1500 
 25 H       -1.0190     0.9710     0.7330 H     1 <1>   0.0800 
 26 H       -1.8100     1.1760    -0.7810 H     1 <1>   0.0800 
 27 H        3.0040     2.9480     2.7440 H     1 <1>   0.1500 
 28 H       -1.4230     5.0120    -0.2560 H     1 <1>   0.0800 
 29 H       -0.5970     5.8960    -1.5040 H     1 <1>   0.0800 
 30 H        0.3060     5.2210    -0.1770 H     1 <1>   0.0800 
 31 H       -4.6760     4.7330     0.4650 H     1 <1>   0.0800 
 32 H       -4.0060     4.1550     1.9650 H     1 <1>   0.0800 
 33 H       -3.4570     1.9090    -1.6070 H     1 <1>   0.0800 
 34 H       -4.3510     3.3890    -1.6410 H     1 <1>   0.0800 
 35 H       -6.4370     3.7410     1.8550 H     1 <1>   0.0800 
 36 H       -5.5320     2.2640     1.9910 H     1 <1>   0.0800 
 37 H       -5.1780     0.8350    -0.2440 H     1 <1>   0.0800 
 38 H       -5.8700     1.4660    -1.7080 H     1 <1>   0.0800 
 39 H       -6.7580     3.4050    -0.5360 H     1 <1>   0.0800 
 40 H       -7.2750     1.9670     0.3010 H     1 <1>   0.0800 
@<TRIPOS>BOND
  1   1   2  1   
  2   2   3  ar  
  3   2   4  ar  
  4   3   5  1   
  5   3   6  ar  
  6   4   7  ar  
  7   4  23  1   
  8   5   8  am  
  9   5   9  1   
 10   6  10  ar  
 11   6  24  1   
 12   7  10  ar  
 13   7  11  1   
 14   8  12  2   
 15   8  13  2   
 16   8  14  1   
 17   9  15  1   
 18   9  25  1   
 19   9  26  1   
 20  10  27  1   
 21  14  28  1   
 22  14  29  1   
 23  14  30  1   
 24  15  16  2   
 25  15  17  am  
 26  17  18  1   
 27  17  19  1   
 28  18  20  1   
 29  18  31  1   
 30  18  32  1   
 31  19  21  1   
 32  19  33  1   
 33  19  34  1   
 34  20  22  1   
 35  20  35  1   
 36  20  36  1   
 37  21  22  1   
 38  21  37  1   
 39  21  38  1   
 40  22  39  1   
 41  22  40  1   
@<TRIPOS>SUBSTRUCTURE
  1 ****   5 GROUP 4 **** **** 0

# MOE 2024.06 (io_trps.svl 2023.06)
