@<TRIPOS>MOLECULE
NONAME
37 38 1 0 0 
SMALL
USER_CHARGES


@<TRIPOS>ATOM
  1 CL      -0.9690    -1.1920    -1.4800 Cl    1 <1>  -0.1770 
  2 C        0.2970    -2.0600    -0.6460 C.ar  1 <1>   0.1770 
  3 C       -0.0150    -2.8000     0.4870 C.ar  1 <1>  -0.1430 
  4 C        1.5840    -2.0000    -1.1450 C.ar  1 <1>  -0.1500 
  5 C        0.9980    -3.4990     1.1330 C.ar  1 <1>  -0.1500 
  6 C       -1.4360    -2.8340     1.0070 C.3   1 <1>   0.4870 
  7 C        2.5730    -2.7030    -0.4870 C.ar  1 <1>   0.1770 
  8 C        2.2940    -3.4510     0.6430 C.ar  1 <1>  -0.1500 
  9 N       -2.2410    -3.6560     0.0770 N.4   1 <1>  -0.9060 
 10 CL       4.2060    -2.6510    -1.0950 Cl    1 <1>  -0.1770 
 11 C       -3.6720    -3.7540     0.4820 C.3   1 <1>   0.3430 
 12 C       -4.4790    -4.6040    -0.5090 C.3   1 <1>   0.1100 
 13 N       -5.8370    -4.8030     0.0030 N.3   1 <1>  -0.8100 
 14 C       -6.4750    -5.9860    -0.6230 C.3   1 <1>   0.1100 
 15 C       -6.7100    -3.6210    -0.2060 C.3   1 <1>   0.1100 
 16 C       -7.9190    -6.1780    -0.1250 C.3   1 <1>   0.1200 
 17 C       -8.1460    -3.8910     0.2820 C.3   1 <1>   0.1200 
 18 O       -8.6670    -5.0200    -0.3530 O.3   1 <1>  -0.5600 
 19 H        1.8150    -1.4230    -2.0220 H     1 <1>   0.1500 
 20 H        0.8000    -4.0820     2.0190 H     1 <1>   0.1500 
 21 H       -1.8290    -1.8300     1.0550 H     1 <1>   0.0800 
 22 H       -1.4560    -3.2590     1.9980 H     1 <1>   0.0800 
 23 H        3.0910    -3.9850     1.1320 H     1 <1>   0.1500 
 24 H       -1.8190    -4.5900     0.0140 H     1 <1>   0.4500 
 25 H       -2.1670    -3.2290    -0.8570 H     1 <1>   0.4500 
 26 H       -4.1080    -2.7700     0.5330 H     1 <1>   0.0800 
 27 H       -3.7450    -4.2120     1.4560 H     1 <1>   0.0800 
 28 H       -4.0010    -5.5650    -0.6030 H     1 <1>   0.0800 
 29 H       -4.5170    -4.1370    -1.4790 H     1 <1>   0.0800 
 30 H       -5.9090    -6.8710    -0.3850 H     1 <1>   0.0800 
 31 H       -6.4930    -5.8760    -1.6940 H     1 <1>   0.0800 
 32 H       -6.7510    -3.3690    -1.2530 H     1 <1>   0.0800 
 33 H       -6.3220    -2.7750     0.3300 H     1 <1>   0.0800 
 34 H       -7.9340    -6.3990     0.9280 H     1 <1>   0.0800 
 35 H       -8.3940    -6.9840    -0.6560 H     1 <1>   0.0800 
 36 H       -8.7860    -3.0590     0.0450 H     1 <1>   0.0800 
 37 H       -8.1650    -4.0530     1.3460 H     1 <1>   0.0800 
@<TRIPOS>BOND
  1   1   2  1   
  2   2   3  ar  
  3   2   4  ar  
  4   3   5  ar  
  5   3   6  1   
  6   4   7  ar  
  7   4  19  1   
  8   5   8  ar  
  9   5  20  1   
 10   6   9  1   
 11   6  21  1   
 12   6  22  1   
 13   7   8  ar  
 14   7  10  1   
 15   8  23  1   
 16   9  11  1   
 17   9  24  1   
 18   9  25  1   
 19  11  12  1   
 20  11  26  1   
 21  11  27  1   
 22  12  13  1   
 23  12  28  1   
 24  12  29  1   
 25  13  14  1   
 26  13  15  1   
 27  14  16  1   
 28  14  30  1   
 29  14  31  1   
 30  15  17  1   
 31  15  32  1   
 32  15  33  1   
 33  16  18  1   
 34  16  34  1   
 35  16  35  1   
 36  17  18  1   
 37  17  36  1   
 38  17  37  1   
@<TRIPOS>SUBSTRUCTURE
  1 ****   9 GROUP 4 **** **** 0

# MOE 2024.06 (io_trps.svl 2023.06)
