@<TRIPOS>MOLECULE
NONAME
54 56 1 0 0 
SMALL
USER_CHARGES


@<TRIPOS>ATOM
  1 S        0.0130    -0.8430    -1.8040 S.o2  1 <1>   1.4470 
  2 O        1.1540    -1.6080    -2.2590 O.2   1 <1>  -0.6500 
  3 O       -0.3670     0.3620    -2.5070 O.2   1 <1>  -0.6500 
  4 N        0.3270    -0.3940    -0.2000 N.am  1 <1>  -0.8490 
  5 C       -1.4410    -1.9160    -1.6450 C.ar  1 <1>  -0.0090 
  6 C        1.2600     0.7400    -0.1330 C.3   1 <1>   0.1960 
  7 C        0.8560    -1.5050     0.6090 C.3   1 <1>   0.1960 
  8 C       -2.5250    -1.5300    -0.8710 C.ar  1 <1>  -0.1500 
  9 C       -1.5120    -3.1420    -2.2910 C.ar  1 <1>  -0.1500 
 10 C        1.5410     1.1410     1.3270 C.3   1 <1>   0.1200 
 11 C        1.1340    -1.0490     2.0530 C.3   1 <1>   0.1200 
 12 C       -3.6600    -2.3220    -0.7110 C.ar  1 <1>   0.0860 
 13 C       -2.6250    -3.9520    -2.1560 C.ar  1 <1>  -0.1500 
 14 O        2.0080     0.0440     2.0610 O.3   1 <1>  -0.5600 
 15 C       -3.6950    -3.5540    -1.3740 C.ar  1 <1>  -0.1430 
 16 C       -4.7440    -1.8380     0.1230 C.2   1 <1>   0.5440 
 17 C       -4.9040    -4.4730    -1.2510 C.3   1 <1>  -0.0960 
 18 O       -5.1290    -2.4760     1.0830 O.2   1 <1>  -0.5700 
 19 N       -5.3290    -0.6390    -0.1640 N.am  1 <1>  -0.7300 
 20 C       -6.4180    -0.0060     0.6000 C.3   1 <1>   0.2200 
 21 C       -7.6620     0.0370    -0.2970 C.3   1 <1>  -0.1600 
 22 C       -5.9150     1.3630     1.0730 C.3   1 <1>  -0.1600 
 23 C       -8.9400     0.3670     0.4900 C.3   1 <1>  -0.1600 
 24 C       -6.9530     2.2100     1.8280 C.3   1 <1>  -0.1600 
 25 C       -9.2340     1.8670     0.6510 C.3   1 <1>  -0.1600 
 26 C       -8.0290     2.7880     0.8980 C.3   1 <1>  -0.1600 
 27 H        0.8400     1.5870    -0.6500 H     1 <1>   0.0800 
 28 H        2.1900     0.4840    -0.6150 H     1 <1>   0.0800 
 29 H        1.7730    -1.8760     0.1820 H     1 <1>   0.0800 
 30 H        0.1450    -2.3130     0.6290 H     1 <1>   0.0800 
 31 H       -2.4840    -0.5800    -0.3630 H     1 <1>   0.1500 
 32 H       -0.6880    -3.4680    -2.9040 H     1 <1>   0.1500 
 33 H        0.6460     1.5130     1.7940 H     1 <1>   0.0800 
 34 H        2.2960     1.9070     1.3650 H     1 <1>   0.0800 
 35 H        1.5960    -1.8420     2.6130 H     1 <1>   0.0800 
 36 H        0.2190    -0.7630     2.5430 H     1 <1>   0.0800 
 37 H       -2.6490    -4.8990    -2.6680 H     1 <1>   0.1500 
 38 H       -5.8080    -3.9330    -1.4720 H     1 <1>   0.0800 
 39 H       -4.9710    -4.8550    -0.2470 H     1 <1>   0.0800 
 40 H       -4.8340    -5.3050    -1.9280 H     1 <1>   0.0800 
 41 H       -5.0470    -0.1370    -1.0050 H     1 <1>   0.3700 
 42 H       -6.6370    -0.6100     1.4660 H     1 <1>   0.0800 
 43 H       -7.7910    -0.9450    -0.7180 H     1 <1>   0.0800 
 44 H       -7.5280     0.7310    -1.1080 H     1 <1>   0.0800 
 45 H       -5.5490     1.9240     0.2320 H     1 <1>   0.0800 
 46 H       -5.0850     1.1900     1.7360 H     1 <1>   0.0800 
 47 H       -8.8860    -0.0930     1.4620 H     1 <1>   0.0800 
 48 H       -9.7790    -0.0790    -0.0150 H     1 <1>   0.0800 
 49 H       -6.4300     3.0360     2.2790 H     1 <1>   0.0800 
 50 H       -7.4010     1.6440     2.6270 H     1 <1>   0.0800 
 51 H       -9.9270     1.9790     1.4670 H     1 <1>   0.0800 
 52 H       -9.7390     2.2160    -0.2340 H     1 <1>   0.0800 
 53 H       -7.5830     3.0530    -0.0450 H     1 <1>   0.0800 
 54 H       -8.4010     3.7020     1.3290 H     1 <1>   0.0800 
@<TRIPOS>BOND
  1   1   2  2   
  2   1   3  2   
  3   1   4  am  
  4   1   5  1   
  5   4   6  1   
  6   4   7  1   
  7   5   8  ar  
  8   5   9  ar  
  9   6  10  1   
 10   6  27  1   
 11   6  28  1   
 12   7  11  1   
 13   7  29  1   
 14   7  30  1   
 15   8  12  ar  
 16   8  31  1   
 17   9  13  ar  
 18   9  32  1   
 19  10  14  1   
 20  10  33  1   
 21  10  34  1   
 22  11  14  1   
 23  11  35  1   
 24  11  36  1   
 25  12  15  ar  
 26  12  16  1   
 27  13  15  ar  
 28  13  37  1   
 29  15  17  1   
 30  16  18  2   
 31  16  19  am  
 32  17  38  1   
 33  17  39  1   
 34  17  40  1   
 35  19  20  1   
 36  19  41  1   
 37  20  21  1   
 38  20  22  1   
 39  20  42  1   
 40  21  23  1   
 41  21  43  1   
 42  21  44  1   
 43  22  24  1   
 44  22  45  1   
 45  22  46  1   
 46  23  25  1   
 47  23  47  1   
 48  23  48  1   
 49  24  26  1   
 50  24  49  1   
 51  24  50  1   
 52  25  26  1   
 53  25  51  1   
 54  25  52  1   
 55  26  53  1   
 56  26  54  1   
@<TRIPOS>SUBSTRUCTURE
  1 ****   8 GROUP 4 **** **** 0

# MOE 2024.06 (io_trps.svl 2023.06)
