@<TRIPOS>MOLECULE
NONAME
35 36 1 0 0 
SMALL
USER_CHARGES


@<TRIPOS>ATOM
  1 S       -0.4450     0.1360    -1.2810 S.3   1 <1>  -0.2860 
  2 C       -2.1890     0.0730    -0.8710 C.2   1 <1>   0.2420 
  3 C        0.3840    -1.0170    -0.0920 C.3   1 <1>   0.0700 
  4 N       -3.0590     0.8220    -1.4450 N.2   1 <1>  -0.5650 
  5 N       -2.6710    -0.7730     0.0690 N.pl3 1 <1>   0.0330 
  6 C        1.8930    -1.0730    -0.3770 C.3   1 <1>   0.2000 
  7 C       -4.2270     0.4550    -0.8450 C.ar  1 <1>   0.2270 
  8 C       -4.0080    -0.5360     0.0990 C.ar  1 <1>  -0.1520 
  9 O        2.3110    -2.3500    -0.0270 O.3   1 <1>  -0.6800 
 10 C        2.7910    -0.0200     0.3520 C.3   1 <1>   0.0000 
 11 C       -5.5190     0.9300    -1.0620 C.ar  1 <1>  -0.1500 
 12 C       -5.0580    -1.0740     0.8450 C.ar  1 <1>  -0.1500 
 13 C        2.7460    -0.1640     1.8870 C.3   1 <1>  -0.2400 
 14 C        2.3630     1.4150    -0.0020 C.3   1 <1>  -0.2400 
 15 C        4.2560    -0.1840    -0.1000 C.3   1 <1>  -0.2400 
 16 C       -6.5620     0.4050    -0.3300 C.ar  1 <1>  -0.1500 
 17 C       -6.3310    -0.5950     0.6220 C.ar  1 <1>  -0.1500 
 18 H       -0.0610    -1.9820    -0.2590 H     1 <1>   0.0800 
 19 H        0.1700    -0.6690     0.9000 H     1 <1>   0.0800 
 20 H       -2.1470    -1.4520     0.6200 H     1 <1>   0.2700 
 21 H        2.0390    -0.9870    -1.4410 H     1 <1>   0.0800 
 22 H        3.2760    -2.4200    -0.1560 H     1 <1>   0.4000 
 23 H       -5.6670     1.6980    -1.7980 H     1 <1>   0.1500 
 24 H       -4.8730    -1.8430     1.5740 H     1 <1>   0.1500 
 25 H        3.4120     0.5420     2.3500 H     1 <1>   0.0800 
 26 H        3.0450    -1.1510     2.1900 H     1 <1>   0.0800 
 27 H        1.7580     0.0210     2.2670 H     1 <1>   0.0800 
 28 H        1.3810     1.6310     0.3780 H     1 <1>   0.0800 
 29 H        2.3520     1.5540    -1.0690 H     1 <1>   0.0800 
 30 H        3.0420     2.1320     0.4240 H     1 <1>   0.0800 
 31 H        4.6560    -1.1340     0.2060 H     1 <1>   0.0800 
 32 H        4.8740     0.5830     0.3340 H     1 <1>   0.0800 
 33 H        4.3320    -0.1070    -1.1700 H     1 <1>   0.0800 
 34 H       -7.5650     0.7620    -0.4860 H     1 <1>   0.1500 
 35 H       -7.1640    -0.9880     1.1790 H     1 <1>   0.1500 
@<TRIPOS>BOND
  1   1   2  1   
  2   1   3  1   
  3   2   4  2   
  4   2   5  1   
  5   3   6  1   
  6   3  18  1   
  7   3  19  1   
  8   4   7  1   
  9   5   8  1   
 10   5  20  1   
 11   6   9  1   
 12   6  10  1   
 13   6  21  1   
 14   7   8  ar  
 15   7  11  ar  
 16   8  12  ar  
 17   9  22  1   
 18  10  13  1   
 19  10  14  1   
 20  10  15  1   
 21  11  16  ar  
 22  11  23  1   
 23  12  17  ar  
 24  12  24  1   
 25  13  25  1   
 26  13  26  1   
 27  13  27  1   
 28  14  28  1   
 29  14  29  1   
 30  14  30  1   
 31  15  31  1   
 32  15  32  1   
 33  15  33  1   
 34  16  17  ar  
 35  16  34  1   
 36  17  35  1   
@<TRIPOS>SUBSTRUCTURE
  1 ****   2 GROUP 4 **** **** 0

# MOE 2024.06 (io_trps.svl 2023.06)
