@<TRIPOS>MOLECULE
NONAME
28 28 1 0 0 
SMALL
USER_CHARGES


@<TRIPOS>ATOM
  1 CL       0.8640     0.1660     2.0530 Cl    1 <1>  -0.1770 
  2 C        1.8280    -0.6650     0.8540 C.ar  1 <1>   0.1770 
  3 C        1.3500    -1.8090     0.2290 C.ar  1 <1>   0.0820 
  4 C        3.0780    -0.1470     0.5580 C.ar  1 <1>  -0.1500 
  5 O        0.1320    -2.3050     0.5590 O.3   1 <1>  -0.3630 
  6 C        2.1750    -2.4330    -0.7010 C.ar  1 <1>   0.1770 
  7 C        3.8910    -0.7780    -0.3760 C.ar  1 <1>  -0.1440 
  8 C       -0.9140    -2.2180    -0.3850 C.3   1 <1>   0.2000 
  9 CL       1.6810    -3.9060    -1.5060 Cl    1 <1>  -0.1770 
 10 C        3.4260    -1.9260    -1.0080 C.ar  1 <1>  -0.1500 
 11 C        5.2670    -0.2260    -0.6940 C.3   1 <1>   0.4870 
 12 C       -1.5700    -0.8420    -0.2650 C.3   1 <1>  -0.2400 
 13 C       -1.9010    -3.3380    -0.0700 C.3   1 <1>  -0.2400 
 14 N        6.2140    -0.8490     0.2510 N.4   1 <1>  -0.8530 
 15 H        3.3870     0.7490     1.0690 H     1 <1>   0.1500 
 16 H       -0.5130    -2.3550    -1.3740 H     1 <1>   0.0800 
 17 H        4.0160    -2.4470    -1.7430 H     1 <1>   0.1500 
 18 H        5.2690     0.8470    -0.5800 H     1 <1>   0.0800 
 19 H        5.5350    -0.4660    -1.7110 H     1 <1>   0.0800 
 20 H       -1.9280    -0.6860     0.7370 H     1 <1>   0.0800 
 21 H       -2.4030    -0.7740    -0.9410 H     1 <1>   0.0800 
 22 H       -0.8690    -0.0690    -0.5180 H     1 <1>   0.0800 
 23 H       -2.2930    -3.2240     0.9250 H     1 <1>   0.0800 
 24 H       -1.4100    -4.2910    -0.1530 H     1 <1>   0.0800 
 25 H       -2.7190    -3.3160    -0.7670 H     1 <1>   0.0800 
 26 H        5.9340    -0.6360     1.2150 H     1 <1>   0.4500 
 27 H        7.1740    -0.5200     0.1030 H     1 <1>   0.4500 
 28 H        6.1910    -1.8690     0.1470 H     1 <1>   0.4500 
@<TRIPOS>BOND
  1   1   2  1   
  2   2   3  ar  
  3   2   4  ar  
  4   3   5  1   
  5   3   6  ar  
  6   4   7  ar  
  7   4  15  1   
  8   5   8  1   
  9   6   9  1   
 10   6  10  ar  
 11   7  10  ar  
 12   7  11  1   
 13   8  12  1   
 14   8  13  1   
 15   8  16  1   
 16  10  17  1   
 17  11  14  1   
 18  11  18  1   
 19  11  19  1   
 20  12  20  1   
 21  12  21  1   
 22  12  22  1   
 23  13  23  1   
 24  13  24  1   
 25  13  25  1   
 26  14  26  1   
 27  14  27  1   
 28  14  28  1   
@<TRIPOS>SUBSTRUCTURE
  1 ****   3 GROUP 4 **** **** 0

# MOE 2024.06 (io_trps.svl 2023.06)
