@<TRIPOS>MOLECULE
NONAME
27 27 1 0 0 
SMALL
USER_CHARGES


@<TRIPOS>ATOM
  1 O       -8.0740     3.5320    -0.0430 O.3   1 <1>  -0.2800 
  2 C       -7.5280     2.9520    -1.1240 C.2   1 <1>   0.0550 
  3 C       -9.3370     3.8360    -0.2990 C.2   1 <1>  -0.0400 
  4 C       -6.1590     2.5130    -1.1370 C.2   1 <1>   0.4740 
  5 C       -8.5070     2.9000    -2.0840 C.2   1 <1>  -0.1500 
  6 C       -9.6630     3.4670    -1.5520 C.2   1 <1>  -0.1500 
  7 C      -10.1510     4.5020     0.7860 C.3   1 <1>  -0.0600 
  8 N       -5.5080     1.9310    -2.1340 N.2   1 <1>  -0.8000 
  9 C       -5.2840     2.7160     0.1390 C.3   1 <1>   0.3170 
 10 O       -6.1310     1.7410    -3.1630 O.3   1 <1>  -0.6500 
 11 N       -3.9290     2.1700    -0.1710 N.4   1 <1>  -0.2260 
 12 C       -5.1060     4.2080     0.4920 C.3   1 <1>  -0.2400 
 13 C       -5.8290     1.9290     1.3500 C.3   1 <1>  -0.2400 
 14 O       -2.9910     2.2550     0.8450 O.2   1 <1>  -0.7500 
 15 H       -8.4000     2.4930    -3.0740 H     1 <1>   0.1500 
 16 H      -10.5980     3.5680    -2.0700 H     1 <1>   0.1500 
 17 H      -11.1500     4.6880     0.4380 H     1 <1>   0.0800 
 18 H       -9.6930     5.4360     1.0590 H     1 <1>   0.0800 
 19 H      -10.1910     3.8650     1.6500 H     1 <1>   0.0800 
 20 H       -3.6160     2.6400    -1.0300 H     1 <1>   0.3600 
 21 H       -4.0710     1.2030    -0.4880 H     1 <1>   0.3600 
 22 H       -6.0350     4.6510     0.7930 H     1 <1>   0.0800 
 23 H       -4.7380     4.7440    -0.3650 H     1 <1>   0.0800 
 24 H       -4.4100     4.3200     1.3030 H     1 <1>   0.0800 
 25 H       -5.9570     0.8960     1.0850 H     1 <1>   0.0800 
 26 H       -6.7750     2.3160     1.6730 H     1 <1>   0.0800 
 27 H       -5.1460     1.9980     2.1780 H     1 <1>   0.0800 
@<TRIPOS>BOND
  1   1   2  1   
  2   1   3  1   
  3   2   4  1   
  4   2   5  2   
  5   3   6  2   
  6   3   7  1   
  7   4   8  2   
  8   4   9  1   
  9   5   6  1   
 10   5  15  1   
 11   6  16  1   
 12   7  17  1   
 13   7  18  1   
 14   7  19  1   
 15   8  10  1   
 16   9  11  1   
 17   9  12  1   
 18   9  13  1   
 19  11  14  2   
 20  11  20  1   
 21  11  21  1   
 22  12  22  1   
 23  12  23  1   
 24  12  24  1   
 25  13  25  1   
 26  13  26  1   
 27  13  27  1   
@<TRIPOS>SUBSTRUCTURE
  1 ****   4 GROUP 4 **** **** 0

# MOE 2024.06 (io_trps.svl 2023.06)
