@<TRIPOS>MOLECULE
NONAME
48 49 1 0 0 
SMALL
USER_CHARGES


@<TRIPOS>ATOM
  1 O       -6.6500    -0.2260     2.1510 O.2   1 <1>  -0.5700 
  2 C       -6.4420    -0.4110     0.9890 C.2   1 <1>   0.4480 
  3 C       -7.4560    -0.0990    -0.1290 C.3   1 <1>  -0.0190 
  4 C       -5.0950    -0.9730     0.5750 C.3   1 <1>  -0.0990 
  5 C       -8.2480     1.2350     0.0840 C.3   1 <1>   0.0000 
  6 C       -8.4140    -1.2970    -0.4020 C.3   1 <1>   0.0580 
  7 C       -3.9800     0.0520     0.7640 C.3   1 <1>   0.2890 
  8 C       -9.2420     1.1080     1.2660 C.3   1 <1>  -0.0220 
  9 C       -7.3030     2.4250     0.3490 C.3   1 <1>  -0.2400 
 10 C       -9.0420     1.5900    -1.1930 C.3   1 <1>  -0.2400 
 11 C       -9.6190    -1.2760     0.5250 C.2   1 <1>  -0.2880 
 12 C       -7.7450    -2.6770    -0.3320 C.3   1 <1>  -0.2400 
 13 N       -4.2390     1.2040    -0.1240 N.pl3 1 <1>  -0.8690 
 14 C       -2.6260    -0.5670     0.4150 C.3   1 <1>  -0.2400 
 15 C       -9.9780    -0.2220     1.2630 C.2   1 <1>  -0.2880 
 16 C       -3.3770     2.2870    -0.0330 C.ar  1 <1>   0.1000 
 17 C       -3.5090     3.2110     0.9960 C.ar  1 <1>  -0.1500 
 18 C       -2.3790     2.4720    -0.9790 C.ar  1 <1>  -0.1500 
 19 C       -2.6540     4.2960     1.0800 C.ar  1 <1>  -0.1500 
 20 C       -1.5220     3.5540    -0.8990 C.ar  1 <1>  -0.1500 
 21 C       -1.6590     4.4690     0.1330 C.ar  1 <1>  -0.1500 
 22 H       -6.8760     0.0360    -1.0230 H     1 <1>   0.0800 
 23 H       -5.1060    -1.3070    -0.4450 H     1 <1>   0.0800 
 24 H       -4.8930    -1.8250     1.1970 H     1 <1>   0.0800 
 25 H       -8.7930    -1.1940    -1.4040 H     1 <1>   0.0800 
 26 H       -3.9690     0.3850     1.7900 H     1 <1>   0.0800 
 27 H       -9.9590     1.9090     1.2210 H     1 <1>   0.0800 
 28 H       -8.7260     1.2010     2.2050 H     1 <1>   0.0800 
 29 H       -6.7210     2.2730     1.2400 H     1 <1>   0.0800 
 30 H       -7.8730     3.3270     0.4890 H     1 <1>   0.0800 
 31 H       -6.6420     2.5810    -0.4840 H     1 <1>   0.0800 
 32 H       -9.8190     0.8730    -1.3860 H     1 <1>   0.0800 
 33 H       -8.3920     1.6280    -2.0490 H     1 <1>   0.0800 
 34 H       -9.5130     2.5520    -1.0910 H     1 <1>   0.0800 
 35 H      -10.1750    -2.1980     0.5330 H     1 <1>   0.1500 
 36 H       -7.4220    -2.8970     0.6710 H     1 <1>   0.0800 
 37 H       -6.9060    -2.7290    -1.0010 H     1 <1>   0.0800 
 38 H       -8.4480    -3.4370    -0.6260 H     1 <1>   0.0800 
 39 H       -5.2000     1.5190     0.0390 H     1 <1>   0.4000 
 40 H       -2.5930    -0.8380    -0.6240 H     1 <1>   0.0800 
 41 H       -2.4560    -1.4460     1.0100 H     1 <1>   0.0800 
 42 H       -1.8340     0.1300     0.6250 H     1 <1>   0.0800 
 43 H      -10.8260    -0.2360     1.9270 H     1 <1>   0.1500 
 44 H       -4.2790     3.0770     1.7320 H     1 <1>   0.1500 
 45 H       -2.2850     1.7580    -1.7770 H     1 <1>   0.1500 
 46 H       -2.7620     5.0060     1.8810 H     1 <1>   0.1500 
 47 H       -0.7520     3.6860    -1.6380 H     1 <1>   0.1500 
 48 H       -0.9930     5.3120     0.1970 H     1 <1>   0.1500 
@<TRIPOS>BOND
  1   1   2  2   
  2   2   3  1   
  3   2   4  1   
  4   3   5  1   
  5   3   6  1   
  6   3  22  1   
  7   4   7  1   
  8   4  23  1   
  9   4  24  1   
 10   5   8  1   
 11   5   9  1   
 12   5  10  1   
 13   6  11  1   
 14   6  12  1   
 15   6  25  1   
 16   7  13  1   
 17   7  14  1   
 18   7  26  1   
 19   8  15  1   
 20   8  27  1   
 21   8  28  1   
 22   9  29  1   
 23   9  30  1   
 24   9  31  1   
 25  10  32  1   
 26  10  33  1   
 27  10  34  1   
 28  11  15  2   
 29  11  35  1   
 30  12  36  1   
 31  12  37  1   
 32  12  38  1   
 33  13  16  1   
 34  13  39  1   
 35  14  40  1   
 36  14  41  1   
 37  14  42  1   
 38  15  43  1   
 39  16  17  ar  
 40  16  18  ar  
 41  17  19  ar  
 42  17  44  1   
 43  18  20  ar  
 44  18  45  1   
 45  19  21  ar  
 46  19  46  1   
 47  20  21  ar  
 48  20  47  1   
 49  21  48  1   
@<TRIPOS>SUBSTRUCTURE
  1 ****  13 GROUP 4 **** **** 0

# MOE 2024.06 (io_trps.svl 2023.06)
