@<TRIPOS>MOLECULE
NONAME
46 47 1 0 0 
SMALL
USER_CHARGES


@<TRIPOS>ATOM
  1 S       -0.2590    -0.1220    -0.2070 S.o2  1 <1>   1.3330 
  2 O       -0.5150     0.9740    -1.1140 O.2   1 <1>  -0.6500 
  3 O        0.3970     0.1240     1.0580 O.2   1 <1>  -0.6500 
  4 N       -1.7340    -0.8950     0.1170 N.am  1 <1>  -0.8490 
  5 C        0.6500    -1.3830    -1.1130 C.3   1 <1>  -0.0550 
  6 C       -2.8420     0.0690     0.2450 C.3   1 <1>   0.1960 
  7 C       -1.6640    -1.7520     1.3060 C.3   1 <1>   0.1960 
  8 C        2.0610    -0.9550    -1.5570 C.3   1 <1>  -0.2400 
  9 C       -4.1900    -0.6630     0.3520 C.3   1 <1>  -0.0190 
 10 C       -2.9530    -2.5680     1.4450 C.3   1 <1>  -0.1600 
 11 C       -5.3400     0.3280     0.4800 C.2   1 <1>   0.5690 
 12 C       -4.1840    -1.6560     1.5280 C.3   1 <1>  -0.1600 
 13 O       -5.1670     1.3540     1.0900 O.2   1 <1>  -0.5700 
 14 N       -6.5360    -0.0250    -0.0840 N.am  1 <1>  -0.5470 
 15 C       -7.7900     0.6060    -0.1570 C.ar  1 <1>   0.1170 
 16 C       -8.9540    -0.1480    -0.4300 C.ar  1 <1>   0.0860 
 17 C       -7.9000     1.9840     0.0240 C.ar  1 <1>  -0.1500 
 18 C       -8.9220    -1.5850    -0.6500 C.2   1 <1>   0.6340 
 19 C      -10.1750     0.5360    -0.4850 C.ar  1 <1>  -0.1500 
 20 C       -9.1180     2.6270    -0.0380 C.ar  1 <1>  -0.1500 
 21 O       -7.9040    -2.2270    -0.8400 O.2   1 <1>  -0.5700 
 22 O      -10.0870    -2.2450    -0.6490 O.3   1 <1>  -0.4300 
 23 C      -10.2630     1.8990    -0.2930 C.ar  1 <1>  -0.1500 
 24 C      -10.1600    -3.6430    -0.8550 C.3   1 <1>   0.0400 
 25 H        0.0850    -1.6520    -1.9840 H     1 <1>   0.0800 
 26 H        0.7380    -2.2590    -0.5010 H     1 <1>   0.0800 
 27 H       -2.8750     0.7100    -0.6210 H     1 <1>   0.0800 
 28 H       -2.6830     0.6920     1.1110 H     1 <1>   0.0800 
 29 H       -1.5190    -1.1470     2.1870 H     1 <1>   0.0800 
 30 H       -0.8290    -2.4260     1.2240 H     1 <1>   0.0800 
 31 H        1.9990    -0.0940    -2.1990 H     1 <1>   0.0800 
 32 H        2.5420    -1.7540    -2.0920 H     1 <1>   0.0800 
 33 H        2.6580    -0.7010    -0.6980 H     1 <1>   0.0800 
 34 H       -4.3250    -1.2100    -0.5640 H     1 <1>   0.0800 
 35 H       -2.8960    -3.1770     2.3300 H     1 <1>   0.0800 
 36 H       -3.0420    -3.2270     0.5980 H     1 <1>   0.0800 
 37 H       -5.0820    -2.2480     1.5190 H     1 <1>   0.0800 
 38 H       -4.1560    -1.1060     2.4540 H     1 <1>   0.0800 
 39 H       -6.5580    -0.9870    -0.4490 H     1 <1>   0.3700 
 40 H       -7.0230     2.5740     0.2150 H     1 <1>   0.1500 
 41 H      -11.0820    -0.0080    -0.6860 H     1 <1>   0.1500 
 42 H       -9.1740     3.6920     0.1100 H     1 <1>   0.1500 
 43 H      -11.2170     2.3970    -0.3410 H     1 <1>   0.1500 
 44 H      -11.1920    -3.9410    -0.8100 H     1 <1>   0.0800 
 45 H       -9.5970    -4.1390    -0.0830 H     1 <1>   0.0800 
 46 H       -9.7490    -3.8750    -1.8220 H     1 <1>   0.0800 
@<TRIPOS>BOND
  1   1   2  2   
  2   1   3  2   
  3   1   4  am  
  4   1   5  1   
  5   4   6  1   
  6   4   7  1   
  7   5   8  1   
  8   5  25  1   
  9   5  26  1   
 10   6   9  1   
 11   6  27  1   
 12   6  28  1   
 13   7  10  1   
 14   7  29  1   
 15   7  30  1   
 16   8  31  1   
 17   8  32  1   
 18   8  33  1   
 19   9  11  1   
 20   9  12  1   
 21   9  34  1   
 22  10  12  1   
 23  10  35  1   
 24  10  36  1   
 25  11  13  2   
 26  11  14  am  
 27  12  37  1   
 28  12  38  1   
 29  14  15  1   
 30  14  39  1   
 31  15  16  ar  
 32  15  17  ar  
 33  16  18  1   
 34  16  19  ar  
 35  17  20  ar  
 36  17  40  1   
 37  18  21  2   
 38  18  22  1   
 39  19  23  ar  
 40  19  41  1   
 41  20  23  ar  
 42  20  42  1   
 43  22  24  1   
 44  23  43  1   
 45  24  44  1   
 46  24  45  1   
 47  24  46  1   
@<TRIPOS>SUBSTRUCTURE
  1 ****  11 GROUP 4 **** **** 0

# MOE 2024.06 (io_trps.svl 2023.06)
