@<TRIPOS>MOLECULE
NONAME
44 44 1 0 0 
SMALL
USER_CHARGES


@<TRIPOS>ATOM
  1 S       -0.3300     0.6780    -1.4820 S.o2  1 <1>   1.4470 
  2 O       -0.9170     1.9990    -1.4280 O.2   1 <1>  -0.6500 
  3 O        0.2200     0.2070    -2.7380 O.2   1 <1>  -0.6500 
  4 N        0.9470     0.6380    -0.3620 N.am  1 <1>  -0.8490 
  5 C       -1.5330    -0.5180    -0.8350 C.ar  1 <1>  -0.0090 
  6 C        1.6660    -0.6530    -0.3930 C.3   1 <1>   0.1960 
  7 C        1.8520     1.7800    -0.5920 C.3   1 <1>   0.1960 
  8 C       -2.3240    -0.2070     0.2640 C.ar  1 <1>  -0.1500 
  9 C       -1.6810    -1.7780    -1.4030 C.ar  1 <1>  -0.1500 
 10 C        1.8630    -1.2560     1.0130 C.3   1 <1>  -0.0800 
 11 C        2.8210     2.0580     0.5750 C.3   1 <1>  -0.0800 
 12 C       -3.2260    -1.1200     0.7830 C.ar  1 <1>  -0.1500 
 13 C       -2.5810    -2.6970    -0.8890 C.ar  1 <1>  -0.1500 
 14 C        2.6390    -2.5750     0.9100 C.3   1 <1>  -0.2400 
 15 C        0.5350    -1.5060     1.7430 C.3   1 <1>  -0.2400 
 16 C        2.0680     2.3710     1.8790 C.3   1 <1>  -0.2400 
 17 C        3.7340     3.2410     0.2250 C.3   1 <1>  -0.2400 
 18 C       -3.3590    -2.3710     0.2080 C.ar  1 <1>  -0.1430 
 19 C       -4.3450    -3.3760     0.7770 C.3   1 <1>  -0.0970 
 20 H        2.6220    -0.5340    -0.8750 H     1 <1>   0.0800 
 21 H        1.1170    -1.3730    -0.9760 H     1 <1>   0.0800 
 22 H        1.2690     2.6750    -0.7300 H     1 <1>   0.0800 
 23 H        2.4070     1.6210    -1.5020 H     1 <1>   0.0800 
 24 H       -2.2270     0.7640     0.7200 H     1 <1>   0.1500 
 25 H       -1.0860    -2.0460    -2.2600 H     1 <1>   0.1500 
 26 H        2.4510    -0.5820     1.6070 H     1 <1>   0.0800 
 27 H        3.4540     1.2030     0.7220 H     1 <1>   0.0800 
 28 H       -3.8220    -0.8490     1.6370 H     1 <1>   0.1500 
 29 H       -2.6730    -3.6650    -1.3490 H     1 <1>   0.1500 
 30 H        2.0860    -3.2990     0.3370 H     1 <1>   0.0800 
 31 H        2.8170    -2.9810     1.8910 H     1 <1>   0.0800 
 32 H        3.5910    -2.4150     0.4360 H     1 <1>   0.0800 
 33 H       -0.0920    -2.1750     1.1800 H     1 <1>   0.0800 
 34 H        0.0090    -0.5800     1.8870 H     1 <1>   0.0800 
 35 H        0.7140    -1.9380     2.7110 H     1 <1>   0.0800 
 36 H        1.4490     3.2420     1.7560 H     1 <1>   0.0800 
 37 H        2.7620     2.5490     2.6800 H     1 <1>   0.0800 
 38 H        1.4360     1.5480     2.1580 H     1 <1>   0.0800 
 39 H        3.1550     4.1350     0.0680 H     1 <1>   0.0800 
 40 H        4.2920     3.0320    -0.6710 H     1 <1>   0.0800 
 41 H        4.4330     3.4220     1.0220 H     1 <1>   0.0800 
 42 H       -5.1900    -2.8700     1.2080 H     1 <1>   0.0800 
 43 H       -3.8660    -3.9640     1.5390 H     1 <1>   0.0800 
 44 H       -4.7020    -4.0320     0.0040 H     1 <1>   0.0800 
@<TRIPOS>BOND
  1   1   2  2   
  2   1   3  2   
  3   1   4  am  
  4   1   5  1   
  5   4   6  1   
  6   4   7  1   
  7   5   8  ar  
  8   5   9  ar  
  9   6  10  1   
 10   6  20  1   
 11   6  21  1   
 12   7  11  1   
 13   7  22  1   
 14   7  23  1   
 15   8  12  ar  
 16   8  24  1   
 17   9  13  ar  
 18   9  25  1   
 19  10  14  1   
 20  10  15  1   
 21  10  26  1   
 22  11  16  1   
 23  11  17  1   
 24  11  27  1   
 25  12  18  ar  
 26  12  28  1   
 27  13  18  ar  
 28  13  29  1   
 29  14  30  1   
 30  14  31  1   
 31  14  32  1   
 32  15  33  1   
 33  15  34  1   
 34  15  35  1   
 35  16  36  1   
 36  16  37  1   
 37  16  38  1   
 38  17  39  1   
 39  17  40  1   
 40  17  41  1   
 41  18  19  1   
 42  19  42  1   
 43  19  43  1   
 44  19  44  1   
@<TRIPOS>SUBSTRUCTURE
  1 ****   4 GROUP 4 **** **** 0

# MOE 2024.06 (io_trps.svl 2023.06)
