@<TRIPOS>MOLECULE
NONAME
53 56 1 0 0 
SMALL
USER_CHARGES


@<TRIPOS>ATOM
  1 O        0.4410    -1.6970    -0.6460 O.2   1 <1>  -0.5700 
  2 C        1.0790    -2.5820    -0.1290 C.2   1 <1>   0.5690 
  3 N        2.4120    -2.7400    -0.4330 N.am  1 <1>  -0.6600 
  4 C        0.3480    -3.4600     0.8810 C.3   1 <1>  -0.0990 
  5 C        3.0240    -1.9660    -1.5590 C.3   1 <1>   0.1400 
  6 C        3.4130    -3.5340     0.3430 C.3   1 <1>   0.1400 
  7 C       -0.2370    -4.7730     0.3100 C.3   1 <1>   0.0000 
  8 C        4.1270    -1.0340    -1.0310 C.3   1 <1>   0.3430 
  9 C        4.5400    -2.6170     0.8640 C.3   1 <1>   0.3430 
 10 C        0.8640    -5.7180    -0.2290 C.3   1 <1>  -0.1600 
 11 C       -0.9970    -5.5110     1.4380 C.3   1 <1>  -0.1600 
 12 C       -1.2350    -4.4820    -0.8360 C.3   1 <1>  -0.1600 
 13 N        5.1540    -1.7880    -0.2320 N.4   1 <1>  -0.9590 
 14 C        0.2510    -7.0300    -0.7560 C.3   1 <1>  -0.0800 
 15 C       -1.6190    -6.8220     0.9210 C.3   1 <1>  -0.0800 
 16 C       -1.8580    -5.7880    -1.3660 C.3   1 <1>  -0.0800 
 17 C        6.2620    -0.9120     0.2520 C.3   1 <1>   0.3430 
 18 C       -0.5010    -7.7350     0.3870 C.3   1 <1>  -0.1600 
 19 C       -0.7380    -6.7050    -1.8910 C.3   1 <1>  -0.1600 
 20 C       -2.6000    -6.4980    -0.2200 C.3   1 <1>  -0.1600 
 21 C        7.5490    -1.7430     0.4270 C.3   1 <1>   0.1200 
 22 O        7.5970    -2.7440    -0.5480 O.3   1 <1>  -0.6800 
 23 H       -0.4680    -2.8750     1.2670 H     1 <1>   0.0800 
 24 H        0.9780    -3.6700     1.7200 H     1 <1>   0.0800 
 25 H        2.2820    -1.3770    -2.0710 H     1 <1>   0.0800 
 26 H        3.4370    -2.6520    -2.2780 H     1 <1>   0.0800 
 27 H        3.8330    -4.2930    -0.2960 H     1 <1>   0.0800 
 28 H        2.9580    -4.0330     1.1770 H     1 <1>   0.0800 
 29 H        3.6660    -0.2790    -0.4160 H     1 <1>   0.0800 
 30 H        4.6000    -0.5410    -1.8650 H     1 <1>   0.0800 
 31 H        5.2990    -3.2250     1.3290 H     1 <1>   0.0800 
 32 H        4.1260    -1.9670     1.6170 H     1 <1>   0.0800 
 33 H        1.5660    -5.9480     0.5510 H     1 <1>   0.0800 
 34 H        1.3970    -5.2440    -1.0330 H     1 <1>   0.0800 
 35 H       -1.7790    -4.8810     1.8260 H     1 <1>   0.0800 
 36 H       -0.3270    -5.7350     2.2500 H     1 <1>   0.0800 
 37 H       -0.7370    -3.9800    -1.6470 H     1 <1>   0.0800 
 38 H       -2.0160    -3.8300    -0.4860 H     1 <1>   0.0800 
 39 H        5.6500    -2.4490    -0.8630 H     1 <1>   0.4500 
 40 H        1.0300    -7.6730    -1.1290 H     1 <1>   0.0800 
 41 H       -2.1430    -7.3180     1.7200 H     1 <1>   0.0800 
 42 H       -2.5480    -5.5640    -2.1620 H     1 <1>   0.0800 
 43 H        5.9960    -0.4220     1.1750 H     1 <1>   0.0800 
 44 H        6.4600    -0.1490    -0.4820 H     1 <1>   0.0800 
 45 H        0.1830    -7.9780     1.1810 H     1 <1>   0.0800 
 46 H       -0.9260    -8.6570     0.0280 H     1 <1>   0.0800 
 47 H       -1.1650    -7.6160    -2.2740 H     1 <1>   0.0800 
 48 H       -0.2210    -6.2210    -2.7000 H     1 <1>   0.0800 
 49 H       -3.3920    -5.8680     0.1470 H     1 <1>   0.0800 
 50 H       -3.0480    -7.4060    -0.5840 H     1 <1>   0.0800 
 51 H        7.5700    -2.2130     1.3960 H     1 <1>   0.0800 
 52 H        8.4180    -1.1140     0.3250 H     1 <1>   0.0800 
 53 H        8.4690    -3.1990    -0.5430 H     1 <1>   0.4000 
@<TRIPOS>BOND
  1   1   2  2   
  2   2   3  am  
  3   2   4  1   
  4   3   5  1   
  5   3   6  1   
  6   4   7  1   
  7   4  23  1   
  8   4  24  1   
  9   5   8  1   
 10   5  25  1   
 11   5  26  1   
 12   6   9  1   
 13   6  27  1   
 14   6  28  1   
 15   7  10  1   
 16   7  11  1   
 17   7  12  1   
 18   8  13  1   
 19   8  29  1   
 20   8  30  1   
 21   9  13  1   
 22   9  31  1   
 23   9  32  1   
 24  10  14  1   
 25  10  33  1   
 26  10  34  1   
 27  11  15  1   
 28  11  35  1   
 29  11  36  1   
 30  12  16  1   
 31  12  37  1   
 32  12  38  1   
 33  13  17  1   
 34  13  39  1   
 35  14  18  1   
 36  14  19  1   
 37  14  40  1   
 38  15  18  1   
 39  15  20  1   
 40  15  41  1   
 41  16  19  1   
 42  16  20  1   
 43  16  42  1   
 44  17  21  1   
 45  17  43  1   
 46  17  44  1   
 47  18  45  1   
 48  18  46  1   
 49  19  47  1   
 50  19  48  1   
 51  20  49  1   
 52  20  50  1   
 53  21  22  1   
 54  21  51  1   
 55  21  52  1   
 56  22  53  1   
@<TRIPOS>SUBSTRUCTURE
  1 ****   3 GROUP 4 **** **** 0

# MOE 2024.06 (io_trps.svl 2023.06)
