@<TRIPOS>MOLECULE
NONAME
41 43 1 0 0 
SMALL
USER_CHARGES


@<TRIPOS>ATOM
  1 CL      -0.2720     0.0290     0.9330 Cl    1 <1>  -0.1770 
  2 C       -2.0180     0.1010     0.9330 C.ar  1 <1>   0.1770 
  3 C       -2.7090    -0.2390     2.0800 C.ar  1 <1>  -0.1500 
  4 C       -2.6790     0.4920    -0.2160 C.ar  1 <1>  -0.1500 
  5 C       -4.0930    -0.1770     2.0750 C.ar  1 <1>  -0.1500 
  6 C       -4.0630     0.5500    -0.2100 C.ar  1 <1>  -0.1500 
  7 C       -4.7780     0.2280     0.9370 C.ar  1 <1>  -0.1430 
  8 C       -6.3180     0.2920     0.9900 C.3   1 <1>   0.3400 
  9 C       -6.8470    -1.1400     0.8570 C.2   1 <1>  -0.1240 
 10 C       -6.9250     1.4490     0.1380 C.2   1 <1>  -0.1240 
 11 C       -7.3730    -1.7770     1.9960 C.2   1 <1>  -0.2880 
 12 C       -6.7250    -1.7870    -0.3770 C.2   1 <1>   0.4950 
 13 C       -7.9380     1.3040    -0.8340 C.2   1 <1>  -0.2880 
 14 C       -6.4210     2.7180     0.4470 C.2   1 <1>   0.4950 
 15 O       -7.3180    -1.3500     3.1510 O.3   1 <1>  -0.8500 
 16 C       -8.0330    -3.1330     1.8620 C.3   1 <1>  -0.0220 
 17 O       -5.9920    -1.4740    -1.3290 O.2   1 <1>  -0.5700 
 18 C       -7.4570    -3.1030    -0.5940 C.3   1 <1>  -0.0990 
 19 O       -8.5560     0.2810    -1.1110 O.3   1 <1>  -0.8500 
 20 C       -8.4200     2.4860    -1.6510 C.3   1 <1>  -0.0220 
 21 O       -5.6100     3.0030     1.3370 O.2   1 <1>  -0.5700 
 22 C       -6.8870     3.9430    -0.3250 C.3   1 <1>  -0.0990 
 23 C       -8.5670    -3.3360     0.4410 C.3   1 <1>  -0.1600 
 24 C       -7.3650     3.5860    -1.7330 C.3   1 <1>  -0.1600 
 25 H       -2.1830    -0.5500     2.9620 H     1 <1>   0.1500 
 26 H       -2.1290     0.7420    -1.1020 H     1 <1>   0.1500 
 27 H       -4.6640    -0.4520     2.9500 H     1 <1>   0.1500 
 28 H       -4.6030     0.8320    -1.0990 H     1 <1>   0.1500 
 29 H       -6.5580     0.5920     1.9930 H     1 <1>   0.0800 
 30 H       -8.8480    -3.1880     2.5610 H     1 <1>   0.0800 
 31 H       -7.3160    -3.8910     2.1150 H     1 <1>   0.0800 
 32 H       -6.7360    -3.8950    -0.5490 H     1 <1>   0.0800 
 33 H       -7.8910    -3.0810    -1.5760 H     1 <1>   0.0800 
 34 H       -9.3240     2.8570    -1.2030 H     1 <1>   0.0800 
 35 H       -8.6580     2.1450    -2.6430 H     1 <1>   0.0800 
 36 H       -6.0760     4.6440    -0.3940 H     1 <1>   0.0800 
 37 H       -7.6850     4.3990     0.2300 H     1 <1>   0.0800 
 38 H       -9.3420    -2.6070     0.2710 H     1 <1>   0.0800 
 39 H       -8.9860    -4.3180     0.3330 H     1 <1>   0.0800 
 40 H       -7.7690     4.4490    -2.2280 H     1 <1>   0.0800 
 41 H       -6.5330     3.2140    -2.3060 H     1 <1>   0.0800 
@<TRIPOS>BOND
  1   1   2  1   
  2   2   3  ar  
  3   2   4  ar  
  4   3   5  ar  
  5   3  25  1   
  6   4   6  ar  
  7   4  26  1   
  8   5   7  ar  
  9   5  27  1   
 10   6   7  ar  
 11   6  28  1   
 12   7   8  1   
 13   8   9  1   
 14   8  10  1   
 15   8  29  1   
 16   9  11  2   
 17   9  12  1   
 18  10  13  2   
 19  10  14  1   
 20  11  15  1   
 21  11  16  1   
 22  12  17  2   
 23  12  18  1   
 24  13  19  1   
 25  13  20  1   
 26  14  21  2   
 27  14  22  1   
 28  16  23  1   
 29  16  30  1   
 30  16  31  1   
 31  18  23  1   
 32  18  32  1   
 33  18  33  1   
 34  20  24  1   
 35  20  34  1   
 36  20  35  1   
 37  22  24  1   
 38  22  36  1   
 39  22  37  1   
 40  23  38  1   
 41  23  39  1   
 42  24  40  1   
 43  24  41  1   
@<TRIPOS>SUBSTRUCTURE
  1 ****   8 GROUP 4 **** **** 0

# MOE 2024.06 (io_trps.svl 2023.06)
