@<TRIPOS>MOLECULE
NONAME
36 36 1 0 0 
SMALL
USER_CHARGES


@<TRIPOS>ATOM
  1 F       -0.4330     0.7920    -0.6780 F     1 <1>  -0.3400 
  2 C       -1.5020    -0.0020    -0.5990 C.3   1 <1>   1.0200 
  3 F       -2.2370     0.5290     0.3800 F     1 <1>  -0.3400 
  4 F       -2.1790     0.2540    -1.7160 F     1 <1>  -0.3400 
  5 C       -1.1230    -1.5210    -0.3230 C.3   1 <1>   0.6690 
  6 N       -0.1290    -1.6170     0.8320 N.pl3 1 <1>  -0.8690 
  7 N       -2.2100    -2.3760     0.2620 N.am  1 <1>  -0.7300 
  8 C       -0.6380    -2.0610    -1.7380 C.3   1 <1>   1.0200 
  9 C        1.1500    -2.1140     0.6490 C.ar  1 <1>   0.1000 
 10 C       -3.4890    -2.4490    -0.1260 C.2   1 <1>   0.7800 
 11 F       -0.1350    -3.2920    -1.6950 F     1 <1>  -0.3400 
 12 F       -1.6070    -2.1480    -2.6480 F     1 <1>  -0.3400 
 13 F        0.3070    -1.3180    -2.3170 F     1 <1>  -0.3400 
 14 C        1.4690    -3.4370     1.0100 C.ar  1 <1>  -0.1790 
 15 C        2.1260    -1.2770     0.1190 C.ar  1 <1>  -0.1500 
 16 O       -3.9720    -1.6880    -0.9350 O.2   1 <1>  -0.5700 
 17 O       -4.2200    -3.4130     0.4160 O.3   1 <1>  -0.4300 
 18 C        0.5100    -4.3690     1.5950 C.2   1 <1>   0.9790 
 19 C        2.7820    -3.8580     0.7810 C.ar  1 <1>  -0.1500 
 20 C        3.4130    -1.7240    -0.0930 C.ar  1 <1>  -0.1500 
 21 C       -5.5710    -3.5860     0.0620 C.3   1 <1>   0.1200 
 22 O       -0.6860    -4.0500     1.7790 O.co2 1 <1>  -0.9000 
 23 O        0.8500    -5.5180     1.9210 O.co2 1 <1>  -0.9000 
 24 C        3.7410    -3.0260     0.2380 C.ar  1 <1>  -0.1500 
 25 C       -6.1150    -4.7740     0.8490 C.3   1 <1>  -0.2400 
 26 H       -0.5930    -2.2320     1.5320 H     1 <1>   0.4000 
 27 H       -1.8490    -3.1690     0.8300 H     1 <1>   0.3700 
 28 H        1.8730    -0.2620    -0.1220 H     1 <1>   0.1500 
 29 H        3.0500    -4.8690     1.0410 H     1 <1>   0.1500 
 30 H        4.1550    -1.0680    -0.5090 H     1 <1>   0.1500 
 31 H       -5.6250    -3.7670    -0.9980 H     1 <1>   0.0800 
 32 H       -6.1050    -2.6820     0.3050 H     1 <1>   0.0800 
 33 H        4.7400    -3.3900     0.0770 H     1 <1>   0.1500 
 34 H       -5.5580    -5.6610     0.6070 H     1 <1>   0.0800 
 35 H       -7.1480    -4.9350     0.6010 H     1 <1>   0.0800 
 36 H       -6.0390    -4.5810     1.9050 H     1 <1>   0.0800 
@<TRIPOS>BOND
  1   1   2  1   
  2   2   3  1   
  3   2   4  1   
  4   2   5  1   
  5   5   6  1   
  6   5   7  1   
  7   5   8  1   
  8   6   9  1   
  9   6  26  1   
 10   7  10  am  
 11   7  27  1   
 12   8  11  1   
 13   8  12  1   
 14   8  13  1   
 15   9  14  ar  
 16   9  15  ar  
 17  10  16  2   
 18  10  17  1   
 19  14  18  1   
 20  14  19  ar  
 21  15  20  ar  
 22  15  28  1   
 23  17  21  1   
 24  18  22  ar  
 25  18  23  ar  
 26  19  24  ar  
 27  19  29  1   
 28  20  24  ar  
 29  20  30  1   
 30  21  25  1   
 31  21  31  1   
 32  21  32  1   
 33  24  33  1   
 34  25  34  1   
 35  25  35  1   
 36  25  36  1   
@<TRIPOS>SUBSTRUCTURE
  1 ****   5 GROUP 4 **** **** 0

# MOE 2024.06 (io_trps.svl 2023.06)
