@<TRIPOS>MOLECULE
NONAME
47 47 1 0 0 
SMALL
USER_CHARGES


@<TRIPOS>ATOM
  1 CL      -2.8900    -1.0910    -2.0720 Cl    1 <1>  -0.1770 
  2 C       -1.7560    -2.2260    -1.3650 C.ar  1 <1>   0.1770 
  3 C       -1.9690    -2.7430    -0.0900 C.ar  1 <1>   0.0820 
  4 C       -0.6470    -2.5890    -2.1050 C.ar  1 <1>  -0.1500 
  5 O       -3.0570    -2.3860     0.6330 O.3   1 <1>  -0.3630 
  6 C       -1.0410    -3.6240     0.4540 C.ar  1 <1>  -0.1440 
  7 C        0.2740    -3.4750    -1.5700 C.ar  1 <1>  -0.1430 
  8 C       -4.2920    -2.9500     0.2490 C.3   1 <1>   0.1200 
  9 C        0.0710    -3.9840    -0.2950 C.ar  1 <1>  -0.1500 
 10 C       -1.2330    -4.1920     1.8530 C.3   1 <1>  -0.0960 
 11 C        1.4990    -3.8880    -2.3670 C.3   1 <1>  -0.0970 
 12 C       -5.3810    -1.9140     0.5060 C.3   1 <1>   0.1200 
 13 O       -6.6120    -2.4430     0.1080 O.3   1 <1>  -0.5600 
 14 C       -7.6690    -1.5510     0.1930 C.3   1 <1>   0.1200 
 15 C       -8.9160    -2.2800    -0.3120 C.3   1 <1>   0.3430 
 16 N      -10.1240    -1.3950    -0.2880 N.4   1 <1>  -0.9060 
 17 C      -11.3760    -1.9950    -0.7560 C.3   1 <1>   0.5030 
 18 C      -12.4400    -0.9090    -0.6350 C.3   1 <1>  -0.2400 
 19 C      -11.2340    -2.4220    -2.2160 C.3   1 <1>  -0.2400 
 20 C      -11.7450    -3.1830     0.1320 C.3   1 <1>  -0.2400 
 21 H       -0.5120    -2.1760    -3.0880 H     1 <1>   0.1500 
 22 H       -4.4510    -3.8340     0.8400 H     1 <1>   0.0800 
 23 H       -4.2590    -3.2050    -0.7960 H     1 <1>   0.0800 
 24 H        0.7900    -4.6700     0.1170 H     1 <1>   0.1500 
 25 H       -1.3670    -3.3890     2.5560 H     1 <1>   0.0800 
 26 H       -0.3810    -4.7720     2.1570 H     1 <1>   0.0800 
 27 H       -2.1050    -4.8200     1.8750 H     1 <1>   0.0800 
 28 H        1.6950    -3.1850    -3.1560 H     1 <1>   0.0800 
 29 H        1.3400    -4.8600    -2.8000 H     1 <1>   0.0800 
 30 H        2.3620    -3.9290    -1.7270 H     1 <1>   0.0800 
 31 H       -5.1780    -1.0280    -0.0720 H     1 <1>   0.0800 
 32 H       -5.4270    -1.6770     1.5550 H     1 <1>   0.0800 
 33 H       -7.4440    -0.6990    -0.4270 H     1 <1>   0.0800 
 34 H       -7.7810    -1.2550     1.2230 H     1 <1>   0.0800 
 35 H       -9.0820    -3.1430     0.3120 H     1 <1>   0.0800 
 36 H       -8.7290    -2.6160    -1.3180 H     1 <1>   0.0800 
 37 H       -9.9530    -0.5680    -0.8690 H     1 <1>   0.4500 
 38 H      -10.2880    -1.0640     0.6670 H     1 <1>   0.4500 
 39 H      -12.5580    -0.5880     0.3850 H     1 <1>   0.0800 
 40 H      -13.3910    -1.2900    -0.9660 H     1 <1>   0.0800 
 41 H      -12.2010    -0.0580    -1.2500 H     1 <1>   0.0800 
 42 H      -10.9240    -1.5980    -2.8340 H     1 <1>   0.0800 
 43 H      -12.1840    -2.7680    -2.5850 H     1 <1>   0.0800 
 44 H      -10.5380    -3.2330    -2.3270 H     1 <1>   0.0800 
 45 H      -12.7140    -3.5580    -0.1510 H     1 <1>   0.0800 
 46 H      -11.0480    -3.9940     0.0220 H     1 <1>   0.0800 
 47 H      -11.7970    -2.8950     1.1670 H     1 <1>   0.0800 
@<TRIPOS>BOND
  1   1   2  1   
  2   2   3  ar  
  3   2   4  ar  
  4   3   5  1   
  5   3   6  ar  
  6   4   7  ar  
  7   4  21  1   
  8   5   8  1   
  9   6   9  ar  
 10   6  10  1   
 11   7   9  ar  
 12   7  11  1   
 13   8  12  1   
 14   8  22  1   
 15   8  23  1   
 16   9  24  1   
 17  10  25  1   
 18  10  26  1   
 19  10  27  1   
 20  11  28  1   
 21  11  29  1   
 22  11  30  1   
 23  12  13  1   
 24  12  31  1   
 25  12  32  1   
 26  13  14  1   
 27  14  15  1   
 28  14  33  1   
 29  14  34  1   
 30  15  16  1   
 31  15  35  1   
 32  15  36  1   
 33  16  17  1   
 34  16  37  1   
 35  16  38  1   
 36  17  18  1   
 37  17  19  1   
 38  17  20  1   
 39  18  39  1   
 40  18  40  1   
 41  18  41  1   
 42  19  42  1   
 43  19  43  1   
 44  19  44  1   
 45  20  45  1   
 46  20  46  1   
 47  20  47  1   
@<TRIPOS>SUBSTRUCTURE
  1 ****   8 GROUP 4 **** **** 0

# MOE 2024.06 (io_trps.svl 2023.06)
