@<TRIPOS>MOLECULE
NONAME
37 38 1 0 0 
SMALL
USER_CHARGES


@<TRIPOS>ATOM
  1 BR      -0.0940    -0.2400     0.6440 Br    1 <1>  -0.1110 
  2 C        1.7950    -0.0920     0.3330 C.ar  1 <1>   0.1110 
  3 C        2.6040    -1.1810     0.5880 C.ar  1 <1>  -0.1500 
  4 C        2.3050     1.1010    -0.1390 C.ar  1 <1>  -0.1500 
  5 C        3.9640    -1.0660     0.3620 C.ar  1 <1>  -0.1500 
  6 C        3.6670     1.1980    -0.3590 C.ar  1 <1>  -0.1500 
  7 C        4.5310     0.1230    -0.1160 C.ar  1 <1>   0.0860 
  8 C        5.9570     0.2540    -0.3560 C.2   1 <1>   0.6340 
  9 O        6.4770     1.2690    -0.7690 O.2   1 <1>  -0.5700 
 10 O        6.7510    -0.7990    -0.1110 O.3   1 <1>  -0.4300 
 11 C        8.1430    -0.7160    -0.3380 C.3   1 <1>   0.1200 
 12 C        8.7890    -2.0470     0.0610 C.3   1 <1>   0.3430 
 13 N       10.2620    -2.0790    -0.2210 N.4   1 <1>  -0.9590 
 14 C       10.7890    -3.4660    -0.0580 C.3   1 <1>   0.3430 
 15 C       11.0260    -1.1070     0.6220 C.3   1 <1>   0.3430 
 16 C       12.2550    -3.5170    -0.4910 C.3   1 <1>  -0.1600 
 17 C       12.4980    -1.1070     0.2050 C.3   1 <1>  -0.1600 
 18 C       13.1120    -2.5100     0.2860 C.3   1 <1>  -0.1600 
 19 H        2.1720    -2.0960     0.9560 H     1 <1>   0.1500 
 20 H        1.6480     1.9330    -0.3280 H     1 <1>   0.1500 
 21 H        4.5930    -1.9160     0.5610 H     1 <1>   0.1500 
 22 H        4.0730     2.1260    -0.7280 H     1 <1>   0.1500 
 23 H        8.5240     0.0970     0.2560 H     1 <1>   0.0800 
 24 H        8.2950    -0.5110    -1.3840 H     1 <1>   0.0800 
 25 H        8.3050    -2.8330    -0.4970 H     1 <1>   0.0800 
 26 H        8.6180    -2.2200     1.1110 H     1 <1>   0.0800 
 27 H       10.4170    -1.8180    -1.2040 H     1 <1>   0.4500 
 28 H       10.2160    -4.1550    -0.6580 H     1 <1>   0.0800 
 29 H       10.7090    -3.7690     0.9750 H     1 <1>   0.0800 
 30 H       10.9470    -1.3840     1.6620 H     1 <1>   0.0800 
 31 H       10.6260    -0.1120     0.5050 H     1 <1>   0.0800 
 32 H       12.3240    -3.3210    -1.5470 H     1 <1>   0.0800 
 33 H       12.6370    -4.5100    -0.3250 H     1 <1>   0.0800 
 34 H       13.0460    -0.4420     0.8510 H     1 <1>   0.0800 
 35 H       12.5860    -0.7240    -0.7970 H     1 <1>   0.0800 
 36 H       14.1130    -2.4950    -0.1130 H     1 <1>   0.0800 
 37 H       13.1780    -2.8140     1.3180 H     1 <1>   0.0800 
@<TRIPOS>BOND
  1   1   2  1   
  2   2   3  ar  
  3   2   4  ar  
  4   3   5  ar  
  5   3  19  1   
  6   4   6  ar  
  7   4  20  1   
  8   5   7  ar  
  9   5  21  1   
 10   6   7  ar  
 11   6  22  1   
 12   7   8  1   
 13   8   9  2   
 14   8  10  1   
 15  10  11  1   
 16  11  12  1   
 17  11  23  1   
 18  11  24  1   
 19  12  13  1   
 20  12  25  1   
 21  12  26  1   
 22  13  14  1   
 23  13  15  1   
 24  13  27  1   
 25  14  16  1   
 26  14  28  1   
 27  14  29  1   
 28  15  17  1   
 29  15  30  1   
 30  15  31  1   
 31  16  18  1   
 32  16  32  1   
 33  16  33  1   
 34  17  18  1   
 35  17  34  1   
 36  17  35  1   
 37  18  36  1   
 38  18  37  1   
@<TRIPOS>SUBSTRUCTURE
  1 ****  10 GROUP 4 **** **** 0

# MOE 2024.06 (io_trps.svl 2023.06)
