@<TRIPOS>MOLECULE
NONAME
51 53 1 0 0 
SMALL
USER_CHARGES


@<TRIPOS>ATOM
  1 O       -1.2970    -0.3530    -0.9170 O.2   1 <1>  -0.5700 
  2 C       -0.2730    -1.0000    -0.7790 C.2   1 <1>   0.5440 
  3 N        0.9170    -0.3180    -0.6410 N.am  1 <1>  -0.6600 
  4 C       -0.3370    -2.4460    -0.7390 C.ar  1 <1>   0.0860 
  5 C        1.0250     1.1460    -0.9140 C.3   1 <1>   0.1400 
  6 C        2.1540    -0.8890    -0.0300 C.3   1 <1>   0.1400 
  7 C       -1.1760    -3.1070     0.1720 C.ar  1 <1>   0.1170 
  8 C        0.4430    -3.2120    -1.6080 C.ar  1 <1>  -0.1500 
  9 C        2.3330     1.4610    -1.6580 C.3   1 <1>   0.1200 
 10 C        3.3940    -0.4670    -0.8350 C.3   1 <1>   0.1200 
 11 N       -2.0040    -2.3470     1.0110 N.am  1 <1>  -0.5470 
 12 C       -1.1810    -4.4990     0.2040 C.ar  1 <1>  -0.1500 
 13 C        0.4250    -4.5910    -1.5670 C.ar  1 <1>  -0.1500 
 14 O        3.4360     0.9240    -0.9820 O.3   1 <1>  -0.5600 
 15 C       -2.6570    -2.6110     2.1860 C.2   1 <1>   0.5690 
 16 C       -0.3880    -5.2370    -0.6520 C.ar  1 <1>  -0.1500 
 17 O       -2.5900    -3.6730     2.7590 O.2   1 <1>  -0.5700 
 18 C       -3.4930    -1.4890     2.8200 C.3   1 <1>   0.2610 
 19 O       -3.9420    -0.5590     1.8440 O.3   1 <1>  -0.3630 
 20 C       -2.6860    -0.6880     3.8480 C.3   1 <1>  -0.2400 
 21 C       -4.7530    -0.9380     0.8240 C.ar  1 <1>   0.0820 
 22 C       -4.7020    -0.1770    -0.3310 C.ar  1 <1>  -0.1500 
 23 C       -5.5960    -2.0440     0.8790 C.ar  1 <1>  -0.1500 
 24 C       -5.4820    -0.5100    -1.4240 C.ar  1 <1>  -0.1500 
 25 C       -6.3740    -2.3740    -0.2170 C.ar  1 <1>  -0.1500 
 26 C       -6.3220    -1.6110    -1.3720 C.ar  1 <1>  -0.1440 
 27 C       -7.1720    -1.9810    -2.5740 C.3   1 <1>  -0.0970 
 28 H        1.0050     1.6830     0.0180 H     1 <1>   0.0800 
 29 H        0.1910     1.4790    -1.5080 H     1 <1>   0.0800 
 30 H        2.1050    -1.9620     0.0200 H     1 <1>   0.0800 
 31 H        2.2500    -0.5190     0.9760 H     1 <1>   0.0800 
 32 H        1.0690    -2.7090    -2.3240 H     1 <1>   0.1500 
 33 H        2.4740     2.5250    -1.7250 H     1 <1>   0.0800 
 34 H        2.3070     1.0530    -2.6540 H     1 <1>   0.0800 
 35 H        3.3860    -0.9170    -1.8120 H     1 <1>   0.0800 
 36 H        4.2900    -0.7690    -0.3220 H     1 <1>   0.0800 
 37 H       -2.2030    -1.4050     0.6390 H     1 <1>   0.3700 
 38 H       -1.8170    -5.0170     0.8980 H     1 <1>   0.1500 
 39 H        1.0360    -5.1660    -2.2420 H     1 <1>   0.1500 
 40 H       -0.4070    -6.3130    -0.6120 H     1 <1>   0.1500 
 41 H       -4.3530    -1.9110     3.3050 H     1 <1>   0.0800 
 42 H       -1.8310    -0.2360     3.3790 H     1 <1>   0.0800 
 43 H       -2.3420    -1.3440     4.6270 H     1 <1>   0.0800 
 44 H       -3.3030     0.0750     4.2880 H     1 <1>   0.0800 
 45 H       -4.0420     0.6720    -0.3760 H     1 <1>   0.1500 
 46 H       -5.6630    -2.6560     1.7580 H     1 <1>   0.1500 
 47 H       -5.4250     0.0890    -2.3150 H     1 <1>   0.1500 
 48 H       -7.0200    -3.2330    -0.1680 H     1 <1>   0.1500 
 49 H       -7.4140    -1.1050    -3.1480 H     1 <1>   0.0800 
 50 H       -8.0900    -2.4430    -2.2570 H     1 <1>   0.0800 
 51 H       -6.6330    -2.6690    -3.2000 H     1 <1>   0.0800 
@<TRIPOS>BOND
  1   1   2  2   
  2   2   3  am  
  3   2   4  1   
  4   3   5  1   
  5   3   6  1   
  6   4   7  ar  
  7   4   8  ar  
  8   5   9  1   
  9   5  28  1   
 10   5  29  1   
 11   6  10  1   
 12   6  30  1   
 13   6  31  1   
 14   7  11  1   
 15   7  12  ar  
 16   8  13  ar  
 17   8  32  1   
 18   9  14  1   
 19   9  33  1   
 20   9  34  1   
 21  10  14  1   
 22  10  35  1   
 23  10  36  1   
 24  11  15  am  
 25  11  37  1   
 26  12  16  ar  
 27  12  38  1   
 28  13  16  ar  
 29  13  39  1   
 30  15  17  2   
 31  15  18  1   
 32  16  40  1   
 33  18  19  1   
 34  18  20  1   
 35  18  41  1   
 36  19  21  1   
 37  20  42  1   
 38  20  43  1   
 39  20  44  1   
 40  21  22  ar  
 41  21  23  ar  
 42  22  24  ar  
 43  22  45  1   
 44  23  25  ar  
 45  23  46  1   
 46  24  26  ar  
 47  24  47  1   
 48  25  26  ar  
 49  25  48  1   
 50  26  27  1   
 51  27  49  1   
 52  27  50  1   
 53  27  51  1   
@<TRIPOS>SUBSTRUCTURE
  1 ****  11 GROUP 4 **** **** 0

# MOE 2024.06 (io_trps.svl 2023.06)
