@<TRIPOS>MOLECULE
NONAME
37 38 1 0 0 
SMALL
USER_CHARGES


@<TRIPOS>ATOM
  1 F       -5.3240    -0.7420    -0.7570 F     1 <1>  -0.1900 
  2 C       -5.8220    -1.8970    -0.4050 C.ar  1 <1>   0.1900 
  3 C       -4.9660    -2.9280    -0.0100 C.ar  1 <1>   0.0530 
  4 C       -7.1970    -2.0280    -0.4570 C.ar  1 <1>  -0.1500 
  5 C       -3.5250    -2.7910     0.0510 C.2   1 <1>   0.0870 
  6 C       -5.5830    -4.1330     0.3330 C.ar  1 <1>  -0.1500 
  7 C       -7.7710    -3.2360    -0.1060 C.ar  1 <1>  -0.1500 
  8 O       -2.7540    -3.8690    -0.0220 O.3   1 <1>  -0.2800 
  9 C       -2.7200    -1.7030     0.1810 C.2   1 <1>  -0.1500 
 10 C       -6.9590    -4.2870     0.2870 C.ar  1 <1>  -0.1500 
 11 C       -1.4920    -3.5070     0.0470 C.2   1 <1>  -0.0400 
 12 C       -1.4030    -2.1640     0.1760 C.2   1 <1>  -0.1500 
 13 C       -0.4520    -4.6080    -0.0310 C.3   1 <1>   0.5230 
 14 N        0.9080    -4.0200     0.0270 N.4   1 <1>  -0.9060 
 15 C        1.9840    -5.0320    -0.0520 C.3   1 <1>   0.3430 
 16 C        3.3340    -4.3240     0.0140 C.3   1 <1>  -0.1600 
 17 C        4.4850    -5.3350    -0.0650 C.3   1 <1>  -0.1600 
 18 C        5.8400    -4.6270     0.0010 C.3   1 <1>  -0.2400 
 19 H       -7.8060    -1.1970    -0.7680 H     1 <1>   0.1500 
 20 H       -4.9770    -4.9650     0.6450 H     1 <1>   0.1500 
 21 H       -8.8400    -3.3600    -0.1400 H     1 <1>   0.1500 
 22 H       -3.0150    -0.6710     0.2720 H     1 <1>   0.1500 
 23 H       -7.4020    -5.2300     0.5600 H     1 <1>   0.1500 
 24 H       -0.5460    -1.5190     0.2610 H     1 <1>   0.1500 
 25 H       -0.5850    -5.1500    -0.9530 H     1 <1>   0.0800 
 26 H       -0.6000    -5.2900     0.7910 H     1 <1>   0.0800 
 27 H        0.9870    -3.4850     0.9000 H     1 <1>   0.4500 
 28 H        0.9960    -3.3490    -0.7450 H     1 <1>   0.4500 
 29 H        1.9110    -5.5830    -0.9770 H     1 <1>   0.0800 
 30 H        1.9020    -5.7290     0.7680 H     1 <1>   0.0800 
 31 H        3.4160    -3.7790     0.9390 H     1 <1>   0.0800 
 32 H        3.4240    -3.6330    -0.8070 H     1 <1>   0.0800 
 33 H        4.4280    -5.8910    -0.9870 H     1 <1>   0.0800 
 34 H        4.4200    -6.0360     0.7510 H     1 <1>   0.0800 
 35 H        5.9530    -3.9390    -0.8200 H     1 <1>   0.0800 
 36 H        6.6360    -5.3500    -0.0560 H     1 <1>   0.0800 
 37 H        5.9440    -4.0850     0.9240 H     1 <1>   0.0800 
@<TRIPOS>BOND
  1   1   2  1   
  2   2   3  ar  
  3   2   4  ar  
  4   3   5  1   
  5   3   6  ar  
  6   4   7  ar  
  7   4  19  1   
  8   5   8  1   
  9   5   9  2   
 10   6  10  ar  
 11   6  20  1   
 12   7  10  ar  
 13   7  21  1   
 14   8  11  1   
 15   9  12  1   
 16   9  22  1   
 17  10  23  1   
 18  11  12  2   
 19  11  13  1   
 20  12  24  1   
 21  13  14  1   
 22  13  25  1   
 23  13  26  1   
 24  14  15  1   
 25  14  27  1   
 26  14  28  1   
 27  15  16  1   
 28  15  29  1   
 29  15  30  1   
 30  16  17  1   
 31  16  31  1   
 32  16  32  1   
 33  17  18  1   
 34  17  33  1   
 35  17  34  1   
 36  18  35  1   
 37  18  36  1   
 38  18  37  1   
@<TRIPOS>SUBSTRUCTURE
  1 ****  11 GROUP 4 **** **** 0

# MOE 2024.06 (io_trps.svl 2023.06)
