@<TRIPOS>MOLECULE
NONAME
55 56 1 0 0 
SMALL
USER_CHARGES


@<TRIPOS>ATOM
  1 N        0.0270    -0.0790     0.1920 N.4   1 <1>  -0.9590 
  2 C       -0.2060    -1.1240    -0.8480 C.3   1 <1>   0.3430 
  3 C       -1.1360     0.8240     0.4110 C.3   1 <1>   0.3430 
  4 C        1.2650     0.7060    -0.1160 C.3   1 <1>   0.4860 
  5 C       -1.4320    -1.9630    -0.4790 C.3   1 <1>  -0.1600 
  6 C       -2.3750     0.0030     0.7890 C.3   1 <1>  -0.1600 
  7 C        2.4470    -0.2380    -0.0430 C.ar  1 <1>  -0.1440 
  8 C       -2.6660    -1.0770    -0.2660 C.3   1 <1>   0.4230 
  9 C        2.9160    -0.6790     1.1880 C.ar  1 <1>  -0.1500 
 10 C        3.0640    -0.6760    -1.2060 C.ar  1 <1>  -0.1500 
 11 N       -3.8690    -1.9250     0.0660 N.4   1 <1>  -0.9590 
 12 C        3.9770    -1.5640     1.2510 C.ar  1 <1>  -0.1500 
 13 C        4.1260    -1.5610    -1.1400 C.ar  1 <1>  -0.1500 
 14 C       -5.1710    -1.1560    -0.1060 C.3   1 <1>   0.3430 
 15 C       -3.7740    -2.6100     1.3980 C.3   1 <1>   0.3430 
 16 C        4.5800    -2.0070     0.0880 C.ar  1 <1>  -0.1500 
 17 C       -6.4740    -2.0150    -0.0400 C.3   1 <1>   0.3430 
 18 C       -4.0500    -4.0950     1.2030 C.3   1 <1>  -0.2400 
 19 N       -7.7590    -1.2390    -0.2160 N.4   1 <1>  -0.9590 
 20 C       -8.9400    -2.1280     0.0640 C.3   1 <1>   0.2630 
 21 C       -7.9300    -0.6440    -1.5870 C.3   1 <1>   0.2630 
 22 H        0.2640    -0.5650     1.0700 H     1 <1>   0.4500 
 23 H        0.6570    -1.7700    -0.9230 H     1 <1>   0.0800 
 24 H       -0.3550    -0.6570    -1.8100 H     1 <1>   0.0800 
 25 H       -1.3310     1.3880    -0.4880 H     1 <1>   0.0800 
 26 H       -0.9130     1.5250     1.2010 H     1 <1>   0.0800 
 27 H        1.4010     1.4950     0.6070 H     1 <1>   0.0800 
 28 H        1.2040     1.1480    -1.0970 H     1 <1>   0.0800 
 29 H       -1.1950    -2.5300     0.4030 H     1 <1>   0.0800 
 30 H       -1.6140    -2.6550    -1.2820 H     1 <1>   0.0800 
 31 H       -3.2060     0.6800     0.8660 H     1 <1>   0.0800 
 32 H       -2.2030    -0.4290     1.7580 H     1 <1>   0.0800 
 33 H       -2.8590    -0.5750    -1.2020 H     1 <1>   0.0800 
 34 H        2.4760    -0.3410     2.1110 H     1 <1>   0.1500 
 35 H        2.7370    -0.3380    -2.1750 H     1 <1>   0.1500 
 36 H       -3.8570    -2.6900    -0.6290 H     1 <1>   0.4500 
 37 H        4.3430    -1.9070     2.2040 H     1 <1>   0.1500 
 38 H        4.6070    -1.9020    -2.0420 H     1 <1>   0.1500 
 39 H       -5.1520    -0.6600    -1.0620 H     1 <1>   0.0800 
 40 H       -5.2290    -0.3990     0.6590 H     1 <1>   0.0800 
 41 H       -4.4760    -2.1870     2.1000 H     1 <1>   0.0800 
 42 H       -2.7850    -2.5000     1.8130 H     1 <1>   0.0800 
 43 H        5.4080    -2.6950     0.1380 H     1 <1>   0.1500 
 44 H       -6.5050    -2.5060     0.9190 H     1 <1>   0.0800 
 45 H       -6.4270    -2.7780    -0.8000 H     1 <1>   0.0800 
 46 H       -5.0390    -4.2810     0.8270 H     1 <1>   0.0800 
 47 H       -3.9680    -4.5930     2.1550 H     1 <1>   0.0800 
 48 H       -3.3230    -4.5400     0.5460 H     1 <1>   0.0800 
 49 H       -7.8180    -0.4700     0.4750 H     1 <1>   0.4500 
 50 H       -8.9720    -2.9490    -0.6350 H     1 <1>   0.0800 
 51 H       -9.8590    -1.5700    -0.0260 H     1 <1>   0.0800 
 52 H       -8.8870    -2.5290     1.0640 H     1 <1>   0.0800 
 53 H       -7.9100    -1.4160    -2.3400 H     1 <1>   0.0800 
 54 H       -7.1500     0.0690    -1.7980 H     1 <1>   0.0800 
 55 H       -8.8780    -0.1320    -1.6550 H     1 <1>   0.0800 
@<TRIPOS>BOND
  1   1   2  1   
  2   1   3  1   
  3   1   4  1   
  4   1  22  1   
  5   2   5  1   
  6   2  23  1   
  7   2  24  1   
  8   3   6  1   
  9   3  25  1   
 10   3  26  1   
 11   4   7  1   
 12   4  27  1   
 13   4  28  1   
 14   5   8  1   
 15   5  29  1   
 16   5  30  1   
 17   6   8  1   
 18   6  31  1   
 19   6  32  1   
 20   7   9  ar  
 21   7  10  ar  
 22   8  11  1   
 23   8  33  1   
 24   9  12  ar  
 25   9  34  1   
 26  10  13  ar  
 27  10  35  1   
 28  11  14  1   
 29  11  15  1   
 30  11  36  1   
 31  12  16  ar  
 32  12  37  1   
 33  13  16  ar  
 34  13  38  1   
 35  14  17  1   
 36  14  39  1   
 37  14  40  1   
 38  15  18  1   
 39  15  41  1   
 40  15  42  1   
 41  16  43  1   
 42  17  19  1   
 43  17  44  1   
 44  17  45  1   
 45  18  46  1   
 46  18  47  1   
 47  18  48  1   
 48  19  20  1   
 49  19  21  1   
 50  19  49  1   
 51  20  50  1   
 52  20  51  1   
 53  20  52  1   
 54  21  53  1   
 55  21  54  1   
 56  21  55  1   
@<TRIPOS>SUBSTRUCTURE
  1 ****   5 GROUP 4 **** **** 0

# MOE 2024.06 (io_trps.svl 2023.06)
