@<TRIPOS>MOLECULE
NONAME
39 39 1 0 0 
SMALL
USER_CHARGES


@<TRIPOS>ATOM
  1 O       -0.1720     1.1120     0.8420 O.3   1 <1>  -0.6800 
  2 C       -0.5700     2.1180    -0.0050 C.3   1 <1>   0.4800 
  3 C        0.6920     2.8050    -0.4060 C.1   1 <1>  -0.2000 
  4 C       -1.2550     1.4880    -1.2420 C.3   1 <1>  -0.1600 
  5 C       -1.4460     3.1020     0.7980 C.3   1 <1>  -0.1600 
  6 C        1.7660     3.2600    -0.6330 C.1   1 <1>  -0.2000 
  7 C       -2.1160     0.2260    -1.0190 C.3   1 <1>  -0.2400 
  8 C       -2.7540     2.5580     1.4000 C.3   1 <1>  -0.2400 
  9 C        3.1870     3.6630    -0.7710 C.3   1 <1>   0.5430 
 10 N        4.0060     2.4910    -0.3690 N.4   1 <1>  -0.9590 
 11 C        3.8200     2.1520     1.0780 C.3   1 <1>   0.3430 
 12 C        5.4390     2.6640    -0.7350 C.3   1 <1>   0.3430 
 13 C        4.5640     0.8560     1.4020 C.3   1 <1>  -0.1600 
 14 C        6.2050     1.3730    -0.4410 C.3   1 <1>  -0.1600 
 15 C        6.0490     0.9370     1.0220 C.3   1 <1>  -0.1600 
 16 H       -0.9660     0.6070     1.0910 H     1 <1>   0.4000 
 17 H       -0.4920     1.2260    -1.9540 H     1 <1>   0.0800 
 18 H       -1.8570     2.2450    -1.7150 H     1 <1>   0.0800 
 19 H       -1.6940     3.9310     0.1580 H     1 <1>   0.0800 
 20 H       -0.8490     3.5010     1.6000 H     1 <1>   0.0800 
 21 H       -2.5600    -0.0730    -1.9520 H     1 <1>   0.0800 
 22 H       -1.5100    -0.5910    -0.6690 H     1 <1>   0.0800 
 23 H       -2.9100     0.3940    -0.3170 H     1 <1>   0.0800 
 24 H       -3.1940     3.3050     2.0360 H     1 <1>   0.0800 
 25 H       -3.4650     2.3310     0.6260 H     1 <1>   0.0800 
 26 H       -2.5750     1.6790     1.9930 H     1 <1>   0.0800 
 27 H        3.3990     4.5100    -0.1390 H     1 <1>   0.0800 
 28 H        3.3870     3.9280    -1.7960 H     1 <1>   0.0800 
 29 H        3.6270     1.6950    -0.8950 H     1 <1>   0.4500 
 30 H        2.7720     2.0210     1.3000 H     1 <1>   0.0800 
 31 H        4.2010     2.9510     1.6940 H     1 <1>   0.0800 
 32 H        5.8670     3.4710    -0.1620 H     1 <1>   0.0800 
 33 H        5.5290     2.9020    -1.7820 H     1 <1>   0.0800 
 34 H        4.0940     0.0390     0.8820 H     1 <1>   0.0800 
 35 H        4.4760     0.6560     2.4560 H     1 <1>   0.0800 
 36 H        7.2490     1.5260    -0.6560 H     1 <1>   0.0800 
 37 H        5.8540     0.5930    -1.0950 H     1 <1>   0.0800 
 38 H        6.5170    -0.0220     1.1710 H     1 <1>   0.0800 
 39 H        6.5460     1.6460     1.6640 H     1 <1>   0.0800 
@<TRIPOS>BOND
  1   1   2  1   
  2   1  16  1   
  3   2   3  1   
  4   2   4  1   
  5   2   5  1   
  6   3   6  3   
  7   4   7  1   
  8   4  17  1   
  9   4  18  1   
 10   5   8  1   
 11   5  19  1   
 12   5  20  1   
 13   6   9  1   
 14   7  21  1   
 15   7  22  1   
 16   7  23  1   
 17   8  24  1   
 18   8  25  1   
 19   8  26  1   
 20   9  10  1   
 21   9  27  1   
 22   9  28  1   
 23  10  11  1   
 24  10  12  1   
 25  10  29  1   
 26  11  13  1   
 27  11  30  1   
 28  11  31  1   
 29  12  14  1   
 30  12  32  1   
 31  12  33  1   
 32  13  15  1   
 33  13  34  1   
 34  13  35  1   
 35  14  15  1   
 36  14  36  1   
 37  14  37  1   
 38  15  38  1   
 39  15  39  1   
@<TRIPOS>SUBSTRUCTURE
  1 ****   6 GROUP 4 **** **** 0

# MOE 2024.06 (io_trps.svl 2023.06)
