@<TRIPOS>MOLECULE
NONAME
44 46 1 0 0 
SMALL
USER_CHARGES


@<TRIPOS>ATOM
  1 O        0.3090     0.1190     1.9940 O.2   1 <1>  -0.5700 
  2 C        0.1780     1.2820     1.6800 C.2   1 <1>   0.5690 
  3 N        1.2870     2.0760     1.4780 N.am  1 <1>  -0.6600 
  4 C       -1.2750     1.7870     1.5610 C.3   1 <1>   0.2610 
  5 C        2.6510     1.4700     1.4450 C.3   1 <1>   0.2840 
  6 C        1.2820     3.5380     1.2020 C.3   1 <1>   0.1400 
  7 O       -1.4480     2.6130     0.4140 O.3   1 <1>  -0.3630 
  8 C       -1.7320     2.5530     2.8150 C.3   1 <1>  -0.2400 
  9 C        3.5280     2.0460     0.3310 C.ar  1 <1>  -0.1440 
 10 C        1.7680     3.7740    -0.2270 C.3   1 <1>  -0.0160 
 11 C       -2.6590     2.8630    -0.1530 C.ar  1 <1>   0.0820 
 12 C        3.1250     3.1250    -0.4510 C.ar  1 <1>  -0.1430 
 13 C        4.7690     1.4700     0.1020 C.ar  1 <1>  -0.1500 
 14 C       -2.6770     3.8060    -1.1680 C.ar  1 <1>  -0.1500 
 15 C       -3.8470     2.2390     0.2190 C.ar  1 <1>  -0.1500 
 16 C        3.9610     3.6090    -1.4450 C.ar  1 <1>  -0.1500 
 17 C        5.6020     1.9580    -0.8900 C.ar  1 <1>  -0.1500 
 18 C       -3.8620     4.1320    -1.8020 C.ar  1 <1>  -0.1500 
 19 C       -5.0340     2.5650    -0.4160 C.ar  1 <1>  -0.1500 
 20 C        5.1970     3.0290    -1.6640 C.ar  1 <1>  -0.1500 
 21 C       -5.0470     3.5170    -1.4320 C.ar  1 <1>   0.0820 
 22 O       -6.1660     3.8960    -2.1030 O.3   1 <1>  -0.3630 
 23 C       -7.4220     3.3260    -1.8080 C.3   1 <1>   0.0400 
 24 H       -1.8840     0.9140     1.4250 H     1 <1>   0.0800 
 25 H        2.5790     0.4050     1.3030 H     1 <1>   0.0800 
 26 H        3.1280     1.6450     2.3930 H     1 <1>   0.0800 
 27 H        1.9510     4.0250     1.8900 H     1 <1>   0.0800 
 28 H        0.3080     3.9680     1.3320 H     1 <1>   0.0800 
 29 H       -1.1230     3.4220     2.9750 H     1 <1>   0.0800 
 30 H       -1.6360     1.9140     3.6740 H     1 <1>   0.0800 
 31 H       -2.7600     2.8520     2.7300 H     1 <1>   0.0800 
 32 H        1.8310     4.8320    -0.4050 H     1 <1>   0.0800 
 33 H        1.0540     3.3590    -0.9170 H     1 <1>   0.0800 
 34 H        5.0950     0.6350     0.6970 H     1 <1>   0.1500 
 35 H       -1.7590     4.2840    -1.4600 H     1 <1>   0.1500 
 36 H       -3.8740     1.4990     0.9950 H     1 <1>   0.1500 
 37 H        3.6520     4.4400    -2.0540 H     1 <1>   0.1500 
 38 H        6.5620     1.5040    -1.0590 H     1 <1>   0.1500 
 39 H       -3.8770     4.8640    -2.5890 H     1 <1>   0.1500 
 40 H       -5.9350     2.0700    -0.1090 H     1 <1>   0.1500 
 41 H        5.8410     3.4100    -2.4370 H     1 <1>   0.1500 
 42 H       -8.1510     3.7710    -2.4600 H     1 <1>   0.0800 
 43 H       -7.6700     3.5380    -0.7830 H     1 <1>   0.0800 
 44 H       -7.3740     2.2660    -1.9840 H     1 <1>   0.0800 
@<TRIPOS>BOND
  1   1   2  2   
  2   2   3  am  
  3   2   4  1   
  4   3   5  1   
  5   3   6  1   
  6   4   7  1   
  7   4   8  1   
  8   4  24  1   
  9   5   9  1   
 10   5  25  1   
 11   5  26  1   
 12   6  10  1   
 13   6  27  1   
 14   6  28  1   
 15   7  11  1   
 16   8  29  1   
 17   8  30  1   
 18   8  31  1   
 19   9  12  ar  
 20   9  13  ar  
 21  10  12  1   
 22  10  32  1   
 23  10  33  1   
 24  11  14  ar  
 25  11  15  ar  
 26  12  16  ar  
 27  13  17  ar  
 28  13  34  1   
 29  14  18  ar  
 30  14  35  1   
 31  15  19  ar  
 32  15  36  1   
 33  16  20  ar  
 34  16  37  1   
 35  17  20  ar  
 36  17  38  1   
 37  18  21  ar  
 38  18  39  1   
 39  19  21  ar  
 40  19  40  1   
 41  20  41  1   
 42  21  22  1   
 43  22  23  1   
 44  23  42  1   
 45  23  43  1   
 46  23  44  1   
@<TRIPOS>SUBSTRUCTURE
  1 ****   7 GROUP 4 **** **** 0

# MOE 2024.06 (io_trps.svl 2023.06)
