@<TRIPOS>MOLECULE
NONAME
35 36 1 0 0 
SMALL
USER_CHARGES


@<TRIPOS>ATOM
  1 O        0.4420    -0.0620     0.7260 O.3   1 <1>  -0.5600 
  2 C        1.3410     0.7040     0.0080 C.3   1 <1>   0.1200 
  3 C       -0.8920     0.2850     0.5320 C.3   1 <1>   0.0400 
  4 C        2.7300     0.1710     0.3540 C.3   1 <1>  -0.1600 
  5 C        3.8120     0.9450    -0.3850 C.3   1 <1>   0.3430 
  6 N        5.1330     0.3870    -0.0100 N.4   1 <1>  -0.9060 
  7 C        6.2710     1.0740    -0.6690 C.3   1 <1>   0.4230 
  8 C        7.6910     0.3210    -0.3610 C.3   1 <1>  -0.0800 
  9 C        6.4100     2.6510    -0.1320 C.3   1 <1>  -0.1600 
 10 C        7.8340     1.6170    -0.0550 C.3   1 <1>  -0.1600 
 11 C        9.2580     0.5710     0.0350 C.3   1 <1>  -0.1600 
 12 C        7.9710     2.8990     0.2920 C.3   1 <1>  -0.0800 
 13 C        9.4050     2.1540     0.5530 C.3   1 <1>  -0.1600 
 14 H        1.2290     1.7340     0.3050 H     1 <1>   0.0800 
 15 H        1.1260     0.5920    -1.0420 H     1 <1>   0.0800 
 16 H       -1.4990    -0.3690     1.1340 H     1 <1>   0.0800 
 17 H       -1.1480     0.1610    -0.5060 H     1 <1>   0.0800 
 18 H       -1.0460     1.3050     0.8420 H     1 <1>   0.0800 
 19 H        2.7700    -0.8680     0.0780 H     1 <1>   0.0800 
 20 H        2.8720     0.2660     1.4160 H     1 <1>   0.0800 
 21 H        3.7590     1.9880    -0.1160 H     1 <1>   0.0800 
 22 H        3.6610     0.8570    -1.4500 H     1 <1>   0.0800 
 23 H        5.1610    -0.6110    -0.2520 H     1 <1>   0.4500 
 24 H        5.2580     0.4500     1.0070 H     1 <1>   0.4500 
 25 H        6.1190     1.0830    -1.7380 H     1 <1>   0.0800 
 26 H        7.4140    -0.4100     0.3870 H     1 <1>   0.0800 
 27 H        5.7740     2.8390     0.7190 H     1 <1>   0.0800 
 28 H        6.1240     3.3350    -0.9160 H     1 <1>   0.0800 
 29 H        8.1430     1.8800    -1.1620 H     1 <1>   0.0800 
 30 H        7.5450     1.3650     1.0610 H     1 <1>   0.0800 
 31 H        9.8930     0.4020    -0.8230 H     1 <1>   0.0800 
 32 H        9.5810    -0.1090     0.8100 H     1 <1>   0.0800 
 33 H        8.2640     3.6560    -0.4250 H     1 <1>   0.0800 
 34 H       10.2040     2.6510     0.0230 H     1 <1>   0.0800 
 35 H        9.6540     2.1830     1.6040 H     1 <1>   0.0800 
@<TRIPOS>BOND
  1   1   2  1   
  2   1   3  1   
  3   2   4  1   
  4   2  14  1   
  5   2  15  1   
  6   3  16  1   
  7   3  17  1   
  8   3  18  1   
  9   4   5  1   
 10   4  19  1   
 11   4  20  1   
 12   5   6  1   
 13   5  21  1   
 14   5  22  1   
 15   6   7  1   
 16   6  23  1   
 17   6  24  1   
 18   7   8  1   
 19   7   9  1   
 20   7  25  1   
 21   8  10  1   
 22   8  11  1   
 23   8  26  1   
 24   9  12  1   
 25   9  27  1   
 26   9  28  1   
 27  10  12  1   
 28  10  29  1   
 29  10  30  1   
 30  11  13  1   
 31  11  31  1   
 32  11  32  1   
 33  12  13  1   
 34  12  33  1   
 35  13  34  1   
 36  13  35  1   
@<TRIPOS>SUBSTRUCTURE
  1 ****   6 GROUP 4 **** **** 0

# MOE 2024.06 (io_trps.svl 2023.06)
