@<TRIPOS>MOLECULE
NONAME
52 53 1 0 0 
SMALL
USER_CHARGES


@<TRIPOS>ATOM
  1 S        0.2890    -0.3500     0.0810 S.o2  1 <1>   1.4470 
  2 O        0.9970    -0.0500     1.3050 O.2   1 <1>  -0.6500 
  3 O        0.8680    -1.2820    -0.8600 O.2   1 <1>  -0.6500 
  4 N        0.1970     1.1580    -0.7640 N.am  1 <1>  -0.6930 
  5 C       -1.4410    -0.7940     0.4010 C.ar  1 <1>  -0.0090 
  6 C       -0.8050     2.0920    -0.5210 C.ar  1 <1>   0.1990 
  7 C        1.1850     1.4030    -1.8610 C.3   1 <1>   0.2570 
  8 C       -2.1500    -0.2040     1.4410 C.ar  1 <1>  -0.1500 
  9 C       -2.1090    -1.7130    -0.4010 C.ar  1 <1>  -0.1500 
 10 C       -0.6420     3.1600     0.3650 C.ar  1 <1>  -0.1430 
 11 C       -2.0160     1.9530    -1.1880 C.ar  1 <1>  -0.1500 
 12 C        2.6350     1.6640    -1.4250 C.2   1 <1>   0.5690 
 13 C       -3.4780    -0.5190     1.6760 C.ar  1 <1>  -0.1500 
 14 C       -3.4360    -2.0350    -0.1720 C.ar  1 <1>  -0.1500 
 15 C       -1.6910     4.0420     0.5730 C.ar  1 <1>  -0.1500 
 16 C        0.6650     3.3930     1.1110 C.3   1 <1>  -0.0960 
 17 C       -3.0550     2.8360    -0.9730 C.ar  1 <1>  -0.1500 
 18 O        3.3810     2.1300    -2.2530 O.2   1 <1>  -0.5700 
 19 N        3.0490     1.3820    -0.1530 N.am  1 <1>  -0.7300 
 20 C       -4.1220    -1.4370     0.8680 C.ar  1 <1>  -0.1500 
 21 C       -2.8990     3.8860    -0.0860 C.ar  1 <1>  -0.1430 
 22 C        4.3970     1.5040     0.4290 C.3   1 <1>   0.2200 
 23 C       -4.0350     4.8620     0.1570 C.3   1 <1>  -0.0970 
 24 C        4.8500     2.9720     0.4090 C.3   1 <1>  -0.1600 
 25 C        5.3490     0.5560    -0.3010 C.3   1 <1>  -0.2400 
 26 C        6.1210     3.2220     1.2330 C.3   1 <1>  -0.2400 
 27 H        0.8640     2.2590    -2.4270 H     1 <1>   0.0800 
 28 H        1.1870     0.5630    -2.5320 H     1 <1>   0.0800 
 29 H       -1.6590     0.5170     2.0740 H     1 <1>   0.1500 
 30 H       -1.5850    -2.1870    -1.2150 H     1 <1>   0.1500 
 31 H       -2.1460     1.1400    -1.8780 H     1 <1>   0.1500 
 32 H       -4.0080    -0.0470     2.4860 H     1 <1>   0.1500 
 33 H       -3.9340    -2.7520    -0.8030 H     1 <1>   0.1500 
 34 H       -1.5710     4.8660     1.2550 H     1 <1>   0.1500 
 35 H        0.9410     2.5190     1.6700 H     1 <1>   0.0800 
 36 H        0.5780     4.2130     1.8000 H     1 <1>   0.0800 
 37 H        1.4480     3.6260     0.4120 H     1 <1>   0.0800 
 38 H       -3.9860     2.7030    -1.4980 H     1 <1>   0.1500 
 39 H        2.3630     0.9840     0.5020 H     1 <1>   0.3700 
 40 H       -5.1540    -1.6840     1.0490 H     1 <1>   0.1500 
 41 H        4.3300     1.1860     1.4570 H     1 <1>   0.0800 
 42 H       -4.0230     5.2040     1.1760 H     1 <1>   0.0800 
 43 H       -4.9840     4.3930    -0.0310 H     1 <1>   0.0800 
 44 H       -3.9310     5.7100    -0.4960 H     1 <1>   0.0800 
 45 H        4.0610     3.5810     0.8120 H     1 <1>   0.0800 
 46 H        5.0260     3.2830    -0.6060 H     1 <1>   0.0800 
 47 H        5.5090     0.8860    -1.3120 H     1 <1>   0.0800 
 48 H        4.9400    -0.4380    -0.3140 H     1 <1>   0.0800 
 49 H        6.2980     0.5220     0.2000 H     1 <1>   0.0800 
 50 H        5.9830     2.8970     2.2490 H     1 <1>   0.0800 
 51 H        6.3500     4.2730     1.2380 H     1 <1>   0.0800 
 52 H        6.9600     2.6990     0.8100 H     1 <1>   0.0800 
@<TRIPOS>BOND
  1   1   2  2   
  2   1   3  2   
  3   1   4  am  
  4   1   5  1   
  5   4   6  1   
  6   4   7  1   
  7   5   8  ar  
  8   5   9  ar  
  9   6  10  ar  
 10   6  11  ar  
 11   7  12  1   
 12   7  27  1   
 13   7  28  1   
 14   8  13  ar  
 15   8  29  1   
 16   9  14  ar  
 17   9  30  1   
 18  10  15  ar  
 19  10  16  1   
 20  11  17  ar  
 21  11  31  1   
 22  12  18  2   
 23  12  19  am  
 24  13  20  ar  
 25  13  32  1   
 26  14  20  ar  
 27  14  33  1   
 28  15  21  ar  
 29  15  34  1   
 30  16  35  1   
 31  16  36  1   
 32  16  37  1   
 33  17  21  ar  
 34  17  38  1   
 35  19  22  1   
 36  19  39  1   
 37  20  40  1   
 38  21  23  1   
 39  22  24  1   
 40  22  25  1   
 41  22  41  1   
 42  23  42  1   
 43  23  43  1   
 44  23  44  1   
 45  24  26  1   
 46  24  45  1   
 47  24  46  1   
 48  25  47  1   
 49  25  48  1   
 50  25  49  1   
 51  26  50  1   
 52  26  51  1   
 53  26  52  1   
@<TRIPOS>SUBSTRUCTURE
  1 ****   4 GROUP 4 **** **** 0

# MOE 2024.06 (io_trps.svl 2023.06)
