@<TRIPOS>MOLECULE
NONAME
39 39 1 0 0 
SMALL
USER_CHARGES


@<TRIPOS>ATOM
  1 O        0.0070     0.4520    -1.2160 O.2   1 <1>  -0.5700 
  2 C       -0.0620     1.4590    -0.5500 C.2   1 <1>   0.4950 
  3 C        1.0820     2.0950     0.0310 C.2   1 <1>   0.0290 
  4 C       -1.4640     2.0100    -0.3510 C.3   1 <1>  -0.0990 
  5 C        0.8770     3.2790     0.8190 C.2   1 <1>   0.4950 
  6 C        2.3340     1.5550    -0.1850 C.2   1 <1>  -0.0500 
  7 C       -1.4860     3.5260    -0.1140 C.3   1 <1>   0.0000 
  8 O        1.7620     3.8960     1.3730 O.2   1 <1>  -0.5700 
  9 C       -0.5180     3.8440     1.0330 C.3   1 <1>  -0.0990 
 10 N        3.5100     2.0420     0.2880 N.pl3 1 <1>  -0.8690 
 11 C       -1.0780     4.2810    -1.3930 C.3   1 <1>  -0.2400 
 12 C       -2.9060     3.9650     0.2740 C.3   1 <1>  -0.2400 
 13 C        4.8930     1.5240     0.0580 C.3   1 <1>   0.3690 
 14 C        4.9520     0.0160     0.4090 C.3   1 <1>   0.1200 
 15 C        5.8600     2.3180     0.9710 C.3   1 <1>   0.1200 
 16 C        5.2150     1.7560    -1.4220 C.3   1 <1>  -0.2400 
 17 O        4.2870    -0.2230     1.6090 O.3   1 <1>  -0.6800 
 18 O        7.1970     1.9820     0.7420 O.3   1 <1>  -0.6800 
 19 H       -2.0580     1.7710    -1.2170 H     1 <1>   0.0800 
 20 H       -1.8990     1.4970     0.4870 H     1 <1>   0.0800 
 21 H        2.4030     0.6620    -0.7910 H     1 <1>   0.1500 
 22 H       -0.8940     3.4410     1.9560 H     1 <1>   0.0800 
 23 H       -0.4460     4.9110     1.1570 H     1 <1>   0.0800 
 24 H        3.4750     2.9150     0.8470 H     1 <1>   0.4000 
 25 H       -1.7620     4.0590    -2.1950 H     1 <1>   0.0800 
 26 H       -0.0880     4.0170    -1.7210 H     1 <1>   0.0800 
 27 H       -1.0980     5.3440    -1.2250 H     1 <1>   0.0800 
 28 H       -3.2360     3.4620     1.1660 H     1 <1>   0.0800 
 29 H       -3.6020     3.7380    -0.5160 H     1 <1>   0.0800 
 30 H       -2.9390     5.0260     0.4550 H     1 <1>   0.0800 
 31 H        5.9680    -0.3250     0.5040 H     1 <1>   0.0800 
 32 H        4.4650    -0.5600    -0.3560 H     1 <1>   0.0800 
 33 H        5.6390     2.1070     2.0030 H     1 <1>   0.0800 
 34 H        5.7530     3.3720     0.7870 H     1 <1>   0.0800 
 35 H        4.5160     1.2330    -2.0480 H     1 <1>   0.0800 
 36 H        6.2040     1.3990    -1.6470 H     1 <1>   0.0800 
 37 H        5.1730     2.8060    -1.6490 H     1 <1>   0.0800 
 38 H        3.4990     0.3660     1.6090 H     1 <1>   0.4000 
 39 H        7.7800     2.4380     1.3800 H     1 <1>   0.4000 
@<TRIPOS>BOND
  1   1   2  2   
  2   2   3  1   
  3   2   4  1   
  4   3   5  1   
  5   3   6  2   
  6   4   7  1   
  7   4  19  1   
  8   4  20  1   
  9   5   8  2   
 10   5   9  1   
 11   6  10  1   
 12   6  21  1   
 13   7   9  1   
 14   7  11  1   
 15   7  12  1   
 16   9  22  1   
 17   9  23  1   
 18  10  13  1   
 19  10  24  1   
 20  11  25  1   
 21  11  26  1   
 22  11  27  1   
 23  12  28  1   
 24  12  29  1   
 25  12  30  1   
 26  13  14  1   
 27  13  15  1   
 28  13  16  1   
 29  14  17  1   
 30  14  31  1   
 31  14  32  1   
 32  15  18  1   
 33  15  33  1   
 34  15  34  1   
 35  16  35  1   
 36  16  36  1   
 37  16  37  1   
 38  17  38  1   
 39  18  39  1   
@<TRIPOS>SUBSTRUCTURE
  1 ****   6 GROUP 4 **** **** 0

# MOE 2024.06 (io_trps.svl 2023.06)
