@<TRIPOS>MOLECULE
NONAME
32 33 1 0 0 
SMALL
USER_CHARGES


@<TRIPOS>ATOM
  1 S       -0.1630     0.3620     0.2540 S.3   1 <1>  -0.3610 
  2 C       -0.3620    -1.2410    -0.3770 C.cat 1 <1>   0.8400 
  3 C        1.6720     0.3570     0.2360 C.3   1 <1>   0.2300 
  4 N        0.7930    -1.8090    -0.6110 N.pl3 1 <1>  -0.7940 
  5 N       -1.5580    -1.7600    -0.5640 N.pl3 1 <1>  -0.6530 
  6 C        2.0450    -1.0460    -0.3190 C.3   1 <1>   0.3290 
  7 C        2.1280     0.5780     1.6820 C.3   1 <1>  -0.2400 
  8 C        2.1070     1.5060    -0.6790 C.3   1 <1>  -0.2400 
  9 C       -2.8110    -1.1710    -0.3290 C.ar  1 <1>   0.3490 
 10 C       -3.1950     0.0010    -0.9660 C.ar  1 <1>  -0.1500 
 11 C       -3.7050    -1.7790     0.5390 C.ar  1 <1>  -0.1500 
 12 C       -4.4430     0.5560    -0.7360 C.ar  1 <1>  -0.1500 
 13 C       -4.9540    -1.2270     0.7700 C.ar  1 <1>  -0.1500 
 14 C       -5.3440    -0.0510     0.1340 C.ar  1 <1>  -0.1430 
 15 C       -6.7340     0.5630     0.3970 C.3   1 <1>   1.1630 
 16 F       -7.6630    -0.3580     0.6250 F     1 <1>  -0.3400 
 17 F       -6.7290     1.3610     1.4560 F     1 <1>  -0.3400 
 18 F       -7.1760     1.2920    -0.6210 F     1 <1>  -0.3400 
 19 H        0.9060    -2.7530    -0.9850 H     1 <1>   0.4500 
 20 H       -1.6140    -2.7200    -0.8970 H     1 <1>   0.4500 
 21 H        2.6370    -1.5840     0.4020 H     1 <1>   0.0800 
 22 H        2.6260    -0.9450    -1.2210 H     1 <1>   0.0800 
 23 H        1.7550    -0.2000     2.3240 H     1 <1>   0.0800 
 24 H        1.7650     1.5230     2.0470 H     1 <1>   0.0800 
 25 H        3.2020     0.5860     1.7410 H     1 <1>   0.0800 
 26 H        1.7210     1.3710    -1.6740 H     1 <1>   0.0800 
 27 H        3.1810     1.5600    -0.7320 H     1 <1>   0.0800 
 28 H        1.7430     2.4450    -0.2970 H     1 <1>   0.0800 
 29 H       -2.5200     0.4880    -1.6460 H     1 <1>   0.1500 
 30 H       -3.4300    -2.6860     1.0460 H     1 <1>   0.1500 
 31 H       -4.7090     1.4710    -1.2430 H     1 <1>   0.1500 
 32 H       -5.6270    -1.7200     1.4550 H     1 <1>   0.1500 
@<TRIPOS>BOND
  1   1   2  1   
  2   1   3  1   
  3   2   4  ar  
  4   2   5  ar  
  5   3   6  1   
  6   3   7  1   
  7   3   8  1   
  8   4   6  1   
  9   4  19  1   
 10   5   9  1   
 11   5  20  1   
 12   6  21  1   
 13   6  22  1   
 14   7  23  1   
 15   7  24  1   
 16   7  25  1   
 17   8  26  1   
 18   8  27  1   
 19   8  28  1   
 20   9  10  ar  
 21   9  11  ar  
 22  10  12  ar  
 23  10  29  1   
 24  11  13  ar  
 25  11  30  1   
 26  12  14  ar  
 27  12  31  1   
 28  13  14  ar  
 29  13  32  1   
 30  14  15  1   
 31  15  16  1   
 32  15  17  1   
 33  15  18  1   
@<TRIPOS>SUBSTRUCTURE
  1 ****   9 GROUP 4 **** **** 0

# MOE 2024.06 (io_trps.svl 2023.06)
