@<TRIPOS>MOLECULE
NONAME
59 61 1 0 0 
SMALL
USER_CHARGES


@<TRIPOS>ATOM
  1 O        0.0850    -1.6590    -1.4910 O.3   1 <1>  -0.3630 
  2 C       -0.9590    -1.4180    -0.6370 C.ar  1 <1>   0.0830 
  3 C        0.2200    -0.9540    -2.7030 C.3   1 <1>   0.1200 
  4 C       -0.9700    -2.0790     0.6060 C.ar  1 <1>   0.1000 
  5 C       -1.9960    -0.5480    -0.9620 C.ar  1 <1>  -0.1500 
  6 C        1.5170    -1.4090    -3.3670 C.3   1 <1>  -0.2400 
  7 N        0.0260    -2.9740     1.0250 N.pl3 1 <1>  -0.8380 
  8 C       -2.0210    -1.8410     1.4800 C.ar  1 <1>  -0.1500 
  9 C       -3.0340    -0.3280    -0.0720 C.ar  1 <1>  -0.1500 
 10 C        1.3600    -2.3320     1.2480 C.3   1 <1>   0.2090 
 11 C        0.0720    -4.2390     0.2270 C.3   1 <1>   0.2090 
 12 C       -3.0460    -0.9740     1.1490 C.ar  1 <1>  -0.1500 
 13 C        2.4010    -3.3400     1.7700 C.3   1 <1>   0.3430 
 14 C        1.1330    -5.2190     0.7660 C.3   1 <1>   0.3430 
 15 N        2.4760    -4.5650     0.8990 N.4   1 <1>  -0.9590 
 16 C        3.5540    -5.4990     1.2950 C.3   1 <1>   0.4860 
 17 C        4.8890    -4.7980     1.1120 C.ar  1 <1>  -0.1430 
 18 C        5.2820    -4.3390    -0.1470 C.ar  1 <1>   0.0830 
 19 C        5.7100    -4.6210     2.2150 C.ar  1 <1>  -0.1500 
 20 O        4.3730    -4.5480    -1.1530 O.3   1 <1>  -0.3630 
 21 C        6.5340    -3.7140    -0.2890 C.ar  1 <1>   0.0830 
 22 C        6.9240    -3.9770     2.0790 C.ar  1 <1>  -0.1500 
 23 C        4.4680    -3.9510    -2.4320 C.3   1 <1>   0.0400 
 24 O        6.9900    -3.3110    -1.5070 O.3   1 <1>  -0.3630 
 25 C        7.3320    -3.5120     0.8430 C.ar  1 <1>   0.0830 
 26 C        8.0680    -4.0510    -2.0450 C.3   1 <1>   0.0400 
 27 O        8.5280    -2.8750     0.7970 O.3   1 <1>  -0.3630 
 28 C        8.5070    -1.4950     0.5040 C.3   1 <1>   0.0400 
 29 H        0.2540     0.1000    -2.4850 H     1 <1>   0.0800 
 30 H       -0.6270    -1.1800    -3.3280 H     1 <1>   0.0800 
 31 H       -2.0240    -0.0290    -1.9000 H     1 <1>   0.1500 
 32 H        2.3550    -1.1920    -2.7300 H     1 <1>   0.0800 
 33 H        1.6490    -0.8840    -4.2960 H     1 <1>   0.0800 
 34 H        1.4770    -2.4630    -3.5730 H     1 <1>   0.0800 
 35 H       -2.0310    -2.3440     2.4290 H     1 <1>   0.1500 
 36 H       -3.8320     0.3470    -0.3310 H     1 <1>   0.1500 
 37 H        1.2480    -1.5350     1.9620 H     1 <1>   0.0800 
 38 H        1.7190    -1.8990     0.3310 H     1 <1>   0.0800 
 39 H        0.2880    -4.0170    -0.8030 H     1 <1>   0.0800 
 40 H       -0.8960    -4.7080     0.2620 H     1 <1>   0.0800 
 41 H       -3.8530    -0.8040     1.8420 H     1 <1>   0.1500 
 42 H        2.1280    -3.6230     2.7720 H     1 <1>   0.0800 
 43 H        3.3640    -2.8570     1.8100 H     1 <1>   0.0800 
 44 H        1.1980    -6.0630     0.1000 H     1 <1>   0.0800 
 45 H        0.8050    -5.5750     1.7280 H     1 <1>   0.0800 
 46 H        2.7680    -4.2410    -0.0390 H     1 <1>   0.4500 
 47 H        3.5330    -6.3730     0.6660 H     1 <1>   0.0800 
 48 H        3.4280    -5.8060     2.3200 H     1 <1>   0.0800 
 49 H        5.4210    -4.9790     3.1890 H     1 <1>   0.1500 
 50 H        7.5670    -3.8310     2.9300 H     1 <1>   0.1500 
 51 H        4.6170    -2.8910    -2.3190 H     1 <1>   0.0800 
 52 H        3.5520    -4.1370    -2.9640 H     1 <1>   0.0800 
 53 H        5.2890    -4.3970    -2.9650 H     1 <1>   0.0800 
 54 H        8.2600    -3.6930    -3.0400 H     1 <1>   0.0800 
 55 H        7.7960    -5.0920    -2.0730 H     1 <1>   0.0800 
 56 H        8.9410    -3.9110    -1.4330 H     1 <1>   0.0800 
 57 H        9.5100    -1.1190     0.5920 H     1 <1>   0.0800 
 58 H        7.8640    -0.9990     1.2090 H     1 <1>   0.0800 
 59 H        8.1500    -1.3470    -0.4990 H     1 <1>   0.0800 
@<TRIPOS>BOND
  1   1   2  1   
  2   1   3  1   
  3   2   4  ar  
  4   2   5  ar  
  5   3   6  1   
  6   3  29  1   
  7   3  30  1   
  8   4   7  1   
  9   4   8  ar  
 10   5   9  ar  
 11   5  31  1   
 12   6  32  1   
 13   6  33  1   
 14   6  34  1   
 15   7  10  1   
 16   7  11  1   
 17   8  12  ar  
 18   8  35  1   
 19   9  12  ar  
 20   9  36  1   
 21  10  13  1   
 22  10  37  1   
 23  10  38  1   
 24  11  14  1   
 25  11  39  1   
 26  11  40  1   
 27  12  41  1   
 28  13  15  1   
 29  13  42  1   
 30  13  43  1   
 31  14  15  1   
 32  14  44  1   
 33  14  45  1   
 34  15  16  1   
 35  15  46  1   
 36  16  17  1   
 37  16  47  1   
 38  16  48  1   
 39  17  18  ar  
 40  17  19  ar  
 41  18  20  1   
 42  18  21  ar  
 43  19  22  ar  
 44  19  49  1   
 45  20  23  1   
 46  21  24  1   
 47  21  25  ar  
 48  22  25  ar  
 49  22  50  1   
 50  23  51  1   
 51  23  52  1   
 52  23  53  1   
 53  24  26  1   
 54  25  27  1   
 55  26  54  1   
 56  26  55  1   
 57  26  56  1   
 58  27  28  1   
 59  28  57  1   
 60  28  58  1   
 61  28  59  1   
@<TRIPOS>SUBSTRUCTURE
  1 ****  15 GROUP 4 **** **** 0

# MOE 2024.06 (io_trps.svl 2023.06)
