@<TRIPOS>MOLECULE
NONAME
32 32 1 0 0 
SMALL
USER_CHARGES


@<TRIPOS>ATOM
  1 P       -0.1450     0.2210    -0.7310 P.3   1 <1>   1.5100 
  2 O       -0.7880     0.1310    -2.0350 O.2   1 <1>  -0.7000 
  3 O       -1.1410     0.7280     0.4210 O.3   1 <1>  -0.5510 
  4 O        1.0970     1.2290    -0.6320 O.3   1 <1>  -0.5510 
  5 N        0.4680    -1.2280    -0.1480 N.3   1 <1>  -0.8080 
  6 C       -2.1320     1.6900     0.1350 C.3   1 <1>   0.1200 
  7 C        1.7740     1.4160     0.5850 C.3   1 <1>   0.1200 
  8 C        1.4580    -1.8260    -1.0630 C.3   1 <1>   0.1100 
  9 C       -0.5770    -2.2300     0.1260 C.3   1 <1>   0.1100 
 10 C       -1.6250     3.1310    -0.1090 C.3   1 <1>   1.0200 
 11 C        3.0100     2.3260     0.4640 C.3   1 <1>   1.0200 
 12 C        2.0190    -3.1440    -0.5010 C.3   1 <1>   0.1200 
 13 C        0.0290    -3.5380     0.6640 C.3   1 <1>   0.1200 
 14 F       -2.6240     4.0030    -0.1280 F     1 <1>  -0.3400 
 15 F       -0.7910     3.5380     0.8400 F     1 <1>  -0.3400 
 16 F       -0.9830     3.2730    -1.2580 F     1 <1>  -0.3400 
 17 F        3.9230     1.8340    -0.3670 F     1 <1>  -0.3400 
 18 F        2.7190     3.5440     0.0280 F     1 <1>  -0.3400 
 19 F        3.6170     2.4810     1.6330 F     1 <1>  -0.3400 
 20 O        0.9790    -4.0380    -0.2300 O.3   1 <1>  -0.5600 
 21 H       -2.7920     1.7140     0.9820 H     1 <1>   0.0800 
 22 H       -2.6930     1.3600    -0.7210 H     1 <1>   0.0800 
 23 H        2.0970     0.4580     0.9500 H     1 <1>   0.0800 
 24 H        1.0920     1.8480     1.2930 H     1 <1>   0.0800 
 25 H        2.2730    -1.1390    -1.2180 H     1 <1>   0.0800 
 26 H        1.0040    -2.0210    -2.0220 H     1 <1>   0.0800 
 27 H       -1.1300    -2.4440    -0.7750 H     1 <1>   0.0800 
 28 H       -1.2670    -1.8430     0.8570 H     1 <1>   0.0800 
 29 H        2.5680    -2.9670     0.4080 H     1 <1>   0.0800 
 30 H        2.6720    -3.6080    -1.2180 H     1 <1>   0.0800 
 31 H       -0.7370    -4.2850     0.7790 H     1 <1>   0.0800 
 32 H        0.5020    -3.3750     1.6160 H     1 <1>   0.0800 
@<TRIPOS>BOND
  1   1   2  2   
  2   1   3  1   
  3   1   4  1   
  4   1   5  1   
  5   3   6  1   
  6   4   7  1   
  7   5   8  1   
  8   5   9  1   
  9   6  10  1   
 10   6  21  1   
 11   6  22  1   
 12   7  11  1   
 13   7  23  1   
 14   7  24  1   
 15   8  12  1   
 16   8  25  1   
 17   8  26  1   
 18   9  13  1   
 19   9  27  1   
 20   9  28  1   
 21  10  14  1   
 22  10  15  1   
 23  10  16  1   
 24  11  17  1   
 25  11  18  1   
 26  11  19  1   
 27  12  20  1   
 28  12  29  1   
 29  12  30  1   
 30  13  20  1   
 31  13  31  1   
 32  13  32  1   
@<TRIPOS>SUBSTRUCTURE
  1 ****   4 GROUP 4 **** **** 0

# MOE 2024.06 (io_trps.svl 2023.06)
