@<TRIPOS>MOLECULE
NONAME
33 33 1 0 0 
SMALL
USER_CHARGES


@<TRIPOS>ATOM
  1 F       -0.5240    -3.2650    -1.9890 F     1 <1>  -0.3400 
  2 C       -0.6900    -2.1040    -1.3730 C.3   1 <1>   1.0200 
  3 F        0.0790    -1.2420    -2.0300 F     1 <1>  -0.3400 
  4 F       -1.9350    -1.7220    -1.6270 F     1 <1>  -0.3400 
  5 C       -0.3390    -2.0930     0.1230 C.3   1 <1>   0.2200 
  6 N        1.1430    -2.3430     0.4540 N.am  1 <1>  -0.7300 
  7 C       -1.4090    -2.9160     0.8750 C.3   1 <1>   1.0200 
  8 C        1.7340    -3.5580     0.4300 C.2   1 <1>   0.6900 
  9 F       -1.7540    -4.0720     0.3260 F     1 <1>  -0.3400 
 10 F       -2.5400    -2.2290     0.9970 F     1 <1>  -0.3400 
 11 F       -1.0440    -3.1910     2.1220 F     1 <1>  -0.3400 
 12 O        1.0560    -4.5380     0.2130 O.2   1 <1>  -0.5700 
 13 N        3.0840    -3.6490     0.6130 N.am  1 <1>  -0.6600 
 14 C        3.8230    -4.8870     0.2460 C.3   1 <1>   0.1400 
 15 C        3.9120    -2.6350     1.3210 C.3   1 <1>   0.1400 
 16 C        5.0240    -4.5240    -0.6340 C.3   1 <1>  -0.1600 
 17 C        5.1020    -2.2430     0.4400 C.3   1 <1>  -0.1600 
 18 C        5.9280    -3.4760     0.0360 C.3   1 <1>  -0.0800 
 19 C        7.0750    -3.0750    -0.8980 C.3   1 <1>  -0.2400 
 20 H       -0.5200    -1.0840     0.4400 H     1 <1>   0.0800 
 21 H        1.7810    -1.5630     0.3040 H     1 <1>   0.3700 
 22 H        3.1810    -5.5680    -0.2890 H     1 <1>   0.0800 
 23 H        4.1560    -5.3780     1.1440 H     1 <1>   0.0800 
 24 H        4.2700    -3.0640     2.2410 H     1 <1>   0.0800 
 25 H        3.3340    -1.7630     1.5690 H     1 <1>   0.0800 
 26 H        4.6580    -4.1480    -1.5730 H     1 <1>   0.0800 
 27 H        5.5900    -5.4150    -0.8370 H     1 <1>   0.0800 
 28 H        5.7250    -1.5510     0.9780 H     1 <1>   0.0800 
 29 H        4.7360    -1.7430    -0.4390 H     1 <1>   0.0800 
 30 H        6.3520    -3.9110     0.9270 H     1 <1>   0.0800 
 31 H        6.6930    -2.6370    -1.8030 H     1 <1>   0.0800 
 32 H        7.6630    -3.9380    -1.1570 H     1 <1>   0.0800 
 33 H        7.7190    -2.3610    -0.4160 H     1 <1>   0.0800 
@<TRIPOS>BOND
  1   1   2  1   
  2   2   3  1   
  3   2   4  1   
  4   2   5  1   
  5   5   6  1   
  6   5   7  1   
  7   5  20  1   
  8   6   8  am  
  9   6  21  1   
 10   7   9  1   
 11   7  10  1   
 12   7  11  1   
 13   8  12  2   
 14   8  13  am  
 15  13  14  1   
 16  13  15  1   
 17  14  16  1   
 18  14  22  1   
 19  14  23  1   
 20  15  17  1   
 21  15  24  1   
 22  15  25  1   
 23  16  18  1   
 24  16  26  1   
 25  16  27  1   
 26  17  18  1   
 27  17  28  1   
 28  17  29  1   
 29  18  19  1   
 30  18  30  1   
 31  19  31  1   
 32  19  32  1   
 33  19  33  1   
@<TRIPOS>SUBSTRUCTURE
  1 ****   8 GROUP 4 **** **** 0

# MOE 2024.06 (io_trps.svl 2023.06)
