@<TRIPOS>MOLECULE
NONAME
52 53 1 0 0 
SMALL
USER_CHARGES


@<TRIPOS>ATOM
  1 O       -0.4600    -0.5170    -2.0240 O.2   1 <1>  -0.5700 
  2 C       -0.4540    -1.4950    -1.2990 C.2   1 <1>   0.6900 
  3 N       -1.5410    -2.3190    -1.2310 N.am  1 <1>  -0.6600 
  4 N        0.6350    -1.7740    -0.5440 N.am  1 <1>  -0.7300 
  5 C       -2.8020    -1.9070    -1.9120 C.3   1 <1>   0.2840 
  6 C       -1.4180    -3.7460    -0.8430 C.3   1 <1>   0.2780 
  7 C        1.8430    -0.9430    -0.4500 C.3   1 <1>   0.2200 
  8 C       -4.0420    -2.4760    -1.2320 C.ar  1 <1>  -0.1440 
  9 C       -1.6840    -3.8950     0.6440 C.2   1 <1>  -0.2880 
 10 C        3.0740    -1.8480    -0.5620 C.3   1 <1>  -0.1600 
 11 C        1.8240    -0.1910     0.8850 C.3   1 <1>  -0.1600 
 12 C       -4.4070    -2.0360     0.0290 C.ar  1 <1>  -0.1500 
 13 C       -4.8210    -3.4330    -1.8620 C.ar  1 <1>  -0.1500 
 14 C       -2.6350    -4.6650     1.1830 C.2   1 <1>  -0.3000 
 15 C        4.3700    -1.0490    -0.3600 C.3   1 <1>  -0.1600 
 16 C        3.1170     0.6110     1.0900 C.3   1 <1>  -0.1600 
 17 C       -5.5300    -2.5340     0.6690 C.ar  1 <1>   0.0830 
 18 C       -5.9410    -3.9500    -1.2340 C.ar  1 <1>  -0.1500 
 19 C        4.3540    -0.2920     0.9750 C.3   1 <1>  -0.1600 
 20 O       -5.7750    -2.0070     1.9020 O.3   1 <1>  -0.3620 
 21 C       -6.3080    -3.5190     0.0390 C.ar  1 <1>   0.0830 
 22 C       -7.0980    -1.7580     2.3230 C.3   1 <1>   0.0400 
 23 O       -7.3910    -4.0450     0.6850 O.3   1 <1>  -0.3630 
 24 C       -8.1240    -5.1310     0.1610 C.3   1 <1>   0.0400 
 25 H        0.5220    -2.4700     0.1860 H     1 <1>   0.3700 
 26 H       -2.7610    -2.2270    -2.9380 H     1 <1>   0.0800 
 27 H       -2.8780    -0.8330    -1.9090 H     1 <1>   0.0800 
 28 H       -0.4280    -4.1020    -1.0720 H     1 <1>   0.0800 
 29 H       -2.1150    -4.3420    -1.4060 H     1 <1>   0.0800 
 30 H        1.8570    -0.2280    -1.2570 H     1 <1>   0.0800 
 31 H       -1.0270    -3.2970     1.2490 H     1 <1>   0.1500 
 32 H        3.0870    -2.3080    -1.5340 H     1 <1>   0.0800 
 33 H        3.0210    -2.6220     0.1830 H     1 <1>   0.0800 
 34 H        1.7150    -0.8920     1.6930 H     1 <1>   0.0800 
 35 H        0.9830     0.4810     0.8990 H     1 <1>   0.0800 
 36 H       -3.8090    -1.2980     0.5320 H     1 <1>   0.1500 
 37 H       -4.5580    -3.7830    -2.8450 H     1 <1>   0.1500 
 38 H       -2.8150    -4.7480     2.2410 H     1 <1>   0.1500 
 39 H       -3.3250    -5.2650     0.6140 H     1 <1>   0.1500 
 40 H        4.4820    -0.3440    -1.1670 H     1 <1>   0.0800 
 41 H        5.2140    -1.7170    -0.3870 H     1 <1>   0.0800 
 42 H        3.1010     1.0820     2.0570 H     1 <1>   0.0800 
 43 H        3.1740     1.3880     0.3460 H     1 <1>   0.0800 
 44 H       -6.5120    -4.6910    -1.7580 H     1 <1>   0.1500 
 45 H        5.2450     0.3060     1.0610 H     1 <1>   0.0800 
 46 H        4.3540    -1.0000     1.7860 H     1 <1>   0.0800 
 47 H       -7.0680    -1.0060     3.0890 H     1 <1>   0.0800 
 48 H       -7.5120    -2.6660     2.7210 H     1 <1>   0.0800 
 49 H       -7.6750    -1.4100     1.4840 H     1 <1>   0.0800 
 50 H       -8.8820    -5.3960     0.8760 H     1 <1>   0.0800 
 51 H       -7.4580    -5.9620     0.0110 H     1 <1>   0.0800 
 52 H       -8.5840    -4.8300    -0.7630 H     1 <1>   0.0800 
@<TRIPOS>BOND
  1   1   2  2   
  2   2   3  am  
  3   2   4  am  
  4   3   5  1   
  5   3   6  1   
  6   4   7  1   
  7   4  25  1   
  8   5   8  1   
  9   5  26  1   
 10   5  27  1   
 11   6   9  1   
 12   6  28  1   
 13   6  29  1   
 14   7  10  1   
 15   7  11  1   
 16   7  30  1   
 17   8  12  ar  
 18   8  13  ar  
 19   9  14  2   
 20   9  31  1   
 21  10  15  1   
 22  10  32  1   
 23  10  33  1   
 24  11  16  1   
 25  11  34  1   
 26  11  35  1   
 27  12  17  ar  
 28  12  36  1   
 29  13  18  ar  
 30  13  37  1   
 31  14  38  1   
 32  14  39  1   
 33  15  19  1   
 34  15  40  1   
 35  15  41  1   
 36  16  19  1   
 37  16  42  1   
 38  16  43  1   
 39  17  20  1   
 40  17  21  ar  
 41  18  21  ar  
 42  18  44  1   
 43  19  45  1   
 44  19  46  1   
 45  20  22  1   
 46  21  23  1   
 47  22  47  1   
 48  22  48  1   
 49  22  49  1   
 50  23  24  1   
 51  24  50  1   
 52  24  51  1   
 53  24  52  1   
@<TRIPOS>SUBSTRUCTURE
  1 ****   3 GROUP 4 **** **** 0

# MOE 2024.06 (io_trps.svl 2023.06)
