@<TRIPOS>MOLECULE
NONAME
42 43 1 0 0 
SMALL
USER_CHARGES


@<TRIPOS>ATOM
  1 O       -3.4740     1.3000    -1.7990 O.2   1 <1>  -0.5700 
  2 C       -2.4170     1.4790    -1.2450 C.2   1 <1>   0.5690 
  3 N       -1.7700     0.4880    -0.5810 N.am  1 <1>  -0.7300 
  4 C       -1.7960     2.8660    -1.2980 C.3   1 <1>   0.0440 
  5 C       -2.2670    -0.8830    -0.3720 C.3   1 <1>   0.2200 
  6 C       -0.5570     3.0040    -0.4150 C.ar  1 <1>  -0.1440 
  7 C       -2.2920    -1.2140     1.1350 C.3   1 <1>  -0.0800 
  8 C       -1.3590    -1.8460    -1.1440 C.3   1 <1>  -0.1600 
  9 C       -0.6940     3.2740     0.9380 C.ar  1 <1>  -0.1500 
 10 C        0.7110     2.8430    -0.9520 C.ar  1 <1>  -0.1500 
 11 C       -2.7050    -2.6810     1.3550 C.3   1 <1>  -0.1600 
 12 C       -3.2390    -0.2880     1.9160 C.3   1 <1>  -0.2400 
 13 C       -1.7730    -3.3060    -0.9170 C.3   1 <1>  -0.1600 
 14 C        0.4250     3.3810     1.7440 C.ar  1 <1>  -0.1500 
 15 C        1.8330     2.9500    -0.1470 C.ar  1 <1>  -0.1500 
 16 C       -1.7980    -3.6460     0.5790 C.3   1 <1>  -0.1600 
 17 C        1.6930     3.2200     1.2110 C.ar  1 <1>   0.0830 
 18 O        2.7360     3.3390     2.0690 O.3   1 <1>  -0.3630 
 19 C        4.0690     3.2270     1.6240 C.3   1 <1>   0.0400 
 20 H       -0.8940     0.7180    -0.1050 H     1 <1>   0.3700 
 21 H       -2.5390     3.5780    -0.9900 H     1 <1>   0.0800 
 22 H       -1.5460     3.0820    -2.3200 H     1 <1>   0.0800 
 23 H       -3.2690    -0.9620    -0.7630 H     1 <1>   0.0800 
 24 H       -1.2960    -1.0910     1.5250 H     1 <1>   0.0800 
 25 H       -0.3410    -1.7150    -0.8230 H     1 <1>   0.0800 
 26 H       -1.4180    -1.6200    -2.1950 H     1 <1>   0.0800 
 27 H       -1.6720     3.4010     1.3710 H     1 <1>   0.1500 
 28 H        0.8330     2.6320    -2.0000 H     1 <1>   0.1500 
 29 H       -3.7230    -2.8180     1.0320 H     1 <1>   0.0800 
 30 H       -2.6570    -2.9180     2.4040 H     1 <1>   0.0800 
 31 H       -4.2390    -0.3550     1.5240 H     1 <1>   0.0800 
 32 H       -2.9140     0.7350     1.8430 H     1 <1>   0.0800 
 33 H       -3.2570    -0.5590     2.9570 H     1 <1>   0.0800 
 34 H       -1.0860    -3.9600    -1.4250 H     1 <1>   0.0800 
 35 H       -2.7530    -3.4670    -1.3350 H     1 <1>   0.0800 
 36 H        0.3220     3.5900     2.7930 H     1 <1>   0.1500 
 37 H        2.8000     2.8210    -0.5930 H     1 <1>   0.1500 
 38 H       -2.1480    -4.6550     0.7130 H     1 <1>   0.0800 
 39 H       -0.7980    -3.5900     0.9740 H     1 <1>   0.0800 
 40 H        4.7170     3.3700     2.4700 H     1 <1>   0.0800 
 41 H        4.2560     3.9890     0.8880 H     1 <1>   0.0800 
 42 H        4.2180     2.2450     1.2110 H     1 <1>   0.0800 
@<TRIPOS>BOND
  1   1   2  2   
  2   2   3  am  
  3   2   4  1   
  4   3   5  1   
  5   3  20  1   
  6   4   6  1   
  7   4  21  1   
  8   4  22  1   
  9   5   7  1   
 10   5   8  1   
 11   5  23  1   
 12   6   9  ar  
 13   6  10  ar  
 14   7  11  1   
 15   7  12  1   
 16   7  24  1   
 17   8  13  1   
 18   8  25  1   
 19   8  26  1   
 20   9  14  ar  
 21   9  27  1   
 22  10  15  ar  
 23  10  28  1   
 24  11  16  1   
 25  11  29  1   
 26  11  30  1   
 27  12  31  1   
 28  12  32  1   
 29  12  33  1   
 30  13  16  1   
 31  13  34  1   
 32  13  35  1   
 33  14  17  ar  
 34  14  36  1   
 35  15  17  ar  
 36  15  37  1   
 37  16  38  1   
 38  16  39  1   
 39  17  18  1   
 40  18  19  1   
 41  19  40  1   
 42  19  41  1   
 43  19  42  1   
@<TRIPOS>SUBSTRUCTURE
  1 ****   3 GROUP 4 **** **** 0

# MOE 2024.06 (io_trps.svl 2023.06)
