@<TRIPOS>MOLECULE
NONAME
37 38 1 0 0 
SMALL
USER_CHARGES


@<TRIPOS>ATOM
  1 BR      -0.0590    -0.6150     1.6890 Br    1 <1>  -0.1110 
  2 C        1.5040    -1.1620     0.6950 C.ar  1 <1>   0.1110 
  3 C        1.5490    -2.4300     0.1300 C.ar  1 <1>   0.0820 
  4 C        2.5430    -0.2590     0.5790 C.ar  1 <1>  -0.1500 
  5 O        0.4790    -3.2530     0.2990 O.3   1 <1>  -0.3630 
  6 C        2.6940    -2.7870    -0.5780 C.ar  1 <1>  -0.1500 
  7 C        3.6770    -0.6250    -0.1290 C.ar  1 <1>  -0.1430 
  8 C        0.4950    -4.5860    -0.1570 C.3   1 <1>   0.1200 
  9 C        3.7440    -1.8880    -0.7010 C.ar  1 <1>  -0.1500 
 10 C        4.8380     0.3420    -0.2750 C.3   1 <1>  -0.0960 
 11 C       -0.8460    -5.2210     0.2180 C.3   1 <1>   0.1100 
 12 N       -0.9160    -6.6460    -0.1820 N.3   1 <1>  -0.8100 
 13 C       -2.3220    -7.0810    -0.2980 C.3   1 <1>   0.1100 
 14 C       -0.1520    -7.5190     0.7370 C.3   1 <1>   0.1100 
 15 C       -2.4200    -8.5500    -0.7580 C.3   1 <1>   0.3430 
 16 C       -0.2200    -8.9950     0.2940 C.3   1 <1>   0.3430 
 17 N       -1.6380    -9.4610     0.1410 N.4   1 <1>  -0.9060 
 18 H        2.4590     0.7100     1.0360 H     1 <1>   0.1500 
 19 H        2.7890    -3.7500    -1.0400 H     1 <1>   0.1500 
 20 H        1.3140    -5.0880     0.3230 H     1 <1>   0.0800 
 21 H        0.6190    -4.5790    -1.2250 H     1 <1>   0.0800 
 22 H        4.6230    -2.1780    -1.2510 H     1 <1>   0.1500 
 23 H        4.5050     1.3560    -0.1480 H     1 <1>   0.0800 
 24 H        5.2800     0.2510    -1.2510 H     1 <1>   0.0800 
 25 H        5.5860     0.1270     0.4670 H     1 <1>   0.0800 
 26 H       -1.6150    -4.6660    -0.2940 H     1 <1>   0.0800 
 27 H       -1.0100    -5.1240     1.2790 H     1 <1>   0.0800 
 28 H       -2.8250    -6.4620    -1.0230 H     1 <1>   0.0800 
 29 H       -2.8270    -6.9590     0.6460 H     1 <1>   0.0800 
 30 H       -0.5320    -7.4220     1.7400 H     1 <1>   0.0800 
 31 H        0.8810    -7.2160     0.7460 H     1 <1>   0.0800 
 32 H       -2.0350    -8.6140    -1.7630 H     1 <1>   0.0800 
 33 H       -3.4560    -8.8490    -0.7800 H     1 <1>   0.0800 
 34 H        0.2950    -9.6080     1.0160 H     1 <1>   0.0800 
 35 H        0.2950    -9.0880    -0.6480 H     1 <1>   0.0800 
 36 H       -1.6560   -10.4190    -0.2290 H     1 <1>   0.4500 
 37 H       -2.0840    -9.4760     1.0650 H     1 <1>   0.4500 
@<TRIPOS>BOND
  1   1   2  1   
  2   2   3  ar  
  3   2   4  ar  
  4   3   5  1   
  5   3   6  ar  
  6   4   7  ar  
  7   4  18  1   
  8   5   8  1   
  9   6   9  ar  
 10   6  19  1   
 11   7   9  ar  
 12   7  10  1   
 13   8  11  1   
 14   8  20  1   
 15   8  21  1   
 16   9  22  1   
 17  10  23  1   
 18  10  24  1   
 19  10  25  1   
 20  11  12  1   
 21  11  26  1   
 22  11  27  1   
 23  12  13  1   
 24  12  14  1   
 25  13  15  1   
 26  13  28  1   
 27  13  29  1   
 28  14  16  1   
 29  14  30  1   
 30  14  31  1   
 31  15  17  1   
 32  15  32  1   
 33  15  33  1   
 34  16  17  1   
 35  16  34  1   
 36  16  35  1   
 37  17  36  1   
 38  17  37  1   
@<TRIPOS>SUBSTRUCTURE
  1 ****   8 GROUP 4 **** **** 0

# MOE 2024.06 (io_trps.svl 2023.06)
