@<TRIPOS>MOLECULE
NONAME
50 52 1 0 0 
SMALL
USER_CHARGES


@<TRIPOS>ATOM
  1 S       -0.3090     0.2520    -0.9290 S.3   1 <1>  -0.3320 
  2 C       -1.7820    -0.4760    -0.1930 C.ar  1 <1>   0.1020 
  3 C        0.4510    -1.0410    -2.0080 C.3   1 <1>  -0.0100 
  4 C       -2.2160    -1.7520    -0.5110 C.ar  1 <1>  -0.1500 
  5 C       -2.4740     0.3000     0.7170 C.ar  1 <1>  -0.1500 
  6 C       -3.3610    -2.2490     0.0890 C.ar  1 <1>  -0.1500 
  7 C       -3.6170    -0.1990     1.3150 C.ar  1 <1>  -0.1500 
  8 C       -4.0710    -1.4730     0.9980 C.ar  1 <1>  -0.1430 
  9 C       -5.3380    -2.0080     1.6380 C.3   1 <1>   0.4860 
 10 N       -6.4360    -1.9510     0.6360 N.4   1 <1>  -0.9590 
 11 C       -6.7220    -0.5330     0.1950 C.3   1 <1>   0.3430 
 12 C       -7.6900    -2.6220     1.1390 C.3   1 <1>   0.3430 
 13 C       -7.8590    -0.4440    -0.8460 C.3   1 <1>   0.2090 
 14 C       -8.8280    -2.6030     0.0990 C.3   1 <1>   0.2090 
 15 N       -9.0590    -1.2280    -0.4270 N.pl3 1 <1>  -0.8380 
 16 C      -10.1850    -0.5480     0.0390 C.ar  1 <1>   0.1000 
 17 C      -11.4240    -0.6580    -0.6030 C.ar  1 <1>  -0.1430 
 18 C      -10.0810     0.2390     1.1820 C.ar  1 <1>  -0.1500 
 19 C      -12.5340    -0.0010    -0.0800 C.ar  1 <1>  -0.1430 
 20 C      -11.5550    -1.5000    -1.8740 C.3   1 <1>  -0.0970 
 21 C      -11.1790     0.9000     1.6890 C.ar  1 <1>  -0.1500 
 22 C      -12.4030     0.7770     1.0600 C.ar  1 <1>  -0.1500 
 23 C      -13.9140    -0.1020    -0.7190 C.3   1 <1>  -0.0970 
 24 H        1.3490    -0.6240    -2.4280 H     1 <1>   0.0800 
 25 H       -0.2520    -1.2860    -2.7830 H     1 <1>   0.0800 
 26 H        0.6800    -1.8940    -1.3950 H     1 <1>   0.0800 
 27 H       -1.6770    -2.3600    -1.2120 H     1 <1>   0.1500 
 28 H       -2.1110     1.2860     0.9520 H     1 <1>   0.1500 
 29 H       -3.6830    -3.2460    -0.1620 H     1 <1>   0.1500 
 30 H       -4.1390     0.4190     2.0270 H     1 <1>   0.1500 
 31 H       -5.5900    -1.4180     2.5040 H     1 <1>   0.0800 
 32 H       -5.1740    -3.0250     1.9540 H     1 <1>   0.0800 
 33 H       -6.1120    -2.4540    -0.1980 H     1 <1>   0.4500 
 34 H       -5.8340    -0.0930    -0.2280 H     1 <1>   0.0800 
 35 H       -7.0050     0.0590     1.0480 H     1 <1>   0.0800 
 36 H       -8.0410    -2.1160     2.0220 H     1 <1>   0.0800 
 37 H       -7.4800    -3.6450     1.4050 H     1 <1>   0.0800 
 38 H       -7.5130    -0.8160    -1.7940 H     1 <1>   0.0800 
 39 H       -8.1370     0.5870    -0.9870 H     1 <1>   0.0800 
 40 H       -9.7340    -2.9670     0.5550 H     1 <1>   0.0800 
 41 H       -8.5910    -3.2580    -0.7210 H     1 <1>   0.0800 
 42 H       -9.1400     0.3350     1.6830 H     1 <1>   0.1500 
 43 H      -10.6180    -1.5790    -2.3920 H     1 <1>   0.0800 
 44 H      -12.2520    -1.0580    -2.5610 H     1 <1>   0.0800 
 45 H      -11.8930    -2.4880    -1.6200 H     1 <1>   0.0800 
 46 H      -11.0920     1.5080     2.5720 H     1 <1>   0.1500 
 47 H      -13.2550     1.2940     1.4670 H     1 <1>   0.1500 
 48 H      -14.1650    -1.1310    -0.9030 H     1 <1>   0.0800 
 49 H      -13.9270     0.4370    -1.6490 H     1 <1>   0.0800 
 50 H      -14.6690     0.3130    -0.0760 H     1 <1>   0.0800 
@<TRIPOS>BOND
  1   1   2  1   
  2   1   3  1   
  3   2   4  ar  
  4   2   5  ar  
  5   3  24  1   
  6   3  25  1   
  7   3  26  1   
  8   4   6  ar  
  9   4  27  1   
 10   5   7  ar  
 11   5  28  1   
 12   6   8  ar  
 13   6  29  1   
 14   7   8  ar  
 15   7  30  1   
 16   8   9  1   
 17   9  10  1   
 18   9  31  1   
 19   9  32  1   
 20  10  11  1   
 21  10  12  1   
 22  10  33  1   
 23  11  13  1   
 24  11  34  1   
 25  11  35  1   
 26  12  14  1   
 27  12  36  1   
 28  12  37  1   
 29  13  15  1   
 30  13  38  1   
 31  13  39  1   
 32  14  15  1   
 33  14  40  1   
 34  14  41  1   
 35  15  16  1   
 36  16  17  ar  
 37  16  18  ar  
 38  17  19  ar  
 39  17  20  1   
 40  18  21  ar  
 41  18  42  1   
 42  19  22  ar  
 43  19  23  1   
 44  20  43  1   
 45  20  44  1   
 46  20  45  1   
 47  21  22  ar  
 48  21  46  1   
 49  22  47  1   
 50  23  48  1   
 51  23  49  1   
 52  23  50  1   
@<TRIPOS>SUBSTRUCTURE
  1 ****  11 GROUP 4 **** **** 0

# MOE 2024.06 (io_trps.svl 2023.06)
