@<TRIPOS>MOLECULE
NONAME
37 38 1 0 0 
SMALL
USER_CHARGES


@<TRIPOS>ATOM
  1 S       -0.2220    -1.6660     0.1000 S.o2  1 <1>   1.4470 
  2 O       -1.1910    -2.7230     0.2710 O.2   1 <1>  -0.6500 
  3 O        0.9420    -1.6600     0.9550 O.2   1 <1>  -0.6500 
  4 N        0.2920    -1.9150    -1.4760 N.am  1 <1>  -0.9140 
  5 C       -1.0510    -0.0510     0.0960 C.ar  1 <1>  -0.0090 
  6 C        1.7450    -2.1560    -1.6380 C.3   1 <1>   0.2570 
  7 C       -0.5430     1.0330    -0.6100 C.ar  1 <1>  -0.1500 
  8 C       -2.2170     0.1480     0.8280 C.ar  1 <1>  -0.1500 
  9 C        2.6550    -0.9150    -1.5160 C.2   1 <1>   0.5690 
 10 C       -1.1740     2.2640    -0.5930 C.ar  1 <1>  -0.1500 
 11 C       -2.8540     1.3770     0.8500 C.ar  1 <1>  -0.1500 
 12 O        2.4410     0.0180    -2.2580 O.2   1 <1>  -0.5700 
 13 N        3.7060    -0.8730    -0.6340 N.am  1 <1>  -0.6600 
 14 C       -2.3360     2.4430     0.1370 C.ar  1 <1>  -0.1430 
 15 C        4.5580     0.3280    -0.4940 C.3   1 <1>   0.1400 
 16 C        4.1040    -1.9160     0.3400 C.3   1 <1>   0.1400 
 17 C       -3.0270     3.7940     0.1580 C.3   1 <1>  -0.0970 
 18 C        5.3880     0.0800     0.7600 C.3   1 <1>  -0.1600 
 19 C        5.4430    -1.4390     0.8900 C.3   1 <1>  -0.1600 
 20 H       -0.2180    -2.7540    -1.7450 H     1 <1>   0.4200 
 21 H        1.9040    -2.5450    -2.6280 H     1 <1>   0.0800 
 22 H        2.0590    -2.9160    -0.9470 H     1 <1>   0.0800 
 23 H        0.3590     0.9170    -1.1860 H     1 <1>   0.1500 
 24 H       -2.6330    -0.6720     1.3880 H     1 <1>   0.1500 
 25 H       -0.7520     3.0810    -1.1520 H     1 <1>   0.1500 
 26 H       -3.7550     1.4980     1.4260 H     1 <1>   0.1500 
 27 H        3.9550     1.2160    -0.4020 H     1 <1>   0.0800 
 28 H        5.1910     0.4110    -1.3600 H     1 <1>   0.0800 
 29 H        4.1960    -2.8800    -0.1290 H     1 <1>   0.0800 
 30 H        3.3790    -1.9590     1.1340 H     1 <1>   0.0800 
 31 H       -2.8890     4.3000    -0.7800 H     1 <1>   0.0800 
 32 H       -2.6160     4.4010     0.9440 H     1 <1>   0.0800 
 33 H       -4.0830     3.6750     0.3260 H     1 <1>   0.0800 
 34 H        4.8730     0.5010     1.6060 H     1 <1>   0.0800 
 35 H        6.3650     0.5240     0.6870 H     1 <1>   0.0800 
 36 H        6.2350    -1.8310     0.2770 H     1 <1>   0.0800 
 37 H        5.5930    -1.7580     1.9070 H     1 <1>   0.0800 
@<TRIPOS>BOND
  1   1   2  2   
  2   1   3  2   
  3   1   4  am  
  4   1   5  1   
  5   4   6  1   
  6   4  20  1   
  7   5   7  ar  
  8   5   8  ar  
  9   6   9  1   
 10   6  21  1   
 11   6  22  1   
 12   7  10  ar  
 13   7  23  1   
 14   8  11  ar  
 15   8  24  1   
 16   9  12  2   
 17   9  13  am  
 18  10  14  ar  
 19  10  25  1   
 20  11  14  ar  
 21  11  26  1   
 22  13  15  1   
 23  13  16  1   
 24  14  17  1   
 25  15  18  1   
 26  15  27  1   
 27  15  28  1   
 28  16  19  1   
 29  16  29  1   
 30  16  30  1   
 31  17  31  1   
 32  17  32  1   
 33  17  33  1   
 34  18  19  1   
 35  18  34  1   
 36  18  35  1   
 37  19  36  1   
 38  19  37  1   
@<TRIPOS>SUBSTRUCTURE
  1 ****   1 GROUP 4 **** **** 0

# MOE 2024.06 (io_trps.svl 2023.06)
