@<TRIPOS>MOLECULE
NONAME
45 46 1 0 0 
SMALL
USER_CHARGES


@<TRIPOS>ATOM
  1 O       -0.8700    -0.3760    -0.3980 O.2   1 <1>  -0.5700 
  2 C       -1.8640    -1.0690    -0.3030 C.2   1 <1>   0.7060 
  3 O       -3.0380    -0.4440    -0.2510 O.3   1 <1>  -0.2330 
  4 C       -1.8400    -2.5060    -0.2270 C.2   1 <1>  -0.1240 
  5 C       -4.2220    -1.0810    -0.1300 C.ar  1 <1>   0.0820 
  6 C       -2.9990    -3.2040    -0.0760 C.2   1 <1>  -0.1670 
  7 C       -0.4550    -3.1550    -0.3210 C.3   1 <1>  -0.0220 
  8 C       -4.2480    -2.4830    -0.0480 C.ar  1 <1>   0.0280 
  9 C       -5.3890    -0.3180    -0.0980 C.ar  1 <1>  -0.1440 
 10 C       -3.0610    -4.7260     0.0810 C.3   1 <1>  -0.1020 
 11 C        0.1930    -3.2580     1.0650 C.3   1 <1>  -0.0990 
 12 C       -5.5040    -3.0900     0.0480 C.ar  1 <1>  -0.1500 
 13 C       -6.6190    -0.9560    -0.0030 C.ar  1 <1>   0.0830 
 14 C       -5.3330     1.2090    -0.1790 C.3   1 <1>  -0.0960 
 15 C        1.5030    -4.0080     1.0000 C.2   1 <1>   0.6590 
 16 C       -6.6640    -2.3480     0.0710 C.ar  1 <1>  -0.1500 
 17 O       -7.7380    -0.1910     0.0090 O.3   1 <1>  -0.3630 
 18 O        1.5810    -5.1630     1.3280 O.2   1 <1>  -0.5700 
 19 O        2.5440    -3.3240     0.5490 O.3   1 <1>  -0.4300 
 20 C       -9.0320    -0.7410     0.0930 C.3   1 <1>   0.1200 
 21 C        3.8170    -3.9150     0.4330 C.3   1 <1>   0.1200 
 22 C      -10.0340     0.4090     0.0780 C.3   1 <1>  -0.2400 
 23 C        4.7760    -2.8670    -0.1220 C.3   1 <1>  -0.2400 
 24 H        0.1830    -2.5760    -0.9690 H     1 <1>   0.0800 
 25 H       -0.5170    -4.1290    -0.7690 H     1 <1>   0.0800 
 26 H       -3.5340    -5.1640    -0.7810 H     1 <1>   0.0800 
 27 H       -3.6310    -4.9800     0.9570 H     1 <1>   0.0800 
 28 H       -2.0990    -5.1820     0.2020 H     1 <1>   0.0800 
 29 H       -0.4650    -3.7780     1.7370 H     1 <1>   0.0800 
 30 H        0.3730    -2.2750     1.4620 H     1 <1>   0.0800 
 31 H       -5.5890    -4.1580     0.1030 H     1 <1>   0.1500 
 32 H       -4.3700     1.5930     0.1020 H     1 <1>   0.0800 
 33 H       -6.0590     1.6460     0.4830 H     1 <1>   0.0800 
 34 H       -5.5510     1.5240    -1.1830 H     1 <1>   0.0800 
 35 H       -7.6010    -2.8660     0.1450 H     1 <1>   0.1500 
 36 H       -9.1060    -1.2980     1.0110 H     1 <1>   0.0800 
 37 H       -9.1830    -1.3880    -0.7540 H     1 <1>   0.0800 
 38 H        3.7420    -4.7610    -0.2290 H     1 <1>   0.0800 
 39 H        4.1290    -4.2470     1.4100 H     1 <1>   0.0800 
 40 H       -9.8630     1.0590     0.9170 H     1 <1>   0.0800 
 41 H      -11.0340     0.0220     0.1400 H     1 <1>   0.0800 
 42 H       -9.9380     0.9700    -0.8350 H     1 <1>   0.0800 
 43 H        4.4450    -2.5380    -1.0910 H     1 <1>   0.0800 
 44 H        5.7590    -3.2900    -0.2210 H     1 <1>   0.0800 
 45 H        4.8310    -2.0250     0.5440 H     1 <1>   0.0800 
@<TRIPOS>BOND
  1   1   2  2   
  2   2   3  1   
  3   2   4  1   
  4   3   5  1   
  5   4   6  2   
  6   4   7  1   
  7   5   8  ar  
  8   5   9  ar  
  9   6   8  1   
 10   6  10  1   
 11   7  11  1   
 12   7  24  1   
 13   7  25  1   
 14   8  12  ar  
 15   9  13  ar  
 16   9  14  1   
 17  10  26  1   
 18  10  27  1   
 19  10  28  1   
 20  11  15  1   
 21  11  29  1   
 22  11  30  1   
 23  12  16  ar  
 24  12  31  1   
 25  13  16  ar  
 26  13  17  1   
 27  14  32  1   
 28  14  33  1   
 29  14  34  1   
 30  15  18  2   
 31  15  19  1   
 32  16  35  1   
 33  17  20  1   
 34  19  21  1   
 35  20  22  1   
 36  20  36  1   
 37  20  37  1   
 38  21  23  1   
 39  21  38  1   
 40  21  39  1   
 41  22  40  1   
 42  22  41  1   
 43  22  42  1   
 44  23  43  1   
 45  23  44  1   
 46  23  45  1   
@<TRIPOS>SUBSTRUCTURE
  1 ****   4 GROUP 4 **** **** 0

# MOE 2024.06 (io_trps.svl 2023.06)
