@<TRIPOS>MOLECULE
NONAME
38 40 1 0 0 
SMALL
USER_CHARGES


@<TRIPOS>ATOM
  1 CL      -0.9870     0.6000     1.4260 Cl    1 <1>  -0.1770 
  2 C       -1.1230     2.2020     0.7400 C.ar  1 <1>   0.1770 
  3 C       -2.1820     2.5670    -0.1040 C.ar  1 <1>   0.0860 
  4 C       -0.1060     3.0790     1.0720 C.ar  1 <1>  -0.1500 
  5 C       -3.2990     1.7260    -0.4870 C.2   1 <1>   0.3030 
  6 C       -2.1370     3.8730    -0.6070 C.ar  1 <1>  -0.1500 
  7 C       -0.1030     4.3640     0.5620 C.ar  1 <1>  -0.1500 
  8 N       -3.9760     1.8470    -1.5540 N.2   1 <1>  -0.5130 
  9 C       -3.8540     0.6210     0.3770 C.3   1 <1>  -0.0990 
 10 C       -1.1230     4.7570    -0.2830 C.ar  1 <1>  -0.1500 
 11 O       -4.9780     0.9970    -1.5830 O.3   1 <1>  -0.2170 
 12 C       -5.1590     0.3270    -0.3500 C.3   1 <1>   0.2610 
 13 C       -6.3780     0.8900     0.3840 C.2   1 <1>   0.5690 
 14 O       -7.0380     0.1490     1.0760 O.2   1 <1>  -0.5700 
 15 N       -6.6720     2.2120     0.2760 N.am  1 <1>  -0.7300 
 16 C       -7.8090     2.9220     0.9020 C.3   1 <1>   0.1400 
 17 C       -8.3700     3.9740    -0.0650 C.3   1 <1>   0.2000 
 18 O       -7.3510     4.8120    -0.5110 O.3   1 <1>  -0.5600 
 19 C       -9.3870     4.9210     0.5550 C.3   1 <1>  -0.1600 
 20 C       -7.8870     6.0060    -0.9840 C.3   1 <1>   0.1200 
 21 C       -9.2370     6.1780    -0.2880 C.3   1 <1>  -0.1600 
 22 H        0.6840     2.7550     1.7260 H     1 <1>   0.1500 
 23 H       -2.9210     4.2050    -1.2680 H     1 <1>   0.1500 
 24 H        0.6870     5.0510     0.8170 H     1 <1>   0.1500 
 25 H       -4.0170     0.9310     1.3930 H     1 <1>   0.0800 
 26 H       -3.2320    -0.2530     0.3420 H     1 <1>   0.0800 
 27 H       -1.1300     5.7540    -0.6910 H     1 <1>   0.1500 
 28 H       -5.2900    -0.7210    -0.5470 H     1 <1>   0.0800 
 29 H       -6.1310     2.7910    -0.3820 H     1 <1>   0.3700 
 30 H       -7.4700     3.4040     1.8010 H     1 <1>   0.0800 
 31 H       -8.5800     2.2180     1.1640 H     1 <1>   0.0800 
 32 H       -8.7940     3.4910    -0.9290 H     1 <1>   0.0800 
 33 H       -9.1200     5.1290     1.5770 H     1 <1>   0.0800 
 34 H      -10.3830     4.5160     0.5220 H     1 <1>   0.0800 
 35 H       -8.0040     5.9220    -2.0510 H     1 <1>   0.0800 
 36 H       -7.2040     6.8030    -0.7490 H     1 <1>   0.0800 
 37 H       -9.2510     7.0670     0.3180 H     1 <1>   0.0800 
 38 H      -10.0170     6.2450    -1.0260 H     1 <1>   0.0800 
@<TRIPOS>BOND
  1   1   2  1   
  2   2   3  ar  
  3   2   4  ar  
  4   3   5  1   
  5   3   6  ar  
  6   4   7  ar  
  7   4  22  1   
  8   5   8  2   
  9   5   9  1   
 10   6  10  ar  
 11   6  23  1   
 12   7  10  ar  
 13   7  24  1   
 14   8  11  1   
 15   9  12  1   
 16   9  25  1   
 17   9  26  1   
 18  10  27  1   
 19  11  12  1   
 20  12  13  1   
 21  12  28  1   
 22  13  14  2   
 23  13  15  am  
 24  15  16  1   
 25  15  29  1   
 26  16  17  1   
 27  16  30  1   
 28  16  31  1   
 29  17  18  1   
 30  17  19  1   
 31  17  32  1   
 32  18  20  1   
 33  19  21  1   
 34  19  33  1   
 35  19  34  1   
 36  20  21  1   
 37  20  35  1   
 38  20  36  1   
 39  21  37  1   
 40  21  38  1   
@<TRIPOS>SUBSTRUCTURE
  1 ****   5 GROUP 4 **** **** 0

# MOE 2024.06 (io_trps.svl 2023.06)
