@<TRIPOS>MOLECULE
NONAME
50 52 1 0 0 
SMALL
USER_CHARGES


@<TRIPOS>ATOM
  1 O       -1.7990    -0.4310    -1.6350 O.2   1 <1>  -0.5750 
  2 C       -1.2580    -1.4870    -1.3790 C.2   1 <1>   0.6860 
  3 N       -0.1490    -1.8970    -2.1120 N.am  1 <1>  -0.4260 
  4 N       -1.7440    -2.2790    -0.3470 N.am  1 <1>  -0.4420 
  5 C        0.5280    -3.0660    -1.7940 C.2   1 <1>   0.6990 
  6 C        0.3380    -1.0320    -3.2330 C.3   1 <1>   0.0520 
  7 C       -1.0610    -3.4410    -0.0440 C.2   1 <1>   0.4200 
  8 C       -2.9480    -1.8630     0.4320 C.3   1 <1>   0.0520 
  9 O        1.5230    -3.4080    -2.4120 O.2   1 <1>  -0.5750 
 10 C        0.0320    -3.8620    -0.7120 C.2   1 <1>   0.2700 
 11 N       -1.3350    -4.3380     0.9390 N.pl3 1 <1>  -0.7040 
 12 N        0.4320    -5.0710    -0.1110 N.pl3 1 <1>  -0.7670 
 13 C       -0.4290    -5.3100     0.8860 C.cat 1 <1>   1.0690 
 14 C        1.6360    -5.8110    -0.5970 C.3   1 <1>   0.4920 
 15 N       -0.4280    -6.3410     1.7260 N.pl3 1 <1>  -0.7180 
 16 C        1.7930    -7.1220     0.1470 C.ar  1 <1>  -0.1510 
 17 C       -1.2920    -6.5750     2.9150 C.3   1 <1>   0.1600 
 18 C        2.5010    -7.1660     1.3400 C.ar  1 <1>  -0.1570 
 19 C        1.1840    -8.2720    -0.3320 C.ar  1 <1>  -0.1570 
 20 C       -2.3850    -7.6180     2.6330 C.3   1 <1>   0.1930 
 21 C        2.5750    -8.3410     2.0680 C.ar  1 <1>  -0.1510 
 22 C        1.2680    -9.4500     0.3870 C.ar  1 <1>  -0.1570 
 23 O       -3.2560    -7.5890     3.6970 O.3   1 <1>  -0.6840 
 24 C       -1.8510    -9.0420     2.5160 C.3   1 <1>  -0.2470 
 25 C        1.9550    -9.4810     1.5870 C.ar  1 <1>  -0.1570 
 26 C        3.3400    -8.3910     3.3780 C.3   1 <1>  -0.1040 
 27 H       -0.4980    -0.6100    -3.7660 H     1 <1>   0.0720 
 28 H        0.9300    -1.5980    -3.9310 H     1 <1>   0.0720 
 29 H        0.9350    -0.2300    -2.8350 H     1 <1>   0.0720 
 30 H       -3.5620    -1.1940    -0.1480 H     1 <1>   0.0720 
 31 H       -2.6420    -1.3550     1.3300 H     1 <1>   0.0720 
 32 H       -3.5450    -2.7200     0.6900 H     1 <1>   0.0720 
 33 H       -2.0950    -4.3010     1.6120 H     1 <1>   0.4450 
 34 H        2.5150    -5.2030    -0.4530 H     1 <1>   0.0720 
 35 H        1.5390    -6.0050    -1.6520 H     1 <1>   0.0720 
 36 H        0.2950    -7.0620     1.5750 H     1 <1>   0.4450 
 37 H       -1.7580    -5.6530     3.2160 H     1 <1>   0.0720 
 38 H       -0.6780    -6.9170     3.7320 H     1 <1>   0.0720 
 39 H        2.9960    -6.2850     1.7150 H     1 <1>   0.1430 
 40 H        0.6400    -8.2670    -1.2620 H     1 <1>   0.1430 
 41 H       -2.9470    -7.3490     1.7540 H     1 <1>   0.0720 
 42 H        0.8020   -10.3470     0.0150 H     1 <1>   0.1430 
 43 H       -3.8600    -8.3590     3.6650 H     1 <1>   0.3940 
 44 H       -1.3040    -9.3190     3.4010 H     1 <1>   0.0720 
 45 H       -1.1910    -9.1190     1.6720 H     1 <1>   0.0720 
 46 H       -2.6580    -9.7370     2.3650 H     1 <1>   0.0720 
 47 H        2.0160   -10.4030     2.1400 H     1 <1>   0.1430 
 48 H        4.3350    -8.7610     3.2030 H     1 <1>   0.0720 
 49 H        2.8480    -9.0450     4.0760 H     1 <1>   0.0720 
 50 H        3.4080    -7.4130     3.8210 H     1 <1>   0.0720 
@<TRIPOS>BOND
  1   1   2  2   
  2   2   3  am  
  3   2   4  am  
  4   3   5  am  
  5   3   6  1   
  6   4   7  1   
  7   4   8  1   
  8   5   9  2   
  9   5  10  1   
 10   6  27  1   
 11   6  28  1   
 12   6  29  1   
 13   7  10  2   
 14   7  11  1   
 15   8  30  1   
 16   8  31  1   
 17   8  32  1   
 18  10  12  1   
 19  11  13  ar  
 20  11  33  1   
 21  12  13  ar  
 22  12  14  1   
 23  13  15  ar  
 24  14  16  1   
 25  14  34  1   
 26  14  35  1   
 27  15  17  1   
 28  15  36  1   
 29  16  18  ar  
 30  16  19  ar  
 31  17  20  1   
 32  17  37  1   
 33  17  38  1   
 34  18  21  ar  
 35  18  39  1   
 36  19  22  ar  
 37  19  40  1   
 38  20  23  1   
 39  20  24  1   
 40  20  41  1   
 41  21  25  ar  
 42  21  26  1   
 43  22  25  ar  
 44  22  42  1   
 45  23  43  1   
 46  24  44  1   
 47  24  45  1   
 48  24  46  1   
 49  25  47  1   
 50  26  48  1   
 51  26  49  1   
 52  26  50  1   
@<TRIPOS>SUBSTRUCTURE
  1 ****  13 GROUP 4 **** **** 0

# MOE 2024.06 (io_trps.svl 2023.06)
