@<TRIPOS>MOLECULE
NONAME
33 34 1 0 0 
SMALL
USER_CHARGES


@<TRIPOS>ATOM
  1 CL      -0.4310     0.6620    -2.1920 Cl    1 <1>  -0.1240 
  2 C       -1.8730     0.5050    -1.2300 C.2   1 <1>   0.1640 
  3 S       -3.3050    -0.0750    -2.0410 S.3   1 <1>  -0.0800 
  4 C       -2.1010     0.7570     0.0700 C.2   1 <1>  -0.1500 
  5 C       -4.2530     0.0310    -0.5480 C.2   1 <1>  -0.0450 
  6 C       -3.4490     0.4860     0.4530 C.2   1 <1>  -0.1500 
  7 C       -5.6430    -0.3450    -0.5820 C.2   1 <1>   0.7150 
  8 O       -6.1310    -0.9460    -1.5220 O.2   1 <1>  -0.5700 
  9 N       -6.5000     0.0190     0.4320 N.am  1 <1>  -0.6600 
 10 C       -6.7660     1.4680     0.6530 C.3   1 <1>   0.1400 
 11 C       -7.6850    -0.8460     0.7100 C.3   1 <1>   0.1400 
 12 C       -7.9690     1.9220    -0.2040 C.3   1 <1>   0.3430 
 13 C       -8.8760    -0.4080    -0.1630 C.3   1 <1>   0.3430 
 14 N       -9.1880     1.0600     0.0060 N.4   1 <1>  -0.9590 
 15 C      -10.2950     1.4830    -0.8780 C.3   1 <1>   0.4810 
 16 C      -11.5690     0.9270    -0.2870 C.2   1 <1>  -0.2880 
 17 C      -12.4760     1.6360     0.3940 C.2   1 <1>  -0.3000 
 18 H       -1.3680     1.1200     0.7680 H     1 <1>   0.1500 
 19 H       -3.7650     0.6350     1.4710 H     1 <1>   0.1500 
 20 H       -5.9000     2.0490     0.3820 H     1 <1>   0.0800 
 21 H       -6.9660     1.6430     1.6960 H     1 <1>   0.0800 
 22 H       -7.9430    -0.7850     1.7530 H     1 <1>   0.0800 
 23 H       -7.4430    -1.8730     0.4920 H     1 <1>   0.0800 
 24 H       -7.6760     1.8800    -1.2410 H     1 <1>   0.0800 
 25 H       -8.2010     2.9480     0.0310 H     1 <1>   0.0800 
 26 H       -9.7380    -1.0020     0.0950 H     1 <1>   0.0800 
 27 H       -8.6290    -0.6120    -1.1920 H     1 <1>   0.0800 
 28 H       -9.5330     1.1990     0.9650 H     1 <1>   0.4500 
 29 H      -10.1490     1.1300    -1.8870 H     1 <1>   0.0800 
 30 H      -10.3590     2.5600    -0.8940 H     1 <1>   0.0800 
 31 H      -11.6970    -0.1260    -0.4740 H     1 <1>   0.1500 
 32 H      -13.3820     1.2150     0.8010 H     1 <1>   0.1500 
 33 H      -12.4110     2.6910     0.6060 H     1 <1>   0.1500 
@<TRIPOS>BOND
  1   1   2  1   
  2   2   3  1   
  3   2   4  2   
  4   3   5  1   
  5   4   6  1   
  6   4  18  1   
  7   5   6  2   
  8   5   7  1   
  9   6  19  1   
 10   7   8  2   
 11   7   9  am  
 12   9  10  1   
 13   9  11  1   
 14  10  12  1   
 15  10  20  1   
 16  10  21  1   
 17  11  13  1   
 18  11  22  1   
 19  11  23  1   
 20  12  14  1   
 21  12  24  1   
 22  12  25  1   
 23  13  14  1   
 24  13  26  1   
 25  13  27  1   
 26  14  15  1   
 27  14  28  1   
 28  15  16  1   
 29  15  29  1   
 30  15  30  1   
 31  16  17  2   
 32  16  31  1   
 33  17  32  1   
 34  17  33  1   
@<TRIPOS>SUBSTRUCTURE
  1 ****   9 GROUP 4 **** **** 0

# MOE 2024.06 (io_trps.svl 2023.06)
