@<TRIPOS>MOLECULE
NONAME
32 32 1 0 0 
SMALL
USER_CHARGES


@<TRIPOS>ATOM
  1 BR       0.1490     0.8630    -2.0100 Br    1 <1>  -0.1110 
  2 C        1.0180     2.1960    -0.9180 C.ar  1 <1>   0.1110 
  3 C        0.3330     3.3460    -0.5530 C.ar  1 <1>   0.0830 
  4 C        2.3210     1.9480    -0.5290 C.ar  1 <1>  -0.1500 
  5 O       -0.9540     3.5090    -0.9490 O.3   1 <1>  -0.3630 
  6 C        1.0090     4.2960     0.2240 C.ar  1 <1>   0.0830 
  7 C        2.9780     2.8840     0.2580 C.ar  1 <1>  -0.1440 
  8 C       -1.9310     3.0700    -0.0320 C.3   1 <1>   0.0400 
  9 O        0.4890     5.4840     0.6300 O.3   1 <1>  -0.3630 
 10 C        2.3110     4.0440     0.6310 C.ar  1 <1>  -0.1500 
 11 C        4.4070     2.6570     0.6980 C.3   1 <1>   0.4860 
 12 C       -0.3440     6.2270    -0.2340 C.3   1 <1>   0.1200 
 13 N        5.2660     3.3560    -0.2820 N.4   1 <1>  -0.9060 
 14 C       -0.2850     7.6890     0.1970 C.3   1 <1>  -0.2400 
 15 C        6.7230     3.2570     0.0230 C.3   1 <1>   0.2630 
 16 H        2.7910     1.0310    -0.8430 H     1 <1>   0.1500 
 17 H       -2.9000     3.2730    -0.4500 H     1 <1>   0.0800 
 18 H       -1.8090     3.6050     0.8940 H     1 <1>   0.0800 
 19 H       -1.8130     2.0120     0.1260 H     1 <1>   0.0800 
 20 H        2.7870     4.7870     1.2490 H     1 <1>   0.1500 
 21 H        4.6270     1.6010     0.7120 H     1 <1>   0.0800 
 22 H        4.5550     3.0590     1.6880 H     1 <1>   0.0800 
 23 H       -1.3470     5.8500    -0.1500 H     1 <1>   0.0800 
 24 H        0.0090     6.1110    -1.2440 H     1 <1>   0.0800 
 25 H        4.9640     4.3390    -0.3150 H     1 <1>   0.4500 
 26 H        5.0570     2.9740    -1.2140 H     1 <1>   0.4500 
 27 H       -0.6320     7.7900     1.2100 H     1 <1>   0.0800 
 28 H       -0.9160     8.2800    -0.4410 H     1 <1>   0.0800 
 29 H        0.7220     8.0590     0.1220 H     1 <1>   0.0800 
 30 H        6.9360     3.6880     0.9880 H     1 <1>   0.0800 
 31 H        7.2960     3.7860    -0.7220 H     1 <1>   0.0800 
 32 H        7.0380     2.2250     0.0270 H     1 <1>   0.0800 
@<TRIPOS>BOND
  1   1   2  1   
  2   2   3  ar  
  3   2   4  ar  
  4   3   5  1   
  5   3   6  ar  
  6   4   7  ar  
  7   4  16  1   
  8   5   8  1   
  9   6   9  1   
 10   6  10  ar  
 11   7  10  ar  
 12   7  11  1   
 13   8  17  1   
 14   8  18  1   
 15   8  19  1   
 16   9  12  1   
 17  10  20  1   
 18  11  13  1   
 19  11  21  1   
 20  11  22  1   
 21  12  14  1   
 22  12  23  1   
 23  12  24  1   
 24  13  15  1   
 25  13  25  1   
 26  13  26  1   
 27  14  27  1   
 28  14  28  1   
 29  14  29  1   
 30  15  30  1   
 31  15  31  1   
 32  15  32  1   
@<TRIPOS>SUBSTRUCTURE
  1 ****   6 GROUP 4 **** **** 0

# MOE 2024.06 (io_trps.svl 2023.06)
