@<TRIPOS>MOLECULE
NONAME
39 40 1 0 0 
SMALL
USER_CHARGES


@<TRIPOS>ATOM
  1 CL       0.0130    -0.1150    -0.3070 Cl    1 <1>  -0.1770 
  2 C        1.5430    -0.9570    -0.2510 C.ar  1 <1>   0.1770 
  3 C        1.8860    -1.8100    -1.2830 C.ar  1 <1>  -0.1500 
  4 C        2.3890    -0.7570     0.8250 C.ar  1 <1>  -0.1500 
  5 C        3.0990    -2.4740    -1.2340 C.ar  1 <1>  -0.1500 
  6 C        3.6000    -1.4250     0.8660 C.ar  1 <1>  -0.1500 
  7 C        3.9660    -2.2900    -0.1630 C.ar  1 <1>   0.1000 
  8 N        5.1770    -2.9700    -0.1420 N.pl3 1 <1>  -0.8380 
  9 C        5.3100    -4.0580     0.8700 C.3   1 <1>   0.2090 
 10 C        6.4050    -2.1470    -0.3370 C.3   1 <1>   0.2090 
 11 C        6.5460    -4.9330     0.5730 C.3   1 <1>   0.3430 
 12 C        7.6280    -3.0460    -0.6190 C.3   1 <1>   0.3430 
 13 N        7.8170    -4.1260     0.4260 N.4   1 <1>  -0.9590 
 14 C        8.9610    -5.0360     0.1130 C.3   1 <1>   0.3430 
 15 C       10.3090    -4.3280     0.2410 C.3   1 <1>  -0.0990 
 16 C       11.4160    -5.3250     0.0010 C.2   1 <1>   0.6590 
 17 O       11.1740    -6.4790    -0.2350 O.2   1 <1>  -0.5700 
 18 O       12.6460    -4.8440     0.0680 O.3   1 <1>  -0.4300 
 19 C       13.7800    -5.6660    -0.1340 C.3   1 <1>   0.0400 
 20 H        1.2110    -1.9490    -2.1090 H     1 <1>   0.1500 
 21 H        2.0960    -0.0870     1.6130 H     1 <1>   0.1500 
 22 H        3.3820    -3.1420    -2.0280 H     1 <1>   0.1500 
 23 H        4.2610    -1.2750     1.6980 H     1 <1>   0.1500 
 24 H        4.4240    -4.6710     0.8460 H     1 <1>   0.0800 
 25 H        5.3890    -3.6310     1.8550 H     1 <1>   0.0800 
 26 H        6.5830    -1.5460     0.5380 H     1 <1>   0.0800 
 27 H        6.2520    -1.4800    -1.1700 H     1 <1>   0.0800 
 28 H        6.3570    -5.4720    -0.3410 H     1 <1>   0.0800 
 29 H        6.6590    -5.6570     1.3630 H     1 <1>   0.0800 
 30 H        8.5070    -2.4250    -0.6740 H     1 <1>   0.0800 
 31 H        7.4870    -3.5030    -1.5850 H     1 <1>   0.0800 
 32 H        7.9900    -3.6660     1.3300 H     1 <1>   0.4500 
 33 H        8.8570    -5.4310    -0.8860 H     1 <1>   0.0800 
 34 H        8.9520    -5.8730     0.7940 H     1 <1>   0.0800 
 35 H       10.4320    -3.9250     1.2290 H     1 <1>   0.0800 
 36 H       10.4060    -3.5450    -0.4870 H     1 <1>   0.0800 
 37 H       14.6640    -5.0610    -0.0320 H     1 <1>   0.0800 
 38 H       13.7340    -6.0900    -1.1230 H     1 <1>   0.0800 
 39 H       13.7810    -6.4490     0.6050 H     1 <1>   0.0800 
@<TRIPOS>BOND
  1   1   2  1   
  2   2   3  ar  
  3   2   4  ar  
  4   3   5  ar  
  5   3  20  1   
  6   4   6  ar  
  7   4  21  1   
  8   5   7  ar  
  9   5  22  1   
 10   6   7  ar  
 11   6  23  1   
 12   7   8  1   
 13   8   9  1   
 14   8  10  1   
 15   9  11  1   
 16   9  24  1   
 17   9  25  1   
 18  10  12  1   
 19  10  26  1   
 20  10  27  1   
 21  11  13  1   
 22  11  28  1   
 23  11  29  1   
 24  12  13  1   
 25  12  30  1   
 26  12  31  1   
 27  13  14  1   
 28  13  32  1   
 29  14  15  1   
 30  14  33  1   
 31  14  34  1   
 32  15  16  1   
 33  15  35  1   
 34  15  36  1   
 35  16  17  2   
 36  16  18  1   
 37  18  19  1   
 38  19  37  1   
 39  19  38  1   
 40  19  39  1   
@<TRIPOS>SUBSTRUCTURE
  1 ****  10 GROUP 4 **** **** 0

# MOE 2024.06 (io_trps.svl 2023.06)
