@<TRIPOS>MOLECULE
NONAME
47 48 1 0 0 
SMALL
USER_CHARGES


@<TRIPOS>ATOM
  1 S       -0.2060     0.5120    -0.1340 S.o2  1 <1>   1.3330 
  2 O        0.0770    -0.5180     0.8410 O.2   1 <1>  -0.6500 
  3 O        0.0210     0.2500    -1.5380 O.2   1 <1>  -0.6500 
  4 N       -1.8290     0.9650     0.0620 N.am  1 <1>  -0.8490 
  5 C        0.6810     2.0120     0.3000 C.3   1 <1>  -0.0550 
  6 C       -2.2600     0.8840     1.4630 C.3   1 <1>   0.1960 
  7 C       -2.7140     0.1780    -0.8040 C.3   1 <1>   0.1960 
  8 C        2.2100     1.8820     0.1910 C.3   1 <1>  -0.1600 
  9 C       -3.6610     1.4790     1.6150 C.3   1 <1>  -0.1600 
 10 C       -4.1420     0.7260    -0.7370 C.3   1 <1>  -0.1600 
 11 C        2.9090     3.1910     0.5740 C.3   1 <1>  -0.2400 
 12 C       -4.6670     0.7500     0.7090 C.3   1 <1>  -0.0190 
 13 C       -6.0680     1.3480     0.8090 C.2   1 <1>   0.5690 
 14 O       -6.9480     0.6580     1.2600 O.2   1 <1>  -0.5700 
 15 N       -6.2450     2.6350     0.3850 N.am  1 <1>  -0.5470 
 16 C       -7.3570     3.4950     0.3240 C.ar  1 <1>   0.1170 
 17 C       -7.1660     4.7730    -0.2140 C.ar  1 <1>   0.0820 
 18 C       -8.6260     3.1380     0.7690 C.ar  1 <1>  -0.1500 
 19 O       -5.9050     5.0890    -0.6410 O.3   1 <1>  -0.3620 
 20 C       -8.2350     5.6620    -0.2970 C.ar  1 <1>  -0.1500 
 21 C       -9.6840     4.0260     0.6830 C.ar  1 <1>  -0.1500 
 22 C       -5.6240     6.3410    -1.2290 C.3   1 <1>   0.0400 
 23 C       -9.4890     5.2870     0.1510 C.ar  1 <1>  -0.1500 
 24 H        0.4320     2.2900     1.3050 H     1 <1>   0.0800 
 25 H        0.3550     2.8020    -0.3480 H     1 <1>   0.0800 
 26 H       -1.5770     1.4310     2.0890 H     1 <1>   0.0800 
 27 H       -2.2610    -0.1450     1.7890 H     1 <1>   0.0800 
 28 H       -2.6940    -0.8580    -0.5050 H     1 <1>   0.0800 
 29 H       -2.3780     0.2370    -1.8260 H     1 <1>   0.0800 
 30 H        2.4740     1.6170    -0.8200 H     1 <1>   0.0800 
 31 H        2.5490     1.0910     0.8390 H     1 <1>   0.0800 
 32 H       -3.6200     2.5260     1.3700 H     1 <1>   0.0800 
 33 H       -3.9740     1.3920     2.6410 H     1 <1>   0.0800 
 34 H       -4.7850     0.1120    -1.3430 H     1 <1>   0.0800 
 35 H       -4.1430     1.7160    -1.1580 H     1 <1>   0.0800 
 36 H        2.5990     3.9900    -0.0780 H     1 <1>   0.0800 
 37 H        3.9750     3.0760     0.4860 H     1 <1>   0.0800 
 38 H        2.6790     3.4610     1.5900 H     1 <1>   0.0800 
 39 H       -4.7340    -0.2700     1.0480 H     1 <1>   0.0800 
 40 H       -5.4090     3.0910     0.0190 H     1 <1>   0.3700 
 41 H       -8.8020     2.1650     1.1870 H     1 <1>   0.1500 
 42 H       -8.1160     6.6470    -0.7040 H     1 <1>   0.1500 
 43 H      -10.6580     3.7310     1.0330 H     1 <1>   0.1500 
 44 H       -4.5830     6.3590    -1.4950 H     1 <1>   0.0800 
 45 H       -5.8320     7.1180    -0.5140 H     1 <1>   0.0800 
 46 H       -6.2290     6.4560    -2.1110 H     1 <1>   0.0800 
 47 H      -10.3140     5.9750     0.0860 H     1 <1>   0.1500 
@<TRIPOS>BOND
  1   1   2  2   
  2   1   3  2   
  3   1   4  am  
  4   1   5  1   
  5   4   6  1   
  6   4   7  1   
  7   5   8  1   
  8   5  24  1   
  9   5  25  1   
 10   6   9  1   
 11   6  26  1   
 12   6  27  1   
 13   7  10  1   
 14   7  28  1   
 15   7  29  1   
 16   8  11  1   
 17   8  30  1   
 18   8  31  1   
 19   9  12  1   
 20   9  32  1   
 21   9  33  1   
 22  10  12  1   
 23  10  34  1   
 24  10  35  1   
 25  11  36  1   
 26  11  37  1   
 27  11  38  1   
 28  12  13  1   
 29  12  39  1   
 30  13  14  2   
 31  13  15  am  
 32  15  16  1   
 33  15  40  1   
 34  16  17  ar  
 35  16  18  ar  
 36  17  19  1   
 37  17  20  ar  
 38  18  21  ar  
 39  18  41  1   
 40  19  22  1   
 41  20  23  ar  
 42  20  42  1   
 43  21  23  ar  
 44  21  43  1   
 45  22  44  1   
 46  22  45  1   
 47  22  46  1   
 48  23  47  1   
@<TRIPOS>SUBSTRUCTURE
  1 ****   9 GROUP 4 **** **** 0

# MOE 2024.06 (io_trps.svl 2023.06)
