@<TRIPOS>MOLECULE
NONAME
58 61 1 0 0 
SMALL
USER_CHARGES


@<TRIPOS>ATOM
  1 O       -1.4770     1.9060     1.3850 O.2   1 <1>  -0.5700 
  2 C       -1.3450     2.5720     0.3440 C.2   1 <1>   0.6160 
  3 N       -0.2900     3.3780     0.0210 N.am  1 <1>  -0.1570 
  4 C       -2.3050     2.6570    -0.6720 C.2   1 <1>  -0.1240 
  5 N       -0.6440     3.9970    -1.2220 N.pl3 1 <1>  -0.4890 
  6 C        1.0390     3.0050     0.2940 C.ar  1 <1>   0.1170 
  7 C       -1.8570     3.5340    -1.6070 C.2   1 <1>  -0.0380 
  8 C       -3.5780     1.8540    -0.6070 C.3   1 <1>   0.4810 
  9 C        0.1600     5.1270    -1.7580 C.3   1 <1>   0.1290 
 10 C        1.5870     3.2480     1.5490 C.ar  1 <1>  -0.1500 
 11 C        1.8290     2.3840    -0.6690 C.ar  1 <1>  -0.1500 
 12 C       -2.5330     3.9930    -2.8860 C.3   1 <1>  -0.1020 
 13 N       -4.2040     2.0270     0.7310 N.4   1 <1>  -0.9590 
 14 C        2.8910     2.8870     1.8340 C.ar  1 <1>  -0.1500 
 15 C        3.1340     2.0230    -0.3880 C.ar  1 <1>  -0.1500 
 16 C       -5.3590     1.1620     1.0540 C.3   1 <1>   0.4230 
 17 C       -4.5760     3.4220     1.1200 C.3   1 <1>   0.3430 
 18 C        3.6670     2.2750     0.8640 C.ar  1 <1>  -0.1500 
 19 C       -6.4610     1.1890    -0.0260 C.3   1 <1>  -0.1600 
 20 C       -5.8900     1.8190     2.3130 C.3   1 <1>  -0.1600 
 21 C       -5.8970     3.2850     1.8950 C.3   1 <1>   0.0000 
 22 C       -7.1740     2.5540    -0.2720 C.3   1 <1>   0.0000 
 23 C       -7.1120     3.4980     0.9630 C.3   1 <1>  -0.1600 
 24 C       -5.9640     4.2260     3.1060 C.3   1 <1>  -0.2400 
 25 C       -8.6540     2.2720    -0.5920 C.3   1 <1>  -0.2400 
 26 C       -6.6120     3.2650    -1.5200 C.3   1 <1>  -0.2400 
 27 H       -3.3390     0.8140    -0.7570 H     1 <1>   0.0800 
 28 H       -4.2510     2.1610    -1.3860 H     1 <1>   0.0800 
 29 H        1.1030     4.7590    -2.1200 H     1 <1>   0.0800 
 30 H        0.3410     5.8420    -0.9750 H     1 <1>   0.0800 
 31 H       -0.3600     5.6120    -2.5630 H     1 <1>   0.0800 
 32 H        0.9840     3.7190     2.3040 H     1 <1>   0.1500 
 33 H        1.4160     2.1840    -1.6420 H     1 <1>   0.1500 
 34 H       -1.8850     3.8080    -3.7250 H     1 <1>   0.0800 
 35 H       -2.7390     5.0470    -2.8360 H     1 <1>   0.0800 
 36 H       -3.4560     3.4700    -3.0490 H     1 <1>   0.0800 
 37 H       -3.4470     1.7620     1.3910 H     1 <1>   0.4500 
 38 H        3.3040     3.0800     2.8090 H     1 <1>   0.1500 
 39 H        3.7360     1.5440    -1.1410 H     1 <1>   0.1500 
 40 H       -5.0420     0.1480     1.2450 H     1 <1>   0.0800 
 41 H       -4.6970     4.0650     0.2670 H     1 <1>   0.0800 
 42 H       -3.8110     3.8340     1.7580 H     1 <1>   0.0800 
 43 H        4.6820     1.9930     1.0850 H     1 <1>   0.1500 
 44 H       -7.2010     0.4860     0.3160 H     1 <1>   0.0800 
 45 H       -6.0930     0.7770    -0.9490 H     1 <1>   0.0800 
 46 H       -5.2120     1.6430     3.1320 H     1 <1>   0.0800 
 47 H       -6.8650     1.4550     2.5890 H     1 <1>   0.0800 
 48 H       -7.1470     4.5250     0.6400 H     1 <1>   0.0800 
 49 H       -7.9970     3.3490     1.5600 H     1 <1>   0.0800 
 50 H       -5.1270     4.0660     3.7640 H     1 <1>   0.0800 
 51 H       -6.8670     4.0550     3.6660 H     1 <1>   0.0800 
 52 H       -5.9540     5.2540     2.7880 H     1 <1>   0.0800 
 53 H       -8.7450     1.6460    -1.4630 H     1 <1>   0.0800 
 54 H       -9.1850     3.1900    -0.7830 H     1 <1>   0.0800 
 55 H       -9.1420     1.7760     0.2290 H     1 <1>   0.0800 
 56 H       -5.6080     3.6090    -1.3930 H     1 <1>   0.0800 
 57 H       -7.2110     4.1290    -1.7540 H     1 <1>   0.0800 
 58 H       -6.6430     2.6120    -2.3750 H     1 <1>   0.0800 
@<TRIPOS>BOND
  1   1   2  2   
  2   2   3  am  
  3   2   4  1   
  4   3   5  1   
  5   3   6  1   
  6   4   7  2   
  7   4   8  1   
  8   5   7  1   
  9   5   9  1   
 10   6  10  ar  
 11   6  11  ar  
 12   7  12  1   
 13   8  13  1   
 14   8  27  1   
 15   8  28  1   
 16   9  29  1   
 17   9  30  1   
 18   9  31  1   
 19  10  14  ar  
 20  10  32  1   
 21  11  15  ar  
 22  11  33  1   
 23  12  34  1   
 24  12  35  1   
 25  12  36  1   
 26  13  16  1   
 27  13  17  1   
 28  13  37  1   
 29  14  18  ar  
 30  14  38  1   
 31  15  18  ar  
 32  15  39  1   
 33  16  19  1   
 34  16  20  1   
 35  16  40  1   
 36  17  21  1   
 37  17  41  1   
 38  17  42  1   
 39  18  43  1   
 40  19  22  1   
 41  19  44  1   
 42  19  45  1   
 43  20  21  1   
 44  20  46  1   
 45  20  47  1   
 46  21  23  1   
 47  21  24  1   
 48  22  23  1   
 49  22  25  1   
 50  22  26  1   
 51  23  48  1   
 52  23  49  1   
 53  24  50  1   
 54  24  51  1   
 55  24  52  1   
 56  25  53  1   
 57  25  54  1   
 58  25  55  1   
 59  26  56  1   
 60  26  57  1   
 61  26  58  1   
@<TRIPOS>SUBSTRUCTURE
  1 ****   4 GROUP 4 **** **** 0

# MOE 2024.06 (io_trps.svl 2023.06)
