@<TRIPOS>MOLECULE
NONAME
32 32 1 0 0 
SMALL
USER_CHARGES


@<TRIPOS>ATOM
  1 CL       0.0710     0.1980    -0.3750 Cl    1 <1>  -0.1770 
  2 C        1.6080     0.9960    -0.1440 C.ar  1 <1>   0.1770 
  3 C        1.7420     2.3550    -0.3650 C.ar  1 <1>   0.1770 
  4 C        2.6950     0.2420     0.2620 C.ar  1 <1>  -0.1500 
  5 CL       0.3800     3.3210    -0.8820 Cl    1 <1>  -0.1770 
  6 C        2.9660     2.9680    -0.1780 C.ar  1 <1>  -0.1500 
  7 C        3.9400     0.8360     0.4510 C.ar  1 <1>  -0.0090 
  8 C        4.0520     2.2070     0.2280 C.ar  1 <1>  -0.1500 
  9 S        5.3740    -0.1540     0.9540 S.o2  1 <1>   1.2040 
 10 O        4.8910    -1.2680     1.7390 O.2   1 <1>  -0.6500 
 11 O        6.3580     0.7290     1.5440 O.2   1 <1>  -0.6500 
 12 C        6.0780    -0.7820    -0.6180 C.3   1 <1>   0.1050 
 13 C        7.4200    -1.5170    -0.3570 C.3   1 <1>  -0.0990 
 14 C        6.3990     0.3720    -1.5980 C.3   1 <1>  -0.2400 
 15 C        5.1030    -1.7270    -1.3620 C.3   1 <1>  -0.2400 
 16 C        7.3240    -2.7510     0.5260 C.2   1 <1>   0.4480 
 17 O        6.9190    -3.7840     0.0890 O.2   1 <1>  -0.5700 
 18 C        7.8260    -2.6520     1.9500 C.3   1 <1>  -0.1790 
 19 H        2.5650    -0.8130     0.4370 H     1 <1>   0.1500 
 20 H        3.0640     4.0270    -0.3460 H     1 <1>   0.1500 
 21 H        5.0040     2.6910     0.3800 H     1 <1>   0.1500 
 22 H        8.1210    -0.8330     0.0880 H     1 <1>   0.0800 
 23 H        7.8410    -1.8340    -1.2940 H     1 <1>   0.0800 
 24 H        6.8620    -0.0030    -2.4950 H     1 <1>   0.0800 
 25 H        7.0730     1.0770    -1.1410 H     1 <1>   0.0800 
 26 H        5.5060     0.8970    -1.8850 H     1 <1>   0.0800 
 27 H        5.5780    -2.1690    -2.2200 H     1 <1>   0.0800 
 28 H        4.2300    -1.1970    -1.6980 H     1 <1>   0.0800 
 29 H        4.7780    -2.5240    -0.7150 H     1 <1>   0.0800 
 30 H        7.3750    -1.8220     2.4600 H     1 <1>   0.0800 
 31 H        8.8930    -2.5300     1.9530 H     1 <1>   0.0800 
 32 H        7.5800    -3.5530     2.4810 H     1 <1>   0.0800 
@<TRIPOS>BOND
  1   1   2  1   
  2   2   3  ar  
  3   2   4  ar  
  4   3   5  1   
  5   3   6  ar  
  6   4   7  ar  
  7   4  19  1   
  8   6   8  ar  
  9   6  20  1   
 10   7   8  ar  
 11   7   9  1   
 12   8  21  1   
 13   9  10  2   
 14   9  11  2   
 15   9  12  1   
 16  12  13  1   
 17  12  14  1   
 18  12  15  1   
 19  13  16  1   
 20  13  22  1   
 21  13  23  1   
 22  14  24  1   
 23  14  25  1   
 24  14  26  1   
 25  15  27  1   
 26  15  28  1   
 27  15  29  1   
 28  16  17  2   
 29  16  18  1   
 30  18  30  1   
 31  18  31  1   
 32  18  32  1   
@<TRIPOS>SUBSTRUCTURE
  1 ****   7 GROUP 4 **** **** 0

# MOE 2024.06 (io_trps.svl 2023.06)
