@<TRIPOS>MOLECULE
NONAME
47 50 1 0 0 
SMALL
USER_CHARGES


@<TRIPOS>ATOM
  1 CL      -0.3210    -0.6710    -0.8090 Cl    1 <1>  -0.1770 
  2 C        0.8890    -1.9250    -0.8640 C.ar  1 <1>   0.1770 
  3 C        0.7970    -2.9950     0.0040 C.ar  1 <1>  -0.1500 
  4 C        1.9220    -1.8300    -1.7770 C.ar  1 <1>  -0.1500 
  5 C        1.7610    -3.9890    -0.0380 C.ar  1 <1>  -0.1500 
  6 C        2.8840    -2.8250    -1.8170 C.ar  1 <1>  -0.1500 
  7 C        2.8120    -3.9050    -0.9440 C.ar  1 <1>  -0.1430 
  8 C        3.8780    -4.9850    -0.9830 C.3   1 <1>   0.4870 
  9 N        4.7830    -4.8080     0.1850 N.4   1 <1>  -0.9590 
 10 C        5.5180    -3.4900     0.0940 C.3   1 <1>   0.3430 
 11 C        5.7420    -5.9660     0.2930 C.3   1 <1>   0.3430 
 12 C        6.5550    -3.3140     1.2230 C.3   1 <1>   0.1400 
 13 C        6.7730    -5.7740     1.4260 C.3   1 <1>   0.1400 
 14 N        7.4870    -4.4770     1.2660 N.am  1 <1>  -0.6600 
 15 C        8.5020    -4.4650     0.3600 C.2   1 <1>   0.6900 
 16 O        8.2180    -4.5230    -0.8210 O.2   1 <1>  -0.5700 
 17 N        9.7740    -4.3890     0.8310 N.am  1 <1>  -0.5470 
 18 C       11.0180    -4.3740     0.1780 C.ar  1 <1>   0.1170 
 19 C       11.1900    -4.8220    -1.1330 C.ar  1 <1>  -0.1500 
 20 C       12.1280    -3.9000     0.8850 C.ar  1 <1>  -0.1500 
 21 C       12.4530    -4.7770    -1.6860 C.ar  1 <1>   0.0830 
 22 C       13.3930    -3.8620     0.3130 C.ar  1 <1>  -0.1500 
 23 O       12.8360    -5.1530    -2.9110 O.3   1 <1>  -0.3620 
 24 C       13.5250    -4.3100    -0.9840 C.ar  1 <1>   0.0830 
 25 C       14.2370    -4.9040    -2.9980 C.3   1 <1>   0.4000 
 26 O       14.6330    -4.3680    -1.7360 O.3   1 <1>  -0.3620 
 27 H       -0.0240    -3.0440     0.6990 H     1 <1>   0.1500 
 28 H        1.9630    -0.9880    -2.4450 H     1 <1>   0.1500 
 29 H        1.6720    -4.8230     0.6380 H     1 <1>   0.1500 
 30 H        3.6820    -2.7450    -2.5380 H     1 <1>   0.1500 
 31 H        4.4380    -4.9180    -1.9010 H     1 <1>   0.0800 
 32 H        3.4030    -5.9520    -0.9430 H     1 <1>   0.0800 
 33 H        4.1940    -4.7750     1.0240 H     1 <1>   0.4500 
 34 H        4.8150    -2.6740     0.1300 H     1 <1>   0.0800 
 35 H        6.0390    -3.4340    -0.8490 H     1 <1>   0.0800 
 36 H        6.2850    -6.0700    -0.6340 H     1 <1>   0.0800 
 37 H        5.1980    -6.8820     0.4610 H     1 <1>   0.0800 
 38 H        6.0590    -3.2100     2.1720 H     1 <1>   0.0800 
 39 H        7.1180    -2.4120     1.0450 H     1 <1>   0.0800 
 40 H        7.4870    -6.5800     1.3950 H     1 <1>   0.0800 
 41 H        6.2850    -5.8040     2.3850 H     1 <1>   0.0800 
 42 H        9.8120    -4.2720     1.8400 H     1 <1>   0.3700 
 43 H       10.3760    -5.2020    -1.7180 H     1 <1>   0.1500 
 44 H       12.0070    -3.5540     1.8950 H     1 <1>   0.1500 
 45 H       14.2510    -3.4980     0.8500 H     1 <1>   0.1500 
 46 H       14.4260    -4.1820    -3.7710 H     1 <1>   0.0800 
 47 H       14.7570    -5.8280    -3.1770 H     1 <1>   0.0800 
@<TRIPOS>BOND
  1   1   2  1   
  2   2   3  ar  
  3   2   4  ar  
  4   3   5  ar  
  5   3  27  1   
  6   4   6  ar  
  7   4  28  1   
  8   5   7  ar  
  9   5  29  1   
 10   6   7  ar  
 11   6  30  1   
 12   7   8  1   
 13   8   9  1   
 14   8  31  1   
 15   8  32  1   
 16   9  10  1   
 17   9  11  1   
 18   9  33  1   
 19  10  12  1   
 20  10  34  1   
 21  10  35  1   
 22  11  13  1   
 23  11  36  1   
 24  11  37  1   
 25  12  14  1   
 26  12  38  1   
 27  12  39  1   
 28  13  14  1   
 29  13  40  1   
 30  13  41  1   
 31  14  15  am  
 32  15  16  2   
 33  15  17  am  
 34  17  18  1   
 35  17  42  1   
 36  18  19  ar  
 37  18  20  ar  
 38  19  21  ar  
 39  19  43  1   
 40  20  22  ar  
 41  20  44  1   
 42  21  23  1   
 43  21  24  ar  
 44  22  24  ar  
 45  22  45  1   
 46  23  25  1   
 47  24  26  1   
 48  25  26  1   
 49  25  46  1   
 50  25  47  1   
@<TRIPOS>SUBSTRUCTURE
  1 ****  16 GROUP 4 **** **** 0

# MOE 2024.06 (io_trps.svl 2023.06)
