@<TRIPOS>MOLECULE
NONAME
43 44 1 0 0 
SMALL
USER_CHARGES


@<TRIPOS>ATOM
  1 CL      -0.4990     1.3280     0.5930 Cl    1 <1>  -0.1770 
  2 C        1.1970     1.6600     0.3400 C.ar  1 <1>   0.1770 
  3 C        2.1260     0.6600     0.5520 C.ar  1 <1>  -0.1500 
  4 C        1.5880     2.9210    -0.0710 C.ar  1 <1>  -0.1500 
  5 C        3.4690     0.9290     0.3480 C.ar  1 <1>  -0.1500 
  6 C        2.9330     3.1810    -0.2700 C.ar  1 <1>  -0.1500 
  7 C        3.8910     2.1920    -0.0620 C.ar  1 <1>   0.1170 
  8 N        5.2390     2.5030    -0.2920 N.am  1 <1>  -0.5470 
  9 C        6.3740     1.9570     0.2280 C.2   1 <1>   0.6900 
 10 O        6.3540     1.1240     1.1120 O.2   1 <1>  -0.5700 
 11 N        7.5660     2.3720    -0.2710 N.am  1 <1>  -0.7300 
 12 C        8.8560     1.8940     0.2440 C.3   1 <1>   0.2200 
 13 C        9.9230     2.9650     0.0570 C.3   1 <1>  -0.1600 
 14 C        9.2520     0.6150    -0.4850 C.3   1 <1>  -0.1600 
 15 C       11.2770     2.4460     0.5360 C.3   1 <1>   0.3430 
 16 C       10.6100     0.1280     0.0070 C.3   1 <1>   0.3430 
 17 N       11.6530     1.1890    -0.1930 N.4   1 <1>  -0.9590 
 18 C       13.0220     0.7100     0.1670 C.3   1 <1>   0.4230 
 19 C       14.0540     1.8050    -0.1160 C.3   1 <1>  -0.2400 
 20 C       13.3810    -0.5260    -0.6610 C.3   1 <1>  -0.2400 
 21 H        1.8010    -0.3140     0.8710 H     1 <1>   0.1500 
 22 H        0.8460     3.6830    -0.2290 H     1 <1>   0.1500 
 23 H        4.1880     0.1470     0.5100 H     1 <1>   0.1500 
 24 H        3.2360     4.1620    -0.5860 H     1 <1>   0.1500 
 25 H        5.3950     3.3430    -0.8380 H     1 <1>   0.3700 
 26 H        7.5770     2.9070    -1.1370 H     1 <1>   0.3700 
 27 H        8.7530     1.6820     1.2980 H     1 <1>   0.0800 
 28 H        9.6600     3.8320     0.6370 H     1 <1>   0.0800 
 29 H        9.9950     3.2560    -0.9760 H     1 <1>   0.0800 
 30 H        9.2850     0.7740    -1.5480 H     1 <1>   0.0800 
 31 H        8.5190    -0.1470    -0.2810 H     1 <1>   0.0800 
 32 H       11.2330     2.2500     1.5960 H     1 <1>   0.0800 
 33 H       12.0160     3.2120     0.3670 H     1 <1>   0.0800 
 34 H       10.8700    -0.7640    -0.5400 H     1 <1>   0.0800 
 35 H       10.5430    -0.1260     1.0530 H     1 <1>   0.0800 
 36 H       11.6800     1.4070    -1.1970 H     1 <1>   0.4500 
 37 H       13.0580     0.4550     1.2150 H     1 <1>   0.0800 
 38 H       13.9800     2.1580    -1.1290 H     1 <1>   0.0800 
 39 H       15.0460     1.4130     0.0260 H     1 <1>   0.0800 
 40 H       13.9540     2.6290     0.5660 H     1 <1>   0.0800 
 41 H       13.2590    -0.3390    -1.7140 H     1 <1>   0.0800 
 42 H       12.7980    -1.3800    -0.3720 H     1 <1>   0.0800 
 43 H       14.4110    -0.7900    -0.4900 H     1 <1>   0.0800 
@<TRIPOS>BOND
  1   1   2  1   
  2   2   3  ar  
  3   2   4  ar  
  4   3   5  ar  
  5   3  21  1   
  6   4   6  ar  
  7   4  22  1   
  8   5   7  ar  
  9   5  23  1   
 10   6   7  ar  
 11   6  24  1   
 12   7   8  1   
 13   8   9  am  
 14   8  25  1   
 15   9  10  2   
 16   9  11  am  
 17  11  12  1   
 18  11  26  1   
 19  12  13  1   
 20  12  14  1   
 21  12  27  1   
 22  13  15  1   
 23  13  28  1   
 24  13  29  1   
 25  14  16  1   
 26  14  30  1   
 27  14  31  1   
 28  15  17  1   
 29  15  32  1   
 30  15  33  1   
 31  16  17  1   
 32  16  34  1   
 33  16  35  1   
 34  17  18  1   
 35  17  36  1   
 36  18  19  1   
 37  18  20  1   
 38  18  37  1   
 39  19  38  1   
 40  19  39  1   
 41  19  40  1   
 42  20  41  1   
 43  20  42  1   
 44  20  43  1   
@<TRIPOS>SUBSTRUCTURE
  1 ****   9 GROUP 4 **** **** 0

# MOE 2024.06 (io_trps.svl 2023.06)
