@<TRIPOS>MOLECULE
NONAME
40 41 1 0 0 
SMALL
USER_CHARGES


@<TRIPOS>ATOM
  1 S       -0.1030     0.0260     0.4330 S.o2  1 <1>   1.3330 
  2 O        0.0150    -1.3790     0.1180 O.2   1 <1>  -0.6500 
  3 O       -0.4080     0.4380     1.7840 O.2   1 <1>  -0.6500 
  4 N        1.3270     0.8050    -0.0340 N.am  1 <1>  -0.8490 
  5 C       -1.3030     0.7280    -0.6780 C.3   1 <1>  -0.1350 
  6 C        2.5040    -0.0450     0.1730 C.3   1 <1>   0.1960 
  7 C        1.4830     2.1140     0.6090 C.3   1 <1>   0.1960 
  8 C        3.7590     0.6250    -0.3960 C.3   1 <1>  -0.1600 
  9 C        2.6950     2.8510     0.0340 C.3   1 <1>  -0.1600 
 10 C        3.9780     2.0210     0.2080 C.3   1 <1>  -0.0190 
 11 C        5.1960     2.7110    -0.4080 C.2   1 <1>   0.5690 
 12 O        5.1370     3.0820    -1.5540 O.2   1 <1>  -0.5700 
 13 N        6.3040     2.8590     0.3830 N.am  1 <1>  -0.5470 
 14 C        7.5540     3.4500     0.1340 C.ar  1 <1>   0.1170 
 15 C        7.7870     4.3440    -0.9070 C.ar  1 <1>  -0.1500 
 16 C        8.6120     3.1410     0.9800 C.ar  1 <1>  -0.1500 
 17 C        9.0370     4.9050    -1.0960 C.ar  1 <1>  -0.1500 
 18 C        9.8630     3.7020     0.7940 C.ar  1 <1>  -0.1500 
 19 C       10.0830     4.5890    -0.2460 C.ar  1 <1>  -0.1440 
 20 C       11.4550     5.2050    -0.4570 C.3   1 <1>  -0.0970 
 21 H       -1.0210     0.5310    -1.6930 H     1 <1>   0.0800 
 22 H       -1.3710     1.7880    -0.5360 H     1 <1>   0.0800 
 23 H       -2.2660     0.2930    -0.4980 H     1 <1>   0.0800 
 24 H        2.3670    -0.9870    -0.3330 H     1 <1>   0.0800 
 25 H        2.6280    -0.2450     1.2250 H     1 <1>   0.0800 
 26 H        1.6030     1.9880     1.6730 H     1 <1>   0.0800 
 27 H        0.6010     2.7090     0.4420 H     1 <1>   0.0800 
 28 H        3.6520     0.7040    -1.4640 H     1 <1>   0.0800 
 29 H        4.6140     0.0030    -0.2000 H     1 <1>   0.0800 
 30 H        2.8060     3.7990     0.5290 H     1 <1>   0.0800 
 31 H        2.5200     3.0450    -1.0100 H     1 <1>   0.0800 
 32 H        4.1520     1.9040     1.2620 H     1 <1>   0.0800 
 33 H        6.2290     2.4390     1.3050 H     1 <1>   0.3700 
 34 H        6.9930     4.6130    -1.5780 H     1 <1>   0.1500 
 35 H        8.4650     2.4540     1.7920 H     1 <1>   0.1500 
 36 H        9.1900     5.5910    -1.9110 H     1 <1>   0.1500 
 37 H       10.6680     3.4440     1.4600 H     1 <1>   0.1500 
 38 H       11.3630     6.1910    -0.8760 H     1 <1>   0.0800 
 39 H       12.0280     4.5930    -1.1300 H     1 <1>   0.0800 
 40 H       11.9810     5.2820     0.4770 H     1 <1>   0.0800 
@<TRIPOS>BOND
  1   1   2  2   
  2   1   3  2   
  3   1   4  am  
  4   1   5  1   
  5   4   6  1   
  6   4   7  1   
  7   5  21  1   
  8   5  22  1   
  9   5  23  1   
 10   6   8  1   
 11   6  24  1   
 12   6  25  1   
 13   7   9  1   
 14   7  26  1   
 15   7  27  1   
 16   8  10  1   
 17   8  28  1   
 18   8  29  1   
 19   9  10  1   
 20   9  30  1   
 21   9  31  1   
 22  10  11  1   
 23  10  32  1   
 24  11  12  2   
 25  11  13  am  
 26  13  14  1   
 27  13  33  1   
 28  14  15  ar  
 29  14  16  ar  
 30  15  17  ar  
 31  15  34  1   
 32  16  18  ar  
 33  16  35  1   
 34  17  19  ar  
 35  17  36  1   
 36  18  19  ar  
 37  18  37  1   
 38  19  20  1   
 39  20  38  1   
 40  20  39  1   
 41  20  40  1   
@<TRIPOS>SUBSTRUCTURE
  1 ****  11 GROUP 4 **** **** 0

# MOE 2024.06 (io_trps.svl 2023.06)
