@<TRIPOS>MOLECULE
NONAME
39 40 1 0 0 
SMALL
USER_CHARGES


@<TRIPOS>ATOM
  1 S        0.2930    -0.8100     0.8640 S.3   1 <1>  -0.0800 
  2 C        1.3740    -0.9720    -0.5280 C.2   1 <1>  -0.0450 
  3 C       -0.4640     0.6220     0.2010 C.2   1 <1>  -0.1100 
  4 C        2.3200    -2.0560    -0.5710 C.2   1 <1>   0.7150 
  5 C        1.1120     0.0380    -1.3960 C.2   1 <1>  -0.1500 
  6 C        0.0810     0.9340    -0.9880 C.2   1 <1>  -0.1500 
  7 O        3.0970    -2.1690    -1.5020 O.2   1 <1>  -0.5700 
  8 N        2.3860    -2.9670     0.4410 N.am  1 <1>  -0.7300 
  9 C        3.3890    -4.0750     0.5370 C.3   1 <1>   0.2010 
 10 C        4.7890    -3.5980     0.9280 C.2   1 <1>   0.5690 
 11 O        5.2850    -4.0090     1.9500 O.2   1 <1>  -0.5700 
 12 N        5.4230    -2.7200     0.1100 N.am  1 <1>  -0.7300 
 13 C        6.7380    -2.1080     0.3370 C.3   1 <1>   0.2200 
 14 C        6.5130    -0.6080     0.5570 C.3   1 <1>  -0.1600 
 15 C        7.6340    -2.4590    -0.8580 C.3   1 <1>  -0.1600 
 16 C        7.7940     0.2270     0.7240 C.3   1 <1>  -0.1600 
 17 C        9.1160    -2.1510    -0.5900 C.3   1 <1>  -0.1600 
 18 C        8.5540     0.4050    -0.5990 C.3   1 <1>  -0.1600 
 19 C        9.5510    -0.7170    -0.9290 C.3   1 <1>  -0.1600 
 20 H       -1.2460     1.0860     0.7770 H     1 <1>   0.1500 
 21 H        1.6290     0.1780    -2.3310 H     1 <1>   0.1500 
 22 H       -0.2050     1.7690    -1.6040 H     1 <1>   0.1500 
 23 H        1.8450    -2.7760     1.2870 H     1 <1>   0.3700 
 24 H        3.4580    -4.5720    -0.4150 H     1 <1>   0.0800 
 25 H        3.0540    -4.7950     1.2620 H     1 <1>   0.0800 
 26 H        4.9080    -2.3790    -0.7140 H     1 <1>   0.3700 
 27 H        7.1680    -2.5300     1.2310 H     1 <1>   0.0800 
 28 H        5.9270    -0.4970     1.4520 H     1 <1>   0.0800 
 29 H        5.9370    -0.2080    -0.2590 H     1 <1>   0.0800 
 30 H        7.2980    -1.9590    -1.7490 H     1 <1>   0.0800 
 31 H        7.5530    -3.5200    -1.0230 H     1 <1>   0.0800 
 32 H        8.4330    -0.1980     1.4790 H     1 <1>   0.0800 
 33 H        7.5000     1.2030     1.0690 H     1 <1>   0.0800 
 34 H        9.7180    -2.8230    -1.1770 H     1 <1>   0.0800 
 35 H        9.3410    -2.3590     0.4420 H     1 <1>   0.0800 
 36 H        9.1050     1.3290    -0.5560 H     1 <1>   0.0800 
 37 H        7.8490     0.5050    -1.4060 H     1 <1>   0.0800 
 38 H        9.7700    -0.6620    -1.9820 H     1 <1>   0.0800 
 39 H       10.4740    -0.5220    -0.4090 H     1 <1>   0.0800 
@<TRIPOS>BOND
  1   1   2  1   
  2   1   3  1   
  3   2   4  1   
  4   2   5  2   
  5   3   6  2   
  6   3  20  1   
  7   4   7  2   
  8   4   8  am  
  9   5   6  1   
 10   5  21  1   
 11   6  22  1   
 12   8   9  1   
 13   8  23  1   
 14   9  10  1   
 15   9  24  1   
 16   9  25  1   
 17  10  11  2   
 18  10  12  am  
 19  12  13  1   
 20  12  26  1   
 21  13  14  1   
 22  13  15  1   
 23  13  27  1   
 24  14  16  1   
 25  14  28  1   
 26  14  29  1   
 27  15  17  1   
 28  15  30  1   
 29  15  31  1   
 30  16  18  1   
 31  16  32  1   
 32  16  33  1   
 33  17  19  1   
 34  17  34  1   
 35  17  35  1   
 36  18  19  1   
 37  18  36  1   
 38  18  37  1   
 39  19  38  1   
 40  19  39  1   
@<TRIPOS>SUBSTRUCTURE
  1 ****  12 GROUP 4 **** **** 0

# MOE 2024.06 (io_trps.svl 2023.06)
