@<TRIPOS>MOLECULE
NONAME
48 50 1 0 0 
SMALL
USER_CHARGES


@<TRIPOS>ATOM
  1 O       -1.2930    -0.7670    -1.0970 O.3   1 <1>  -0.3630 
  2 C       -0.8160    -1.7460    -0.2770 C.ar  1 <1>   0.0820 
  3 C       -0.4120    -0.0470    -1.9380 C.3   1 <1>   0.0400 
  4 C       -1.6480    -2.1890     0.7470 C.ar  1 <1>  -0.1440 
  5 C        0.4440    -2.3180    -0.4330 C.ar  1 <1>  -0.1500 
  6 C       -1.2180    -3.1920     1.6000 C.ar  1 <1>  -0.1500 
  7 C       -3.0240    -1.5810     0.9260 C.3   1 <1>   0.4870 
  8 C        0.8650    -3.3230     0.4200 C.ar  1 <1>  -0.1500 
  9 C        0.0310    -3.7660     1.4420 C.ar  1 <1>   0.0820 
 10 N       -3.8130    -1.8560    -0.3090 N.4   1 <1>  -0.9590 
 11 O        0.3600    -4.7480     2.3180 O.3   1 <1>  -0.3620 
 12 C       -5.0750    -1.0590    -0.4460 C.3   1 <1>   0.5660 
 13 C       -3.9580    -3.3340    -0.5210 C.3   1 <1>   0.3430 
 14 C        1.6350    -5.3520     2.2950 C.3   1 <1>   0.0400 
 15 C       -4.9300     0.3210     0.1870 C.ar  1 <1>  -0.1440 
 16 C       -6.2760    -1.8810     0.0420 C.3   1 <1>  -0.1600 
 17 C       -5.1520    -3.6480    -1.4230 C.3   1 <1>  -0.1600 
 18 C       -5.4380     0.6270     1.4450 C.ar  1 <1>   0.1600 
 19 C       -4.2510     1.3080    -0.5050 C.ar  1 <1>  -0.1500 
 20 C       -6.4730    -3.1460    -0.8130 C.3   1 <1>  -0.1600 
 21 N       -5.3090     1.7940     2.0470 N.ar  1 <1>  -0.6200 
 22 C       -4.1200     2.5350     0.1090 C.ar  1 <1>  -0.1500 
 23 C       -4.6590     2.7240     1.3690 C.ar  1 <1>   0.1600 
 24 H       -0.0350    -0.7040    -2.7020 H     1 <1>   0.0800 
 25 H        0.3930     0.3520    -1.3460 H     1 <1>   0.0800 
 26 H       -0.9600     0.7600    -2.3920 H     1 <1>   0.0800 
 27 H        1.1110    -2.0030    -1.2140 H     1 <1>   0.1500 
 28 H       -1.8380    -3.5500     2.4040 H     1 <1>   0.1500 
 29 H       -2.9060    -0.5200     1.0750 H     1 <1>   0.0800 
 30 H       -3.5140    -1.9990     1.7890 H     1 <1>   0.0800 
 31 H        1.8410    -3.7480     0.2760 H     1 <1>   0.1500 
 32 H       -3.1760    -1.5080    -1.0410 H     1 <1>   0.4500 
 33 H       -5.2400    -0.8930    -1.4980 H     1 <1>   0.0800 
 34 H       -4.1130    -3.8200     0.4290 H     1 <1>   0.0800 
 35 H       -3.0510    -3.7320    -0.9510 H     1 <1>   0.0800 
 36 H        1.6770    -6.0740     3.0900 H     1 <1>   0.0800 
 37 H        2.3840    -4.5960     2.4510 H     1 <1>   0.0800 
 38 H        1.7730    -5.8440     1.3490 H     1 <1>   0.0800 
 39 H       -7.1690    -1.2820    -0.0060 H     1 <1>   0.0800 
 40 H       -6.1250    -2.1630     1.0690 H     1 <1>   0.0800 
 41 H       -5.2120    -4.7120    -1.5770 H     1 <1>   0.0800 
 42 H       -4.9900    -3.1980    -2.3880 H     1 <1>   0.0800 
 43 H       -5.9780    -0.1160     2.0060 H     1 <1>   0.1500 
 44 H       -3.8340     1.1450    -1.4840 H     1 <1>   0.1500 
 45 H       -7.1690    -2.9450    -1.6120 H     1 <1>   0.0800 
 46 H       -6.9090    -3.9170    -0.1990 H     1 <1>   0.0800 
 47 H       -3.6060     3.3440    -0.3790 H     1 <1>   0.1500 
 48 H       -4.5510     3.6870     1.8420 H     1 <1>   0.1500 
@<TRIPOS>BOND
  1   1   2  1   
  2   1   3  1   
  3   2   4  ar  
  4   2   5  ar  
  5   3  24  1   
  6   3  25  1   
  7   3  26  1   
  8   4   6  ar  
  9   4   7  1   
 10   5   8  ar  
 11   5  27  1   
 12   6   9  ar  
 13   6  28  1   
 14   7  10  1   
 15   7  29  1   
 16   7  30  1   
 17   8   9  ar  
 18   8  31  1   
 19   9  11  1   
 20  10  12  1   
 21  10  13  1   
 22  10  32  1   
 23  11  14  1   
 24  12  15  1   
 25  12  16  1   
 26  12  33  1   
 27  13  17  1   
 28  13  34  1   
 29  13  35  1   
 30  14  36  1   
 31  14  37  1   
 32  14  38  1   
 33  15  18  ar  
 34  15  19  ar  
 35  16  20  1   
 36  16  39  1   
 37  16  40  1   
 38  17  20  1   
 39  17  41  1   
 40  17  42  1   
 41  18  21  ar  
 42  18  43  1   
 43  19  22  ar  
 44  19  44  1   
 45  20  45  1   
 46  20  46  1   
 47  21  23  ar  
 48  22  23  ar  
 49  22  47  1   
 50  23  48  1   
@<TRIPOS>SUBSTRUCTURE
  1 ****   7 GROUP 4 **** **** 0

# MOE 2024.06 (io_trps.svl 2023.06)
