@<TRIPOS>MOLECULE
NONAME
49 50 1 0 0 
SMALL
USER_CHARGES


@<TRIPOS>ATOM
  1 S       -0.2180    -1.5410    -1.1360 S.o2  1 <1>   1.2570 
  2 O        0.6400    -0.5050    -1.6780 O.2   1 <1>  -0.6500 
  3 O       -0.3970    -2.7740    -1.8700 O.2   1 <1>  -0.6500 
  4 C       -1.8100    -0.8030    -0.7850 C.2   1 <1>  -0.0220 
  5 C        0.3450    -1.9480     0.5230 C.3   1 <1>  -0.0550 
  6 S       -3.2190    -1.8710    -0.6520 S.3   1 <1>  -0.0800 
  7 C       -2.1670     0.4750    -0.5430 C.2   1 <1>   0.0830 
  8 C        1.6460    -2.7690     0.6030 C.3   1 <1>  -0.1600 
  9 C       -4.2860    -0.5230    -0.2670 C.ar  1 <1>   0.2970 
 10 N       -1.2540     1.5310    -0.5800 N.pl3 1 <1>  -0.8830 
 11 C       -3.5740     0.6730    -0.2390 C.ar  1 <1>   0.0000 
 12 C        2.8880    -1.9650     0.1920 C.3   1 <1>  -0.1600 
 13 N       -5.5720    -0.7270    -0.0460 N.ar  1 <1>  -0.5670 
 14 C       -4.3070     1.8190     0.0750 C.ar  1 <1>  -0.1430 
 15 C        4.1650    -2.7900     0.3910 C.3   1 <1>  -0.1600 
 16 C       -6.2350     0.3760     0.2390 C.ar  1 <1>   0.1670 
 17 C       -5.6570     1.6400     0.3100 C.ar  1 <1>  -0.1500 
 18 C       -3.6990     3.2100     0.1750 C.3   1 <1>  -0.0970 
 19 C        5.4080    -1.9930    -0.0230 C.3   1 <1>  -0.1600 
 20 C       -7.7180     0.2050     0.5000 C.3   1 <1>  -0.0970 
 21 C        6.6860    -2.8180     0.1760 C.3   1 <1>  -0.1600 
 22 C        7.9300    -2.0220    -0.2370 C.3   1 <1>  -0.1600 
 23 C        9.2040    -2.8480    -0.0380 C.3   1 <1>  -0.2400 
 24 H       -0.4250    -2.5220     1.0040 H     1 <1>   0.0800 
 25 H        0.4660    -1.0440     1.0890 H     1 <1>   0.0800 
 26 H        1.5560    -3.6420    -0.0220 H     1 <1>   0.0800 
 27 H        1.7720    -3.1060     1.6180 H     1 <1>   0.0800 
 28 H       -1.6620     2.4290    -0.8560 H     1 <1>   0.4000 
 29 H       -0.4040     1.3390    -1.1390 H     1 <1>   0.4000 
 30 H        2.9490    -1.0660     0.7810 H     1 <1>   0.0800 
 31 H        2.8150    -1.6820    -0.8440 H     1 <1>   0.0800 
 32 H        4.1060    -3.6890    -0.2000 H     1 <1>   0.0800 
 33 H        4.2530    -3.0750     1.4260 H     1 <1>   0.0800 
 34 H       -6.2750     2.4850     0.5530 H     1 <1>   0.1500 
 35 H       -2.8760     3.2030     0.8680 H     1 <1>   0.0800 
 36 H       -4.4240     3.9210     0.5260 H     1 <1>   0.0800 
 37 H       -3.3530     3.5310    -0.7910 H     1 <1>   0.0800 
 38 H        5.4690    -1.0930     0.5650 H     1 <1>   0.0800 
 39 H        5.3230    -1.7110    -1.0590 H     1 <1>   0.0800 
 40 H       -8.1870    -0.2200    -0.3690 H     1 <1>   0.0800 
 41 H       -8.1870     1.1450     0.7240 H     1 <1>   0.0800 
 42 H       -7.8610    -0.4620     1.3300 H     1 <1>   0.0800 
 43 H        6.6270    -3.7170    -0.4130 H     1 <1>   0.0800 
 44 H        6.7720    -3.1010     1.2120 H     1 <1>   0.0800 
 45 H        7.9960    -1.1220     0.3510 H     1 <1>   0.0800 
 46 H        7.8500    -1.7380    -1.2730 H     1 <1>   0.0800 
 47 H        9.3150    -3.1240     0.9960 H     1 <1>   0.0800 
 48 H       10.0640    -2.2730    -0.3330 H     1 <1>   0.0800 
 49 H        9.1690    -3.7420    -0.6350 H     1 <1>   0.0800 
@<TRIPOS>BOND
  1   1   2  2   
  2   1   3  2   
  3   1   4  1   
  4   1   5  1   
  5   4   6  1   
  6   4   7  2   
  7   5   8  1   
  8   5  24  1   
  9   5  25  1   
 10   6   9  1   
 11   7  10  1   
 12   7  11  1   
 13   8  12  1   
 14   8  26  1   
 15   8  27  1   
 16   9  11  ar  
 17   9  13  ar  
 18  10  28  1   
 19  10  29  1   
 20  11  14  ar  
 21  12  15  1   
 22  12  30  1   
 23  12  31  1   
 24  13  16  ar  
 25  14  17  ar  
 26  14  18  1   
 27  15  19  1   
 28  15  32  1   
 29  15  33  1   
 30  16  17  ar  
 31  16  20  1   
 32  17  34  1   
 33  18  35  1   
 34  18  36  1   
 35  18  37  1   
 36  19  21  1   
 37  19  38  1   
 38  19  39  1   
 39  20  40  1   
 40  20  41  1   
 41  20  42  1   
 42  21  22  1   
 43  21  43  1   
 44  21  44  1   
 45  22  23  1   
 46  22  45  1   
 47  22  46  1   
 48  23  47  1   
 49  23  48  1   
 50  23  49  1   
@<TRIPOS>SUBSTRUCTURE
  1 ****   1 GROUP 4 **** **** 0

# MOE 2024.06 (io_trps.svl 2023.06)
