@<TRIPOS>MOLECULE
NONAME
32 33 1 0 0 
SMALL
USER_CHARGES


@<TRIPOS>ATOM
  1 CL      -0.9650    -2.1010     2.2320 Cl    1 <1>  -0.1770 
  2 C       -0.0420    -2.7490     0.8970 C.ar  1 <1>   0.1770 
  3 C       -0.6760    -3.2120    -0.2430 C.ar  1 <1>   0.1770 
  4 C        1.3350    -2.7870     1.0020 C.ar  1 <1>  -0.1500 
  5 CL      -2.4140    -3.1660    -0.3890 Cl    1 <1>  -0.1770 
  6 C        0.0730    -3.7220    -1.2870 C.ar  1 <1>  -0.1500 
  7 C        2.1200    -3.2870    -0.0410 C.ar  1 <1>   0.0860 
  8 C        1.4540    -3.7570    -1.1790 C.ar  1 <1>  -0.1500 
  9 C        3.5710    -3.3260     0.0470 C.2   1 <1>   0.5440 
 10 O        4.2250    -4.0530    -0.6750 O.2   1 <1>  -0.5700 
 11 N        4.2720    -2.5100     0.9040 N.am  1 <1>  -0.6600 
 12 C        5.5670    -3.0090     1.4570 C.3   1 <1>   0.1400 
 13 C        4.2660    -1.0400     0.6580 C.3   1 <1>   0.1400 
 14 C        6.7260    -2.6350     0.5130 C.3   1 <1>   0.3430 
 15 C        5.4400    -0.6500    -0.2690 C.3   1 <1>   0.3430 
 16 N        6.7710    -1.1510     0.2370 N.4   1 <1>  -0.9590 
 17 C        7.8610    -0.8360    -0.7350 C.3   1 <1>   0.2630 
 18 H        1.7950    -2.4310     1.9060 H     1 <1>   0.1500 
 19 H       -0.4220    -4.0870    -2.1710 H     1 <1>   0.1500 
 20 H        2.0330    -4.1610    -1.9940 H     1 <1>   0.1500 
 21 H        5.5250    -4.0810     1.5590 H     1 <1>   0.0800 
 22 H        5.7300    -2.5920     2.4350 H     1 <1>   0.0800 
 23 H        4.3440    -0.5170     1.5950 H     1 <1>   0.0800 
 24 H        3.3380    -0.7490     0.1940 H     1 <1>   0.0800 
 25 H        6.5880    -3.1730    -0.4110 H     1 <1>   0.0800 
 26 H        7.6570    -2.9590     0.9490 H     1 <1>   0.0800 
 27 H        5.4670     0.4220    -0.3730 H     1 <1>   0.0800 
 28 H        5.2490    -1.0710    -1.2430 H     1 <1>   0.0800 
 29 H        6.9720    -0.6750     1.1280 H     1 <1>   0.4500 
 30 H        7.6780    -1.3310    -1.6760 H     1 <1>   0.0800 
 31 H        8.8130    -1.1680    -0.3530 H     1 <1>   0.0800 
 32 H        7.9140     0.2270    -0.9100 H     1 <1>   0.0800 
@<TRIPOS>BOND
  1   1   2  1   
  2   2   3  ar  
  3   2   4  ar  
  4   3   5  1   
  5   3   6  ar  
  6   4   7  ar  
  7   4  18  1   
  8   6   8  ar  
  9   6  19  1   
 10   7   8  ar  
 11   7   9  1   
 12   8  20  1   
 13   9  10  2   
 14   9  11  am  
 15  11  12  1   
 16  11  13  1   
 17  12  14  1   
 18  12  21  1   
 19  12  22  1   
 20  13  15  1   
 21  13  23  1   
 22  13  24  1   
 23  14  16  1   
 24  14  25  1   
 25  14  26  1   
 26  15  16  1   
 27  15  27  1   
 28  15  28  1   
 29  16  17  1   
 30  16  29  1   
 31  17  30  1   
 32  17  31  1   
 33  17  32  1   
@<TRIPOS>SUBSTRUCTURE
  1 ****   9 GROUP 4 **** **** 0

# MOE 2024.06 (io_trps.svl 2023.06)
