@<TRIPOS>MOLECULE
NONAME
44 45 1 0 0 
SMALL
USER_CHARGES


@<TRIPOS>ATOM
  1 S       -0.5560     0.8840     0.3770 S.o2  1 <1>   1.4470 
  2 O        0.0180     2.1460    -0.0280 O.2   1 <1>  -0.6500 
  3 O       -1.3320     0.8440     1.5980 O.2   1 <1>  -0.6500 
  4 N       -1.6040     0.5420    -0.8860 N.am  1 <1>  -0.9140 
  5 C        0.7150    -0.4120     0.3220 C.ar  1 <1>  -0.0090 
  6 C       -2.7630    -0.2530    -0.5170 C.3   1 <1>   0.3390 
  7 C        0.7710    -1.4180     1.2790 C.ar  1 <1>  -0.1500 
  8 C        1.6670    -0.4330    -0.6900 C.ar  1 <1>  -0.1500 
  9 C       -2.3480    -1.6640    -0.1320 C.ar  1 <1>  -0.1440 
 10 C        1.7400    -2.4050     1.2320 C.ar  1 <1>  -0.1500 
 11 C        2.6450    -1.4120    -0.7400 C.ar  1 <1>  -0.1500 
 12 C       -1.7510    -2.4940    -1.0680 C.ar  1 <1>  -0.1500 
 13 C       -2.5550    -2.1330     1.1580 C.ar  1 <1>  -0.1500 
 14 C        2.6870    -2.4060     0.2220 C.ar  1 <1>  -0.1430 
 15 C       -1.3560    -3.7760    -0.7240 C.ar  1 <1>   0.0830 
 16 C       -2.1720    -3.4180     1.5050 C.ar  1 <1>  -0.1500 
 17 C        3.7580    -3.4830     0.1750 C.3   1 <1>  -0.0170 
 18 O       -0.7440    -4.5180    -1.6760 O.3   1 <1>  -0.3620 
 19 C       -1.5800    -4.2530     0.5730 C.ar  1 <1>   0.0830 
 20 C        5.0000    -3.0360     0.9480 C.3   1 <1>  -0.2400 
 21 C        0.6630    -4.4760    -1.6400 C.3   1 <1>   0.0400 
 22 O       -1.2440    -5.5000     0.9960 O.3   1 <1>  -0.3630 
 23 C       -1.6190    -6.6020     0.1980 C.3   1 <1>   0.0400 
 24 H       -1.9250     1.4660    -1.1640 H     1 <1>   0.4200 
 25 H       -3.4260    -0.3140    -1.3640 H     1 <1>   0.0800 
 26 H       -3.3060     0.2170     0.2870 H     1 <1>   0.0800 
 27 H        0.0440    -1.4330     2.0730 H     1 <1>   0.1500 
 28 H        1.6450     0.3340    -1.4450 H     1 <1>   0.1500 
 29 H        1.7500    -3.1720     1.9870 H     1 <1>   0.1500 
 30 H        3.3740    -1.3940    -1.5310 H     1 <1>   0.1500 
 31 H       -1.5740    -2.1450    -2.0690 H     1 <1>   0.1500 
 32 H       -3.0090    -1.4990     1.9010 H     1 <1>   0.1500 
 33 H       -2.3320    -3.7800     2.5040 H     1 <1>   0.1500 
 34 H        4.0240    -3.6870    -0.8480 H     1 <1>   0.0800 
 35 H        3.3760    -4.3940     0.6020 H     1 <1>   0.0800 
 36 H        5.4000    -2.1350     0.5200 H     1 <1>   0.0800 
 37 H        5.7540    -3.8020     0.9130 H     1 <1>   0.0800 
 38 H        4.7470    -2.8450     1.9760 H     1 <1>   0.0800 
 39 H        1.0410    -5.1230    -2.4090 H     1 <1>   0.0800 
 40 H        0.9810    -3.4640    -1.8150 H     1 <1>   0.0800 
 41 H        0.9960    -4.8110    -0.6730 H     1 <1>   0.0800 
 42 H       -1.6480    -7.4750     0.8240 H     1 <1>   0.0800 
 43 H       -0.8910    -6.7380    -0.5800 H     1 <1>   0.0800 
 44 H       -2.5920    -6.4180    -0.2230 H     1 <1>   0.0800 
@<TRIPOS>BOND
  1   1   2  2   
  2   1   3  2   
  3   1   4  am  
  4   1   5  1   
  5   4   6  1   
  6   4  24  1   
  7   5   7  ar  
  8   5   8  ar  
  9   6   9  1   
 10   6  25  1   
 11   6  26  1   
 12   7  10  ar  
 13   7  27  1   
 14   8  11  ar  
 15   8  28  1   
 16   9  12  ar  
 17   9  13  ar  
 18  10  14  ar  
 19  10  29  1   
 20  11  14  ar  
 21  11  30  1   
 22  12  15  ar  
 23  12  31  1   
 24  13  16  ar  
 25  13  32  1   
 26  14  17  1   
 27  15  18  1   
 28  15  19  ar  
 29  16  19  ar  
 30  16  33  1   
 31  17  20  1   
 32  17  34  1   
 33  17  35  1   
 34  18  21  1   
 35  19  22  1   
 36  20  36  1   
 37  20  37  1   
 38  20  38  1   
 39  21  39  1   
 40  21  40  1   
 41  21  41  1   
 42  22  23  1   
 43  23  42  1   
 44  23  43  1   
 45  23  44  1   
@<TRIPOS>SUBSTRUCTURE
  1 ****   7 GROUP 4 **** **** 0

# MOE 2024.06 (io_trps.svl 2023.06)
