@<TRIPOS>MOLECULE
NONAME
47 49 1 0 0 
SMALL
USER_CHARGES


@<TRIPOS>ATOM
  1 O       -8.9600     3.1220     0.7450 O.2   1 <1>  -0.5700 
  2 C       -7.8890     3.5000     0.3460 C.2   1 <1>   0.4230 
  3 C       -6.7190     2.6450     0.2750 C.ar  1 <1>   0.0860 
  4 C       -7.8030     4.9560    -0.0880 C.3   1 <1>  -0.0990 
  5 C       -5.4710     3.0970    -0.1630 C.ar  1 <1>  -0.1500 
  6 C       -6.8040     1.3030     0.6540 C.ar  1 <1>  -0.1500 
  7 C       -9.1710     5.6300     0.0460 C.3   1 <1>   0.3430 
  8 C       -4.3690     2.2650    -0.2210 C.ar  1 <1>   0.0820 
  9 C       -5.7100     0.4600     0.6010 C.ar  1 <1>  -0.1500 
 10 N       -9.1260     7.0580    -0.3900 N.4   1 <1>  -0.9590 
 11 O       -3.2150     2.8230    -0.6620 O.3   1 <1>  -0.3630 
 12 C       -4.4880     0.9350     0.1640 C.ar  1 <1>  -0.1500 
 13 C       -8.3180     7.9530     0.4980 C.3   1 <1>   0.3430 
 14 C      -10.4760     7.6630    -0.4620 C.3   1 <1>   0.3430 
 15 C       -2.0270     2.0680    -0.7650 C.3   1 <1>   0.0400 
 16 C       -9.0350     9.3080     0.5510 C.3   1 <1>   0.0640 
 17 C      -10.1960     9.1530    -0.4390 C.3   1 <1>  -0.1600 
 18 C       -8.0820    10.4770     0.2850 C.ar  1 <1>  -0.1430 
 19 C       -6.8350    10.4950     0.9000 C.ar  1 <1>  -0.1500 
 20 C       -8.4280    11.5450    -0.5370 C.ar  1 <1>  -0.1500 
 21 C       -5.9470    11.5310     0.6760 C.ar  1 <1>  -0.1500 
 22 C       -7.5390    12.5820    -0.7630 C.ar  1 <1>  -0.1500 
 23 C       -6.2960    12.5740    -0.1600 C.ar  1 <1>  -0.1500 
 24 H       -7.4840     4.9890    -1.1140 H     1 <1>   0.0800 
 25 H       -7.0820     5.4510     0.5360 H     1 <1>   0.0800 
 26 H       -5.3230     4.1140    -0.4720 H     1 <1>   0.1500 
 27 H       -7.7470     0.9120     0.9990 H     1 <1>   0.1500 
 28 H       -9.5010     5.5660     1.0710 H     1 <1>   0.0800 
 29 H       -9.8810     5.0870    -0.5580 H     1 <1>   0.0800 
 30 H       -5.8100    -0.5700     0.9020 H     1 <1>   0.1500 
 31 H       -8.7230     7.1130    -1.3360 H     1 <1>   0.4500 
 32 H       -3.6510     0.2620     0.1310 H     1 <1>   0.1500 
 33 H       -7.3230     8.0700     0.1000 H     1 <1>   0.0800 
 34 H       -8.2530     7.5450     1.4940 H     1 <1>   0.0800 
 35 H      -11.0530     7.3870     0.4070 H     1 <1>   0.0800 
 36 H      -11.0030     7.3660    -1.3550 H     1 <1>   0.0800 
 37 H       -1.2510     2.7140    -1.1350 H     1 <1>   0.0800 
 38 H       -2.1860     1.2580    -1.4550 H     1 <1>   0.0800 
 39 H       -1.7610     1.6990     0.2090 H     1 <1>   0.0800 
 40 H       -9.4360     9.4290     1.5430 H     1 <1>   0.0800 
 41 H      -11.0610     9.7190    -0.1410 H     1 <1>   0.0800 
 42 H       -9.9040     9.4500    -1.4310 H     1 <1>   0.0800 
 43 H       -6.5310     9.7120     1.5720 H     1 <1>   0.1500 
 44 H       -9.3890    11.6050    -1.0140 H     1 <1>   0.1500 
 45 H       -4.9820    11.5320     1.1550 H     1 <1>   0.1500 
 46 H       -7.8160    13.4000    -1.4050 H     1 <1>   0.1500 
 47 H       -5.6050    13.3810    -0.3360 H     1 <1>   0.1500 
@<TRIPOS>BOND
  1   1   2  2   
  2   2   3  1   
  3   2   4  1   
  4   3   5  ar  
  5   3   6  ar  
  6   4   7  1   
  7   4  24  1   
  8   4  25  1   
  9   5   8  ar  
 10   5  26  1   
 11   6   9  ar  
 12   6  27  1   
 13   7  10  1   
 14   7  28  1   
 15   7  29  1   
 16   8  11  1   
 17   8  12  ar  
 18   9  12  ar  
 19   9  30  1   
 20  10  13  1   
 21  10  14  1   
 22  10  31  1   
 23  11  15  1   
 24  12  32  1   
 25  13  16  1   
 26  13  33  1   
 27  13  34  1   
 28  14  17  1   
 29  14  35  1   
 30  14  36  1   
 31  15  37  1   
 32  15  38  1   
 33  15  39  1   
 34  16  17  1   
 35  16  18  1   
 36  16  40  1   
 37  17  41  1   
 38  17  42  1   
 39  18  19  ar  
 40  18  20  ar  
 41  19  21  ar  
 42  19  43  1   
 43  20  22  ar  
 44  20  44  1   
 45  21  23  ar  
 46  21  45  1   
 47  22  23  ar  
 48  22  46  1   
 49  23  47  1   
@<TRIPOS>SUBSTRUCTURE
  1 ****   4 GROUP 4 **** **** 0

# MOE 2024.06 (io_trps.svl 2023.06)
