@<TRIPOS>MOLECULE
NONAME
48 51 1 0 0 
SMALL
USER_CHARGES


@<TRIPOS>ATOM
  1 F        1.4710     1.6170    -1.6050 F     1 <1>  -0.1900 
  2 C        0.7380     2.0920    -0.6340 C.ar  1 <1>   0.1900 
  3 C        1.2940     2.2240     0.6290 C.ar  1 <1>  -0.1440 
  4 C       -0.5620     2.4630    -0.9180 C.ar  1 <1>  -0.1500 
  5 C        0.4960     2.7400     1.6420 C.ar  1 <1>  -0.1500 
  6 C        2.7310     1.8060     0.8870 C.3   1 <1>   0.4980 
  7 C       -1.3400     2.9850     0.1000 C.ar  1 <1>  -0.1500 
  8 C       -0.8100     3.1200     1.3740 C.ar  1 <1>  -0.1500 
  9 N        3.7150     2.7600     0.2830 N.pl3 1 <1>  -0.7640 
 10 C        5.0360     2.3720     0.0370 C.2   1 <1>   0.2770 
 11 C        3.5990     4.0170    -0.1550 C.cat 1 <1>   0.6560 
 12 C        5.8090     1.1850     0.2750 C.2   1 <1>   0.7030 
 13 C        5.6560     3.4230    -0.5560 C.2   1 <1>   0.4260 
 14 N        4.7570     4.4270    -0.6610 N.pl3 1 <1>  -0.7000 
 15 C        2.3890     4.9720    -0.1420 C.3   1 <1>   0.2540 
 16 O        5.3610     0.1960     0.8190 O.2   1 <1>  -0.5700 
 17 N        7.1140     1.1940    -0.1240 N.am  1 <1>  -0.4900 
 18 N        6.9850     3.4140    -0.9550 N.am  1 <1>  -0.4360 
 19 N        2.7970     6.3930    -0.3310 N.3   1 <1>  -0.8100 
 20 C        7.7190     2.2630    -0.7190 C.2   1 <1>   0.6900 
 21 C        7.5960     4.6020    -1.6190 C.3   1 <1>   0.0600 
 22 C        1.6630     7.2010    -0.8370 C.3   1 <1>   0.1100 
 23 C        3.2850     6.9940     0.9360 C.3   1 <1>   0.1100 
 24 O        8.8860     2.1700    -1.0190 O.2   1 <1>  -0.5700 
 25 C        2.0460     8.6880    -0.9630 C.3   1 <1>   0.1200 
 26 C        3.6290     8.4820     0.7490 C.3   1 <1>   0.1200 
 27 O        2.5180     9.1700     0.2600 O.3   1 <1>  -0.5600 
 28 H       -0.9570     2.3430    -1.9120 H     1 <1>   0.1500 
 29 H        0.8750     2.8500     2.6450 H     1 <1>   0.1500 
 30 H        2.8800     0.8240     0.4680 H     1 <1>   0.0800 
 31 H        2.9100     1.7360     1.9470 H     1 <1>   0.0800 
 32 H       -2.3590     3.2790    -0.0950 H     1 <1>   0.1500 
 33 H       -1.4250     3.5200     2.1640 H     1 <1>   0.1500 
 34 H        4.8610     5.3730    -1.0420 H     1 <1>   0.4500 
 35 H        1.8450     4.8730     0.7790 H     1 <1>   0.0800 
 36 H        1.7400     4.6810    -0.9490 H     1 <1>   0.0800 
 37 H        7.6820     0.3640     0.0350 H     1 <1>   0.3700 
 38 H        6.9920     4.9060    -2.4570 H     1 <1>   0.0800 
 39 H        8.5840     4.3740    -1.9810 H     1 <1>   0.0800 
 40 H        7.6690     5.4150    -0.9180 H     1 <1>   0.0800 
 41 H        0.8200     7.1200    -0.1720 H     1 <1>   0.0800 
 42 H        1.3630     6.8390    -1.8060 H     1 <1>   0.0800 
 43 H        4.1640     6.4750     1.2780 H     1 <1>   0.0800 
 44 H        2.5300     6.9160     1.7010 H     1 <1>   0.0800 
 45 H        1.1870     9.2740    -1.2370 H     1 <1>   0.0800 
 46 H        2.8110     8.8250    -1.7080 H     1 <1>   0.0800 
 47 H        4.4440     8.6080     0.0590 H     1 <1>   0.0800 
 48 H        3.8990     8.9260     1.6910 H     1 <1>   0.0800 
@<TRIPOS>BOND
  1   1   2  1   
  2   2   3  ar  
  3   2   4  ar  
  4   3   5  ar  
  5   3   6  1   
  6   4   7  ar  
  7   4  28  1   
  8   5   8  ar  
  9   5  29  1   
 10   6   9  1   
 11   6  30  1   
 12   6  31  1   
 13   7   8  ar  
 14   7  32  1   
 15   8  33  1   
 16   9  10  1   
 17   9  11  ar  
 18  10  12  1   
 19  10  13  2   
 20  11  14  ar  
 21  11  15  1   
 22  12  16  2   
 23  12  17  am  
 24  13  14  1   
 25  13  18  1   
 26  14  34  1   
 27  15  19  1   
 28  15  35  1   
 29  15  36  1   
 30  17  20  am  
 31  17  37  1   
 32  18  20  am  
 33  18  21  1   
 34  19  22  1   
 35  19  23  1   
 36  20  24  2   
 37  21  38  1   
 38  21  39  1   
 39  21  40  1   
 40  22  25  1   
 41  22  41  1   
 42  22  42  1   
 43  23  26  1   
 44  23  43  1   
 45  23  44  1   
 46  25  27  1   
 47  25  45  1   
 48  25  46  1   
 49  26  27  1   
 50  26  47  1   
 51  26  48  1   
@<TRIPOS>SUBSTRUCTURE
  1 ****  11 GROUP 4 **** **** 0

# MOE 2024.06 (io_trps.svl 2023.06)
