@<TRIPOS>MOLECULE
NONAME
31 31 1 0 0 
SMALL
USER_CHARGES


@<TRIPOS>ATOM
  1 I       -1.0140     1.0990    -1.9560 I     1 <1>  -0.0810 
  2 C        0.3080     2.1430    -0.6390 C.ar  1 <1>   0.0810 
  3 C       -0.1680     3.1320     0.2150 C.ar  1 <1>  -0.1440 
  4 C        1.6400     1.7760    -0.6900 C.ar  1 <1>  -0.1500 
  5 C        0.7560     3.7580     1.0380 C.ar  1 <1>  -0.1500 
  6 C       -1.6320     3.5470     0.2800 C.3   1 <1>  -0.0960 
  7 C        2.5590     2.4120     0.1370 C.ar  1 <1>   0.1170 
  8 C        2.0940     3.4020     0.9980 C.ar  1 <1>  -0.1500 
  9 N        3.9270     2.0960     0.1560 N.am  1 <1>  -0.5470 
 10 C        4.7130     1.4460    -0.7550 C.2   1 <1>   0.5690 
 11 O        4.3200     1.0270    -1.8130 O.2   1 <1>  -0.5700 
 12 C        6.1780     1.2690    -0.4180 C.3   1 <1>  -0.0990 
 13 C        7.0320     2.3790    -1.0540 C.3   1 <1>  -0.0990 
 14 C        8.4870     2.2610    -0.6580 C.2   1 <1>   0.6590 
 15 O        9.3340     1.9300    -1.4440 O.2   1 <1>  -0.5700 
 16 O        8.7610     2.5420     0.6090 O.3   1 <1>  -0.4300 
 17 C       10.0810     2.4730     1.1100 C.3   1 <1>   0.0400 
 18 H        1.9510     1.0020    -1.3640 H     1 <1>   0.1500 
 19 H        0.4370     4.5300     1.7170 H     1 <1>   0.1500 
 20 H       -1.9580     3.9130    -0.6770 H     1 <1>   0.0800 
 21 H       -1.7790     4.3270     1.0050 H     1 <1>   0.0800 
 22 H       -2.2430     2.7080     0.5630 H     1 <1>   0.0800 
 23 H        2.7850     3.9070     1.6470 H     1 <1>   0.1500 
 24 H        4.4200     2.4380     0.9780 H     1 <1>   0.3700 
 25 H        6.5010     0.3130    -0.7910 H     1 <1>   0.0800 
 26 H        6.3060     1.2670     0.6490 H     1 <1>   0.0800 
 27 H        6.6730     3.3440    -0.7490 H     1 <1>   0.0800 
 28 H        6.9570     2.3180    -2.1260 H     1 <1>   0.0800 
 29 H       10.6990     3.1600     0.5570 H     1 <1>   0.0800 
 30 H       10.4470     1.4680     0.9890 H     1 <1>   0.0800 
 31 H       10.0680     2.7410     2.1510 H     1 <1>   0.0800 
@<TRIPOS>BOND
  1   1   2  1   
  2   2   3  ar  
  3   2   4  ar  
  4   3   5  ar  
  5   3   6  1   
  6   4   7  ar  
  7   4  18  1   
  8   5   8  ar  
  9   5  19  1   
 10   6  20  1   
 11   6  21  1   
 12   6  22  1   
 13   7   8  ar  
 14   7   9  1   
 15   8  23  1   
 16   9  10  am  
 17   9  24  1   
 18  10  11  2   
 19  10  12  1   
 20  12  13  1   
 21  12  25  1   
 22  12  26  1   
 23  13  14  1   
 24  13  27  1   
 25  13  28  1   
 26  14  15  2   
 27  14  16  1   
 28  16  17  1   
 29  17  29  1   
 30  17  30  1   
 31  17  31  1   
@<TRIPOS>SUBSTRUCTURE
  1 ****   9 GROUP 4 **** **** 0

# MOE 2024.06 (io_trps.svl 2023.06)
