@<TRIPOS>MOLECULE
NONAME
34 33 1 0 0 
SMALL
USER_CHARGES


@<TRIPOS>ATOM
  1 P        0.6420     0.4810    -0.1810 P.3   1 <1>   1.2420 
  2 O        0.4120     0.3940     1.2590 O.2   1 <1>  -0.7000 
  3 O        1.5450     1.7390    -0.6010 O.3   1 <1>  -0.5510 
  4 O       -0.6830     0.6750    -1.0700 O.3   1 <1>  -0.5510 
  5 C        1.4620    -0.8880    -0.9050 C.3   1 <1>  -0.0990 
  6 C        2.3400     2.3950     0.3180 C.3   1 <1>   0.2000 
  7 C       -1.7870     1.4490    -0.7450 C.3   1 <1>   0.2000 
  8 C        0.7510    -2.1180    -0.4580 C.2   1 <1>   0.6590 
  9 C        2.7120     3.7360    -0.3050 C.3   1 <1>  -0.2400 
 10 C        3.5870     1.5580     0.6100 C.3   1 <1>  -0.2400 
 11 C       -1.3810     2.8710    -0.3520 C.3   1 <1>  -0.2400 
 12 C       -2.6120     0.7450     0.3320 C.3   1 <1>  -0.2400 
 13 O        1.2580    -2.8800     0.3230 O.2   1 <1>  -0.5700 
 14 O       -0.4420    -2.3420    -0.9910 O.3   1 <1>  -0.4300 
 15 C       -1.2180    -3.4640    -0.6280 C.3   1 <1>   0.0400 
 16 H        2.4800    -0.9530    -0.5800 H     1 <1>   0.0800 
 17 H        1.4490    -0.8430    -1.9750 H     1 <1>   0.0800 
 18 H        1.7680     2.5600     1.2180 H     1 <1>   0.0800 
 19 H       -2.3820     1.5000    -1.6420 H     1 <1>   0.0800 
 20 H        3.2600     3.5880    -1.2180 H     1 <1>   0.0800 
 21 H        3.3220     4.3020     0.3750 H     1 <1>   0.0800 
 22 H        1.8210     4.3020    -0.5120 H     1 <1>   0.0800 
 23 H        4.1030     1.3170    -0.3020 H     1 <1>   0.0800 
 24 H        3.3250     0.6560     1.1330 H     1 <1>   0.0800 
 25 H        4.2550     2.1150     1.2410 H     1 <1>   0.0800 
 26 H       -0.8580     2.8790     0.5880 H     1 <1>   0.0800 
 27 H       -2.2610     3.4780    -0.2460 H     1 <1>   0.0800 
 28 H       -0.7630     3.3040    -1.1170 H     1 <1>   0.0800 
 29 H       -2.1000     0.7420     1.2770 H     1 <1>   0.0800 
 30 H       -2.8210    -0.2660     0.0340 H     1 <1>   0.0800 
 31 H       -3.5460     1.2600     0.4640 H     1 <1>   0.0800 
 32 H       -2.1420    -3.4330    -1.1780 H     1 <1>   0.0800 
 33 H       -1.4140    -3.4220     0.4300 H     1 <1>   0.0800 
 34 H       -0.6710    -4.3590    -0.8690 H     1 <1>   0.0800 
@<TRIPOS>BOND
  1   1   2  2   
  2   1   3  1   
  3   1   4  1   
  4   1   5  1   
  5   3   6  1   
  6   4   7  1   
  7   5   8  1   
  8   5  16  1   
  9   5  17  1   
 10   6   9  1   
 11   6  10  1   
 12   6  18  1   
 13   7  11  1   
 14   7  12  1   
 15   7  19  1   
 16   8  13  2   
 17   8  14  1   
 18   9  20  1   
 19   9  21  1   
 20   9  22  1   
 21  10  23  1   
 22  10  24  1   
 23  10  25  1   
 24  11  26  1   
 25  11  27  1   
 26  11  28  1   
 27  12  29  1   
 28  12  30  1   
 29  12  31  1   
 30  14  15  1   
 31  15  32  1   
 32  15  33  1   
 33  15  34  1   
@<TRIPOS>SUBSTRUCTURE
  1 ****   1 GROUP 4 **** **** 0

# MOE 2024.06 (io_trps.svl 2023.06)
