@<TRIPOS>MOLECULE
NONAME
40 42 1 0 0 
SMALL
USER_CHARGES


@<TRIPOS>ATOM
  1 CL      -2.3090     0.1710     3.1090 Cl    1 <1>  -0.1770 
  2 C       -2.6680     0.9670     1.6010 C.ar  1 <1>   0.1770 
  3 C       -3.7310     0.5160     0.8410 C.ar  1 <1>  -0.1500 
  4 C       -1.8920     2.0340     1.1920 C.ar  1 <1>  -0.1500 
  5 C       -4.0340     1.1500    -0.3570 C.ar  1 <1>  -0.1440 
  6 C       -2.1870     2.6610    -0.0070 C.ar  1 <1>  -0.1500 
  7 C       -3.2520     2.2200    -0.7770 C.ar  1 <1>  -0.1500 
  8 C       -5.2100     0.6850    -1.1950 C.3   1 <1>   0.4870 
  9 N       -6.4680     1.1060    -0.5220 N.4   1 <1>  -0.9590 
 10 C       -7.6860     0.5190    -1.1950 C.3   1 <1>   0.3430 
 11 C       -6.5730     2.6130    -0.4270 C.3   1 <1>   0.3430 
 12 C       -9.0060     0.9680    -0.5310 C.3   1 <1>   0.2090 
 13 C       -7.8840     3.0770     0.2410 C.3   1 <1>   0.2090 
 14 N       -9.0640     2.4540    -0.4260 N.pl3 1 <1>  -0.8380 
 15 C      -10.3060     3.0010    -0.1240 C.ar  1 <1>   0.1000 
 16 C      -10.8640     2.8780     1.1470 C.ar  1 <1>  -0.1500 
 17 C      -11.0090     3.6850    -1.1090 C.ar  1 <1>  -0.1500 
 18 C      -12.1020     3.4290     1.4270 C.ar  1 <1>  -0.1500 
 19 C      -12.2470     4.2390    -0.8380 C.ar  1 <1>  -0.1500 
 20 C      -12.7820     4.1050     0.4300 C.ar  1 <1>   0.1770 
 21 CL     -14.3460     4.8010     0.7800 Cl    1 <1>  -0.1770 
 22 H       -4.2960    -0.3250     1.2010 H     1 <1>   0.1500 
 23 H       -1.0690     2.3640     1.8020 H     1 <1>   0.1500 
 24 H       -1.5830     3.4900    -0.3380 H     1 <1>   0.1500 
 25 H       -3.4550     2.7230    -1.7090 H     1 <1>   0.1500 
 26 H       -5.1780    -0.3890    -1.2870 H     1 <1>   0.0800 
 27 H       -5.1530     1.1130    -2.1830 H     1 <1>   0.0800 
 28 H       -6.4280     0.7520     0.4410 H     1 <1>   0.4500 
 29 H       -7.6350    -0.5570    -1.1780 H     1 <1>   0.0800 
 30 H       -7.7130     0.8320    -2.2250 H     1 <1>   0.0800 
 31 H       -6.5360     3.0390    -1.4160 H     1 <1>   0.0800 
 32 H       -5.7400     3.0060     0.1330 H     1 <1>   0.0800 
 33 H       -9.0940     0.5310     0.4490 H     1 <1>   0.0800 
 34 H       -9.8390     0.6230    -1.1220 H     1 <1>   0.0800 
 35 H       -7.9620     4.1490     0.1680 H     1 <1>   0.0800 
 36 H       -7.8760     2.8170     1.2850 H     1 <1>   0.0800 
 37 H      -10.3300     2.3520     1.9150 H     1 <1>   0.1500 
 38 H      -10.5780     3.7810    -2.0890 H     1 <1>   0.1500 
 39 H      -12.5420     3.3400     2.4040 H     1 <1>   0.1500 
 40 H      -12.7960     4.7690    -1.5950 H     1 <1>   0.1500 
@<TRIPOS>BOND
  1   1   2  1   
  2   2   3  ar  
  3   2   4  ar  
  4   3   5  ar  
  5   3  22  1   
  6   4   6  ar  
  7   4  23  1   
  8   5   7  ar  
  9   5   8  1   
 10   6   7  ar  
 11   6  24  1   
 12   7  25  1   
 13   8   9  1   
 14   8  26  1   
 15   8  27  1   
 16   9  10  1   
 17   9  11  1   
 18   9  28  1   
 19  10  12  1   
 20  10  29  1   
 21  10  30  1   
 22  11  13  1   
 23  11  31  1   
 24  11  32  1   
 25  12  14  1   
 26  12  33  1   
 27  12  34  1   
 28  13  14  1   
 29  13  35  1   
 30  13  36  1   
 31  14  15  1   
 32  15  16  ar  
 33  15  17  ar  
 34  16  18  ar  
 35  16  37  1   
 36  17  19  ar  
 37  17  38  1   
 38  18  20  ar  
 39  18  39  1   
 40  19  20  ar  
 41  19  40  1   
 42  20  21  1   
@<TRIPOS>SUBSTRUCTURE
  1 ****  13 GROUP 4 **** **** 0

# MOE 2024.06 (io_trps.svl 2023.06)
