@<TRIPOS>MOLECULE
NONAME
34 35 1 0 0 
SMALL
USER_CHARGES


@<TRIPOS>ATOM
  1 O       -0.3130    -0.5580    -0.8380 O.2   1 <1>  -0.5700 
  2 C       -1.4540    -0.5690    -0.4820 C.2   1 <1>   0.4480 
  3 C       -2.5550     0.4280    -0.8380 C.3   1 <1>   0.0610 
  4 C       -2.0760    -1.6130     0.4150 C.3   1 <1>  -0.0990 
  5 C       -3.3810     0.4290     0.4670 C.3   1 <1>   0.0000 
  6 C       -3.4660    -0.3280    -1.8260 C.3   1 <1>  -0.1600 
  7 C       -2.0590     1.7840    -1.3700 C.3   1 <1>  -0.2400 
  8 C       -3.5470    -1.1250     0.4810 C.3   1 <1>   0.0610 
  9 C       -4.6980     1.2510     0.3740 C.3   1 <1>  -0.2400 
 10 C       -2.6090     1.0210     1.6800 C.3   1 <1>  -0.2400 
 11 C       -4.1460    -1.3860    -0.9300 C.3   1 <1>  -0.1600 
 12 C       -4.3510    -1.7610     1.6380 C.2   1 <1>   0.5690 
 13 O       -4.9410    -1.0580     2.4180 O.2   1 <1>  -0.5700 
 14 N       -4.4280    -3.1030     1.8420 N.am  1 <1>  -0.7300 
 15 C       -3.8670    -4.2630     1.1070 C.3   1 <1>   0.0600 
 16 H       -1.6080    -1.6040     1.3820 H     1 <1>   0.0800 
 17 H       -1.9690    -2.5860    -0.0240 H     1 <1>   0.0800 
 18 H       -2.8880    -0.7840    -2.6130 H     1 <1>   0.0800 
 19 H       -4.1950     0.3270    -2.2700 H     1 <1>   0.0800 
 20 H       -1.4910     1.6350    -2.2710 H     1 <1>   0.0800 
 21 H       -1.4210     2.2590    -0.6470 H     1 <1>   0.0800 
 22 H       -2.8850     2.4360    -1.5880 H     1 <1>   0.0800 
 23 H       -5.3590     0.9330    -0.4070 H     1 <1>   0.0800 
 24 H       -4.4770     2.2890     0.2090 H     1 <1>   0.0800 
 25 H       -5.2440     1.1850     1.2980 H     1 <1>   0.0800 
 26 H       -1.6210     0.6230     1.8110 H     1 <1>   0.0800 
 27 H       -3.1570     0.8430     2.5890 H     1 <1>   0.0800 
 28 H       -2.5070     2.0860     1.5680 H     1 <1>   0.0800 
 29 H       -3.9440    -2.3770    -1.2900 H     1 <1>   0.0800 
 30 H       -5.2140    -1.2470    -0.9190 H     1 <1>   0.0800 
 31 H       -4.9750    -3.3460     2.6730 H     1 <1>   0.3700 
 32 H       -2.9070    -4.5240     1.5190 H     1 <1>   0.0800 
 33 H       -3.7590    -4.0450     0.0620 H     1 <1>   0.0800 
 34 H       -4.5290    -5.1060     1.2100 H     1 <1>   0.0800 
@<TRIPOS>BOND
  1   1   2  2   
  2   2   3  1   
  3   2   4  1   
  4   3   5  1   
  5   3   6  1   
  6   3   7  1   
  7   4   8  1   
  8   4  16  1   
  9   4  17  1   
 10   5   8  1   
 11   5   9  1   
 12   5  10  1   
 13   6  11  1   
 14   6  18  1   
 15   6  19  1   
 16   7  20  1   
 17   7  21  1   
 18   7  22  1   
 19   8  11  1   
 20   8  12  1   
 21   9  23  1   
 22   9  24  1   
 23   9  25  1   
 24  10  26  1   
 25  10  27  1   
 26  10  28  1   
 27  11  29  1   
 28  11  30  1   
 29  12  13  2   
 30  12  14  am  
 31  14  15  1   
 32  14  31  1   
 33  15  32  1   
 34  15  33  1   
 35  15  34  1   
@<TRIPOS>SUBSTRUCTURE
  1 ****   8 GROUP 4 **** **** 0

# MOE 2024.06 (io_trps.svl 2023.06)
