@<TRIPOS>MOLECULE
NONAME
57 61 1 0 0 
SMALL
USER_CHARGES


@<TRIPOS>ATOM
  1 O        2.6750    -2.0880     1.8380 O.3   1 <1>  -0.3630 
  2 C        2.7600    -1.0200     1.0370 C.ar  1 <1>   0.0830 
  3 C        1.5770    -2.8650     1.3640 C.3   1 <1>   0.4000 
  4 C        1.8000    -1.0790     0.0710 C.ar  1 <1>   0.0830 
  5 C        3.6540     0.0290     1.1020 C.ar  1 <1>  -0.1500 
  6 O        1.0630    -2.1840     0.2210 O.3   1 <1>  -0.3630 
  7 C        1.6810    -0.0910    -0.8860 C.ar  1 <1>  -0.1500 
  8 C        3.5610     1.0370     0.1470 C.ar  1 <1>  -0.1440 
  9 C        2.5750     0.9720    -0.8390 C.ar  1 <1>  -0.1500 
 10 C        4.5450     2.1970     0.1800 C.3   1 <1>   0.2540 
 11 N        5.9290     1.6920     0.0840 N.3   1 <1>  -0.8100 
 12 C        6.1790     0.9620    -1.1880 C.3   1 <1>   0.1100 
 13 C        6.9370     2.7570     0.2870 C.3   1 <1>   0.1100 
 14 C        7.6360     0.4510    -1.2980 C.3   1 <1>   0.3430 
 15 C        8.3830     2.1930     0.2870 C.3   1 <1>   0.3430 
 16 N        8.3870     0.7310    -0.0320 N.4   1 <1>  -0.9590 
 17 C        9.7050     0.0720     0.0310 C.3   1 <1>   0.4810 
 18 C        9.5050    -1.4220     0.2170 C.2   1 <1>  -0.2540 
 19 C        8.3850    -2.1040     0.5150 C.2   1 <1>  -0.2880 
 20 C       10.7910    -2.2340     0.0360 C.3   1 <1>   0.1160 
 21 C        8.4480    -3.6260     0.6760 C.3   1 <1>  -0.0220 
 22 C       11.0090    -3.2900     1.1810 C.3   1 <1>   0.0000 
 23 C       10.4590    -3.4590    -0.8770 C.3   1 <1>   0.0000 
 24 C        9.9000    -4.1160     0.4280 C.3   1 <1>   0.0000 
 25 C       10.6810    -2.8310     2.6200 C.3   1 <1>  -0.2400 
 26 C       12.4060    -3.9560     1.2030 C.3   1 <1>  -0.2400 
 27 H        0.8170    -2.9170     2.1240 H     1 <1>   0.0800 
 28 H        1.9220    -3.8430     1.0770 H     1 <1>   0.0800 
 29 H        4.4010     0.0530     1.8750 H     1 <1>   0.1500 
 30 H        0.9150    -0.1560    -1.6380 H     1 <1>   0.1500 
 31 H        2.4950     1.7500    -1.5780 H     1 <1>   0.1500 
 32 H        4.4180     2.7250     1.1100 H     1 <1>   0.0800 
 33 H        4.3450     2.8820    -0.6270 H     1 <1>   0.0800 
 34 H        5.9610     1.5980    -2.0290 H     1 <1>   0.0800 
 35 H        5.5210     0.1110    -1.2500 H     1 <1>   0.0800 
 36 H        6.7580     3.2480     1.2280 H     1 <1>   0.0800 
 37 H        6.8450     3.5000    -0.4890 H     1 <1>   0.0800 
 38 H        8.1210     0.9320    -2.1300 H     1 <1>   0.0800 
 39 H        7.6200    -0.6090    -1.4940 H     1 <1>   0.0800 
 40 H        8.8170     2.3550     1.2600 H     1 <1>   0.0800 
 41 H        8.9750     2.7340    -0.4330 H     1 <1>   0.0800 
 42 H        7.7980     0.3030     0.6970 H     1 <1>   0.4500 
 43 H       10.2760     0.4540     0.8620 H     1 <1>   0.0800 
 44 H       10.2530     0.2600    -0.8780 H     1 <1>   0.0800 
 45 H        7.3990    -1.6990     0.6770 H     1 <1>   0.1500 
 46 H       11.6660    -1.6820    -0.2620 H     1 <1>   0.0000 
 47 H        7.7880    -4.0940    -0.0330 H     1 <1>   0.0800 
 48 H        8.1330    -3.9090     1.6650 H     1 <1>   0.0800 
 49 H       11.3170    -3.9520    -1.2960 H     1 <1>   0.0000 
 50 H        9.7140    -3.2610    -1.6290 H     1 <1>   0.0000 
 51 H       10.0240    -5.1830     0.4730 H     1 <1>   0.0000 
 52 H        9.7350    -2.3340     2.7100 H     1 <1>   0.0800 
 53 H       11.4400    -2.1540     2.9690 H     1 <1>   0.0800 
 54 H       10.6640    -3.6830     3.2760 H     1 <1>   0.0800 
 55 H       12.7290    -4.3200     0.2470 H     1 <1>   0.0800 
 56 H       12.3990    -4.7920     1.8800 H     1 <1>   0.0800 
 57 H       13.1420    -3.2520     1.5490 H     1 <1>   0.0800 
@<TRIPOS>BOND
  1   1   2  1   
  2   1   3  1   
  3   2   4  ar  
  4   2   5  ar  
  5   3   6  1   
  6   3  27  1   
  7   3  28  1   
  8   4   6  1   
  9   4   7  ar  
 10   5   8  ar  
 11   5  29  1   
 12   7   9  ar  
 13   7  30  1   
 14   8   9  ar  
 15   8  10  1   
 16   9  31  1   
 17  10  11  1   
 18  10  32  1   
 19  10  33  1   
 20  11  12  1   
 21  11  13  1   
 22  12  14  1   
 23  12  34  1   
 24  12  35  1   
 25  13  15  1   
 26  13  36  1   
 27  13  37  1   
 28  14  16  1   
 29  14  38  1   
 30  14  39  1   
 31  15  16  1   
 32  15  40  1   
 33  15  41  1   
 34  16  17  1   
 35  16  42  1   
 36  17  18  1   
 37  17  43  1   
 38  17  44  1   
 39  18  19  2   
 40  18  20  1   
 41  19  21  1   
 42  19  45  1   
 43  20  22  1   
 44  20  23  1   
 45  20  46  1   
 46  21  24  1   
 47  21  47  1   
 48  21  48  1   
 49  22  24  1   
 50  22  25  1   
 51  22  26  1   
 52  23  24  1   
 53  23  49  1   
 54  23  50  1   
 55  24  51  1   
 56  25  52  1   
 57  25  53  1   
 58  25  54  1   
 59  26  55  1   
 60  26  56  1   
 61  26  57  1   
@<TRIPOS>SUBSTRUCTURE
  1 ****  19 GROUP 4 **** **** 0

# MOE 2024.06 (io_trps.svl 2023.06)
