@<TRIPOS>MOLECULE
NONAME
29 29 1 0 0 
SMALL
USER_CHARGES


@<TRIPOS>ATOM
  1 I       -0.5400     0.2670     0.0550 I     1 <1>  -0.0810 
  2 C        1.4320     1.0720     0.0310 C.ar  1 <1>   0.0810 
  3 C        1.5870     2.4460     0.0190 C.ar  1 <1>  -0.1500 
  4 C        2.5050     0.2000     0.0280 C.ar  1 <1>  -0.1500 
  5 C        2.8720     2.9590     0.0040 C.ar  1 <1>  -0.1500 
  6 C        3.7860     0.7260     0.0120 C.ar  1 <1>  -0.1500 
  7 C        3.9720     2.1100     0.0000 C.ar  1 <1>   0.0830 
  8 O        5.1920     2.7050    -0.0160 O.3   1 <1>  -0.3630 
  9 C        6.3770     1.9510    -0.0210 C.3   1 <1>   0.1200 
 10 C        7.5400     2.9450    -0.0390 C.3   1 <1>   0.3430 
 11 N        8.8680     2.2560    -0.0470 N.4   1 <1>  -0.9060 
 12 C        9.9870     3.2470    -0.0640 C.3   1 <1>   0.3430 
 13 C       11.3600     2.5630    -0.0720 C.3   1 <1>   0.1200 
 14 O       12.3160     3.5600    -0.0880 O.3   1 <1>  -0.6800 
 15 H        0.7300     3.0960     0.0220 H     1 <1>   0.1500 
 16 H        2.3410    -0.8630     0.0370 H     1 <1>   0.1500 
 17 H        3.0240     4.0240    -0.0060 H     1 <1>   0.1500 
 18 H        4.6120     0.0420     0.0100 H     1 <1>   0.1500 
 19 H        6.3760     1.3370    -0.9050 H     1 <1>   0.0800 
 20 H        6.3920     1.3500     0.8720 H     1 <1>   0.0800 
 21 H        7.4650     3.5770     0.8320 H     1 <1>   0.0800 
 22 H        7.4490     3.5640    -0.9170 H     1 <1>   0.0800 
 23 H        8.9400     1.6490    -0.8740 H     1 <1>   0.4500 
 24 H        8.9550     1.6610     0.7880 H     1 <1>   0.4500 
 25 H        9.9260     3.8810     0.8060 H     1 <1>   0.0800 
 26 H        9.9090     3.8680    -0.9420 H     1 <1>   0.0800 
 27 H       11.4940     1.9610    -0.9550 H     1 <1>   0.0800 
 28 H       11.5100     1.9740     0.8160 H     1 <1>   0.0800 
 29 H       13.2280     3.1970    -0.0940 H     1 <1>   0.4000 
@<TRIPOS>BOND
  1   1   2  1   
  2   2   3  ar  
  3   2   4  ar  
  4   3   5  ar  
  5   3  15  1   
  6   4   6  ar  
  7   4  16  1   
  8   5   7  ar  
  9   5  17  1   
 10   6   7  ar  
 11   6  18  1   
 12   7   8  1   
 13   8   9  1   
 14   9  10  1   
 15   9  19  1   
 16   9  20  1   
 17  10  11  1   
 18  10  21  1   
 19  10  22  1   
 20  11  12  1   
 21  11  23  1   
 22  11  24  1   
 23  12  13  1   
 24  12  25  1   
 25  12  26  1   
 26  13  14  1   
 27  13  27  1   
 28  13  28  1   
 29  14  29  1   
@<TRIPOS>SUBSTRUCTURE
  1 ****   8 GROUP 4 **** **** 0

# MOE 2024.06 (io_trps.svl 2023.06)
