@<TRIPOS>MOLECULE
NONAME
30 31 1 0 0 
SMALL
USER_CHARGES


@<TRIPOS>ATOM
  1 O       -0.3430     3.8460    -0.2320 O.2   1 <1>  -0.5700 
  2 C        0.0730     2.7810     0.1620 C.2   1 <1>   0.5690 
  3 N       -0.6640     1.6430     0.1180 N.am  1 <1>  -0.5790 
  4 C        1.4710     2.7080     0.7500 C.3   1 <1>   0.0440 
  5 C       -2.0210     1.4940    -0.4190 C.3   1 <1>   0.0490 
  6 C        2.3110     1.5870     0.1350 C.ar  1 <1>  -0.1440 
  7 C       -2.9170     0.4850     0.2160 C.3   1 <1>  -0.2000 
  8 C       -2.3470     0.2340    -1.1480 C.3   1 <1>  -0.2000 
  9 C        2.1890     0.2660     0.5620 C.ar  1 <1>   0.0820 
 10 C        3.2120     1.8980    -0.8720 C.ar  1 <1>  -0.1500 
 11 O        1.2790    -0.0040     1.5370 O.3   1 <1>  -0.3630 
 12 C        2.9800    -0.7230    -0.0190 C.ar  1 <1>  -0.1500 
 13 C        3.9930     0.9110    -1.4470 C.ar  1 <1>  -0.1500 
 14 C        1.1860    -1.2810     2.1310 C.3   1 <1>   0.0400 
 15 C        3.8780    -0.3980    -1.0190 C.ar  1 <1>  -0.1500 
 16 H       -0.2130     0.7840     0.4520 H     1 <1>   0.3700 
 17 H        1.3880     2.5650     1.8110 H     1 <1>   0.0800 
 18 H        1.9570     3.6540     0.5960 H     1 <1>   0.0800 
 19 H       -2.4440     2.4220    -0.7700 H     1 <1>   0.1000 
 20 H       -3.9660     0.7090     0.2970 H     1 <1>   0.1000 
 21 H       -2.5470    -0.0790     1.0540 H     1 <1>   0.1000 
 22 H       -1.5730    -0.5040    -1.2700 H     1 <1>   0.1000 
 23 H       -3.0070     0.2880    -1.9950 H     1 <1>   0.1000 
 24 H        3.3100     2.9120    -1.2180 H     1 <1>   0.1500 
 25 H        2.9110    -1.7490     0.2880 H     1 <1>   0.1500 
 26 H        4.6900     1.1640    -2.2280 H     1 <1>   0.1500 
 27 H        0.4470    -1.2350     2.9110 H     1 <1>   0.0800 
 28 H        2.1420    -1.5420     2.5500 H     1 <1>   0.0800 
 29 H        0.8850    -1.9950     1.3850 H     1 <1>   0.0800 
 30 H        4.4880    -1.1640    -1.4670 H     1 <1>   0.1500 
@<TRIPOS>BOND
  1   1   2  2   
  2   2   3  am  
  3   2   4  1   
  4   3   5  1   
  5   3  16  1   
  6   4   6  1   
  7   4  17  1   
  8   4  18  1   
  9   5   7  1   
 10   5   8  1   
 11   5  19  1   
 12   6   9  ar  
 13   6  10  ar  
 14   7   8  1   
 15   7  20  1   
 16   7  21  1   
 17   8  22  1   
 18   8  23  1   
 19   9  11  1   
 20   9  12  ar  
 21  10  13  ar  
 22  10  24  1   
 23  11  14  1   
 24  12  15  ar  
 25  12  25  1   
 26  13  15  ar  
 27  13  26  1   
 28  14  27  1   
 29  14  28  1   
 30  14  29  1   
 31  15  30  1   
@<TRIPOS>SUBSTRUCTURE
  1 ****   6 GROUP 4 **** **** 0

# MOE 2024.06 (io_trps.svl 2023.06)
