@<TRIPOS>MOLECULE
NONAME
42 43 1 0 0 
SMALL
USER_CHARGES


@<TRIPOS>ATOM
  1 O        0.7770     2.4030    -2.1410 O.2   1 <1>  -0.5700 
  2 C        0.1260     2.2440    -1.1350 C.2   1 <1>   0.5690 
  3 N        0.6340     1.6710    -0.0080 N.am  1 <1>  -0.7300 
  4 C       -1.3250     2.7090    -1.1410 C.3   1 <1>   0.1810 
  5 C        1.9960     1.1440     0.2240 C.3   1 <1>   0.2200 
  6 O       -1.9660     2.4450     0.1020 O.3   1 <1>  -0.3630 
  7 C        3.0230     2.2680     0.0160 C.3   1 <1>  -0.1600 
  8 C        2.1930    -0.0950    -0.6610 C.3   1 <1>  -0.1600 
  9 C       -3.2640     2.7810     0.3050 C.ar  1 <1>   0.0820 
 10 C        4.2960     2.1280     0.8750 C.3   1 <1>  -0.1600 
 11 C        3.4600    -0.9120    -0.3640 C.3   1 <1>  -0.1600 
 12 C       -4.0660     3.3970    -0.6530 C.ar  1 <1>  -0.1500 
 13 C       -3.7980     2.4810     1.5490 C.ar  1 <1>  -0.1500 
 14 C        5.5550     1.7580     0.0770 C.3   1 <1>  -0.1600 
 15 C        4.7230    -0.4020    -1.0840 C.3   1 <1>  -0.1600 
 16 C       -5.3830     3.7040    -0.3590 C.ar  1 <1>  -0.1500 
 17 C       -5.1150     2.7900     1.8410 C.ar  1 <1>  -0.1500 
 18 C        5.7560     0.2550    -0.1570 C.3   1 <1>  -0.1600 
 19 C       -5.9080     3.4020     0.8860 C.ar  1 <1>  -0.1500 
 20 H       -0.0100     1.5810     0.7820 H     1 <1>   0.3700 
 21 H       -1.8580     2.1890    -1.9160 H     1 <1>   0.0800 
 22 H       -1.3540     3.7680    -1.3200 H     1 <1>   0.0800 
 23 H        2.0350     0.8320     1.2540 H     1 <1>   0.0800 
 24 H        2.5570     3.1950     0.3010 H     1 <1>   0.0800 
 25 H        3.2660     2.3520    -1.0280 H     1 <1>   0.0800 
 26 H        2.1770     0.1880    -1.6990 H     1 <1>   0.0800 
 27 H        1.3500    -0.7430    -0.4960 H     1 <1>   0.0800 
 28 H        4.1520     1.4360     1.6860 H     1 <1>   0.0800 
 29 H        4.4820     3.0900     1.3220 H     1 <1>   0.0800 
 30 H        3.2770    -1.9120    -0.7200 H     1 <1>   0.0800 
 31 H        3.6170    -0.9900     0.6970 H     1 <1>   0.0800 
 32 H       -3.6900     3.6440    -1.6270 H     1 <1>   0.1500 
 33 H       -3.1780     2.0060     2.2870 H     1 <1>   0.1500 
 34 H        6.4060     2.1070     0.6360 H     1 <1>   0.0800 
 35 H        5.5680     2.2820    -0.8630 H     1 <1>   0.0800 
 36 H        4.4730     0.2610    -1.8950 H     1 <1>   0.0800 
 37 H        5.2000    -1.2580    -1.5290 H     1 <1>   0.0800 
 38 H       -6.0030     4.1800    -1.0990 H     1 <1>   0.1500 
 39 H       -5.5220     2.5540     2.8090 H     1 <1>   0.1500 
 40 H        5.8000    -0.2650     0.7850 H     1 <1>   0.0800 
 41 H        6.7220     0.1370    -0.6180 H     1 <1>   0.0800 
 42 H       -6.9330     3.6420     1.1110 H     1 <1>   0.1500 
@<TRIPOS>BOND
  1   1   2  2   
  2   2   3  am  
  3   2   4  1   
  4   3   5  1   
  5   3  20  1   
  6   4   6  1   
  7   4  21  1   
  8   4  22  1   
  9   5   7  1   
 10   5   8  1   
 11   5  23  1   
 12   6   9  1   
 13   7  10  1   
 14   7  24  1   
 15   7  25  1   
 16   8  11  1   
 17   8  26  1   
 18   8  27  1   
 19   9  12  ar  
 20   9  13  ar  
 21  10  14  1   
 22  10  28  1   
 23  10  29  1   
 24  11  15  1   
 25  11  30  1   
 26  11  31  1   
 27  12  16  ar  
 28  12  32  1   
 29  13  17  ar  
 30  13  33  1   
 31  14  18  1   
 32  14  34  1   
 33  14  35  1   
 34  15  18  1   
 35  15  36  1   
 36  15  37  1   
 37  16  19  ar  
 38  16  38  1   
 39  17  19  ar  
 40  17  39  1   
 41  18  40  1   
 42  18  41  1   
 43  19  42  1   
@<TRIPOS>SUBSTRUCTURE
  1 ****   3 GROUP 4 **** **** 0

# MOE 2024.06 (io_trps.svl 2023.06)
