@<TRIPOS>MOLECULE
NONAME
54 55 1 0 0 
SMALL
USER_CHARGES


@<TRIPOS>ATOM
  1 O       -5.7550     2.7720    -0.8800 O.3   1 <1>  -0.3630 
  2 C       -7.0520     2.4800    -0.6090 C.ar  1 <1>   0.0830 
  3 C       -4.9550     3.4870     0.0370 C.3   1 <1>   0.1200 
  4 C       -7.6910     2.8020     0.5830 C.ar  1 <1>  -0.1500 
  5 C       -7.7600     1.8220    -1.5960 C.ar  1 <1>  -0.1500 
  6 C       -3.5600     3.6630    -0.5750 C.3   1 <1>   0.2000 
  7 C       -9.0230     2.4720     0.7890 C.ar  1 <1>  -0.1440 
  8 C       -9.0860     1.4910    -1.3970 C.ar  1 <1>  -0.1500 
  9 O       -3.0880     2.4170    -0.9940 O.3   1 <1>  -0.6800 
 10 C       -2.5470     4.2760     0.4150 C.3   1 <1>   0.3430 
 11 C       -9.7370     1.8070    -0.2110 C.ar  1 <1>  -0.1440 
 12 C       -9.6560     2.8570     2.1210 C.3   1 <1>  -0.0970 
 13 N       -1.1520     3.9310     0.0080 N.4   1 <1>  -0.9590 
 14 C      -11.2130     1.4100    -0.0570 C.3   1 <1>   0.0630 
 15 C       -0.1930     3.8430     1.1410 C.3   1 <1>   0.3430 
 16 C       -0.6390     4.7560    -1.1310 C.3   1 <1>   0.3430 
 17 C      -11.3830    -0.1110    -0.1340 C.3   1 <1>  -0.2400 
 18 C      -12.0820     2.1070    -1.1100 C.3   1 <1>  -0.2400 
 19 C        1.0440     3.0390     0.6960 C.3   1 <1>  -0.0800 
 20 C        0.8880     4.6450    -1.2700 C.3   1 <1>  -0.1600 
 21 C        1.4230     3.2910    -0.7820 C.3   1 <1>  -0.1600 
 22 C        0.8390     1.5360     0.9390 C.3   1 <1>  -0.2400 
 23 H       -4.9030     2.9230     0.9520 H     1 <1>   0.0800 
 24 H       -5.4180     4.4420     0.2180 H     1 <1>   0.0800 
 25 H       -7.1630     3.3100     1.3640 H     1 <1>   0.1500 
 26 H       -7.2740     1.5700    -2.5210 H     1 <1>   0.1500 
 27 H       -3.6400     4.2910    -1.4450 H     1 <1>   0.0800 
 28 H       -9.6120     0.9800    -2.1830 H     1 <1>   0.1500 
 29 H       -3.8370     1.9310    -1.4160 H     1 <1>   0.4000 
 30 H       -2.7430     3.8610     1.3900 H     1 <1>   0.0800 
 31 H       -2.6770     5.3440     0.4770 H     1 <1>   0.0800 
 32 H       -8.9520     3.3590     2.7590 H     1 <1>   0.0800 
 33 H      -10.0000     1.9760     2.6320 H     1 <1>   0.0800 
 34 H      -10.4870     3.5190     1.9550 H     1 <1>   0.0800 
 35 H       -1.2520     2.9670    -0.3680 H     1 <1>   0.4500 
 36 H      -11.5840     1.7150     0.9030 H     1 <1>   0.0800 
 37 H       -0.6500     3.3590     1.9890 H     1 <1>   0.0800 
 38 H        0.1070     4.8360     1.4340 H     1 <1>   0.0800 
 39 H       -0.9030     5.7910    -0.9900 H     1 <1>   0.0800 
 40 H       -1.1030     4.4140    -2.0430 H     1 <1>   0.0800 
 41 H      -11.1080    -0.4830    -1.1040 H     1 <1>   0.0800 
 42 H      -12.4060    -0.3820     0.0580 H     1 <1>   0.0800 
 43 H      -10.7590    -0.5840     0.6030 H     1 <1>   0.0800 
 44 H      -11.8220     1.7850    -2.1020 H     1 <1>   0.0800 
 45 H      -11.9420     3.1720    -1.0490 H     1 <1>   0.0800 
 46 H      -13.1200     1.8880    -0.9400 H     1 <1>   0.0800 
 47 H        1.8640     3.3590     1.3170 H     1 <1>   0.0800 
 48 H        1.3500     5.4360    -0.7050 H     1 <1>   0.0800 
 49 H        1.1580     4.7970    -2.3010 H     1 <1>   0.0800 
 50 H        1.0100     2.5180    -1.4100 H     1 <1>   0.0800 
 51 H        2.4940     3.2530    -0.8930 H     1 <1>   0.0800 
 52 H        0.0130     1.1550     0.3630 H     1 <1>   0.0800 
 53 H        0.6480     1.3440     1.9800 H     1 <1>   0.0800 
 54 H        1.7260     0.9920     0.6600 H     1 <1>   0.0800 
@<TRIPOS>BOND
  1   1   2  1   
  2   1   3  1   
  3   2   4  ar  
  4   2   5  ar  
  5   3   6  1   
  6   3  23  1   
  7   3  24  1   
  8   4   7  ar  
  9   4  25  1   
 10   5   8  ar  
 11   5  26  1   
 12   6   9  1   
 13   6  10  1   
 14   6  27  1   
 15   7  11  ar  
 16   7  12  1   
 17   8  11  ar  
 18   8  28  1   
 19   9  29  1   
 20  10  13  1   
 21  10  30  1   
 22  10  31  1   
 23  11  14  1   
 24  12  32  1   
 25  12  33  1   
 26  12  34  1   
 27  13  15  1   
 28  13  16  1   
 29  13  35  1   
 30  14  17  1   
 31  14  18  1   
 32  14  36  1   
 33  15  19  1   
 34  15  37  1   
 35  15  38  1   
 36  16  20  1   
 37  16  39  1   
 38  16  40  1   
 39  17  41  1   
 40  17  42  1   
 41  17  43  1   
 42  18  44  1   
 43  18  45  1   
 44  18  46  1   
 45  19  21  1   
 46  19  22  1   
 47  19  47  1   
 48  20  21  1   
 49  20  48  1   
 50  20  49  1   
 51  21  50  1   
 52  21  51  1   
 53  22  52  1   
 54  22  53  1   
 55  22  54  1   
@<TRIPOS>SUBSTRUCTURE
  1 ****   3 GROUP 4 **** **** 0

# MOE 2024.06 (io_trps.svl 2023.06)
