@<TRIPOS>MOLECULE
NONAME
42 44 1 0 0 
SMALL
USER_CHARGES


@<TRIPOS>ATOM
  1 S       -0.7250     0.7340     1.6210 S.o2  1 <1>   1.5010 
  2 O       -1.5070     1.2200     2.7380 O.2   1 <1>  -0.6500 
  3 O        0.1210    -0.4270     1.7970 O.2   1 <1>  -0.6500 
  4 N       -1.8240     0.3490     0.3920 N.am  1 <1>  -0.8490 
  5 C        0.2290     2.0850     0.9070 C.2   1 <1>  -0.0630 
  6 C       -2.5710    -0.8790     0.7130 C.3   1 <1>   0.1960 
  7 C       -2.7870     1.4390     0.1380 C.3   1 <1>   0.1960 
  8 C        0.9850     2.0220    -0.2600 C.2   1 <1>   0.1080 
  9 C        0.3840     3.3690     1.3170 C.2   1 <1>  -0.3020 
 10 C       -3.4970    -1.3150    -0.4390 C.3   1 <1>   0.2090 
 11 C       -3.7510     1.1190    -1.0240 C.3   1 <1>   0.2090 
 12 N        1.5470     3.1540    -0.5520 N.2   1 <1>  -0.7070 
 13 C        1.1640     0.7960    -1.1310 C.3   1 <1>  -0.0590 
 14 N        1.1800     3.9870     0.4290 N.pl3 1 <1>   0.3140 
 15 N       -4.4120    -0.2170    -0.8750 N.pl3 1 <1>  -0.8380 
 16 C        1.6340     5.3810     0.4600 C.3   1 <1>   0.0160 
 17 C       -5.7780    -0.3220    -0.5650 C.ar  1 <1>   0.1000 
 18 C       -6.4580     0.4310     0.4020 C.ar  1 <1>   0.1900 
 19 C       -6.5350    -1.2540    -1.2680 C.ar  1 <1>  -0.1500 
 20 F       -5.8130     1.3230     1.1160 F     1 <1>  -0.1900 
 21 C       -7.8060     0.2770     0.6640 C.ar  1 <1>  -0.1500 
 22 C       -7.8880    -1.4240    -1.0200 C.ar  1 <1>  -0.1500 
 23 C       -8.5270    -0.6610    -0.0550 C.ar  1 <1>  -0.1500 
 24 H       -3.1640    -0.7270     1.6000 H     1 <1>   0.0800 
 25 H       -1.8800    -1.6810     0.9120 H     1 <1>   0.0800 
 26 H       -2.2550     2.3420    -0.1070 H     1 <1>   0.0800 
 27 H       -3.3620     1.6330     1.0280 H     1 <1>   0.0800 
 28 H       -0.0290     3.8540     2.1830 H     1 <1>   0.1500 
 29 H       -4.0760    -2.1650    -0.1230 H     1 <1>   0.0800 
 30 H       -2.8940    -1.6190    -1.2770 H     1 <1>   0.0800 
 31 H       -3.1950     1.1240    -1.9450 H     1 <1>   0.0800 
 32 H       -4.4990     1.8890    -1.0920 H     1 <1>   0.0800 
 33 H        1.5320    -0.0240    -0.5430 H     1 <1>   0.0800 
 34 H        1.8700     1.0040    -1.9140 H     1 <1>   0.0800 
 35 H        0.2250     0.5210    -1.5760 H     1 <1>   0.0800 
 36 H        1.1670     5.8960     1.2780 H     1 <1>   0.0800 
 37 H        1.3700     5.8530    -0.4680 H     1 <1>   0.0800 
 38 H        2.7010     5.3960     0.5780 H     1 <1>   0.0800 
 39 H       -6.0500    -1.8450    -2.0220 H     1 <1>   0.1500 
 40 H       -8.2790     0.8790     1.4170 H     1 <1>   0.1500 
 41 H       -8.4470    -2.1520    -1.5820 H     1 <1>   0.1500 
 42 H       -9.5780    -0.7960     0.1330 H     1 <1>   0.1500 
@<TRIPOS>BOND
  1   1   2  2   
  2   1   3  2   
  3   1   4  am  
  4   1   5  1   
  5   4   6  1   
  6   4   7  1   
  7   5   8  1   
  8   5   9  2   
  9   6  10  1   
 10   6  24  1   
 11   6  25  1   
 12   7  11  1   
 13   7  26  1   
 14   7  27  1   
 15   8  12  2   
 16   8  13  1   
 17   9  14  1   
 18   9  28  1   
 19  10  15  1   
 20  10  29  1   
 21  10  30  1   
 22  11  15  1   
 23  11  31  1   
 24  11  32  1   
 25  12  14  1   
 26  13  33  1   
 27  13  34  1   
 28  13  35  1   
 29  14  16  1   
 30  15  17  1   
 31  16  36  1   
 32  16  37  1   
 33  16  38  1   
 34  17  18  ar  
 35  17  19  ar  
 36  18  20  1   
 37  18  21  ar  
 38  19  22  ar  
 39  19  39  1   
 40  21  23  ar  
 41  21  40  1   
 42  22  23  ar  
 43  22  41  1   
 44  23  42  1   
@<TRIPOS>SUBSTRUCTURE
  1 ****   7 GROUP 4 **** **** 0

# MOE 2024.06 (io_trps.svl 2023.06)
