@<TRIPOS>MOLECULE
NONAME
37 37 1 0 0 
SMALL
USER_CHARGES


@<TRIPOS>ATOM
  1 O       -0.1600     0.6610     0.7030 O.2   1 <1>  -0.5700 
  2 C       -0.0430     1.4400    -0.2220 C.2   1 <1>   0.6900 
  3 N        1.1790     1.7930    -0.7120 N.am  1 <1>  -0.5470 
  4 N       -1.1260     2.0090    -0.8120 N.am  1 <1>  -0.7300 
  5 C        2.4600     1.2950    -0.4260 C.ar  1 <1>   0.1170 
  6 C       -2.5510     1.8280    -0.4620 C.3   1 <1>   0.2200 
  7 C        3.5610     2.1200    -0.6240 C.ar  1 <1>  -0.1500 
  8 C        2.6800    -0.0020     0.0280 C.ar  1 <1>  -0.1500 
  9 C       -2.8080     2.2610     0.9910 C.3   1 <1>  -0.1600 
 10 C       -2.9660     0.3850    -0.7530 C.3   1 <1>  -0.2400 
 11 C        4.8460     1.6720    -0.3740 C.ar  1 <1>  -0.1500 
 12 C        3.9620    -0.4560     0.2800 C.ar  1 <1>  -0.1500 
 13 C       -4.3010     2.3890     1.3270 C.3   1 <1>  -0.2400 
 14 C        5.0530     0.3730     0.0820 C.ar  1 <1>   0.0830 
 15 O        6.2780    -0.1520     0.3520 O.3   1 <1>  -0.3620 
 16 C        7.4440     0.6250     0.2210 C.3   1 <1>   0.1200 
 17 C        8.6350    -0.2420     0.6190 C.3   1 <1>  -0.2400 
 18 H        1.1610     2.6270    -1.2860 H     1 <1>   0.3700 
 19 H       -0.9830     2.4680    -1.7070 H     1 <1>   0.3700 
 20 H       -3.1230     2.4760    -1.1050 H     1 <1>   0.0800 
 21 H        3.4140     3.1260    -0.9720 H     1 <1>   0.1500 
 22 H        1.8470    -0.6630     0.1850 H     1 <1>   0.1500 
 23 H       -2.3410     3.2160     1.1540 H     1 <1>   0.0800 
 24 H       -2.3590     1.5540     1.6670 H     1 <1>   0.0800 
 25 H       -2.4780    -0.2920    -0.0760 H     1 <1>   0.0800 
 26 H       -2.7100     0.1200    -1.7630 H     1 <1>   0.0800 
 27 H       -4.0280     0.2720    -0.6360 H     1 <1>   0.0800 
 28 H        5.6680     2.3420    -0.5390 H     1 <1>   0.1500 
 29 H        4.1220    -1.4590     0.6320 H     1 <1>   0.1500 
 30 H       -4.7830     3.0770     0.6560 H     1 <1>   0.0800 
 31 H       -4.4150     2.7560     2.3320 H     1 <1>   0.0800 
 32 H       -4.7910     1.4340     1.2620 H     1 <1>   0.0800 
 33 H        7.3610     1.4780     0.8730 H     1 <1>   0.0800 
 34 H        7.5300     0.9420    -0.8040 H     1 <1>   0.0800 
 35 H        8.5310    -0.5670     1.6380 H     1 <1>   0.0800 
 36 H        9.5440     0.3250     0.5290 H     1 <1>   0.0800 
 37 H        8.6990    -1.0990    -0.0270 H     1 <1>   0.0800 
@<TRIPOS>BOND
  1   1   2  2   
  2   2   3  am  
  3   2   4  am  
  4   3   5  1   
  5   3  18  1   
  6   4   6  1   
  7   4  19  1   
  8   5   7  ar  
  9   5   8  ar  
 10   6   9  1   
 11   6  10  1   
 12   6  20  1   
 13   7  11  ar  
 14   7  21  1   
 15   8  12  ar  
 16   8  22  1   
 17   9  13  1   
 18   9  23  1   
 19   9  24  1   
 20  10  25  1   
 21  10  26  1   
 22  10  27  1   
 23  11  14  ar  
 24  11  28  1   
 25  12  14  ar  
 26  12  29  1   
 27  13  30  1   
 28  13  31  1   
 29  13  32  1   
 30  14  15  1   
 31  15  16  1   
 32  16  17  1   
 33  16  33  1   
 34  16  34  1   
 35  17  35  1   
 36  17  36  1   
 37  17  37  1   
@<TRIPOS>SUBSTRUCTURE
  1 ****   5 GROUP 4 **** **** 0

# MOE 2024.06 (io_trps.svl 2023.06)
