@<TRIPOS>MOLECULE
NONAME
47 50 1 0 0 
SMALL
USER_CHARGES


@<TRIPOS>ATOM
  1 O       -3.4890     2.7150    -0.1810 O.2   1 <1>  -0.5700 
  2 C       -2.7830     3.7020    -0.1600 C.2   1 <1>   0.5950 
  3 C       -3.2980     5.0280    -0.2880 C.2   1 <1>  -0.0860 
  4 C       -1.3040     3.4480     0.0350 C.3   1 <1>  -0.1790 
  5 C       -4.5660     5.4730     0.0150 C.2   1 <1>  -0.0680 
  6 C       -2.6650     6.2070    -0.7510 C.2   1 <1>   0.1080 
  7 N       -4.6050     6.7900    -0.2430 N.pl3 1 <1>   0.5930 
  8 N       -5.8030     5.0550     0.4870 N.pl3 1 <1>  -0.5530 
  9 N       -3.4270     7.2500    -0.7250 N.2   1 <1>  -0.7070 
 10 C       -1.2490     6.3400    -1.2770 C.3   1 <1>  -0.0590 
 11 C       -5.8800     7.2690     0.0420 C.ar  1 <1>  -0.0230 
 12 C       -6.6190     6.1860     0.5000 C.ar  1 <1>   0.1000 
 13 C       -6.2020     3.6770     0.8330 C.3   1 <1>   0.2090 
 14 C       -6.4410     8.5350    -0.0630 C.ar  1 <1>  -0.1500 
 15 C       -7.9490     6.3610     0.8690 C.ar  1 <1>  -0.1500 
 16 C       -6.5170     2.9160    -0.4650 C.3   1 <1>   0.3430 
 17 C       -7.7640     8.7020     0.3030 C.ar  1 <1>  -0.1500 
 18 C       -8.5120     7.6200     0.7660 C.ar  1 <1>  -0.1500 
 19 N       -6.8040     1.4570    -0.2550 N.4   1 <1>  -0.9590 
 20 C       -5.5900     0.6810     0.1790 C.3   1 <1>   0.3430 
 21 C       -7.3920     0.8160    -1.4780 C.3   1 <1>   0.3430 
 22 C       -5.9140    -0.8210     0.3520 C.3   1 <1>   0.1200 
 23 C       -7.6190    -0.7000    -1.2680 C.3   1 <1>   0.1200 
 24 O       -7.2520    -1.0940     0.0270 O.3   1 <1>  -0.5600 
 25 H       -0.8650     4.2300     0.6260 H     1 <1>   0.0800 
 26 H       -0.8130     3.3900    -0.9180 H     1 <1>   0.0800 
 27 H       -1.1600     2.5170     0.5510 H     1 <1>   0.0800 
 28 H       -1.0290     5.5560    -1.9760 H     1 <1>   0.0800 
 29 H       -0.5460     6.3190    -0.4660 H     1 <1>   0.0800 
 30 H       -1.1420     7.2810    -1.7880 H     1 <1>   0.0800 
 31 H       -7.0670     3.7060     1.4690 H     1 <1>   0.0800 
 32 H       -5.3930     3.2130     1.3670 H     1 <1>   0.0800 
 33 H       -5.8470     9.3590    -0.4210 H     1 <1>   0.1500 
 34 H       -8.5290     5.5350     1.2320 H     1 <1>   0.1500 
 35 H       -5.6750     3.0190    -1.1290 H     1 <1>   0.0800 
 36 H       -7.3670     3.3880    -0.9270 H     1 <1>   0.0800 
 37 H       -8.2220     9.6740     0.2310 H     1 <1>   0.1500 
 38 H       -9.5400     7.7760     1.0480 H     1 <1>   0.1500 
 39 H       -7.5050     1.3190     0.4880 H     1 <1>   0.4500 
 40 H       -5.2060     1.0690     1.1080 H     1 <1>   0.0800 
 41 H       -4.8080     0.7860    -0.5550 H     1 <1>   0.0800 
 42 H       -6.7330     0.9560    -2.3190 H     1 <1>   0.0800 
 43 H       -8.3330     1.2810    -1.7230 H     1 <1>   0.0800 
 44 H       -5.7580    -1.1180     1.3750 H     1 <1>   0.0800 
 45 H       -5.2760    -1.4220    -0.2730 H     1 <1>   0.0800 
 46 H       -7.0480    -1.2730    -1.9780 H     1 <1>   0.0800 
 47 H       -8.6600    -0.9420    -1.4020 H     1 <1>   0.0800 
@<TRIPOS>BOND
  1   1   2  2   
  2   2   3  1   
  3   2   4  1   
  4   3   5  2   
  5   3   6  1   
  6   4  25  1   
  7   4  26  1   
  8   4  27  1   
  9   5   7  1   
 10   5   8  1   
 11   6   9  2   
 12   6  10  1   
 13   7   9  1   
 14   7  11  1   
 15   8  12  1   
 16   8  13  1   
 17  10  28  1   
 18  10  29  1   
 19  10  30  1   
 20  11  12  ar  
 21  11  14  ar  
 22  12  15  ar  
 23  13  16  1   
 24  13  31  1   
 25  13  32  1   
 26  14  17  ar  
 27  14  33  1   
 28  15  18  ar  
 29  15  34  1   
 30  16  19  1   
 31  16  35  1   
 32  16  36  1   
 33  17  18  ar  
 34  17  37  1   
 35  18  38  1   
 36  19  20  1   
 37  19  21  1   
 38  19  39  1   
 39  20  22  1   
 40  20  40  1   
 41  20  41  1   
 42  21  23  1   
 43  21  42  1   
 44  21  43  1   
 45  22  24  1   
 46  22  44  1   
 47  22  45  1   
 48  23  24  1   
 49  23  46  1   
 50  23  47  1   
@<TRIPOS>SUBSTRUCTURE
  1 ****   8 GROUP 4 **** **** 0

# MOE 2024.06 (io_trps.svl 2023.06)
