@<TRIPOS>MOLECULE
NONAME
33 34 1 0 0 
SMALL
USER_CHARGES


@<TRIPOS>ATOM
  1 I       -0.0770    -0.3060     1.0600 I     1 <1>  -0.0810 
  2 C       -0.0200     1.7750     0.5180 C.ar  1 <1>   0.0810 
  3 C        1.2040     2.4350     0.5330 C.ar  1 <1>   0.0820 
  4 C       -1.2040     2.4090     0.1680 C.ar  1 <1>   0.0820 
  5 O        2.3240     1.7700     0.8920 O.3   1 <1>  -0.2330 
  6 C        1.2770     3.7900     0.1800 C.ar  1 <1>   0.0280 
  7 O       -2.3670     1.7090     0.1730 O.3   1 <1>  -0.3630 
  8 C       -1.1350     3.7590    -0.1740 C.ar  1 <1>  -0.1500 
  9 C        3.5280     2.3350     0.9490 C.2   1 <1>   0.7060 
 10 C        2.5650     4.4380     0.2000 C.2   1 <1>  -0.1670 
 11 C        0.0750     4.4260    -0.1650 C.ar  1 <1>  -0.1500 
 12 C       -3.6010     2.2920    -0.1710 C.3   1 <1>   0.1200 
 13 O        4.4530     1.6270     1.2980 O.2   1 <1>  -0.5700 
 14 C        3.6560     3.7260     0.5960 C.2   1 <1>  -0.1240 
 15 C        2.6200     5.9030    -0.2450 C.3   1 <1>  -0.1020 
 16 C       -4.6760     1.2170    -0.0550 C.3   1 <1>  -0.2400 
 17 C        5.0690     4.3120     0.6980 C.3   1 <1>  -0.0220 
 18 C        5.8250     4.1450    -0.6240 C.3   1 <1>  -0.2400 
 19 H       -2.0180     4.3040    -0.4500 H     1 <1>   0.1500 
 20 H        0.0730     5.4660    -0.4330 H     1 <1>   0.1500 
 21 H       -3.5370     2.6580    -1.1810 H     1 <1>   0.0800 
 22 H       -3.7980     3.1020     0.5110 H     1 <1>   0.0800 
 23 H        2.0900     6.5200     0.4580 H     1 <1>   0.0800 
 24 H        2.1660     6.0070    -1.2140 H     1 <1>   0.0800 
 25 H        3.6190     6.2810    -0.3340 H     1 <1>   0.0800 
 26 H       -4.4600     0.4050    -0.7270 H     1 <1>   0.0800 
 27 H       -5.6350     1.6290    -0.3110 H     1 <1>   0.0800 
 28 H       -4.7200     0.8450     0.9530 H     1 <1>   0.0800 
 29 H        5.6200     3.8200     1.4820 H     1 <1>   0.0800 
 30 H        5.0370     5.3500     0.9720 H     1 <1>   0.0800 
 31 H        5.9180     3.1010    -0.8670 H     1 <1>   0.0800 
 32 H        6.8110     4.5660    -0.5410 H     1 <1>   0.0800 
 33 H        5.3020     4.6410    -1.4220 H     1 <1>   0.0800 
@<TRIPOS>BOND
  1   1   2  1   
  2   2   3  ar  
  3   2   4  ar  
  4   3   5  1   
  5   3   6  ar  
  6   4   7  1   
  7   4   8  ar  
  8   5   9  1   
  9   6  10  1   
 10   6  11  ar  
 11   7  12  1   
 12   8  11  ar  
 13   8  19  1   
 14   9  13  2   
 15   9  14  1   
 16  10  14  2   
 17  10  15  1   
 18  11  20  1   
 19  12  16  1   
 20  12  21  1   
 21  12  22  1   
 22  14  17  1   
 23  15  23  1   
 24  15  24  1   
 25  15  25  1   
 26  16  26  1   
 27  16  27  1   
 28  16  28  1   
 29  17  18  1   
 30  17  29  1   
 31  17  30  1   
 32  18  31  1   
 33  18  32  1   
 34  18  33  1   
@<TRIPOS>SUBSTRUCTURE
  1 ****   3 GROUP 4 **** **** 0

# MOE 2024.06 (io_trps.svl 2023.06)
