@<TRIPOS>MOLECULE
NONAME
36 36 1 0 0 
SMALL
USER_CHARGES


@<TRIPOS>ATOM
  1 O        0.8780     3.5200     2.5540 O.2   1 <1>  -0.5700 
  2 C        0.2740     2.9630     1.6690 C.2   1 <1>   0.5690 
  3 N        0.8710     2.0570     0.8500 N.am  1 <1>  -0.7300 
  4 C       -1.2020     3.2910     1.4740 C.3   1 <1>   0.1810 
  5 C        2.2900     1.6590     0.8860 C.3   1 <1>   0.1400 
  6 O       -1.7490     2.5890     0.3640 O.3   1 <1>  -0.3620 
  7 C        2.8410     1.6470    -0.5370 C.3   1 <1>  -0.1600 
  8 C       -3.0430     2.7530    -0.0150 C.ar  1 <1>   0.0820 
  9 C        4.3220     1.2790    -0.5410 C.3   1 <1>   0.1200 
 10 C       -3.4700     2.0790    -1.1560 C.ar  1 <1>  -0.1440 
 11 C       -3.9400     3.5580     0.6860 C.ar  1 <1>  -0.1500 
 12 O        4.7410     1.2350    -1.8640 O.3   1 <1>  -0.5600 
 13 C       -4.7820     2.2160    -1.5820 C.ar  1 <1>  -0.1500 
 14 C       -2.5110     1.1950    -1.9420 C.3   1 <1>  -0.0970 
 15 C       -5.2470     3.6860     0.2510 C.ar  1 <1>  -0.1500 
 16 C        6.0890     0.9320    -2.0200 C.3   1 <1>   0.0400 
 17 C       -5.6680     3.0160    -0.8830 C.ar  1 <1>  -0.1500 
 18 H        0.2910     1.6290     0.1220 H     1 <1>   0.3700 
 19 H       -1.3080     4.3450     1.2960 H     1 <1>   0.0800 
 20 H       -1.7450     3.0080     2.3570 H     1 <1>   0.0800 
 21 H        2.3710     0.6800     1.3260 H     1 <1>   0.0800 
 22 H        2.8460     2.3550     1.4940 H     1 <1>   0.0800 
 23 H        2.7260     2.6240    -0.9720 H     1 <1>   0.0800 
 24 H        2.3010     0.9270    -1.1250 H     1 <1>   0.0800 
 25 H        4.4770     0.3090    -0.0990 H     1 <1>   0.0800 
 26 H        4.9010     2.0210    -0.0180 H     1 <1>   0.0800 
 27 H       -3.6470     4.0910     1.5700 H     1 <1>   0.1500 
 28 H       -5.1230     1.7000    -2.4620 H     1 <1>   0.1500 
 29 H       -2.1500     0.4020    -1.3120 H     1 <1>   0.0800 
 30 H       -1.6740     1.7790    -2.2810 H     1 <1>   0.0800 
 31 H       -2.9950     0.7610    -2.7970 H     1 <1>   0.0800 
 32 H       -5.9370     4.3080     0.7940 H     1 <1>   0.1500 
 33 H        6.3090     0.9220    -3.0740 H     1 <1>   0.0800 
 34 H        6.2880    -0.0380    -1.5990 H     1 <1>   0.0800 
 35 H        6.6820     1.6880    -1.5340 H     1 <1>   0.0800 
 36 H       -6.6840     3.1160    -1.2210 H     1 <1>   0.1500 
@<TRIPOS>BOND
  1   1   2  2   
  2   2   3  am  
  3   2   4  1   
  4   3   5  1   
  5   3  18  1   
  6   4   6  1   
  7   4  19  1   
  8   4  20  1   
  9   5   7  1   
 10   5  21  1   
 11   5  22  1   
 12   6   8  1   
 13   7   9  1   
 14   7  23  1   
 15   7  24  1   
 16   8  10  ar  
 17   8  11  ar  
 18   9  12  1   
 19   9  25  1   
 20   9  26  1   
 21  10  13  ar  
 22  10  14  1   
 23  11  15  ar  
 24  11  27  1   
 25  12  16  1   
 26  13  17  ar  
 27  13  28  1   
 28  14  29  1   
 29  14  30  1   
 30  14  31  1   
 31  15  17  ar  
 32  15  32  1   
 33  16  33  1   
 34  16  34  1   
 35  16  35  1   
 36  17  36  1   
@<TRIPOS>SUBSTRUCTURE
  1 ****   6 GROUP 4 **** **** 0

# MOE 2024.06 (io_trps.svl 2023.06)
