@<TRIPOS>MOLECULE
NONAME
32 33 1 0 0 
SMALL
USER_CHARGES


@<TRIPOS>ATOM
  1 F       -0.6480     2.0310    -1.7610 F     1 <1>  -0.1900 
  2 C        0.3150     2.3380    -0.9350 C.ar  1 <1>   0.1900 
  3 C        0.0320     2.9970     0.2720 C.ar  1 <1>   0.0860 
  4 C        1.5890     1.9740    -1.3270 C.ar  1 <1>  -0.1500 
  5 C       -1.3020     3.3920     0.7000 C.2   1 <1>   0.5440 
  6 C        1.1370     3.2720     1.0910 C.ar  1 <1>  -0.1500 
  7 C        2.6310     2.2770    -0.4760 C.ar  1 <1>   0.1900 
  8 O       -1.4960     3.7170     1.8560 O.2   1 <1>  -0.5700 
  9 N       -2.3640     3.4280    -0.1580 N.am  1 <1>  -0.7300 
 10 C        2.4270     2.9210     0.7290 C.ar  1 <1>  -0.1500 
 11 F        3.8430     1.9450    -0.8190 F     1 <1>  -0.1900 
 12 C       -3.7450     3.8110     0.1770 C.3   1 <1>   0.2200 
 13 C       -4.6510     2.5870     0.0090 C.3   1 <1>  -0.1600 
 14 C       -4.1770     4.9550    -0.7460 C.3   1 <1>  -0.1600 
 15 C       -6.1250     2.9530     0.2370 C.3   1 <1>  -0.1600 
 16 C       -5.6500     5.3250    -0.5200 C.3   1 <1>  -0.1600 
 17 C       -6.5620     4.1010    -0.6840 C.3   1 <1>  -0.1600 
 18 H        1.7660     1.4710    -2.2590 H     1 <1>   0.1500 
 19 H        0.9780     3.7740     2.0320 H     1 <1>   0.1500 
 20 H       -2.2320     3.0970    -1.1160 H     1 <1>   0.3700 
 21 H        3.2640     3.1400     1.3690 H     1 <1>   0.1500 
 22 H       -3.7950     4.1480     1.2000 H     1 <1>   0.0800 
 23 H       -4.3590     1.8320     0.7170 H     1 <1>   0.0800 
 24 H       -4.5390     2.1890    -0.9840 H     1 <1>   0.0800 
 25 H       -4.0450     4.6600    -1.7720 H     1 <1>   0.0800 
 26 H       -3.5610     5.8160    -0.5550 H     1 <1>   0.0800 
 27 H       -6.2630     3.2480     1.2630 H     1 <1>   0.0800 
 28 H       -6.7430     2.0900     0.0560 H     1 <1>   0.0800 
 29 H       -5.9420     6.0900    -1.2180 H     1 <1>   0.0800 
 30 H       -5.7670     5.7240     0.4740 H     1 <1>   0.0800 
 31 H       -7.5780     4.3760    -0.4600 H     1 <1>   0.0800 
 32 H       -6.5300     3.7680    -1.7080 H     1 <1>   0.0800 
@<TRIPOS>BOND
  1   1   2  1   
  2   2   3  ar  
  3   2   4  ar  
  4   3   5  1   
  5   3   6  ar  
  6   4   7  ar  
  7   4  18  1   
  8   5   8  2   
  9   5   9  am  
 10   6  10  ar  
 11   6  19  1   
 12   7  10  ar  
 13   7  11  1   
 14   9  12  1   
 15   9  20  1   
 16  10  21  1   
 17  12  13  1   
 18  12  14  1   
 19  12  22  1   
 20  13  15  1   
 21  13  23  1   
 22  13  24  1   
 23  14  16  1   
 24  14  25  1   
 25  14  26  1   
 26  15  17  1   
 27  15  27  1   
 28  15  28  1   
 29  16  17  1   
 30  16  29  1   
 31  16  30  1   
 32  17  31  1   
 33  17  32  1   
@<TRIPOS>SUBSTRUCTURE
  1 ****   5 GROUP 4 **** **** 0

# MOE 2024.06 (io_trps.svl 2023.06)
