@<TRIPOS>MOLECULE
NONAME
49 51 1 0 0 
SMALL
USER_CHARGES


@<TRIPOS>ATOM
  1 O        0.1050    -0.4690    -1.6200 O.2   1 <1>  -0.5700 
  2 C        0.9640    -0.9690    -0.9130 C.2   1 <1>   0.5440 
  3 N        1.7620    -0.1320    -0.1630 N.am  1 <1>  -0.6600 
  4 C        1.0980    -2.4110    -0.8620 C.ar  1 <1>   0.0860 
  5 C        2.4850    -0.5390     1.0790 C.3   1 <1>   0.1400 
  6 C        1.8220     1.3380    -0.4130 C.3   1 <1>   0.1400 
  7 C       -0.0170    -3.2300    -0.6180 C.ar  1 <1>   0.1170 
  8 C        2.3420    -3.0170    -1.0540 C.ar  1 <1>  -0.1500 
  9 C        3.9010     0.0610     1.0950 C.3   1 <1>   0.1200 
 10 C        3.2700     1.8440    -0.3040 C.3   1 <1>   0.1200 
 11 N       -1.2790    -2.6350    -0.4850 N.am  1 <1>  -0.5470 
 12 C        0.1560    -4.6100    -0.5440 C.ar  1 <1>  -0.1500 
 13 C        2.4970    -4.3860    -0.9790 C.ar  1 <1>  -0.1500 
 14 O        3.8500     1.4480     0.9090 O.3   1 <1>  -0.5600 
 15 C       -2.4110    -2.9900     0.2090 C.2   1 <1>   0.5440 
 16 C        1.3980    -5.1860    -0.7180 C.ar  1 <1>  -0.1500 
 17 O       -2.4290    -4.0280     0.8410 O.2   1 <1>  -0.5700 
 18 C       -3.5770    -2.1210     0.1880 C.ar  1 <1>   0.0860 
 19 C       -4.8400    -2.6250     0.5040 C.ar  1 <1>  -0.1500 
 20 C       -3.4930    -0.7660    -0.1410 C.ar  1 <1>  -0.1500 
 21 C       -5.9710    -1.8180     0.4860 C.ar  1 <1>   0.0820 
 22 C       -4.6110     0.0490    -0.1650 C.ar  1 <1>   0.0820 
 23 O       -7.2180    -2.2630     0.7850 O.3   1 <1>  -0.3620 
 24 C       -5.8560    -0.4820     0.1500 C.ar  1 <1>  -0.1500 
 25 O       -4.4120     1.3470    -0.5010 O.3   1 <1>  -0.3630 
 26 C       -7.4440    -3.5980     1.1840 C.3   1 <1>   0.0400 
 27 C       -5.4880     2.2560    -0.5780 C.3   1 <1>   0.0400 
 28 H        2.5440    -1.6080     1.1640 H     1 <1>   0.0800 
 29 H        1.9430    -0.1730     1.9340 H     1 <1>   0.0800 
 30 H        1.2090     1.8470     0.3100 H     1 <1>   0.0800 
 31 H        1.4400     1.5670    -1.3930 H     1 <1>   0.0800 
 32 H        3.1950    -2.3960    -1.2650 H     1 <1>   0.1500 
 33 H        4.5060    -0.3690     0.3160 H     1 <1>   0.0800 
 34 H        4.3720    -0.1250     2.0430 H     1 <1>   0.0800 
 35 H        3.2920     2.9180    -0.3430 H     1 <1>   0.0800 
 36 H        3.8660     1.4570    -1.1130 H     1 <1>   0.0800 
 37 H       -1.3280    -1.7170    -0.9460 H     1 <1>   0.3700 
 38 H       -0.6920    -5.2430    -0.3560 H     1 <1>   0.1500 
 39 H        3.4650    -4.8350    -1.1250 H     1 <1>   0.1500 
 40 H        1.5100    -6.2550    -0.6560 H     1 <1>   0.1500 
 41 H       -4.9120    -3.6640     0.7630 H     1 <1>   0.1500 
 42 H       -2.5470    -0.3150    -0.3810 H     1 <1>   0.1500 
 43 H       -6.7460     0.1150     0.1430 H     1 <1>   0.1500 
 44 H       -8.4940    -3.7120     1.3860 H     1 <1>   0.0800 
 45 H       -6.8770    -3.7980     2.0760 H     1 <1>   0.0800 
 46 H       -7.1520    -4.2560     0.3850 H     1 <1>   0.0800 
 47 H       -5.0960     3.2140    -0.8680 H     1 <1>   0.0800 
 48 H       -5.9540     2.3300     0.3890 H     1 <1>   0.0800 
 49 H       -6.1870     1.9080    -1.3180 H     1 <1>   0.0800 
@<TRIPOS>BOND
  1   1   2  2   
  2   2   3  am  
  3   2   4  1   
  4   3   5  1   
  5   3   6  1   
  6   4   7  ar  
  7   4   8  ar  
  8   5   9  1   
  9   5  28  1   
 10   5  29  1   
 11   6  10  1   
 12   6  30  1   
 13   6  31  1   
 14   7  11  1   
 15   7  12  ar  
 16   8  13  ar  
 17   8  32  1   
 18   9  14  1   
 19   9  33  1   
 20   9  34  1   
 21  10  14  1   
 22  10  35  1   
 23  10  36  1   
 24  11  15  am  
 25  11  37  1   
 26  12  16  ar  
 27  12  38  1   
 28  13  16  ar  
 29  13  39  1   
 30  15  17  2   
 31  15  18  1   
 32  16  40  1   
 33  18  19  ar  
 34  18  20  ar  
 35  19  21  ar  
 36  19  41  1   
 37  20  22  ar  
 38  20  42  1   
 39  21  23  1   
 40  21  24  ar  
 41  22  24  ar  
 42  22  25  1   
 43  23  26  1   
 44  24  43  1   
 45  25  27  1   
 46  26  44  1   
 47  26  45  1   
 48  26  46  1   
 49  27  47  1   
 50  27  48  1   
 51  27  49  1   
@<TRIPOS>SUBSTRUCTURE
  1 ****  11 GROUP 4 **** **** 0

# MOE 2024.06 (io_trps.svl 2023.06)
