@<TRIPOS>MOLECULE
NONAME
30 31 1 0 0 
SMALL
USER_CHARGES


@<TRIPOS>ATOM
  1 S       -0.4270    -0.9190     1.2590 S.3   1 <1>  -0.0800 
  2 C        0.2450    -1.3500    -0.3200 C.2   1 <1>  -0.0450 
  3 C       -1.9240    -0.3540     0.5490 C.2   1 <1>  -0.1100 
  4 C        1.5680    -1.9140    -0.4030 C.2   1 <1>   0.7150 
  5 C       -0.6730    -1.0520    -1.2750 C.2   1 <1>  -0.1500 
  6 C       -1.8910    -0.4940    -0.7890 C.2   1 <1>  -0.1500 
  7 O        2.0420    -2.2080    -1.4840 O.2   1 <1>  -0.5700 
  8 N        2.2990    -2.1210     0.7320 N.am  1 <1>  -0.7300 
  9 C        3.6510    -2.7260     0.8630 C.3   1 <1>   0.2200 
 10 C        4.6900    -2.1230    -0.1120 C.3   1 <1>   0.2000 
 11 C        3.5160    -4.2420     0.7100 C.3   1 <1>  -0.2400 
 12 O        5.9700    -2.5510     0.2340 O.3   1 <1>  -0.5600 
 13 C        4.7970    -0.6010    -0.0820 C.3   1 <1>  -0.1600 
 14 C        6.9150    -1.7110    -0.3450 C.3   1 <1>   0.1200 
 15 C        6.2500    -0.3410    -0.4500 C.3   1 <1>  -0.1600 
 16 H       -2.6800     0.0270     1.2120 H     1 <1>   0.1500 
 17 H       -0.5180    -1.2170    -2.3280 H     1 <1>   0.1500 
 18 H       -2.6850    -0.2220    -1.4640 H     1 <1>   0.1500 
 19 H        1.8360    -1.9120     1.6170 H     1 <1>   0.3700 
 20 H        4.0000    -2.5150     1.8600 H     1 <1>   0.0800 
 21 H        4.5050    -2.4650    -1.1160 H     1 <1>   0.0800 
 22 H        3.1840    -4.4890    -0.2830 H     1 <1>   0.0800 
 23 H        2.8210    -4.6320     1.4290 H     1 <1>   0.0800 
 24 H        4.4720    -4.7080     0.8710 H     1 <1>   0.0800 
 25 H        4.5930    -0.2390     0.9100 H     1 <1>   0.0800 
 26 H        4.1080    -0.1500    -0.7740 H     1 <1>   0.0800 
 27 H        7.1560    -2.1030    -1.3180 H     1 <1>   0.0800 
 28 H        7.7930    -1.6960     0.2780 H     1 <1>   0.0800 
 29 H        6.7050     0.3590     0.2280 H     1 <1>   0.0800 
 30 H        6.3400     0.0330    -1.4550 H     1 <1>   0.0800 
@<TRIPOS>BOND
  1   1   2  1   
  2   1   3  1   
  3   2   4  1   
  4   2   5  2   
  5   3   6  2   
  6   3  16  1   
  7   4   7  2   
  8   4   8  am  
  9   5   6  1   
 10   5  17  1   
 11   6  18  1   
 12   8   9  1   
 13   8  19  1   
 14   9  10  1   
 15   9  11  1   
 16   9  20  1   
 17  10  12  1   
 18  10  13  1   
 19  10  21  1   
 20  11  22  1   
 21  11  23  1   
 22  11  24  1   
 23  12  14  1   
 24  13  15  1   
 25  13  25  1   
 26  13  26  1   
 27  14  15  1   
 28  14  27  1   
 29  14  28  1   
 30  15  29  1   
 31  15  30  1   
@<TRIPOS>SUBSTRUCTURE
  1 ****   8 GROUP 4 **** **** 0

# MOE 2024.06 (io_trps.svl 2023.06)
