@<TRIPOS>MOLECULE
NONAME
42 44 1 0 0 
SMALL
USER_CHARGES


@<TRIPOS>ATOM
  1 S        5.7420     3.9770     0.0500 S.3   1 <1>  -0.2860 
  2 C        3.9570     3.9710    -0.1240 C.2   1 <1>   0.2420 
  3 C        6.3250     2.2700    -0.3180 C.3   1 <1>   0.0700 
  4 N        3.2370     4.9170     0.3580 N.2   1 <1>  -0.5650 
  5 N        3.2800     2.9900    -0.7660 N.pl3 1 <1>   0.0330 
  6 C        7.8210     2.2540     0.0190 C.3   1 <1>   0.3430 
  7 C        1.9690     4.5490     0.0210 C.ar  1 <1>   0.2270 
  8 C        1.9740     3.3530    -0.6780 C.ar  1 <1>  -0.1520 
  9 N        8.4530     0.9110    -0.1890 N.4   1 <1>  -0.9590 
 10 C        0.7670     5.1990     0.2860 C.ar  1 <1>  -0.1500 
 11 C        0.7890     2.7740    -1.1350 C.ar  1 <1>  -0.1500 
 12 C        7.9770    -0.1020     0.8040 C.3   1 <1>   0.3430 
 13 C        9.9410     1.0390    -0.1440 C.3   1 <1>   0.3430 
 14 C       -0.4160     4.6340    -0.1600 C.ar  1 <1>   0.0830 
 15 C       -0.3950     3.4250    -0.8680 C.ar  1 <1>  -0.1500 
 16 C        8.5740    -1.4710     0.4710 C.3   1 <1>  -0.1600 
 17 C       10.5860    -0.3020    -0.5000 C.3   1 <1>  -0.1600 
 18 O       -1.6430     5.1840     0.0430 O.3   1 <1>  -0.3630 
 19 C       10.1070    -1.4260     0.4280 C.3   1 <1>  -0.1600 
 20 C       -1.7730     6.4020     0.7430 C.3   1 <1>   0.0400 
 21 H        6.1430     2.0880    -1.3610 H     1 <1>   0.0800 
 22 H        5.7570     1.6070     0.3090 H     1 <1>   0.0800 
 23 H        3.6510     2.1840    -1.2670 H     1 <1>   0.2700 
 24 H        7.9530     2.5600     1.0440 H     1 <1>   0.0800 
 25 H        8.3120     2.9820    -0.6070 H     1 <1>   0.0800 
 26 H        8.2200     0.5630    -1.1290 H     1 <1>   0.4500 
 27 H        0.8130     6.1210     0.8300 H     1 <1>   0.1500 
 28 H        0.8010     1.8470    -1.6790 H     1 <1>   0.1500 
 29 H        6.9020    -0.1720     0.7860 H     1 <1>   0.0800 
 30 H        8.2810     0.1890     1.7970 H     1 <1>   0.0800 
 31 H       10.2540     1.3370     0.8440 H     1 <1>   0.0800 
 32 H       10.2710     1.7900    -0.8450 H     1 <1>   0.0800 
 33 H       -1.3330     3.0160    -1.2000 H     1 <1>   0.1500 
 34 H        8.1890    -1.8110    -0.4740 H     1 <1>   0.0800 
 35 H        8.2620    -2.1820     1.2180 H     1 <1>   0.0800 
 36 H       11.6560    -0.2100    -0.4200 H     1 <1>   0.0800 
 37 H       10.3630    -0.5490    -1.5230 H     1 <1>   0.0800 
 38 H       10.4920    -2.3730     0.0860 H     1 <1>   0.0800 
 39 H       10.4900    -1.2590     1.4210 H     1 <1>   0.0800 
 40 H       -2.8170     6.6520     0.7880 H     1 <1>   0.0800 
 41 H       -1.2350     7.1690     0.2130 H     1 <1>   0.0800 
 42 H       -1.3840     6.2760     1.7380 H     1 <1>   0.0800 
@<TRIPOS>BOND
  1   1   2  1   
  2   1   3  1   
  3   2   4  2   
  4   2   5  1   
  5   3   6  1   
  6   3  21  1   
  7   3  22  1   
  8   4   7  1   
  9   5   8  1   
 10   5  23  1   
 11   6   9  1   
 12   6  24  1   
 13   6  25  1   
 14   7   8  ar  
 15   7  10  ar  
 16   8  11  ar  
 17   9  12  1   
 18   9  13  1   
 19   9  26  1   
 20  10  14  ar  
 21  10  27  1   
 22  11  15  ar  
 23  11  28  1   
 24  12  16  1   
 25  12  29  1   
 26  12  30  1   
 27  13  17  1   
 28  13  31  1   
 29  13  32  1   
 30  14  15  ar  
 31  14  18  1   
 32  15  33  1   
 33  16  19  1   
 34  16  34  1   
 35  16  35  1   
 36  17  19  1   
 37  17  36  1   
 38  17  37  1   
 39  18  20  1   
 40  19  38  1   
 41  19  39  1   
 42  20  40  1   
 43  20  41  1   
 44  20  42  1   
@<TRIPOS>SUBSTRUCTURE
  1 ****   5 GROUP 4 **** **** 0

# MOE 2024.06 (io_trps.svl 2023.06)
