@<TRIPOS>MOLECULE
NONAME
46 48 1 0 0 
SMALL
USER_CHARGES


@<TRIPOS>ATOM
  1 O        0.9390    -0.1340     1.9090 O.2   1 <1>  -0.5700 
  2 C        1.2100    -1.3190     1.8580 C.2   1 <1>   0.6900 
  3 N        2.4720    -1.7550     2.1630 N.am  1 <1>  -0.6600 
  4 N        0.2710    -2.2440     1.5120 N.am  1 <1>  -0.5470 
  5 C        3.4570    -0.8320     2.8100 C.3   1 <1>   0.1400 
  6 C        3.1350    -2.8800     1.4300 C.3   1 <1>   0.1400 
  7 C       -1.0470    -2.0440     1.0770 C.ar  1 <1>   0.1170 
  8 C        4.4660    -0.2980     1.7810 C.3   1 <1>   0.2090 
  9 C        4.1590    -2.3470     0.4100 C.3   1 <1>   0.2090 
 10 C       -1.3750    -1.3320    -0.0850 C.ar  1 <1>  -0.1440 
 11 C       -2.0620    -2.6050     1.8410 C.ar  1 <1>  -0.1500 
 12 N        5.1370    -1.4210     1.0550 N.pl3 1 <1>  -0.8380 
 13 C       -2.7140    -1.1740    -0.4390 C.ar  1 <1>  -0.1440 
 14 C       -0.2690    -0.7330    -0.9570 C.3   1 <1>  -0.0970 
 15 C       -3.3850    -2.4600     1.4790 C.ar  1 <1>  -0.1500 
 16 C        6.2410    -1.0790     0.2830 C.ar  1 <1>   0.1000 
 17 C       -3.7080    -1.7440     0.3430 C.ar  1 <1>  -0.1500 
 18 C       -3.1430    -0.3810    -1.6670 C.3   1 <1>  -0.0970 
 19 C        7.4900    -1.5870     0.6110 C.ar  1 <1>  -0.1500 
 20 C        6.1290    -0.2370    -0.8190 C.ar  1 <1>  -0.1500 
 21 C        8.6050    -1.2660    -0.1420 C.ar  1 <1>  -0.1500 
 22 C        7.2410     0.0870    -1.5750 C.ar  1 <1>  -0.1500 
 23 C        8.4820    -0.4270    -1.2370 C.ar  1 <1>  -0.1500 
 24 H        0.4810    -3.1670     1.8720 H     1 <1>   0.3700 
 25 H        3.9890    -1.3650     3.5780 H     1 <1>   0.0800 
 26 H        2.9480    -0.0060     3.2750 H     1 <1>   0.0800 
 27 H        2.4110    -3.4800     0.9110 H     1 <1>   0.0800 
 28 H        3.6450    -3.5090     2.1380 H     1 <1>   0.0800 
 29 H        5.2110     0.2950     2.2830 H     1 <1>   0.0800 
 30 H        3.9500     0.3350     1.0790 H     1 <1>   0.0800 
 31 H        3.6390    -1.8280    -0.3760 H     1 <1>   0.0800 
 32 H        4.6920    -3.1720    -0.0290 H     1 <1>   0.0800 
 33 H       -1.8150    -3.1520     2.7310 H     1 <1>   0.1500 
 34 H        0.6290    -1.3170    -0.8980 H     1 <1>   0.0800 
 35 H       -0.0520     0.2650    -0.6210 H     1 <1>   0.0800 
 36 H       -0.5530    -0.6990    -1.9910 H     1 <1>   0.0800 
 37 H       -4.1630    -2.8970     2.0800 H     1 <1>   0.1500 
 38 H       -4.7430    -1.6310     0.0740 H     1 <1>   0.1500 
 39 H       -2.6560     0.5770    -1.6780 H     1 <1>   0.0800 
 40 H       -4.2040    -0.2130    -1.6680 H     1 <1>   0.0800 
 41 H       -2.8840    -0.9200    -2.5600 H     1 <1>   0.0800 
 42 H        7.5740    -2.2350     1.4630 H     1 <1>   0.1500 
 43 H        5.1670     0.1600    -1.0800 H     1 <1>   0.1500 
 44 H        9.5670    -1.6670     0.1240 H     1 <1>   0.1500 
 45 H        7.1430     0.7390    -2.4250 H     1 <1>   0.1500 
 46 H        9.3480    -0.1760    -1.8240 H     1 <1>   0.1500 
@<TRIPOS>BOND
  1   1   2  2   
  2   2   3  am  
  3   2   4  am  
  4   3   5  1   
  5   3   6  1   
  6   4   7  1   
  7   4  24  1   
  8   5   8  1   
  9   5  25  1   
 10   5  26  1   
 11   6   9  1   
 12   6  27  1   
 13   6  28  1   
 14   7  10  ar  
 15   7  11  ar  
 16   8  12  1   
 17   8  29  1   
 18   8  30  1   
 19   9  12  1   
 20   9  31  1   
 21   9  32  1   
 22  10  13  ar  
 23  10  14  1   
 24  11  15  ar  
 25  11  33  1   
 26  12  16  1   
 27  13  17  ar  
 28  13  18  1   
 29  14  34  1   
 30  14  35  1   
 31  14  36  1   
 32  15  17  ar  
 33  15  37  1   
 34  16  19  ar  
 35  16  20  ar  
 36  17  38  1   
 37  18  39  1   
 38  18  40  1   
 39  18  41  1   
 40  19  21  ar  
 41  19  42  1   
 42  20  22  ar  
 43  20  43  1   
 44  21  23  ar  
 45  21  44  1   
 46  22  23  ar  
 47  22  45  1   
 48  23  46  1   
@<TRIPOS>SUBSTRUCTURE
  1 ****   2 GROUP 4 **** **** 0

# MOE 2024.06 (io_trps.svl 2023.06)
