@<TRIPOS>MOLECULE
NONAME
28 28 1 0 0 
SMALL
USER_CHARGES


@<TRIPOS>ATOM
  1 O        0.2940    -0.3360     0.1330 O.2   1 <1>  -0.5700 
  2 C        0.2180    -1.5370    -0.1000 C.2   1 <1>   0.7670 
  3 N       -1.0000    -2.1170     0.0490 N.2   1 <1>  -0.6610 
  4 C        1.3640    -2.2890    -0.5130 C.2   1 <1>  -0.1240 
  5 C       -1.1020    -3.3800    -0.1820 C.2   1 <1>   0.5600 
  6 C        1.2150    -3.6180    -0.7360 C.2   1 <1>  -0.0380 
  7 C        2.6890    -1.5460    -0.6740 C.3   1 <1>   0.1160 
  8 N       -0.0380    -4.1400    -0.5670 N.pl3 1 <1>  -0.5500 
  9 N       -2.2940    -4.0340    -0.0520 N.am  1 <1>  -0.4900 
 10 C        2.2910    -4.6110    -1.1460 C.3   1 <1>  -0.1020 
 11 C        3.4960    -1.6250     0.6100 C.2   1 <1>  -0.2880 
 12 C       -3.5420    -3.6380     0.3130 C.2   1 <1>   0.5690 
 13 C        4.7090    -2.1740     0.7330 C.2   1 <1>  -0.3000 
 14 O       -4.4170    -4.4620     0.3320 O.2   1 <1>  -0.5700 
 15 C       -3.8850    -2.2160     0.6990 C.3   1 <1>  -0.1790 
 16 H        2.5210    -0.5130    -0.9240 H     1 <1>   0.0800 
 17 H        3.2520    -1.9650    -1.4870 H     1 <1>   0.0800 
 18 H       -0.1820    -5.1380    -0.7220 H     1 <1>   0.4000 
 19 H       -2.2880    -5.0230    -0.2660 H     1 <1>   0.3700 
 20 H        2.0990    -4.9720    -2.1400 H     1 <1>   0.0800 
 21 H        2.2970    -5.4440    -0.4670 H     1 <1>   0.0800 
 22 H        3.2710    -4.1720    -1.1260 H     1 <1>   0.0800 
 23 H        2.9780    -1.1760     1.4430 H     1 <1>   0.1500 
 24 H        5.2550    -2.2120     1.6600 H     1 <1>   0.1500 
 25 H        5.2590    -2.6270    -0.0730 H     1 <1>   0.1500 
 26 H       -3.3000    -1.9160     1.5470 H     1 <1>   0.0800 
 27 H       -4.9260    -2.1460     0.9530 H     1 <1>   0.0800 
 28 H       -3.6840    -1.5560    -0.1240 H     1 <1>   0.0800 
@<TRIPOS>BOND
  1   1   2  2   
  2   2   3  1   
  3   2   4  1   
  4   3   5  2   
  5   4   6  2   
  6   4   7  1   
  7   5   8  1   
  8   5   9  1   
  9   6   8  1   
 10   6  10  1   
 11   7  11  1   
 12   7  16  1   
 13   7  17  1   
 14   8  18  1   
 15   9  12  am  
 16   9  19  1   
 17  10  20  1   
 18  10  21  1   
 19  10  22  1   
 20  11  13  2   
 21  11  23  1   
 22  12  14  2   
 23  12  15  1   
 24  13  24  1   
 25  13  25  1   
 26  15  26  1   
 27  15  27  1   
 28  15  28  1   
@<TRIPOS>SUBSTRUCTURE
  1 ****   3 GROUP 4 **** **** 0

# MOE 2024.06 (io_trps.svl 2023.06)
