@<TRIPOS>MOLECULE
NONAME
47 49 1 0 0 
SMALL
USER_CHARGES


@<TRIPOS>ATOM
  1 CL       3.8900     2.2230    -3.9490 Cl    1 <1>  -0.1770 
  2 C        4.4020     1.7580    -2.3420 C.ar  1 <1>   0.1770 
  3 C        4.5800     2.7200    -1.3570 C.ar  1 <1>  -0.1440 
  4 C        4.6190     0.4160    -2.0880 C.ar  1 <1>  -0.1500 
  5 C        4.9860     2.3130    -0.0950 C.ar  1 <1>  -0.1500 
  6 C        4.3390     4.1940    -1.6460 C.3   1 <1>  -0.0960 
  7 C        5.0260     0.0220    -0.8260 C.ar  1 <1>  -0.1500 
  8 C        5.2190     0.9650     0.1730 C.ar  1 <1>   0.0830 
  9 O        5.6400     0.4890     1.3720 O.3   1 <1>  -0.3630 
 10 C        6.0620     1.3420     2.4300 C.3   1 <1>   0.2610 
 11 C        7.2770     2.2210     2.0600 C.2   1 <1>   0.5690 
 12 C        6.3170     0.4620     3.6590 C.3   1 <1>  -0.2400 
 13 O        7.1710     3.4010     2.3130 O.2   1 <1>  -0.5700 
 14 N        8.4260     1.7320     1.4760 N.am  1 <1>  -0.6600 
 15 C        9.5250     2.6440     1.0320 C.3   1 <1>   0.1400 
 16 C        8.6610     0.3310     1.0040 C.3   1 <1>   0.1400 
 17 C        9.6550     2.6330    -0.5020 C.3   1 <1>   0.2090 
 18 C        8.7920     0.2850    -0.5300 C.3   1 <1>   0.2090 
 19 N        9.8270     1.2460    -1.0310 N.pl3 1 <1>  -0.8380 
 20 C       11.1190     0.7960    -1.2270 C.ar  1 <1>   0.4100 
 21 N       11.5880    -0.1130    -0.3790 N.ar  1 <1>  -0.6200 
 22 C       11.8690     1.3150    -2.2800 C.ar  1 <1>  -0.1500 
 23 C       12.8320    -0.5100    -0.5880 C.ar  1 <1>   0.1600 
 24 C       13.1620     0.8950    -2.4850 C.ar  1 <1>  -0.1500 
 25 C       13.6510    -0.0490    -1.6040 C.ar  1 <1>  -0.1500 
 26 H        4.4690    -0.3060    -2.8700 H     1 <1>   0.1500 
 27 H        5.1170     3.0590     0.6660 H     1 <1>   0.1500 
 28 H        3.3130     4.3500    -1.9310 H     1 <1>   0.0800 
 29 H        4.9750     4.5190    -2.4510 H     1 <1>   0.0800 
 30 H        4.5490     4.7990    -0.7820 H     1 <1>   0.0800 
 31 H        5.1980    -1.0170    -0.6100 H     1 <1>   0.1500 
 32 H        5.2340     1.9910     2.6540 H     1 <1>   0.0800 
 33 H        7.1300    -0.2170     3.4820 H     1 <1>   0.0800 
 34 H        5.4300    -0.0950     3.9040 H     1 <1>   0.0800 
 35 H        6.5720     1.0840     4.4980 H     1 <1>   0.0800 
 36 H       10.4540     2.3120     1.4640 H     1 <1>   0.0800 
 37 H        9.3480     3.6500     1.3660 H     1 <1>   0.0800 
 38 H        7.8760    -0.3310     1.3120 H     1 <1>   0.0800 
 39 H        9.5750    -0.0350     1.4380 H     1 <1>   0.0800 
 40 H       10.4970     3.2400    -0.7870 H     1 <1>   0.0800 
 41 H        8.7710     3.0680    -0.9330 H     1 <1>   0.0800 
 42 H        7.8450     0.5290    -0.9750 H     1 <1>   0.0800 
 43 H        9.0500    -0.7150    -0.8360 H     1 <1>   0.0800 
 44 H       11.4140     2.0410    -2.9260 H     1 <1>   0.1500 
 45 H       13.2240    -1.2470     0.0910 H     1 <1>   0.1500 
 46 H       13.7620     1.2790    -3.2910 H     1 <1>   0.1500 
 47 H       14.6530    -0.4230    -1.7050 H     1 <1>   0.1500 
@<TRIPOS>BOND
  1   1   2  1   
  2   2   3  ar  
  3   2   4  ar  
  4   3   5  ar  
  5   3   6  1   
  6   4   7  ar  
  7   4  26  1   
  8   5   8  ar  
  9   5  27  1   
 10   6  28  1   
 11   6  29  1   
 12   6  30  1   
 13   7   8  ar  
 14   7  31  1   
 15   8   9  1   
 16   9  10  1   
 17  10  11  1   
 18  10  12  1   
 19  10  32  1   
 20  11  13  2   
 21  11  14  am  
 22  12  33  1   
 23  12  34  1   
 24  12  35  1   
 25  14  15  1   
 26  14  16  1   
 27  15  17  1   
 28  15  36  1   
 29  15  37  1   
 30  16  18  1   
 31  16  38  1   
 32  16  39  1   
 33  17  19  1   
 34  17  40  1   
 35  17  41  1   
 36  18  19  1   
 37  18  42  1   
 38  18  43  1   
 39  19  20  1   
 40  20  21  ar  
 41  20  22  ar  
 42  21  23  ar  
 43  22  24  ar  
 44  22  44  1   
 45  23  25  ar  
 46  23  45  1   
 47  24  25  ar  
 48  24  46  1   
 49  25  47  1   
@<TRIPOS>SUBSTRUCTURE
  1 ****  18 GROUP 4 **** **** 0

# MOE 2024.06 (io_trps.svl 2023.06)
