@<TRIPOS>MOLECULE
NONAME
36 39 1 0 0 
SMALL
USER_CHARGES


@<TRIPOS>ATOM
  1 O        0.0030    -0.3010    -0.0240 O.2   1 <1>  -0.5700 
  2 C       -0.0180    -1.5280     0.0020 C.2   1 <1>   0.4690 
  3 C       -1.2560    -2.2690     0.0440 C.ar  1 <1>   0.0860 
  4 C        1.1850    -2.2740    -0.0090 C.2   1 <1>  -0.1240 
  5 C       -1.2050    -3.6760     0.0740 C.ar  1 <1>   0.1000 
  6 C       -2.5110    -1.6520     0.0580 C.ar  1 <1>  -0.1500 
  7 C        1.2060    -3.6220     0.0170 C.2   1 <1>   0.1000 
  8 C        2.5860    -1.7130    -0.0500 C.3   1 <1>  -0.0220 
  9 N        0.0280    -4.3200     0.0600 N.pl3 1 <1>  -0.6000 
 10 C       -2.3880    -4.4130     0.1160 C.ar  1 <1>  -0.1500 
 11 C       -3.6730    -2.3920     0.1000 C.ar  1 <1>  -0.1500 
 12 C        2.5300    -4.1710    -0.0020 C.2   1 <1>  -0.1380 
 13 C        3.4760    -2.9710     0.0210 C.3   1 <1>  -0.0220 
 14 C       -3.6110    -3.7800     0.1290 C.ar  1 <1>  -0.1500 
 15 C        2.9570    -5.4490    -0.0380 C.2   1 <1>  -0.2760 
 16 C        4.4120    -5.8860    -0.0410 C.3   1 <1>  -0.0220 
 17 C        2.0870    -6.6940    -0.0750 C.3   1 <1>  -0.0220 
 18 C        4.3760    -7.3670     0.3210 C.3   1 <1>  -0.1600 
 19 C        3.0530    -7.8640    -0.2540 C.3   1 <1>  -0.1600 
 20 H       -2.5580    -0.5760     0.0360 H     1 <1>   0.1500 
 21 H        2.7420    -1.1750    -0.9680 H     1 <1>   0.0800 
 22 H        2.7580    -1.0620     0.7890 H     1 <1>   0.0800 
 23 H        0.0770    -5.3400     0.0930 H     1 <1>   0.4000 
 24 H       -2.3390    -5.4860     0.1380 H     1 <1>   0.1500 
 25 H       -4.6310    -1.9000     0.1100 H     1 <1>   0.1500 
 26 H        4.0410    -2.9720     0.9350 H     1 <1>   0.0800 
 27 H        4.1500    -3.0060    -0.8170 H     1 <1>   0.0800 
 28 H       -4.5220    -4.3530     0.1610 H     1 <1>   0.1500 
 29 H        4.8120    -5.7670    -1.0330 H     1 <1>   0.0800 
 30 H        5.0090    -5.3250     0.6560 H     1 <1>   0.0800 
 31 H        1.5720    -6.7910     0.8650 H     1 <1>   0.0800 
 32 H        1.3760    -6.6570    -0.8810 H     1 <1>   0.0800 
 33 H        5.2210    -7.9020    -0.0770 H     1 <1>   0.0800 
 34 H        4.3610    -7.4700     1.3930 H     1 <1>   0.0800 
 35 H        2.7060    -8.7550     0.2380 H     1 <1>   0.0800 
 36 H        3.1760    -8.0630    -1.3050 H     1 <1>   0.0800 
@<TRIPOS>BOND
  1   1   2  2   
  2   2   3  1   
  3   2   4  1   
  4   3   5  ar  
  5   3   6  ar  
  6   4   7  2   
  7   4   8  1   
  8   5   9  1   
  9   5  10  ar  
 10   6  11  ar  
 11   6  20  1   
 12   7   9  1   
 13   7  12  1   
 14   8  13  1   
 15   8  21  1   
 16   8  22  1   
 17   9  23  1   
 18  10  14  ar  
 19  10  24  1   
 20  11  14  ar  
 21  11  25  1   
 22  12  13  1   
 23  12  15  2   
 24  13  26  1   
 25  13  27  1   
 26  14  28  1   
 27  15  16  1   
 28  15  17  1   
 29  16  18  1   
 30  16  29  1   
 31  16  30  1   
 32  17  19  1   
 33  17  31  1   
 34  17  32  1   
 35  18  19  1   
 36  18  33  1   
 37  18  34  1   
 38  19  35  1   
 39  19  36  1   
@<TRIPOS>SUBSTRUCTURE
  1 ****   7 GROUP 4 **** **** 0

# MOE 2024.06 (io_trps.svl 2023.06)
