@<TRIPOS>MOLECULE
NONAME
39 41 1 0 0 
SMALL
USER_CHARGES


@<TRIPOS>ATOM
  1 O       -0.2850    -0.4150     0.1230 O.2   1 <1>  -0.5700 
  2 C       -0.1570    -1.5600    -0.2910 C.2   1 <1>   0.5650 
  3 N        1.0750    -2.2110    -0.1740 N.pl3 1 <1>   0.2940 
  4 C       -1.2400    -2.2870    -0.9050 C.2   1 <1>  -0.1240 
  5 C        1.2450    -3.4960    -0.6230 C.2   1 <1>   0.2700 
  6 C        2.3050    -1.8650     0.3260 C.ar  1 <1>  -0.1520 
  7 C       -1.0550    -3.5720    -1.3310 C.2   1 <1>  -0.0380 
  8 C       -2.5770    -1.5530    -1.0460 C.3   1 <1>  -0.0220 
  9 N        2.4260    -3.9860    -0.4640 N.2   1 <1>  -0.5650 
 10 N        0.1830    -4.1610    -1.1950 N.pl3 1 <1>  -0.5840 
 11 C        3.1120    -2.9730     0.1340 C.ar  1 <1>   0.2270 
 12 C        2.7980    -0.7060     0.9230 C.ar  1 <1>  -0.1500 
 13 C       -2.1000    -4.4790    -1.9620 C.3   1 <1>  -0.1020 
 14 C       -3.4380    -1.7520     0.2110 C.3   1 <1>  -0.1600 
 15 C        4.4430    -2.9390     0.5420 C.ar  1 <1>  -0.1500 
 16 C        4.1170    -0.6810     1.3240 C.ar  1 <1>  -0.1500 
 17 C       -4.7700    -0.9810     0.1740 C.3   1 <1>  -0.0800 
 18 C        4.9390    -1.7970     1.1340 C.ar  1 <1>  -0.1500 
 19 C       -5.4730    -1.1040     1.5310 C.3   1 <1>  -0.2400 
 20 C       -5.7070    -1.4900    -0.9300 C.3   1 <1>  -0.2400 
 21 H       -3.0960    -1.9010    -1.9180 H     1 <1>   0.0800 
 22 H       -2.4060    -0.5010    -1.1990 H     1 <1>   0.0800 
 23 H        0.3740    -5.1190    -1.5060 H     1 <1>   0.4000 
 24 H        2.1550     0.1480     1.0650 H     1 <1>   0.1500 
 25 H       -1.8760    -4.6200    -3.0040 H     1 <1>   0.0800 
 26 H       -3.0930    -4.0850    -1.8750 H     1 <1>   0.0800 
 27 H       -2.0890    -5.4380    -1.4750 H     1 <1>   0.0800 
 28 H       -2.8700    -1.4140     1.0610 H     1 <1>   0.0800 
 29 H       -3.6320    -2.8020     0.3490 H     1 <1>   0.0800 
 30 H        5.0540    -3.8090     0.3850 H     1 <1>   0.1500 
 31 H        4.5240     0.2010     1.7880 H     1 <1>   0.1500 
 32 H       -4.5640     0.0620    -0.0010 H     1 <1>   0.0800 
 33 H        5.9660    -1.7560     1.4540 H     1 <1>   0.1500 
 34 H       -5.7010    -2.1320     1.7500 H     1 <1>   0.0800 
 35 H       -6.3900    -0.5420     1.5300 H     1 <1>   0.0800 
 36 H       -4.8450    -0.7170     2.3140 H     1 <1>   0.0800 
 37 H       -5.8840    -2.5450    -0.8220 H     1 <1>   0.0800 
 38 H       -5.2920    -1.3050    -1.9040 H     1 <1>   0.0800 
 39 H       -6.6530    -0.9790    -0.8780 H     1 <1>   0.0800 
@<TRIPOS>BOND
  1   1   2  2   
  2   2   3  1   
  3   2   4  1   
  4   3   5  1   
  5   3   6  1   
  6   4   7  2   
  7   4   8  1   
  8   5   9  2   
  9   5  10  1   
 10   6  11  ar  
 11   6  12  ar  
 12   7  10  1   
 13   7  13  1   
 14   8  14  1   
 15   8  21  1   
 16   8  22  1   
 17   9  11  1   
 18  10  23  1   
 19  11  15  ar  
 20  12  16  ar  
 21  12  24  1   
 22  13  25  1   
 23  13  26  1   
 24  13  27  1   
 25  14  17  1   
 26  14  28  1   
 27  14  29  1   
 28  15  18  ar  
 29  15  30  1   
 30  16  18  ar  
 31  16  31  1   
 32  17  19  1   
 33  17  20  1   
 34  17  32  1   
 35  18  33  1   
 36  19  34  1   
 37  19  35  1   
 38  19  36  1   
 39  20  37  1   
 40  20  38  1   
 41  20  39  1   
@<TRIPOS>SUBSTRUCTURE
  1 ****   2 GROUP 4 **** **** 0

# MOE 2024.06 (io_trps.svl 2023.06)
