@<TRIPOS>MOLECULE
NONAME
35 35 1 0 0 
SMALL
USER_CHARGES


@<TRIPOS>ATOM
  1 BR       0.2490    -0.7160    -1.5260 Br    1 <1>  -0.1110 
  2 C        2.0730    -1.1490    -1.0890 C.ar  1 <1>   0.1110 
  3 C        2.6940    -2.1780    -1.7690 C.ar  1 <1>  -0.1500 
  4 C        2.7130    -0.4180    -0.1080 C.ar  1 <1>  -0.1500 
  5 C        4.0080    -2.4930    -1.4580 C.ar  1 <1>  -0.1440 
  6 C        4.0240    -0.7320     0.2030 C.ar  1 <1>  -0.1500 
  7 C        4.6760    -1.7690    -0.4690 C.ar  1 <1>   0.0830 
  8 C        4.7050    -3.6250    -2.1990 C.3   1 <1>  -0.0960 
  9 O        5.9630    -2.1190    -0.2040 O.3   1 <1>  -0.3630 
 10 C        6.7330    -1.4440     0.7850 C.3   1 <1>   0.1810 
 11 C        8.1380    -2.0220     0.8920 C.2   1 <1>   0.5690 
 12 O        8.8920    -1.5310     1.6990 O.2   1 <1>  -0.5700 
 13 N        8.4860    -3.0600     0.0820 N.am  1 <1>  -0.7300 
 14 C        9.7510    -3.7900    -0.0180 C.3   1 <1>   0.3000 
 15 C       10.8670    -2.8300    -0.4300 C.3   1 <1>  -0.2400 
 16 C       10.0600    -4.4650     1.3180 C.3   1 <1>  -0.2400 
 17 C        9.5570    -4.8500    -1.0990 C.3   1 <1>  -0.2400 
 18 H        2.1530    -2.7170    -2.5250 H     1 <1>   0.1500 
 19 H        2.1940     0.3770     0.3980 H     1 <1>   0.1500 
 20 H        4.5140    -0.1590     0.9670 H     1 <1>   0.1500 
 21 H        4.0510    -4.0750    -2.9240 H     1 <1>   0.0800 
 22 H        5.0140    -4.3820    -1.5000 H     1 <1>   0.0800 
 23 H        5.5730    -3.2470    -2.7090 H     1 <1>   0.0800 
 24 H        6.2370    -1.5490     1.7320 H     1 <1>   0.0800 
 25 H        6.8000    -0.4070     0.5150 H     1 <1>   0.0800 
 26 H        7.7630    -3.3890    -0.5600 H     1 <1>   0.3700 
 27 H       11.0320    -2.0930     0.3350 H     1 <1>   0.0800 
 28 H       10.6150    -2.3310    -1.3480 H     1 <1>   0.0800 
 29 H       11.7850    -3.3690    -0.5740 H     1 <1>   0.0800 
 30 H       10.2250    -3.7300     2.0840 H     1 <1>   0.0800 
 31 H       10.9510    -5.0610     1.2340 H     1 <1>   0.0800 
 32 H        9.2480    -5.1030     1.6150 H     1 <1>   0.0800 
 33 H        9.3260    -4.3900    -2.0430 H     1 <1>   0.0800 
 34 H        8.7650    -5.5260    -0.8290 H     1 <1>   0.0800 
 35 H       10.4590    -5.4230    -1.2190 H     1 <1>   0.0800 
@<TRIPOS>BOND
  1   1   2  1   
  2   2   3  ar  
  3   2   4  ar  
  4   3   5  ar  
  5   3  18  1   
  6   4   6  ar  
  7   4  19  1   
  8   5   7  ar  
  9   5   8  1   
 10   6   7  ar  
 11   6  20  1   
 12   7   9  1   
 13   8  21  1   
 14   8  22  1   
 15   8  23  1   
 16   9  10  1   
 17  10  11  1   
 18  10  24  1   
 19  10  25  1   
 20  11  12  2   
 21  11  13  am  
 22  13  14  1   
 23  13  26  1   
 24  14  15  1   
 25  14  16  1   
 26  14  17  1   
 27  15  27  1   
 28  15  28  1   
 29  15  29  1   
 30  16  30  1   
 31  16  31  1   
 32  16  32  1   
 33  17  33  1   
 34  17  34  1   
 35  17  35  1   
@<TRIPOS>SUBSTRUCTURE
  1 ****   9 GROUP 4 **** **** 0

# MOE 2024.06 (io_trps.svl 2023.06)
