@<TRIPOS>MOLECULE
NONAME
42 44 1 0 0 
SMALL
USER_CHARGES


@<TRIPOS>ATOM
  1 CL       0.1600    -1.0750    -2.4140 Cl    1 <1>  -0.1770 
  2 C       -0.6740    -2.0200    -1.1930 C.ar  1 <1>   0.1770 
  3 C        0.0370    -2.6850    -0.1850 C.ar  1 <1>   0.1000 
  4 C       -2.0530    -2.0780    -1.2690 C.ar  1 <1>  -0.1500 
  5 N        1.4290    -2.6730    -0.0420 N.pl3 1 <1>  -0.8380 
  6 C       -0.7000    -3.4110     0.7430 C.ar  1 <1>  -0.1500 
  7 C       -2.7620    -2.8090    -0.3300 C.ar  1 <1>  -0.1500 
  8 C        2.0620    -1.3790     0.3490 C.3   1 <1>   0.2090 
  9 C        2.2250    -3.3980    -1.0780 C.3   1 <1>   0.2090 
 10 C       -2.0810    -3.4750     0.6750 C.ar  1 <1>  -0.1500 
 11 C        3.5350    -1.5870     0.7480 C.3   1 <1>   0.1960 
 12 C        3.7020    -3.5380    -0.6580 C.3   1 <1>   0.1960 
 13 N        4.3220    -2.2360    -0.3250 N.am  1 <1>  -0.8490 
 14 S        5.9650    -2.3970     0.0680 S.o2  1 <1>   1.3330 
 15 O        6.5020    -3.4450    -0.7740 O.2   1 <1>  -0.6500 
 16 O        6.0430    -2.5180     1.5070 O.2   1 <1>  -0.6500 
 17 C        6.6450    -0.8200    -0.4670 C.3   1 <1>   0.0890 
 18 C        8.1420    -0.6680    -0.2240 C.ar  1 <1>  -0.1430 
 19 C        9.0470    -1.3340    -1.0350 C.ar  1 <1>  -0.1500 
 20 C        8.6110     0.1310     0.8080 C.ar  1 <1>  -0.1500 
 21 C       10.4080    -1.1970    -0.8230 C.ar  1 <1>  -0.1500 
 22 C        9.9720     0.2690     1.0210 C.ar  1 <1>  -0.1500 
 23 C       10.8710    -0.3940     0.2040 C.ar  1 <1>  -0.1500 
 24 H       -2.5660    -1.5550    -2.0550 H     1 <1>   0.1500 
 25 H       -0.1720    -3.9290     1.5240 H     1 <1>   0.1500 
 26 H       -3.8360    -2.8600    -0.3820 H     1 <1>   0.1500 
 27 H        1.5210    -0.9580     1.1780 H     1 <1>   0.0800 
 28 H        2.0140    -0.6860    -0.4720 H     1 <1>   0.0800 
 29 H        2.1780    -2.8650    -2.0120 H     1 <1>   0.0800 
 30 H        1.8020    -4.3760    -1.2300 H     1 <1>   0.0800 
 31 H       -2.6280    -4.0450     1.4070 H     1 <1>   0.1500 
 32 H        3.5610    -2.1910     1.6400 H     1 <1>   0.0800 
 33 H        3.9660    -0.6300     0.9850 H     1 <1>   0.0800 
 34 H        4.2350    -3.9960    -1.4730 H     1 <1>   0.0800 
 35 H        3.7650    -4.1990     0.1900 H     1 <1>   0.0800 
 36 H        6.1310    -0.0280     0.0380 H     1 <1>   0.0800 
 37 H        6.4590    -0.7020    -1.5160 H     1 <1>   0.0800 
 38 H        8.7000    -1.9690    -1.8340 H     1 <1>   0.1500 
 39 H        7.9250     0.6490     1.4550 H     1 <1>   0.1500 
 40 H       11.1060    -1.7180    -1.4550 H     1 <1>   0.1500 
 41 H       10.3320     0.8900     1.8220 H     1 <1>   0.1500 
 42 H       11.9290    -0.2880     0.3700 H     1 <1>   0.1500 
@<TRIPOS>BOND
  1   1   2  1   
  2   2   3  ar  
  3   2   4  ar  
  4   3   5  1   
  5   3   6  ar  
  6   4   7  ar  
  7   4  24  1   
  8   5   8  1   
  9   5   9  1   
 10   6  10  ar  
 11   6  25  1   
 12   7  10  ar  
 13   7  26  1   
 14   8  11  1   
 15   8  27  1   
 16   8  28  1   
 17   9  12  1   
 18   9  29  1   
 19   9  30  1   
 20  10  31  1   
 21  11  13  1   
 22  11  32  1   
 23  11  33  1   
 24  12  13  1   
 25  12  34  1   
 26  12  35  1   
 27  13  14  am  
 28  14  15  2   
 29  14  16  2   
 30  14  17  1   
 31  17  18  1   
 32  17  36  1   
 33  17  37  1   
 34  18  19  ar  
 35  18  20  ar  
 36  19  21  ar  
 37  19  38  1   
 38  20  22  ar  
 39  20  39  1   
 40  21  23  ar  
 41  21  40  1   
 42  22  23  ar  
 43  22  41  1   
 44  23  42  1   
@<TRIPOS>SUBSTRUCTURE
  1 ****  13 GROUP 4 **** **** 0

# MOE 2024.06 (io_trps.svl 2023.06)
