@<TRIPOS>MOLECULE
NONAME
39 38 1 0 0 
SMALL
USER_CHARGES


@<TRIPOS>ATOM
  1 N        0.0610     1.4080    -0.8370 N.4   1 <1>  -0.9590 
  2 C        1.4090     0.7720    -0.8880 C.3   1 <1>   0.4810 
  3 C       -1.0560     0.3870    -0.8790 C.3   1 <1>   0.3430 
  4 C       -0.0400     2.3950    -1.9500 C.3   1 <1>   0.3430 
  5 C        1.6010    -0.0820     0.3540 C.2   1 <1>  -0.2760 
  6 C       -1.4980    -0.1570     0.5130 C.3   1 <1>   0.3430 
  7 C       -1.1660     3.3790    -1.6570 C.3   1 <1>  -0.2400 
  8 C        1.5890    -1.4210     0.2800 C.2   1 <1>  -0.2880 
  9 C        1.8480     0.7450     1.6180 C.3   1 <1>  -0.1020 
 10 N       -2.5810    -1.2100     0.4620 N.4   1 <1>  -0.9590 
 11 C        1.7910    -2.4420     1.3940 C.3   1 <1>  -0.1020 
 12 C       -3.0660    -1.5140     1.8500 C.3   1 <1>   0.2630 
 13 C       -2.1230    -2.4880    -0.1820 C.3   1 <1>   0.2630 
 14 H        0.0330     1.9480     0.0370 H     1 <1>   0.4500 
 15 H        1.4930     0.1560    -1.7690 H     1 <1>   0.0800 
 16 H        2.1840     1.5220    -0.9290 H     1 <1>   0.0800 
 17 H       -1.9190     0.8340    -1.3420 H     1 <1>   0.0800 
 18 H       -0.7450    -0.4400    -1.4950 H     1 <1>   0.0800 
 19 H        0.8840     2.9470    -2.0340 H     1 <1>   0.0800 
 20 H       -0.2160     1.8920    -2.8880 H     1 <1>   0.0800 
 21 H       -1.8550     0.6740     1.0980 H     1 <1>   0.0800 
 22 H       -0.6450    -0.5730     1.0200 H     1 <1>   0.0800 
 23 H       -0.9990     3.8910    -0.7260 H     1 <1>   0.0800 
 24 H       -2.1280     2.9000    -1.6450 H     1 <1>   0.0800 
 25 H       -1.1880     4.1230    -2.4360 H     1 <1>   0.0800 
 26 H        1.4480    -1.9330    -0.6600 H     1 <1>   0.1500 
 27 H        2.6960     1.3920     1.4720 H     1 <1>   0.0800 
 28 H        2.0700     0.1310     2.4710 H     1 <1>   0.0800 
 29 H        0.9970     1.3520     1.8660 H     1 <1>   0.0800 
 30 H       -3.4000    -0.8570    -0.0630 H     1 <1>   0.4500 
 31 H        0.9600    -3.1210     1.4350 H     1 <1>   0.0800 
 32 H        1.9030    -1.9930     2.3620 H     1 <1>   0.0800 
 33 H        2.6800    -3.0160     1.1960 H     1 <1>   0.0800 
 34 H       -2.2630    -1.9050     2.4540 H     1 <1>   0.0800 
 35 H       -3.8570    -2.2470     1.8180 H     1 <1>   0.0800 
 36 H       -3.4490    -0.6230     2.3210 H     1 <1>   0.0800 
 37 H       -1.2740    -2.8930     0.3470 H     1 <1>   0.0800 
 38 H       -1.8430    -2.3210    -1.2090 H     1 <1>   0.0800 
 39 H       -2.9160    -3.2200    -0.1630 H     1 <1>   0.0800 
@<TRIPOS>BOND
  1   1   2  1   
  2   1   3  1   
  3   1   4  1   
  4   1  14  1   
  5   2   5  1   
  6   2  15  1   
  7   2  16  1   
  8   3   6  1   
  9   3  17  1   
 10   3  18  1   
 11   4   7  1   
 12   4  19  1   
 13   4  20  1   
 14   5   8  2   
 15   5   9  1   
 16   6  10  1   
 17   6  21  1   
 18   6  22  1   
 19   7  23  1   
 20   7  24  1   
 21   7  25  1   
 22   8  11  1   
 23   8  26  1   
 24   9  27  1   
 25   9  28  1   
 26   9  29  1   
 27  10  12  1   
 28  10  13  1   
 29  10  30  1   
 30  11  31  1   
 31  11  32  1   
 32  11  33  1   
 33  12  34  1   
 34  12  35  1   
 35  12  36  1   
 36  13  37  1   
 37  13  38  1   
 38  13  39  1   
@<TRIPOS>SUBSTRUCTURE
  1 ****   3 GROUP 4 **** **** 0

# MOE 2024.06 (io_trps.svl 2023.06)
