@<TRIPOS>MOLECULE
NONAME
31 31 1 0 0 
SMALL
USER_CHARGES


@<TRIPOS>ATOM
  1 O        0.9350     2.8320     1.1910 O.2   1 <1>  -0.5700 
  2 C        0.1590     2.2610     0.4460 C.2   1 <1>   0.5440 
  3 N        0.6570     1.2350    -0.3090 N.am  1 <1>  -0.7300 
  4 C       -1.2330     2.6840     0.3600 C.ar  1 <1>   0.0860 
  5 C        2.0500     0.7250    -0.3080 C.3   1 <1>   0.0600 
  6 C       -2.2700     1.9250    -0.2200 C.ar  1 <1>   0.0830 
  7 C       -1.5840     3.9320     0.8840 C.ar  1 <1>  -0.1500 
  8 O       -1.9790     0.6960    -0.7310 O.3   1 <1>  -0.3620 
  9 C       -3.5740     2.4190    -0.2670 C.ar  1 <1>  -0.1500 
 10 C       -2.8710     4.4230     0.8320 C.ar  1 <1>   0.0830 
 11 C       -2.9660    -0.2240    -1.1490 C.3   1 <1>   0.0400 
 12 C       -3.8920     3.6640     0.2590 C.ar  1 <1>   0.0830 
 13 O       -3.0990     5.6470     1.3730 O.3   1 <1>  -0.3630 
 14 O       -5.1550     4.1690     0.2460 O.3   1 <1>  -0.3630 
 15 C       -3.3710     6.6900     0.4650 C.3   1 <1>   0.0400 
 16 C       -6.2730     3.4000    -0.1350 C.3   1 <1>   0.0400 
 17 H       -0.0310     0.7020    -0.8530 H     1 <1>   0.3700 
 18 H        2.6820     1.3600     0.2900 H     1 <1>   0.0800 
 19 H        2.4300     0.7070    -1.3140 H     1 <1>   0.0800 
 20 H        2.0710    -0.2700     0.1010 H     1 <1>   0.0800 
 21 H       -0.8280     4.5430     1.3460 H     1 <1>   0.1500 
 22 H       -4.3490     1.8360    -0.7180 H     1 <1>   0.1500 
 23 H       -2.4760    -1.1430    -1.4160 H     1 <1>   0.0800 
 24 H       -3.4790     0.1760    -2.0060 H     1 <1>   0.0800 
 25 H       -3.6490    -0.4000    -0.3360 H     1 <1>   0.0800 
 26 H       -3.4260     7.6090     1.0180 H     1 <1>   0.0800 
 27 H       -4.3100     6.5000    -0.0230 H     1 <1>   0.0800 
 28 H       -2.5750     6.7390    -0.2570 H     1 <1>   0.0800 
 29 H       -7.1550     3.9960     0.0190 H     1 <1>   0.0800 
 30 H       -6.3170     2.5190     0.4800 H     1 <1>   0.0800 
 31 H       -6.1840     3.1440    -1.1760 H     1 <1>   0.0800 
@<TRIPOS>BOND
  1   1   2  2   
  2   2   3  am  
  3   2   4  1   
  4   3   5  1   
  5   3  17  1   
  6   4   6  ar  
  7   4   7  ar  
  8   5  18  1   
  9   5  19  1   
 10   5  20  1   
 11   6   8  1   
 12   6   9  ar  
 13   7  10  ar  
 14   7  21  1   
 15   8  11  1   
 16   9  12  ar  
 17   9  22  1   
 18  10  12  ar  
 19  10  13  1   
 20  11  23  1   
 21  11  24  1   
 22  11  25  1   
 23  12  14  1   
 24  13  15  1   
 25  14  16  1   
 26  15  26  1   
 27  15  27  1   
 28  15  28  1   
 29  16  29  1   
 30  16  30  1   
 31  16  31  1   
@<TRIPOS>SUBSTRUCTURE
  1 ****   4 GROUP 4 **** **** 0

# MOE 2024.06 (io_trps.svl 2023.06)
