@<TRIPOS>MOLECULE
NONAME
53 54 1 0 0 
SMALL
USER_CHARGES


@<TRIPOS>ATOM
  1 O       -7.5330     4.4040    -0.2890 O.3   1 <1>  -0.3630 
  2 C       -8.8860     4.4230    -0.1820 C.ar  1 <1>   0.0830 
  3 C       -6.7460     5.5020     0.1360 C.3   1 <1>   0.1200 
  4 C       -9.6100     5.4730     0.3700 C.ar  1 <1>  -0.1500 
  5 C       -9.5630     3.3170    -0.6600 C.ar  1 <1>  -0.1500 
  6 C       -5.2650     5.1880    -0.1130 C.3   1 <1>   0.2000 
  7 C      -10.9960     5.4230     0.4450 C.ar  1 <1>  -0.1440 
  8 C      -10.9420     3.2610    -0.5880 C.ar  1 <1>  -0.1500 
  9 O       -4.9930     3.9430     0.4460 O.3   1 <1>  -0.6800 
 10 C       -4.3390     6.2660     0.4930 C.3   1 <1>   0.1100 
 11 C      -11.6780     4.3040    -0.0390 C.ar  1 <1>  -0.1430 
 12 C      -11.7180     6.6130     1.0650 C.3   1 <1>  -0.0970 
 13 N       -2.9440     6.2570    -0.0230 N.3   1 <1>  -0.8100 
 14 C      -13.2080     4.1760     0.0090 C.3   1 <1>   0.0630 
 15 C       -2.1880     7.4230     0.4910 C.3   1 <1>   0.1100 
 16 C       -2.2300     4.9910     0.3060 C.3   1 <1>   0.1100 
 17 C      -13.6320     2.9810     0.8700 C.3   1 <1>  -0.2400 
 18 C      -13.7930     4.0630    -1.4030 C.3   1 <1>  -0.2400 
 19 C       -0.7560     7.5030    -0.0960 C.3   1 <1>   0.3430 
 20 C       -0.7120     5.0470     0.0170 C.3   1 <1>   0.3430 
 21 N       -0.3830     6.2430    -0.8220 N.4   1 <1>  -0.9590 
 22 C        1.0150     6.2450    -1.3380 C.3   1 <1>   0.2630 
 23 H       -6.9230     5.6610     1.1850 H     1 <1>   0.0800 
 24 H       -7.0450     6.3700    -0.4230 H     1 <1>   0.0800 
 25 H       -9.1060     6.3400     0.7480 H     1 <1>   0.1500 
 26 H       -9.0090     2.5030    -1.0890 H     1 <1>   0.1500 
 27 H       -5.0980     5.1260    -1.1750 H     1 <1>   0.0800 
 28 H      -11.4410     2.3880    -0.9680 H     1 <1>   0.1500 
 29 H       -5.7560     3.3560     0.2500 H     1 <1>   0.4000 
 30 H       -4.3410     6.1680     1.5660 H     1 <1>   0.0800 
 31 H       -4.7670     7.2250     0.2550 H     1 <1>   0.0800 
 32 H      -11.0260     7.3730     1.3780 H     1 <1>   0.0800 
 33 H      -12.2770     6.2950     1.9270 H     1 <1>   0.0800 
 34 H      -12.3900     7.0480     0.3470 H     1 <1>   0.0800 
 35 H      -13.6410     5.0510     0.4560 H     1 <1>   0.0800 
 36 H       -2.1250     7.3670     1.5650 H     1 <1>   0.0800 
 37 H       -2.7110     8.3320     0.2460 H     1 <1>   0.0800 
 38 H       -2.6450     4.1940    -0.2850 H     1 <1>   0.0800 
 39 H       -2.3850     4.7340     1.3410 H     1 <1>   0.0800 
 40 H      -13.3010     2.0550     0.4370 H     1 <1>   0.0800 
 41 H      -14.7030     2.9520     0.9650 H     1 <1>   0.0800 
 42 H      -13.2040     3.0710     1.8530 H     1 <1>   0.0800 
 43 H      -13.4660     3.1610    -1.8860 H     1 <1>   0.0800 
 44 H      -13.4770     4.9030    -1.9950 H     1 <1>   0.0800 
 45 H      -14.8680     4.0590    -1.3610 H     1 <1>   0.0800 
 46 H       -0.0590     7.6940     0.7030 H     1 <1>   0.0800 
 47 H       -0.7080     8.3370    -0.7780 H     1 <1>   0.0800 
 48 H       -0.4180     4.1400    -0.4860 H     1 <1>   0.0800 
 49 H       -0.1760     5.0960     0.9500 H     1 <1>   0.0800 
 50 H       -1.0650     6.1910    -1.5970 H     1 <1>   0.4500 
 51 H        1.7170     6.2950    -0.5220 H     1 <1>   0.0800 
 52 H        1.1730     7.0940    -1.9830 H     1 <1>   0.0800 
 53 H        1.2050     5.3470    -1.9030 H     1 <1>   0.0800 
@<TRIPOS>BOND
  1   1   2  1   
  2   1   3  1   
  3   2   4  ar  
  4   2   5  ar  
  5   3   6  1   
  6   3  23  1   
  7   3  24  1   
  8   4   7  ar  
  9   4  25  1   
 10   5   8  ar  
 11   5  26  1   
 12   6   9  1   
 13   6  10  1   
 14   6  27  1   
 15   7  11  ar  
 16   7  12  1   
 17   8  11  ar  
 18   8  28  1   
 19   9  29  1   
 20  10  13  1   
 21  10  30  1   
 22  10  31  1   
 23  11  14  1   
 24  12  32  1   
 25  12  33  1   
 26  12  34  1   
 27  13  15  1   
 28  13  16  1   
 29  14  17  1   
 30  14  18  1   
 31  14  35  1   
 32  15  19  1   
 33  15  36  1   
 34  15  37  1   
 35  16  20  1   
 36  16  38  1   
 37  16  39  1   
 38  17  40  1   
 39  17  41  1   
 40  17  42  1   
 41  18  43  1   
 42  18  44  1   
 43  18  45  1   
 44  19  21  1   
 45  19  46  1   
 46  19  47  1   
 47  20  21  1   
 48  20  48  1   
 49  20  49  1   
 50  21  22  1   
 51  21  50  1   
 52  22  51  1   
 53  22  52  1   
 54  22  53  1   
@<TRIPOS>SUBSTRUCTURE
  1 ****   3 GROUP 4 **** **** 0

# MOE 2024.06 (io_trps.svl 2023.06)
