@<TRIPOS>MOLECULE
NONAME
25 25 1 0 0 
SMALL
USER_CHARGES


@<TRIPOS>ATOM
  1 S       -0.0360    -0.1360     0.0470 S.3   1 <1>  -0.0800 
  2 C       -1.2190     1.1190    -0.2510 C.2   1 <1>   0.0960 
  3 C        1.1870     1.0890     0.3030 C.2   1 <1>   0.0960 
  4 S       -2.8690     0.5090    -0.6150 S.3   1 <1>  -0.2860 
  5 C       -0.6970     2.3640    -0.1680 C.2   1 <1>  -0.1810 
  6 S        2.8170     0.4370     0.6890 S.3   1 <1>  -0.2860 
  7 C        0.7070     2.3470     0.1780 C.2   1 <1>  -0.1810 
  8 C       -4.0090     1.5740     0.3730 C.3   1 <1>  -0.0100 
  9 C       -1.4850     3.6410    -0.4220 C.3   1 <1>   0.3010 
 10 C        3.9910     1.4310    -0.3340 C.3   1 <1>  -0.0100 
 11 C        1.5360     3.6060     0.3880 C.3   1 <1>   0.3010 
 12 O       -2.1400     3.5050    -1.6270 O.3   1 <1>  -0.6800 
 13 O        2.1870     3.4890     1.5980 O.3   1 <1>  -0.6800 
 14 H       -4.9330     1.0360     0.4910 H     1 <1>   0.0800 
 15 H       -4.1700     2.4890    -0.1660 H     1 <1>   0.0800 
 16 H       -3.5480     1.7550     1.3280 H     1 <1>   0.0800 
 17 H       -0.8660     4.5140    -0.5000 H     1 <1>   0.0800 
 18 H       -2.2170     3.7970     0.3510 H     1 <1>   0.0800 
 19 H        4.8960     0.8590    -0.4330 H     1 <1>   0.0800 
 20 H        4.1820     2.3580     0.1740 H     1 <1>   0.0800 
 21 H        3.5350     1.5940    -1.2940 H     1 <1>   0.0800 
 22 H        0.9460     4.5010     0.4360 H     1 <1>   0.0800 
 23 H        2.2720     3.7100    -0.3890 H     1 <1>   0.0800 
 24 H       -2.3760     2.5610    -1.7480 H     1 <1>   0.4000 
 25 H        2.3910     2.5420     1.7510 H     1 <1>   0.4000 
@<TRIPOS>BOND
  1   1   2  1   
  2   1   3  1   
  3   2   4  1   
  4   2   5  2   
  5   3   6  1   
  6   3   7  2   
  7   4   8  1   
  8   5   7  1   
  9   5   9  1   
 10   6  10  1   
 11   7  11  1   
 12   8  14  1   
 13   8  15  1   
 14   8  16  1   
 15   9  12  1   
 16   9  17  1   
 17   9  18  1   
 18  10  19  1   
 19  10  20  1   
 20  10  21  1   
 21  11  13  1   
 22  11  22  1   
 23  11  23  1   
 24  12  24  1   
 25  13  25  1   
@<TRIPOS>SUBSTRUCTURE
  1 ****   5 GROUP 4 **** **** 0

# MOE 2024.06 (io_trps.svl 2023.06)
