@<TRIPOS>MOLECULE
NONAME
49 51 1 0 0 
SMALL
USER_CHARGES


@<TRIPOS>ATOM
  1 O        0.3310    -1.9690    -0.5520 O.co2 1 <1>  -0.9000 
  2 C       -0.1000    -2.3690     0.5280 C.2   1 <1>   0.9060 
  3 O        0.6560    -2.6360     1.4690 O.co2 1 <1>  -0.9000 
  4 C       -1.5760    -2.6650     0.7320 C.3   1 <1>  -0.1860 
  5 C       -2.0310    -4.3200     0.5730 C.3   1 <1>  -0.0190 
  6 C       -2.6010    -1.7930    -0.2390 C.3   1 <1>   0.0580 
  7 C       -0.9750    -5.4080     0.2880 C.2   1 <1>   0.5690 
  8 C       -3.2960    -4.3390    -0.5060 C.3   1 <1>   0.0580 
  9 C       -3.9420    -1.9940    -1.1190 C.2   1 <1>  -0.2880 
 10 C       -2.8430    -3.1020    -0.3110 C.3   1 <1>  -0.1600 
 11 O       -1.3470    -6.4240    -0.2540 O.2   1 <1>  -0.5700 
 12 N        0.3120    -5.2520     0.7160 N.am  1 <1>  -0.5470 
 13 C       -4.3070    -3.3270    -1.2580 C.2   1 <1>  -0.2880 
 14 C        1.4570    -6.0430     0.5610 C.ar  1 <1>   0.1170 
 15 C        1.4240    -7.4230     0.3850 C.ar  1 <1>  -0.1500 
 16 C        2.6910    -5.4090     0.6020 C.ar  1 <1>  -0.1500 
 17 C        2.5970    -8.1440     0.2500 C.ar  1 <1>  -0.1500 
 18 C        3.8680    -6.1230     0.4680 C.ar  1 <1>  -0.1500 
 19 C        3.8260    -7.5030     0.2900 C.ar  1 <1>   0.0820 
 20 O        4.9300    -8.2840     0.1480 O.3   1 <1>  -0.3620 
 21 C        6.2170    -7.7110     0.1280 C.3   1 <1>   0.1200 
 22 C        7.2370    -8.8330    -0.0710 C.3   1 <1>  -0.1600 
 23 C        8.6690    -8.2820    -0.1040 C.3   1 <1>  -0.1600 
 24 C        9.6880    -9.4090    -0.3030 C.3   1 <1>  -0.1600 
 25 C       11.1170    -8.8590    -0.3370 C.3   1 <1>  -0.2400 
 26 H       -1.7590    -2.3690     1.7540 H     1 <1>   0.0800 
 27 H       -2.4260    -4.6210     1.5330 H     1 <1>   0.0800 
 28 H       -1.9470    -1.3080    -0.9510 H     1 <1>   0.0800 
 29 H       -2.9270    -4.9240    -1.3380 H     1 <1>   0.0800 
 30 H       -4.4230    -1.1180    -1.5170 H     1 <1>   0.1500 
 31 H       -2.1590    -3.1870    -1.2520 H     1 <1>   0.0800 
 32 H       -3.6010    -2.9910     0.6360 H     1 <1>   0.0800 
 33 H        0.5290    -4.3090     1.0940 H     1 <1>   0.3700 
 34 H       -5.1440    -3.7440    -1.7900 H     1 <1>   0.1500 
 35 H        0.4800    -7.9330     0.3550 H     1 <1>   0.1500 
 36 H        2.7160    -4.3380     0.7360 H     1 <1>   0.1500 
 37 H        2.5660    -9.2090     0.1120 H     1 <1>   0.1500 
 38 H        4.7950    -5.5850     0.5050 H     1 <1>   0.1500 
 39 H        6.3790    -7.2100     1.0660 H     1 <1>   0.0800 
 40 H        6.2610    -7.0080    -0.6850 H     1 <1>   0.0800 
 41 H        7.0250    -9.3380    -0.9970 H     1 <1>   0.0800 
 42 H        7.1420    -9.5380     0.7370 H     1 <1>   0.0800 
 43 H        8.8780    -7.7710     0.8210 H     1 <1>   0.0800 
 44 H        8.7610    -7.5710    -0.9080 H     1 <1>   0.0800 
 45 H        9.4850    -9.9220    -1.2280 H     1 <1>   0.0800 
 46 H        9.6020   -10.1220     0.4990 H     1 <1>   0.0800 
 47 H       11.2330    -8.1610    -1.1460 H     1 <1>   0.0800 
 48 H       11.8170    -9.6640    -0.4770 H     1 <1>   0.0800 
 49 H       11.3510    -8.3620     0.5880 H     1 <1>   0.0800 
@<TRIPOS>BOND
  1   1   2  ar  
  2   2   3  ar  
  3   2   4  1   
  4   4   5  1   
  5   4   6  1   
  6   4  26  1   
  7   5   7  1   
  8   5   8  1   
  9   5  27  1   
 10   6   9  1   
 11   6  10  1   
 12   6  28  1   
 13   7  11  2   
 14   7  12  am  
 15   8  10  1   
 16   8  13  1   
 17   8  29  1   
 18   9  13  2   
 19   9  30  1   
 20  10  31  1   
 21  10  32  1   
 22  12  14  1   
 23  12  33  1   
 24  13  34  1   
 25  14  15  ar  
 26  14  16  ar  
 27  15  17  ar  
 28  15  35  1   
 29  16  18  ar  
 30  16  36  1   
 31  17  19  ar  
 32  17  37  1   
 33  18  19  ar  
 34  18  38  1   
 35  19  20  1   
 36  20  21  1   
 37  21  22  1   
 38  21  39  1   
 39  21  40  1   
 40  22  23  1   
 41  22  41  1   
 42  22  42  1   
 43  23  24  1   
 44  23  43  1   
 45  23  44  1   
 46  24  25  1   
 47  24  45  1   
 48  24  46  1   
 49  25  47  1   
 50  25  48  1   
 51  25  49  1   
@<TRIPOS>SUBSTRUCTURE
  1 ****  14 GROUP 4 **** **** 0

# MOE 2024.06 (io_trps.svl 2023.06)
