@<TRIPOS>MOLECULE
NONAME
35 35 1 0 0 
SMALL
USER_CHARGES


@<TRIPOS>ATOM
  1 CL       1.1210     0.5370    -0.1360 Cl    1 <1>  -0.1770 
  2 C        0.5310    -1.0010    -0.7360 C.ar  1 <1>   0.1770 
  3 C        1.3660    -2.1180    -0.6900 C.ar  1 <1>   0.1170 
  4 C       -0.7560    -1.0600    -1.2360 C.ar  1 <1>  -0.1500 
  5 N        2.6650    -1.9880    -0.1630 N.am  1 <1>  -0.5470 
  6 C        0.8470    -3.3200    -1.1640 C.ar  1 <1>  -0.1500 
  7 C       -1.2460    -2.2660    -1.7070 C.ar  1 <1>  -0.1500 
  8 C        3.7760    -2.7680    -0.2690 C.2   1 <1>   0.6900 
  9 C       -0.4410    -3.3930    -1.6690 C.ar  1 <1>  -0.1500 
 10 O        3.7990    -3.7630    -0.9650 O.2   1 <1>  -0.5700 
 11 N        4.8670    -2.3800     0.4300 N.am  1 <1>  -0.7300 
 12 C        6.1800    -3.0290     0.4980 C.3   1 <1>   0.5000 
 13 C        6.9190    -2.2010     1.5020 C.1   1 <1>  -0.2000 
 14 C        6.8540    -2.8960    -0.8890 C.3   1 <1>  -0.1600 
 15 C        6.0050    -4.4910     0.9890 C.3   1 <1>  -0.1600 
 16 C        7.5030    -1.5350     2.2970 C.1   1 <1>  -0.1770 
 17 C        8.2900    -3.4350    -1.0150 C.3   1 <1>  -0.2400 
 18 C        7.1750    -5.1250     1.7720 C.3   1 <1>  -0.2400 
 19 H       -1.3660    -0.1750    -1.2550 H     1 <1>   0.1500 
 20 H        2.8390    -1.0890     0.2790 H     1 <1>   0.3700 
 21 H        1.4450    -4.2130    -1.1410 H     1 <1>   0.1500 
 22 H       -2.2460    -2.3290    -2.1010 H     1 <1>   0.1500 
 23 H       -0.8180    -4.3340    -2.0330 H     1 <1>   0.1500 
 24 H        4.8010    -1.6070     1.0830 H     1 <1>   0.3700 
 25 H        6.8680    -1.8540    -1.1540 H     1 <1>   0.0800 
 26 H        6.2520    -3.4040    -1.6210 H     1 <1>   0.0800 
 27 H        5.7900    -5.1110     0.1370 H     1 <1>   0.0800 
 28 H        5.1440    -4.5330     1.6330 H     1 <1>   0.0800 
 29 H        8.0370    -0.9370     3.0140 H     1 <1>   0.1770 
 30 H        8.9280    -3.0220    -0.2530 H     1 <1>   0.0800 
 31 H        8.6940    -3.1650    -1.9750 H     1 <1>   0.0800 
 32 H        8.2990    -4.5070    -0.9440 H     1 <1>   0.0800 
 33 H        8.0930    -5.0860     1.2180 H     1 <1>   0.0800 
 34 H        6.9520    -6.1570     1.9790 H     1 <1>   0.0800 
 35 H        7.3210    -4.6230     2.7120 H     1 <1>   0.0800 
@<TRIPOS>BOND
  1   1   2  1   
  2   2   3  ar  
  3   2   4  ar  
  4   3   5  1   
  5   3   6  ar  
  6   4   7  ar  
  7   4  19  1   
  8   5   8  am  
  9   5  20  1   
 10   6   9  ar  
 11   6  21  1   
 12   7   9  ar  
 13   7  22  1   
 14   8  10  2   
 15   8  11  am  
 16   9  23  1   
 17  11  12  1   
 18  11  24  1   
 19  12  13  1   
 20  12  14  1   
 21  12  15  1   
 22  13  16  3   
 23  14  17  1   
 24  14  25  1   
 25  14  26  1   
 26  15  18  1   
 27  15  27  1   
 28  15  28  1   
 29  16  29  1   
 30  17  30  1   
 31  17  31  1   
 32  17  32  1   
 33  18  33  1   
 34  18  34  1   
 35  18  35  1   
@<TRIPOS>SUBSTRUCTURE
  1 ****   8 GROUP 4 **** **** 0

# MOE 2024.06 (io_trps.svl 2023.06)
