@<TRIPOS>MOLECULE
NONAME
41 43 1 0 0 
SMALL
USER_CHARGES


@<TRIPOS>ATOM
  1 BR       0.3430    -0.7520    -0.6740 Br    1 <1>  -0.1100 
  2 C       -1.0910    -1.8600    -0.0110 C.2   1 <1>   0.1240 
  3 C       -0.9240    -2.4570     1.2710 C.2   1 <1>   0.3760 
  4 C       -2.2070    -2.0510    -0.7530 C.2   1 <1>  -0.1810 
  5 N       -1.8290    -3.2150     1.7990 N.2   1 <1>  -0.5760 
  6 N       -3.1780    -2.8580    -0.1990 N.pl3 1 <1>   0.6010 
  7 C       -2.9730    -3.4140     1.0450 C.2   1 <1>  -0.0260 
  8 N       -4.3660    -3.2050    -0.7170 N.2   1 <1>  -0.7070 
  9 C       -4.0860    -4.1380     1.3070 C.2   1 <1>  -0.1500 
 10 C       -4.9230    -3.9880     0.2020 C.2   1 <1>   0.2030 
 11 C       -6.2350    -4.6050     0.0710 C.2   1 <1>   0.7160 
 12 O       -6.7320    -5.2820     0.9560 O.2   1 <1>  -0.5700 
 13 N       -6.9560    -4.4140    -1.0760 N.am  1 <1>  -0.7300 
 14 C       -8.2300    -5.0750    -1.4060 C.3   1 <1>   0.1400 
 15 C       -9.3630    -4.3310    -0.6970 C.3   1 <1>  -0.1600 
 16 C      -10.6570    -5.1370    -0.7590 C.3   1 <1>   0.3430 
 17 N      -11.6660    -4.5560     0.1690 N.4   1 <1>  -0.9590 
 18 C      -12.8300    -5.4920     0.3520 C.3   1 <1>   0.3430 
 19 C      -12.1530    -3.1980    -0.2710 C.3   1 <1>   0.3430 
 20 C      -13.9280    -4.8670     1.2340 C.3   1 <1>   0.1200 
 21 C      -13.2830    -2.6790     0.6390 C.3   1 <1>   0.1200 
 22 O      -14.3100    -3.6240     0.7210 O.3   1 <1>  -0.5600 
 23 H       -0.0110    -2.2630     1.8060 H     1 <1>   0.0600 
 24 H       -2.4010    -1.6350    -1.7220 H     1 <1>   0.1500 
 25 H       -4.2950    -4.7180     2.1880 H     1 <1>   0.1500 
 26 H       -6.4850    -3.8620    -1.8010 H     1 <1>   0.3700 
 27 H       -8.1830    -6.0980    -1.0680 H     1 <1>   0.0800 
 28 H       -8.3730    -5.0730    -2.4750 H     1 <1>   0.0800 
 29 H       -9.4900    -3.3700    -1.1620 H     1 <1>   0.0800 
 30 H       -9.0890    -4.1970     0.3350 H     1 <1>   0.0800 
 31 H      -10.4450    -6.1520    -0.4610 H     1 <1>   0.0800 
 32 H      -11.0390    -5.1540    -1.7680 H     1 <1>   0.0800 
 33 H      -11.2190    -4.4420     1.0890 H     1 <1>   0.4500 
 34 H      -12.4960    -6.4130     0.8010 H     1 <1>   0.0800 
 35 H      -13.2630    -5.7280    -0.6070 H     1 <1>   0.0800 
 36 H      -12.5300    -3.2550    -1.2790 H     1 <1>   0.0800 
 37 H      -11.3400    -2.4920    -0.2600 H     1 <1>   0.0800 
 38 H      -13.5900    -4.7370     2.2470 H     1 <1>   0.0800 
 39 H      -14.8010    -5.4980     1.2430 H     1 <1>   0.0800 
 40 H      -13.7020    -1.7760     0.2310 H     1 <1>   0.0800 
 41 H      -12.9220    -2.4710     1.6310 H     1 <1>   0.0800 
@<TRIPOS>BOND
  1   1   2  1   
  2   2   3  1   
  3   2   4  2   
  4   3   5  2   
  5   3  23  1   
  6   4   6  1   
  7   4  24  1   
  8   5   7  1   
  9   6   7  1   
 10   6   8  1   
 11   7   9  2   
 12   8  10  2   
 13   9  10  1   
 14   9  25  1   
 15  10  11  1   
 16  11  12  2   
 17  11  13  am  
 18  13  14  1   
 19  13  26  1   
 20  14  15  1   
 21  14  27  1   
 22  14  28  1   
 23  15  16  1   
 24  15  29  1   
 25  15  30  1   
 26  16  17  1   
 27  16  31  1   
 28  16  32  1   
 29  17  18  1   
 30  17  19  1   
 31  17  33  1   
 32  18  20  1   
 33  18  34  1   
 34  18  35  1   
 35  19  21  1   
 36  19  36  1   
 37  19  37  1   
 38  20  22  1   
 39  20  38  1   
 40  20  39  1   
 41  21  22  1   
 42  21  40  1   
 43  21  41  1   
@<TRIPOS>SUBSTRUCTURE
  1 ****  11 GROUP 4 **** **** 0

# MOE 2024.06 (io_trps.svl 2023.06)
