@<TRIPOS>MOLECULE
NONAME
43 44 1 0 0 
SMALL
USER_CHARGES


@<TRIPOS>ATOM
  1 O       -3.9590     6.5590     0.0220 O.3   1 <1>  -0.3630 
  2 C       -5.1970     7.0760    -0.1960 C.ar  1 <1>   0.0830 
  3 C       -2.7970     7.3500    -0.0190 C.3   1 <1>   0.1200 
  4 C       -6.2940     6.1820    -0.0820 C.ar  1 <1>   0.0000 
  5 C       -5.4040     8.4010    -0.5120 C.ar  1 <1>  -0.1500 
  6 C       -1.6100     6.4310     0.2880 C.3   1 <1>   0.3430 
  7 C       -7.5990     6.6800    -0.2970 C.ar  1 <1>   0.0000 
  8 C       -6.1550     4.8120     0.2360 C.ar  1 <1>  -0.1500 
  9 C       -6.6980     8.8830    -0.7230 C.ar  1 <1>  -0.1500 
 10 N       -0.2870     7.1440     0.2440 N.4   1 <1>  -0.9590 
 11 C       -7.7680     8.0410    -0.6170 C.ar  1 <1>  -0.1500 
 12 C       -8.6970     5.8020    -0.1870 C.ar  1 <1>  -0.1500 
 13 C       -7.2370     3.9820     0.3370 C.ar  1 <1>  -0.1500 
 14 C        0.8180     6.1410     0.2750 C.3   1 <1>   0.3430 
 15 C       -0.1560     8.1390     1.3590 C.3   1 <1>   0.2630 
 16 C       -8.5240     4.4830     0.1240 C.ar  1 <1>  -0.1500 
 17 C        2.1360     6.7810    -0.1660 C.3   1 <1>  -0.1600 
 18 C        3.2500     5.7300    -0.2440 C.3   1 <1>  -0.1600 
 19 C        4.5710     6.3630    -0.6880 C.3   1 <1>  -0.2400 
 20 H       -2.8990     8.1220     0.7220 H     1 <1>   0.0800 
 21 H       -2.7150     7.7680    -1.0070 H     1 <1>   0.0800 
 22 H       -4.6020     9.1060    -0.6090 H     1 <1>   0.1500 
 23 H       -1.6110     5.6370    -0.4410 H     1 <1>   0.0800 
 24 H       -1.7530     5.9930     1.2620 H     1 <1>   0.0800 
 25 H       -5.1690     4.4180     0.4010 H     1 <1>   0.1500 
 26 H       -6.8410     9.9220    -0.9690 H     1 <1>   0.1500 
 27 H       -0.2170     7.6380    -0.6580 H     1 <1>   0.4500 
 28 H       -8.7650     8.4080    -0.7790 H     1 <1>   0.1500 
 29 H       -9.6840     6.1940    -0.3520 H     1 <1>   0.1500 
 30 H       -7.1160     2.9400     0.5800 H     1 <1>   0.1500 
 31 H        0.5900     5.3310    -0.4000 H     1 <1>   0.0800 
 32 H        0.9230     5.7310     1.2670 H     1 <1>   0.0800 
 33 H       -0.2080     7.6420     2.3140 H     1 <1>   0.0800 
 34 H       -0.9450     8.8710     1.3090 H     1 <1>   0.0800 
 35 H        0.7870     8.6570     1.2930 H     1 <1>   0.0800 
 36 H       -9.3670     3.8180     0.2070 H     1 <1>   0.1500 
 37 H        2.4350     7.5420     0.5330 H     1 <1>   0.0800 
 38 H        2.0150     7.2280    -1.1380 H     1 <1>   0.0800 
 39 H        2.9820     4.9570    -0.9460 H     1 <1>   0.0800 
 40 H        3.3920     5.2690     0.7200 H     1 <1>   0.0800 
 41 H        4.4730     6.8090    -1.6630 H     1 <1>   0.0800 
 42 H        5.3400     5.6120    -0.7380 H     1 <1>   0.0800 
 43 H        4.8850     7.1200     0.0090 H     1 <1>   0.0800 
@<TRIPOS>BOND
  1   1   2  1   
  2   1   3  1   
  3   2   4  ar  
  4   2   5  ar  
  5   3   6  1   
  6   3  20  1   
  7   3  21  1   
  8   4   7  ar  
  9   4   8  ar  
 10   5   9  ar  
 11   5  22  1   
 12   6  10  1   
 13   6  23  1   
 14   6  24  1   
 15   7  11  ar  
 16   7  12  ar  
 17   8  13  ar  
 18   8  25  1   
 19   9  11  ar  
 20   9  26  1   
 21  10  14  1   
 22  10  15  1   
 23  10  27  1   
 24  11  28  1   
 25  12  16  ar  
 26  12  29  1   
 27  13  16  ar  
 28  13  30  1   
 29  14  17  1   
 30  14  31  1   
 31  14  32  1   
 32  15  33  1   
 33  15  34  1   
 34  15  35  1   
 35  16  36  1   
 36  17  18  1   
 37  17  37  1   
 38  17  38  1   
 39  18  19  1   
 40  18  39  1   
 41  18  40  1   
 42  19  41  1   
 43  19  42  1   
 44  19  43  1   
@<TRIPOS>SUBSTRUCTURE
  1 ****   1 GROUP 4 **** **** 0

# MOE 2024.06 (io_trps.svl 2023.06)
