@<TRIPOS>MOLECULE
NONAME
56 57 1 0 0 
SMALL
USER_CHARGES


@<TRIPOS>ATOM
  1 O      -12.8120     2.5320    -1.5100 O.2   1 <1>  -0.5700 
  2 C      -12.9690     3.1250    -0.4740 C.2   1 <1>   0.6590 
  3 O      -14.0850     3.0520     0.2330 O.3   1 <1>  -0.4300 
  4 C      -11.8710     4.0190     0.0950 C.3   1 <1>  -0.0190 
  5 C      -15.1730     2.2620    -0.1900 C.3   1 <1>   0.1200 
  6 C      -11.6400     5.2430    -0.8110 C.3   1 <1>  -0.1600 
  7 C      -10.5580     3.2350     0.2810 C.3   1 <1>  -0.1600 
  8 C      -16.2880     2.4010     0.8410 C.3   1 <1>  -0.2400 
  9 C      -10.4620     6.0930    -0.3380 C.3   1 <1>   0.3430 
 10 C       -9.4080     4.1370     0.7250 C.3   1 <1>   0.3430 
 11 N       -9.2370     5.2470    -0.2590 N.4   1 <1>  -0.9590 
 12 C       -8.0410     6.1010     0.0500 C.3   1 <1>   0.3430 
 13 C       -6.7150     5.3660    -0.1590 C.3   1 <1>   0.1200 
 14 O       -5.6880     6.2720     0.1510 O.3   1 <1>  -0.3630 
 15 C       -4.3780     5.9120     0.0830 C.ar  1 <1>   0.0820 
 16 C       -3.4320     6.8550     0.4700 C.ar  1 <1>  -0.1440 
 17 C       -3.9610     4.6550    -0.3520 C.ar  1 <1>  -0.1500 
 18 C       -2.0870     6.5290     0.4200 C.ar  1 <1>  -0.1500 
 19 C       -3.8510     8.2380     0.9480 C.3   1 <1>  -0.0970 
 20 C       -2.6130     4.3300    -0.4020 C.ar  1 <1>  -0.1440 
 21 C       -1.6820     5.2790    -0.0120 C.ar  1 <1>  -0.1500 
 22 C       -2.1420     2.9560    -0.8770 C.3   1 <1>   0.0630 
 23 C       -2.5540     2.7080    -2.3320 C.3   1 <1>  -0.2400 
 24 C       -2.6730     1.8480     0.0370 C.3   1 <1>  -0.2400 
 25 H      -12.2000     4.3660     1.0600 H     1 <1>   0.0800 
 26 H      -14.8430     1.2390    -0.2690 H     1 <1>   0.0800 
 27 H      -15.4950     2.6120    -1.1570 H     1 <1>   0.0800 
 28 H      -12.5290     5.8500    -0.8210 H     1 <1>   0.0800 
 29 H      -11.4620     4.9240    -1.8240 H     1 <1>   0.0800 
 30 H      -10.2860     2.7450    -0.6380 H     1 <1>   0.0800 
 31 H      -10.7060     2.4650     1.0190 H     1 <1>   0.0800 
 32 H      -15.9510     2.0560     1.8020 H     1 <1>   0.0800 
 33 H      -17.1320     1.8060     0.5420 H     1 <1>   0.0800 
 34 H      -16.6020     3.4260     0.9150 H     1 <1>   0.0800 
 35 H      -10.6820     6.5120     0.6310 H     1 <1>   0.0800 
 36 H      -10.3070     6.9060    -1.0310 H     1 <1>   0.0800 
 37 H       -8.5050     3.5510     0.7910 H     1 <1>   0.0800 
 38 H       -9.6200     4.5420     1.7020 H     1 <1>   0.0800 
 39 H       -9.1060     4.8250    -1.1900 H     1 <1>   0.4500 
 40 H       -8.0940     6.4420     1.0720 H     1 <1>   0.0800 
 41 H       -8.0440     6.9660    -0.5940 H     1 <1>   0.0800 
 42 H       -6.5980     5.0690    -1.1870 H     1 <1>   0.0800 
 43 H       -6.6210     4.5240     0.5030 H     1 <1>   0.0800 
 44 H       -4.6670     3.9110    -0.6590 H     1 <1>   0.1500 
 45 H       -1.3430     7.2470     0.7160 H     1 <1>   0.1500 
 46 H       -4.4040     8.7390     0.1750 H     1 <1>   0.0800 
 47 H       -2.9950     8.8380     1.1980 H     1 <1>   0.0800 
 48 H       -4.4720     8.1500     1.8210 H     1 <1>   0.0800 
 49 H       -0.6310     5.0520    -0.0410 H     1 <1>   0.1500 
 50 H       -1.0660     2.9270    -0.8330 H     1 <1>   0.0800 
 51 H       -3.6230     2.6720    -2.4300 H     1 <1>   0.0800 
 52 H       -2.1450     1.7760    -2.6790 H     1 <1>   0.0800 
 53 H       -2.1780     3.5000    -2.9560 H     1 <1>   0.0800 
 54 H       -3.7450     1.7910    -0.0080 H     1 <1>   0.0800 
 55 H       -2.3820     2.0430     1.0540 H     1 <1>   0.0800 
 56 H       -2.2660     0.8970    -0.2570 H     1 <1>   0.0800 
@<TRIPOS>BOND
  1   1   2  2   
  2   2   3  1   
  3   2   4  1   
  4   3   5  1   
  5   4   6  1   
  6   4   7  1   
  7   4  25  1   
  8   5   8  1   
  9   5  26  1   
 10   5  27  1   
 11   6   9  1   
 12   6  28  1   
 13   6  29  1   
 14   7  10  1   
 15   7  30  1   
 16   7  31  1   
 17   8  32  1   
 18   8  33  1   
 19   8  34  1   
 20   9  11  1   
 21   9  35  1   
 22   9  36  1   
 23  10  11  1   
 24  10  37  1   
 25  10  38  1   
 26  11  12  1   
 27  11  39  1   
 28  12  13  1   
 29  12  40  1   
 30  12  41  1   
 31  13  14  1   
 32  13  42  1   
 33  13  43  1   
 34  14  15  1   
 35  15  16  ar  
 36  15  17  ar  
 37  16  18  ar  
 38  16  19  1   
 39  17  20  ar  
 40  17  44  1   
 41  18  21  ar  
 42  18  45  1   
 43  19  46  1   
 44  19  47  1   
 45  19  48  1   
 46  20  21  ar  
 47  20  22  1   
 48  21  49  1   
 49  22  23  1   
 50  22  24  1   
 51  22  50  1   
 52  23  51  1   
 53  23  52  1   
 54  23  53  1   
 55  24  54  1   
 56  24  55  1   
 57  24  56  1   
@<TRIPOS>SUBSTRUCTURE
  1 ****  13 GROUP 4 **** **** 0

# MOE 2024.06 (io_trps.svl 2023.06)
