@<TRIPOS>MOLECULE
NONAME
46 46 1 0 0 
SMALL
USER_CHARGES


@<TRIPOS>ATOM
  1 O        0.1910    -0.6840    -0.8420 O.3   1 <1>  -0.3630 
  2 C       -1.0470    -1.0500    -0.4420 C.ar  1 <1>   0.0830 
  3 C        1.2040    -0.8480     0.1130 C.3   1 <1>   0.1200 
  4 C       -1.4790    -2.3580    -0.6460 C.ar  1 <1>  -0.1440 
  5 C       -1.8800    -0.1140     0.1660 C.ar  1 <1>  -0.1440 
  6 C        2.5110    -0.3840    -0.5270 C.3   1 <1>  -0.1600 
  7 C       -2.7340    -2.7310    -0.1950 C.ar  1 <1>  -0.1500 
  8 C       -0.6110    -3.3860    -1.3590 C.3   1 <1>  -0.0960 
  9 C       -3.1300    -0.5120     0.6080 C.ar  1 <1>  -0.1500 
 10 C       -1.4550     1.3360     0.3500 C.3   1 <1>  -0.0970 
 11 C        3.6710    -0.5300     0.4500 C.3   1 <1>   0.3430 
 12 C       -3.5600    -1.8170     0.4370 C.ar  1 <1>  -0.1440 
 13 N        4.9140    -0.0680    -0.2120 N.4   1 <1>  -0.9060 
 14 C       -4.9330    -2.2390     0.9270 C.3   1 <1>  -0.0970 
 15 C        6.1040    -0.1730     0.6650 C.3   1 <1>   0.3430 
 16 C        7.3270     0.3220    -0.1010 C.3   1 <1>  -0.1600 
 17 C        8.5880     0.2330     0.7690 C.3   1 <1>  -0.1600 
 18 C        9.8170     0.7290     0.0030 C.3   1 <1>  -0.2400 
 19 H        1.2430    -1.8890     0.3860 H     1 <1>   0.0800 
 20 H        0.9510    -0.2570     0.9760 H     1 <1>   0.0800 
 21 H        2.4000     0.6480    -0.8120 H     1 <1>   0.0800 
 22 H        2.6910    -0.9830    -1.4020 H     1 <1>   0.0800 
 23 H       -3.0760    -3.7400    -0.3390 H     1 <1>   0.1500 
 24 H        0.1000    -3.8060    -0.6720 H     1 <1>   0.0800 
 25 H       -0.0860    -2.9260    -2.1760 H     1 <1>   0.0800 
 26 H       -1.2160    -4.1800    -1.7570 H     1 <1>   0.0800 
 27 H       -3.7800     0.2000     1.0860 H     1 <1>   0.1500 
 28 H       -0.8350     1.4300     1.2210 H     1 <1>   0.0800 
 29 H       -2.3150     1.9700     0.4690 H     1 <1>   0.0800 
 30 H       -0.9080     1.6760    -0.5120 H     1 <1>   0.0800 
 31 H        3.7690    -1.5630     0.7440 H     1 <1>   0.0800 
 32 H        3.4790     0.0610     1.3320 H     1 <1>   0.0800 
 33 H        4.8000     0.9080    -0.5130 H     1 <1>   0.4500 
 34 H        5.0730    -0.6190    -1.0660 H     1 <1>   0.4500 
 35 H       -4.9310    -3.2790     1.2020 H     1 <1>   0.0800 
 36 H       -5.6580    -2.0870     0.1480 H     1 <1>   0.0800 
 37 H       -5.2200    -1.6620     1.7870 H     1 <1>   0.0800 
 38 H        6.2560    -1.1990     0.9640 H     1 <1>   0.0800 
 39 H        5.9660     0.4260     1.5520 H     1 <1>   0.0800 
 40 H        7.1830     1.3480    -0.3960 H     1 <1>   0.0800 
 41 H        7.4730    -0.2770    -0.9830 H     1 <1>   0.0800 
 42 H        8.7570    -0.7880     1.0730 H     1 <1>   0.0800 
 43 H        8.4680     0.8300     1.6580 H     1 <1>   0.0800 
 44 H        9.9850     0.1340    -0.8780 H     1 <1>   0.0800 
 45 H       10.6910     0.6590     0.6270 H     1 <1>   0.0800 
 46 H        9.6950     1.7570    -0.2910 H     1 <1>   0.0800 
@<TRIPOS>BOND
  1   1   2  1   
  2   1   3  1   
  3   2   4  ar  
  4   2   5  ar  
  5   3   6  1   
  6   3  19  1   
  7   3  20  1   
  8   4   7  ar  
  9   4   8  1   
 10   5   9  ar  
 11   5  10  1   
 12   6  11  1   
 13   6  21  1   
 14   6  22  1   
 15   7  12  ar  
 16   7  23  1   
 17   8  24  1   
 18   8  25  1   
 19   8  26  1   
 20   9  12  ar  
 21   9  27  1   
 22  10  28  1   
 23  10  29  1   
 24  10  30  1   
 25  11  13  1   
 26  11  31  1   
 27  11  32  1   
 28  12  14  1   
 29  13  15  1   
 30  13  33  1   
 31  13  34  1   
 32  14  35  1   
 33  14  36  1   
 34  14  37  1   
 35  15  16  1   
 36  15  38  1   
 37  15  39  1   
 38  16  17  1   
 39  16  40  1   
 40  16  41  1   
 41  17  18  1   
 42  17  42  1   
 43  17  43  1   
 44  18  44  1   
 45  18  45  1   
 46  18  46  1   
@<TRIPOS>SUBSTRUCTURE
  1 ****   3 GROUP 4 **** **** 0

# MOE 2024.06 (io_trps.svl 2023.06)
