@<TRIPOS>MOLECULE
NONAME
39 40 1 0 0 
SMALL
USER_CHARGES


@<TRIPOS>ATOM
  1 O        0.6270    -0.1630     0.1070 O.2   1 <1>  -0.5700 
  2 C        0.4840    -1.3470     0.0810 C.2   1 <1>   0.4480 
  3 C        1.3180    -2.2050    -0.8420 C.3   1 <1>  -0.0380 
  4 C       -0.5290    -2.0450     0.9740 C.3   1 <1>  -0.0990 
  5 C        1.3690    -3.6190    -0.2910 C.2   1 <1>   0.3280 
  6 C       -1.1260    -3.3100     0.3200 C.3   1 <1>   0.0000 
  7 N        2.4130    -4.2460     0.0580 N.2   1 <1>  -0.5120 
  8 C        0.0010    -4.2750    -0.1410 C.3   1 <1>  -0.0990 
  9 C       -2.0270    -4.0220     1.3410 C.3   1 <1>  -0.2400 
 10 C       -2.0110    -2.9110    -0.8770 C.3   1 <1>  -0.2400 
 11 N        3.6950    -3.7130    -0.0140 N.am  1 <1>  -0.3680 
 12 C        4.8880    -4.3400     0.3040 C.2   1 <1>   0.5440 
 13 O        4.9070    -5.5290     0.5690 O.2   1 <1>  -0.5700 
 14 C        6.1130    -3.5710     0.2880 C.ar  1 <1>   0.0860 
 15 C        6.1470    -2.2180     0.6470 C.ar  1 <1>  -0.1500 
 16 C        7.3220    -4.1550    -0.0950 C.ar  1 <1>  -0.1500 
 17 C        7.3180    -1.4880     0.5960 C.ar  1 <1>  -0.1500 
 18 C        8.4950    -3.4280    -0.1440 C.ar  1 <1>  -0.1500 
 19 C        8.5060    -2.0810     0.1920 C.ar  1 <1>   0.1000 
 20 N        9.6700    -1.3500     0.1300 N.pl3 1 <1>  -0.9000 
 21 H        2.2910    -1.7660    -0.9340 H     1 <1>   0.0800 
 22 H        0.8720    -2.2180    -1.8170 H     1 <1>   0.0800 
 23 H       -1.3100    -1.3490     1.2240 H     1 <1>   0.0800 
 24 H       -0.0310    -2.3120     1.8890 H     1 <1>   0.0800 
 25 H        0.1110    -5.0740     0.5720 H     1 <1>   0.0800 
 26 H       -0.2610    -4.7390    -1.0750 H     1 <1>   0.0800 
 27 H       -1.4650    -4.3090     2.2130 H     1 <1>   0.0800 
 28 H       -2.4590    -4.9100     0.9130 H     1 <1>   0.0800 
 29 H       -2.8290    -3.3770     1.6580 H     1 <1>   0.0800 
 30 H       -1.4470    -2.4220    -1.6500 H     1 <1>   0.0800 
 31 H       -2.7900    -2.2400    -0.5620 H     1 <1>   0.0800 
 32 H       -2.4780    -3.7800    -1.3070 H     1 <1>   0.0800 
 33 H        3.7970    -2.7540    -0.3460 H     1 <1>   0.3700 
 34 H        5.2480    -1.7320     0.9830 H     1 <1>   0.1500 
 35 H        7.3310    -5.2000    -0.3560 H     1 <1>   0.1500 
 36 H        7.3210    -0.4510     0.8780 H     1 <1>   0.1500 
 37 H        9.4110    -3.9040    -0.4420 H     1 <1>   0.1500 
 38 H       10.4630    -1.7270    -0.3970 H     1 <1>   0.4000 
 39 H        9.6180    -0.3280     0.1200 H     1 <1>   0.4000 
@<TRIPOS>BOND
  1   1   2  2   
  2   2   3  1   
  3   2   4  1   
  4   3   5  1   
  5   3  21  1   
  6   3  22  1   
  7   4   6  1   
  8   4  23  1   
  9   4  24  1   
 10   5   7  2   
 11   5   8  1   
 12   6   8  1   
 13   6   9  1   
 14   6  10  1   
 15   7  11  1   
 16   8  25  1   
 17   8  26  1   
 18   9  27  1   
 19   9  28  1   
 20   9  29  1   
 21  10  30  1   
 22  10  31  1   
 23  10  32  1   
 24  11  12  am  
 25  11  33  1   
 26  12  13  2   
 27  12  14  1   
 28  14  15  ar  
 29  14  16  ar  
 30  15  17  ar  
 31  15  34  1   
 32  16  18  ar  
 33  16  35  1   
 34  17  19  ar  
 35  17  36  1   
 36  18  19  ar  
 37  18  37  1   
 38  19  20  1   
 39  20  38  1   
 40  20  39  1   
@<TRIPOS>SUBSTRUCTURE
  1 ****  11 GROUP 4 **** **** 0

# MOE 2024.06 (io_trps.svl 2023.06)
