@<TRIPOS>MOLECULE
NONAME
53 55 1 0 0 
SMALL
USER_CHARGES


@<TRIPOS>ATOM
  1 S       -0.0270     0.0280    -0.5150 S.o2  1 <1>   1.4470 
  2 O        0.1520     0.1120    -1.9490 O.2   1 <1>  -0.6500 
  3 O       -0.0210     1.2420     0.2730 O.2   1 <1>  -0.6500 
  4 N        1.2370    -0.9360     0.0740 N.am  1 <1>  -0.8490 
  5 C       -1.5060    -0.9430    -0.1150 C.ar  1 <1>  -0.0090 
  6 C        1.4180    -2.1670    -0.7220 C.3   1 <1>   0.1960 
  7 C        2.5010    -0.1810     0.1200 C.3   1 <1>   0.1960 
  8 C       -2.3600    -1.4060    -1.1110 C.ar  1 <1>  -0.1500 
  9 C       -1.8150    -1.2590     1.2030 C.ar  1 <1>  -0.1500 
 10 C        2.5140    -3.0660    -0.1280 C.3   1 <1>   0.1400 
 11 C        3.6500    -1.0120     0.7180 C.3   1 <1>   0.1400 
 12 C       -3.4790    -2.1600    -0.8040 C.ar  1 <1>  -0.1500 
 13 C       -2.9330    -2.0120     1.5200 C.ar  1 <1>  -0.1500 
 14 N        3.8010    -2.3150     0.0000 N.am  1 <1>  -0.6600 
 15 C       -3.7660    -2.4640     0.5140 C.ar  1 <1>  -0.1500 
 16 C        4.9290    -2.6730    -0.7090 C.2   1 <1>   0.5440 
 17 O        4.8300    -3.5140    -1.5820 O.2   1 <1>  -0.5700 
 18 C        6.2180    -2.0580    -0.4530 C.ar  1 <1>   0.0860 
 19 C        6.7560    -1.9910     0.8290 C.ar  1 <1>  -0.1500 
 20 C        6.9680    -1.5050    -1.4860 C.ar  1 <1>  -0.1500 
 21 C        7.9740    -1.3820     1.0680 C.ar  1 <1>  -0.1500 
 22 C        8.1860    -0.8940    -1.2490 C.ar  1 <1>  -0.1500 
 23 C        8.7140    -0.8150     0.0360 C.ar  1 <1>  -0.1430 
 24 C       10.0680    -0.1410     0.3520 C.3   1 <1>   0.1430 
 25 C        9.8490     1.0110     1.3450 C.3   1 <1>  -0.2400 
 26 C       11.0230    -1.1720     0.9700 C.3   1 <1>  -0.2400 
 27 C       10.7570     0.4450    -0.8920 C.3   1 <1>  -0.2400 
 28 H        1.6840    -1.9200    -1.7370 H     1 <1>   0.0800 
 29 H        0.4970    -2.7230    -0.7460 H     1 <1>   0.0800 
 30 H        2.3720     0.7020     0.7240 H     1 <1>   0.0800 
 31 H        2.7730     0.1370    -0.8740 H     1 <1>   0.0800 
 32 H       -2.1470    -1.1730    -2.1410 H     1 <1>   0.1500 
 33 H       -1.1690    -0.9080     1.9910 H     1 <1>   0.1500 
 34 H        2.6390    -3.9330    -0.7530 H     1 <1>   0.0800 
 35 H        2.2060    -3.4050     0.8450 H     1 <1>   0.0800 
 36 H        3.4430    -1.2040     1.7560 H     1 <1>   0.0800 
 37 H        4.5550    -0.4350     0.6590 H     1 <1>   0.0800 
 38 H       -4.1280    -2.5080    -1.5900 H     1 <1>   0.1500 
 39 H       -3.1540    -2.2430     2.5480 H     1 <1>   0.1500 
 40 H       -4.6370    -3.0490     0.7570 H     1 <1>   0.1500 
 41 H        6.2100    -2.4290     1.6460 H     1 <1>   0.1500 
 42 H        6.5840    -1.5610    -2.4900 H     1 <1>   0.1500 
 43 H        8.3440    -1.3560     2.0770 H     1 <1>   0.1500 
 44 H        8.7070    -0.4880    -2.0960 H     1 <1>   0.1500 
 45 H        9.4540     0.6510     2.2770 H     1 <1>   0.0800 
 46 H        9.1540     1.7220     0.9360 H     1 <1>   0.0800 
 47 H       10.7760     1.5170     1.5500 H     1 <1>   0.0800 
 48 H       11.1550    -2.0000     0.2950 H     1 <1>   0.0800 
 49 H       10.6380    -1.5530     1.8970 H     1 <1>   0.0800 
 50 H       11.9850    -0.7320     1.1640 H     1 <1>   0.0800 
 51 H       10.1360     1.1930    -1.3510 H     1 <1>   0.0800 
 52 H       10.9640    -0.3290    -1.6090 H     1 <1>   0.0800 
 53 H       11.6910     0.9070    -0.6240 H     1 <1>   0.0800 
@<TRIPOS>BOND
  1   1   2  2   
  2   1   3  2   
  3   1   4  am  
  4   1   5  1   
  5   4   6  1   
  6   4   7  1   
  7   5   8  ar  
  8   5   9  ar  
  9   6  10  1   
 10   6  28  1   
 11   6  29  1   
 12   7  11  1   
 13   7  30  1   
 14   7  31  1   
 15   8  12  ar  
 16   8  32  1   
 17   9  13  ar  
 18   9  33  1   
 19  10  14  1   
 20  10  34  1   
 21  10  35  1   
 22  11  14  1   
 23  11  36  1   
 24  11  37  1   
 25  12  15  ar  
 26  12  38  1   
 27  13  15  ar  
 28  13  39  1   
 29  14  16  am  
 30  15  40  1   
 31  16  17  2   
 32  16  18  1   
 33  18  19  ar  
 34  18  20  ar  
 35  19  21  ar  
 36  19  41  1   
 37  20  22  ar  
 38  20  42  1   
 39  21  23  ar  
 40  21  43  1   
 41  22  23  ar  
 42  22  44  1   
 43  23  24  1   
 44  24  25  1   
 45  24  26  1   
 46  24  27  1   
 47  25  45  1   
 48  25  46  1   
 49  25  47  1   
 50  26  48  1   
 51  26  49  1   
 52  26  50  1   
 53  27  51  1   
 54  27  52  1   
 55  27  53  1   
@<TRIPOS>SUBSTRUCTURE
  1 ****  11 GROUP 4 **** **** 0

# MOE 2024.06 (io_trps.svl 2023.06)
