@<TRIPOS>MOLECULE
NONAME
50 52 1 0 0 
SMALL
USER_CHARGES


@<TRIPOS>ATOM
  1 N       -0.1670    -0.2510    -0.6710 N.4   1 <1>  -0.9590 
  2 C       -0.1270    -1.7280    -0.8930 C.3   1 <1>   0.3430 
  3 C       -1.2730     0.4360    -1.3940 C.3   1 <1>   0.3430 
  4 C        1.1560     0.3710    -0.9950 C.3   1 <1>   0.4860 
  5 C       -1.4600    -2.3550    -0.4850 C.3   1 <1>  -0.1600 
  6 C       -2.6170    -0.1760    -0.9880 C.3   1 <1>  -0.1600 
  7 C        2.1760    -0.1820    -0.0220 C.ar  1 <1>  -0.1440 
  8 C       -2.6210    -1.6880    -1.2330 C.3   1 <1>   0.4230 
  9 C        2.1850     0.2430     1.3000 C.ar  1 <1>  -0.1500 
 10 C        3.1010    -1.1280    -0.4420 C.ar  1 <1>  -0.1500 
 11 N       -3.9480    -2.2730    -0.8730 N.4   1 <1>  -0.9590 
 12 C        3.0950    -0.2890     2.1950 C.ar  1 <1>  -0.1500 
 13 C        4.0110    -1.6580     0.4560 C.ar  1 <1>  -0.1500 
 14 C       -4.2960    -2.2890     0.5840 C.3   1 <1>   0.4860 
 15 C       -4.1520    -3.6380    -1.4680 C.3   1 <1>   0.2630 
 16 C        4.0060    -1.2410     1.7750 C.ar  1 <1>  -0.1500 
 17 C       -5.7930    -2.4800     0.7020 C.ar  1 <1>  -0.1440 
 18 C       -6.6560    -1.4300     0.4200 C.ar  1 <1>  -0.1500 
 19 C       -6.3130    -3.7080     1.0870 C.ar  1 <1>  -0.1500 
 20 C       -8.0250    -1.6120     0.5080 C.ar  1 <1>  -0.1500 
 21 C       -7.6820    -3.8870     1.1740 C.ar  1 <1>  -0.1500 
 22 C       -8.5380    -2.8400     0.8820 C.ar  1 <1>  -0.1500 
 23 H       -0.2660    -0.0950     0.3420 H     1 <1>   0.4500 
 24 H        0.6670    -2.1680    -0.3080 H     1 <1>   0.0800 
 25 H        0.0730    -1.9360    -1.9330 H     1 <1>   0.0800 
 26 H       -1.1330     0.3320    -2.4590 H     1 <1>   0.0800 
 27 H       -1.2710     1.4900    -1.1580 H     1 <1>   0.0800 
 28 H        1.1080     1.4420    -0.8830 H     1 <1>   0.0800 
 29 H        1.4480     0.1440    -2.0080 H     1 <1>   0.0800 
 30 H       -1.5680    -2.2550     0.5800 H     1 <1>   0.0800 
 31 H       -1.4200    -3.4030    -0.7230 H     1 <1>   0.0800 
 32 H       -3.3880     0.2880    -1.5780 H     1 <1>   0.0800 
 33 H       -2.7980     0.0550     0.0460 H     1 <1>   0.0800 
 34 H       -2.4670    -1.8440    -2.2900 H     1 <1>   0.0800 
 35 H        1.4970     0.9930     1.6530 H     1 <1>   0.1500 
 36 H        3.1350    -1.4640    -1.4650 H     1 <1>   0.1500 
 37 H       -4.6840    -1.6860    -1.2940 H     1 <1>   0.4500 
 38 H        3.1050     0.0400     3.2210 H     1 <1>   0.1500 
 39 H        4.7300    -2.3920     0.1330 H     1 <1>   0.1500 
 40 H       -4.0300    -1.3560     1.0500 H     1 <1>   0.0800 
 41 H       -3.7790    -3.0880     1.0900 H     1 <1>   0.0800 
 42 H       -3.4820    -4.3530    -1.0200 H     1 <1>   0.0800 
 43 H       -3.9770    -3.6160    -2.5320 H     1 <1>   0.0800 
 44 H       -5.1660    -3.9700    -1.3030 H     1 <1>   0.0800 
 45 H        4.7160    -1.6530     2.4730 H     1 <1>   0.1500 
 46 H       -6.2870    -0.4590     0.1370 H     1 <1>   0.1500 
 47 H       -5.6710    -4.5380     1.3280 H     1 <1>   0.1500 
 48 H       -8.6970    -0.7990     0.2900 H     1 <1>   0.1500 
 49 H       -8.0880    -4.8390     1.4740 H     1 <1>   0.1500 
 50 H       -9.6040    -2.9800     0.9520 H     1 <1>   0.1500 
@<TRIPOS>BOND
  1   1   2  1   
  2   1   3  1   
  3   1   4  1   
  4   1  23  1   
  5   2   5  1   
  6   2  24  1   
  7   2  25  1   
  8   3   6  1   
  9   3  26  1   
 10   3  27  1   
 11   4   7  1   
 12   4  28  1   
 13   4  29  1   
 14   5   8  1   
 15   5  30  1   
 16   5  31  1   
 17   6   8  1   
 18   6  32  1   
 19   6  33  1   
 20   7   9  ar  
 21   7  10  ar  
 22   8  11  1   
 23   8  34  1   
 24   9  12  ar  
 25   9  35  1   
 26  10  13  ar  
 27  10  36  1   
 28  11  14  1   
 29  11  15  1   
 30  11  37  1   
 31  12  16  ar  
 32  12  38  1   
 33  13  16  ar  
 34  13  39  1   
 35  14  17  1   
 36  14  40  1   
 37  14  41  1   
 38  15  42  1   
 39  15  43  1   
 40  15  44  1   
 41  16  45  1   
 42  17  18  ar  
 43  17  19  ar  
 44  18  20  ar  
 45  18  46  1   
 46  19  21  ar  
 47  19  47  1   
 48  20  22  ar  
 49  20  48  1   
 50  21  22  ar  
 51  21  49  1   
 52  22  50  1   
@<TRIPOS>SUBSTRUCTURE
  1 ****   5 GROUP 4 **** **** 0

# MOE 2024.06 (io_trps.svl 2023.06)
