@<TRIPOS>MOLECULE
NONAME
47 49 1 0 0 
SMALL
USER_CHARGES


@<TRIPOS>ATOM
  1 S       -0.6830    -1.3380     0.6870 S.o2  1 <1>   1.4470 
  2 O       -0.8180    -0.4780     1.8410 O.2   1 <1>  -0.6500 
  3 O       -1.0960    -2.7210     0.7750 O.2   1 <1>  -0.6500 
  4 N       -1.6320    -0.6260    -0.4950 N.am  1 <1>  -0.9140 
  5 C        0.9870    -1.2010    -0.0060 C.ar  1 <1>  -0.0090 
  6 C       -3.0640    -0.6820    -0.2190 C.3   1 <1>   0.1960 
  7 C        1.6000     0.0390    -0.1420 C.ar  1 <1>  -0.1500 
  8 C        1.6880    -2.3220    -0.4360 C.ar  1 <1>  -0.1500 
  9 C       -3.7690     0.7080    -0.2030 C.3   1 <1>   0.1440 
 10 C        2.8700     0.1570    -0.6800 C.ar  1 <1>  -0.1500 
 11 C        2.9580    -2.2100    -0.9750 C.ar  1 <1>  -0.1500 
 12 C       -5.2660     0.3900     0.0260 C.ar  1 <1>  -0.1430 
 13 C       -3.5350     1.4850    -1.5260 C.3   1 <1>  -0.1600 
 14 C       -3.2630     1.6040     0.9620 C.3   1 <1>  -0.1600 
 15 C        3.5570    -0.9690    -1.0980 C.ar  1 <1>  -0.1430 
 16 C       -5.6900    -0.0340     1.2830 C.ar  1 <1>  -0.1500 
 17 C       -6.2250     0.4810    -0.9820 C.ar  1 <1>  -0.1500 
 18 C       -2.1350     2.1090    -1.6930 C.3   1 <1>   0.1200 
 19 C       -2.1480     2.5970     0.6010 C.3   1 <1>   0.1200 
 20 C        4.9490    -0.8430    -1.6900 C.3   1 <1>  -0.0970 
 21 C       -7.0170    -0.3380     1.5320 C.ar  1 <1>  -0.1500 
 22 C       -7.5530     0.1780    -0.7360 C.ar  1 <1>  -0.1500 
 23 O       -1.4270     2.1250    -0.4890 O.3   1 <1>  -0.5600 
 24 C       -7.9520    -0.2300     0.5220 C.ar  1 <1>  -0.1500 
 25 H       -1.3920     0.3720    -0.4170 H     1 <1>   0.4200 
 26 H       -3.2400    -1.1710     0.7250 H     1 <1>   0.0800 
 27 H       -3.5230    -1.2960    -0.9750 H     1 <1>   0.0800 
 28 H        1.0770     0.9250     0.1780 H     1 <1>   0.1500 
 29 H        1.2330    -3.2940    -0.3490 H     1 <1>   0.1500 
 30 H        3.3190     1.1310    -0.7720 H     1 <1>   0.1500 
 31 H        3.4760    -3.0960    -1.2990 H     1 <1>   0.1500 
 32 H       -4.2410     2.2950    -1.5730 H     1 <1>   0.0800 
 33 H       -3.7260     0.8470    -2.3710 H     1 <1>   0.0800 
 34 H       -2.9330     0.9940     1.7830 H     1 <1>   0.0800 
 35 H       -4.0810     2.1940     1.3380 H     1 <1>   0.0800 
 36 H       -4.9890    -0.1380     2.0920 H     1 <1>   0.1500 
 37 H       -5.9690     0.7830    -1.9800 H     1 <1>   0.1500 
 38 H       -2.2080     3.1200    -2.0570 H     1 <1>   0.0800 
 39 H       -1.5540     1.5340    -2.3940 H     1 <1>   0.0800 
 40 H       -1.4670     2.7140     1.4270 H     1 <1>   0.0800 
 41 H       -2.5540     3.5610     0.3460 H     1 <1>   0.0800 
 42 H        5.4620     0.0030    -1.2700 H     1 <1>   0.0800 
 43 H        4.8810    -0.7140    -2.7550 H     1 <1>   0.0800 
 44 H        5.5270    -1.7260    -1.4830 H     1 <1>   0.0800 
 45 H       -7.3200    -0.6600     2.5130 H     1 <1>   0.1500 
 46 H       -8.2780     0.2590    -1.5270 H     1 <1>   0.1500 
 47 H       -8.9850    -0.4650     0.7130 H     1 <1>   0.1500 
@<TRIPOS>BOND
  1   1   2  2   
  2   1   3  2   
  3   1   4  am  
  4   1   5  1   
  5   4   6  1   
  6   4  25  1   
  7   5   7  ar  
  8   5   8  ar  
  9   6   9  1   
 10   6  26  1   
 11   6  27  1   
 12   7  10  ar  
 13   7  28  1   
 14   8  11  ar  
 15   8  29  1   
 16   9  12  1   
 17   9  13  1   
 18   9  14  1   
 19  10  15  ar  
 20  10  30  1   
 21  11  15  ar  
 22  11  31  1   
 23  12  16  ar  
 24  12  17  ar  
 25  13  18  1   
 26  13  32  1   
 27  13  33  1   
 28  14  19  1   
 29  14  34  1   
 30  14  35  1   
 31  15  20  1   
 32  16  21  ar  
 33  16  36  1   
 34  17  22  ar  
 35  17  37  1   
 36  18  23  1   
 37  18  38  1   
 38  18  39  1   
 39  19  23  1   
 40  19  40  1   
 41  19  41  1   
 42  20  42  1   
 43  20  43  1   
 44  20  44  1   
 45  21  24  ar  
 46  21  45  1   
 47  22  24  ar  
 48  22  46  1   
 49  24  47  1   
@<TRIPOS>SUBSTRUCTURE
  1 ****   4 GROUP 4 **** **** 0

# MOE 2024.06 (io_trps.svl 2023.06)
