@<TRIPOS>MOLECULE
NONAME
45 47 1 0 0 
SMALL
USER_CHARGES


@<TRIPOS>ATOM
  1 O       -0.6940    -0.3690    -0.5890 O.2   1 <1>  -0.5700 
  2 C       -0.9410    -1.4970    -0.2290 C.2   1 <1>   0.4950 
  3 C       -2.2210    -2.1220    -0.4070 C.2   1 <1>   0.0290 
  4 C        0.2060    -2.1990     0.4880 C.3   1 <1>  -0.0990 
  5 C       -2.2490    -3.5460    -0.2490 C.2   1 <1>   0.4950 
  6 C       -3.3020    -1.3150    -0.7240 C.2   1 <1>  -0.0500 
  7 C        0.1910    -3.7260     0.3450 C.3   1 <1>   0.0000 
  8 O       -3.0000    -4.3000    -0.8190 O.2   1 <1>  -0.5700 
  9 C       -1.2280    -4.2180     0.6520 C.3   1 <1>  -0.0990 
 10 N       -4.6460    -1.5280    -0.8220 N.pl3 1 <1>  -0.8690 
 11 C        1.1820    -4.3510     1.3390 C.3   1 <1>  -0.2400 
 12 C        0.6110    -4.1330    -1.0800 C.3   1 <1>  -0.2400 
 13 C       -5.5000    -2.7050    -0.5330 C.3   1 <1>   0.4330 
 14 C       -6.7180    -2.2490     0.2780 C.ar  1 <1>  -0.1430 
 15 C       -5.8930    -3.3350    -1.8740 C.3   1 <1>  -0.1600 
 16 C       -8.0060    -2.6880    -0.0240 C.ar  1 <1>  -0.1430 
 17 C       -6.5340    -1.3980     1.3610 C.ar  1 <1>  -0.1500 
 18 C       -7.0320    -4.3420    -1.6920 C.3   1 <1>  -0.1600 
 19 C       -9.0770    -2.2630     0.7470 C.ar  1 <1>  -0.1500 
 20 C       -8.2890    -3.6250    -1.1940 C.3   1 <1>  -0.0170 
 21 C       -7.6060    -0.9780     2.1270 C.ar  1 <1>  -0.1500 
 22 C       -8.8810    -1.4110     1.8190 C.ar  1 <1>  -0.1500 
 23 H        1.1390    -1.8100     0.1180 H     1 <1>   0.0800 
 24 H        0.1410    -1.9290     1.5270 H     1 <1>   0.0800 
 25 H       -3.0500    -0.2840    -0.9240 H     1 <1>   0.1500 
 26 H       -1.4870    -4.0060     1.6730 H     1 <1>   0.0800 
 27 H       -1.2810    -5.2840     0.5170 H     1 <1>   0.0800 
 28 H       -5.2580    -0.7460    -1.0830 H     1 <1>   0.4000 
 29 H        2.1810    -3.9970     1.1510 H     1 <1>   0.0800 
 30 H        1.1820    -5.4230     1.2490 H     1 <1>   0.0800 
 31 H        0.9210    -4.0990     2.3530 H     1 <1>   0.0800 
 32 H       -0.0300    -3.6980    -1.8270 H     1 <1>   0.0800 
 33 H        0.5710    -5.2030    -1.1930 H     1 <1>   0.0800 
 34 H        1.6180    -3.8140    -1.2830 H     1 <1>   0.0800 
 35 H       -4.9710    -3.4180     0.0690 H     1 <1>   0.0800 
 36 H       -6.2090    -2.5640    -2.5530 H     1 <1>   0.0800 
 37 H       -5.0370    -3.8280    -2.2980 H     1 <1>   0.0800 
 38 H       -5.5440    -1.0590     1.6130 H     1 <1>   0.1500 
 39 H       -7.2410    -4.8330    -2.6270 H     1 <1>   0.0800 
 40 H       -6.7360    -5.0920    -0.9780 H     1 <1>   0.0800 
 41 H      -10.0740    -2.5950     0.5160 H     1 <1>   0.1500 
 42 H       -9.0220    -4.3580    -0.9040 H     1 <1>   0.0800 
 43 H       -8.7050    -3.0430    -1.9970 H     1 <1>   0.0800 
 44 H       -7.4470    -0.3170     2.9600 H     1 <1>   0.1500 
 45 H       -9.7190    -1.0870     2.4110 H     1 <1>   0.1500 
@<TRIPOS>BOND
  1   1   2  2   
  2   2   3  1   
  3   2   4  1   
  4   3   5  1   
  5   3   6  2   
  6   4   7  1   
  7   4  23  1   
  8   4  24  1   
  9   5   8  2   
 10   5   9  1   
 11   6  10  1   
 12   6  25  1   
 13   7   9  1   
 14   7  11  1   
 15   7  12  1   
 16   9  26  1   
 17   9  27  1   
 18  10  13  1   
 19  10  28  1   
 20  11  29  1   
 21  11  30  1   
 22  11  31  1   
 23  12  32  1   
 24  12  33  1   
 25  12  34  1   
 26  13  14  1   
 27  13  15  1   
 28  13  35  1   
 29  14  16  ar  
 30  14  17  ar  
 31  15  18  1   
 32  15  36  1   
 33  15  37  1   
 34  16  19  ar  
 35  16  20  1   
 36  17  21  ar  
 37  17  38  1   
 38  18  20  1   
 39  18  39  1   
 40  18  40  1   
 41  19  22  ar  
 42  19  41  1   
 43  20  42  1   
 44  20  43  1   
 45  21  22  ar  
 46  21  44  1   
 47  22  45  1   
@<TRIPOS>SUBSTRUCTURE
  1 ****  10 GROUP 4 **** **** 0

# MOE 2024.06 (io_trps.svl 2023.06)
