@<TRIPOS>MOLECULE
NONAME
39 40 1 0 0 
SMALL
USER_CHARGES


@<TRIPOS>ATOM
  1 BR      -1.7250    -2.5790    -2.8670 Br    1 <1>  -0.1110 
  2 C       -2.0130    -1.9580    -1.0650 C.ar  1 <1>   0.1110 
  3 C       -1.2160    -2.4260    -0.0300 C.ar  1 <1>  -0.1440 
  4 C       -3.0260    -1.0380    -0.8650 C.ar  1 <1>  -0.1500 
  5 C       -1.4530    -1.9300     1.2440 C.ar  1 <1>  -0.1500 
  6 C       -0.1100    -3.4420    -0.2520 C.3   1 <1>   0.2840 
  7 C       -3.2500    -0.5600     0.4140 C.ar  1 <1>  -0.1500 
  8 C       -2.4620    -1.0050     1.4640 C.ar  1 <1>  -0.1500 
  9 N        1.1110    -2.7170    -0.6460 N.am  1 <1>  -0.7300 
 10 C        2.3220    -2.8680    -0.0540 C.2   1 <1>   0.5690 
 11 O        2.5010    -3.6840     0.8170 O.2   1 <1>  -0.5700 
 12 C        3.4650    -1.9620    -0.5090 C.3   1 <1>  -0.0190 
 13 C        4.8420    -2.6510    -0.4140 C.3   1 <1>  -0.1600 
 14 C        3.4770    -0.6500     0.2970 C.3   1 <1>  -0.1600 
 15 C        5.9730    -1.7130    -0.8410 C.3   1 <1>   0.1400 
 16 C        4.6250     0.2690    -0.1330 C.3   1 <1>   0.1400 
 17 N        5.9160    -0.4650    -0.0310 N.am  1 <1>  -0.6600 
 18 C        6.9250    -0.0010     0.7760 C.2   1 <1>   0.5690 
 19 O        6.8380     1.0370     1.3870 O.2   1 <1>  -0.5700 
 20 C        8.2080    -0.7850     0.9350 C.3   1 <1>  -0.1790 
 21 H       -3.6240    -0.7030    -1.6930 H     1 <1>   0.1500 
 22 H       -0.8480    -2.2620     2.0720 H     1 <1>   0.1500 
 23 H       -0.3800    -4.1430    -1.0220 H     1 <1>   0.0800 
 24 H        0.0640    -3.9990     0.6530 H     1 <1>   0.0800 
 25 H       -4.0330     0.1570     0.5940 H     1 <1>   0.1500 
 26 H       -2.6350    -0.6310     2.4590 H     1 <1>   0.1500 
 27 H        0.9630    -1.9920    -1.3470 H     1 <1>   0.3700 
 28 H        3.2950    -1.7190    -1.5430 H     1 <1>   0.0800 
 29 H        4.8490    -3.5280    -1.0350 H     1 <1>   0.0800 
 30 H        5.0220    -2.9690     0.5990 H     1 <1>   0.0800 
 31 H        3.5850    -0.8710     1.3450 H     1 <1>   0.0800 
 32 H        2.5430    -0.1330     0.1680 H     1 <1>   0.0800 
 33 H        5.8620    -1.4570    -1.8810 H     1 <1>   0.0800 
 34 H        6.9160    -2.2160    -0.7250 H     1 <1>   0.0800 
 35 H        4.6320     1.1460     0.4930 H     1 <1>   0.0800 
 36 H        4.4830     0.5900    -1.1500 H     1 <1>   0.0800 
 37 H        8.7070    -0.8620    -0.0110 H     1 <1>   0.0800 
 38 H        7.9910    -1.7630     1.3200 H     1 <1>   0.0800 
 39 H        8.8560    -0.2790     1.6270 H     1 <1>   0.0800 
@<TRIPOS>BOND
  1   1   2  1   
  2   2   3  ar  
  3   2   4  ar  
  4   3   5  ar  
  5   3   6  1   
  6   4   7  ar  
  7   4  21  1   
  8   5   8  ar  
  9   5  22  1   
 10   6   9  1   
 11   6  23  1   
 12   6  24  1   
 13   7   8  ar  
 14   7  25  1   
 15   8  26  1   
 16   9  10  am  
 17   9  27  1   
 18  10  11  2   
 19  10  12  1   
 20  12  13  1   
 21  12  14  1   
 22  12  28  1   
 23  13  15  1   
 24  13  29  1   
 25  13  30  1   
 26  14  16  1   
 27  14  31  1   
 28  14  32  1   
 29  15  17  1   
 30  15  33  1   
 31  15  34  1   
 32  16  17  1   
 33  16  35  1   
 34  16  36  1   
 35  17  18  am  
 36  18  19  2   
 37  18  20  1   
 38  20  37  1   
 39  20  38  1   
 40  20  39  1   
@<TRIPOS>SUBSTRUCTURE
  1 ****  10 GROUP 4 **** **** 0

# MOE 2024.06 (io_trps.svl 2023.06)
