@<TRIPOS>MOLECULE
NONAME
45 46 1 0 0 
SMALL
USER_CHARGES


@<TRIPOS>ATOM
  1 O       -2.0700    -0.0060     1.6090 O.3   1 <1>  -0.3630 
  2 C       -2.3420     0.7960     0.5400 C.ar  1 <1>   0.0830 
  3 C       -0.7960    -0.0610     2.2140 C.3   1 <1>   0.0400 
  4 C       -1.6170     1.9260     0.1240 C.ar  1 <1>   0.0830 
  5 C       -3.4690     0.4130    -0.1640 C.ar  1 <1>  -0.1500 
  6 O       -0.5180     2.3320     0.8220 O.3   1 <1>  -0.3630 
  7 C       -2.0540     2.6240    -1.0000 C.ar  1 <1>  -0.1500 
  8 C       -3.9150     1.1310    -1.2620 C.ar  1 <1>  -0.1430 
  9 C        0.3150     3.3850     0.3870 C.3   1 <1>   0.0400 
 10 C       -3.1910     2.2330    -1.6860 C.ar  1 <1>  -0.1500 
 11 C       -5.1950     0.7200    -1.9600 C.3   1 <1>   0.4860 
 12 N       -6.3010     0.9110    -0.9690 N.4   1 <1>  -0.9590 
 13 C       -7.5540     0.1940    -1.4080 C.3   1 <1>   0.3430 
 14 C       -6.5230     2.3670    -0.7300 C.3   1 <1>   0.3430 
 15 C       -8.6630     0.0390    -0.3230 C.3   1 <1>   0.3430 
 16 C       -6.9080     2.6460     0.7230 C.3   1 <1>  -0.1600 
 17 N       -8.9940     1.2680     0.4980 N.4   1 <1>  -0.9590 
 18 C       -7.8770     1.6760     1.4030 C.3   1 <1>   0.3430 
 19 C      -10.2120     0.9860     1.3330 C.3   1 <1>   0.2630 
 20 H       -0.7700    -0.9160     2.8640 H     1 <1>   0.0800 
 21 H       -0.6440     0.8360     2.7880 H     1 <1>   0.0800 
 22 H       -0.0470    -0.1580     1.4490 H     1 <1>   0.0800 
 23 H       -3.9800    -0.4700     0.1750 H     1 <1>   0.1500 
 24 H       -1.5220     3.4850    -1.3590 H     1 <1>   0.1500 
 25 H        1.1340     3.4690     1.0790 H     1 <1>   0.0800 
 26 H       -0.2490     4.3000     0.3820 H     1 <1>   0.0800 
 27 H        0.6910     3.1540    -0.5940 H     1 <1>   0.0800 
 28 H       -3.4950     2.8040    -2.5490 H     1 <1>   0.1500 
 29 H       -5.1180    -0.3160    -2.2510 H     1 <1>   0.0800 
 30 H       -5.3560     1.3200    -2.8410 H     1 <1>   0.0800 
 31 H       -5.9110     0.5040    -0.1080 H     1 <1>   0.4500 
 32 H       -7.2920    -0.7950    -1.7490 H     1 <1>   0.0800 
 33 H       -7.9760     0.7110    -2.2550 H     1 <1>   0.0800 
 34 H       -7.2930     2.7310    -1.3920 H     1 <1>   0.0800 
 35 H       -5.6230     2.9230    -0.9470 H     1 <1>   0.0800 
 36 H       -8.3680    -0.7550     0.3450 H     1 <1>   0.0800 
 37 H       -9.5580    -0.2990    -0.8210 H     1 <1>   0.0800 
 38 H       -7.3220     3.6370     0.7740 H     1 <1>   0.0800 
 39 H       -6.0060     2.6770     1.3100 H     1 <1>   0.0800 
 40 H       -9.2440     2.0620    -0.1110 H     1 <1>   0.4500 
 41 H       -8.2760     2.1620     2.2810 H     1 <1>   0.0800 
 42 H       -7.3450     0.8000     1.7380 H     1 <1>   0.0800 
 43 H      -10.0260     0.1710     2.0160 H     1 <1>   0.0800 
 44 H      -11.0490     0.7230     0.7060 H     1 <1>   0.0800 
 45 H      -10.4840     1.8570     1.9090 H     1 <1>   0.0800 
@<TRIPOS>BOND
  1   1   2  1   
  2   1   3  1   
  3   2   4  ar  
  4   2   5  ar  
  5   3  20  1   
  6   3  21  1   
  7   3  22  1   
  8   4   6  1   
  9   4   7  ar  
 10   5   8  ar  
 11   5  23  1   
 12   6   9  1   
 13   7  10  ar  
 14   7  24  1   
 15   8  10  ar  
 16   8  11  1   
 17   9  25  1   
 18   9  26  1   
 19   9  27  1   
 20  10  28  1   
 21  11  12  1   
 22  11  29  1   
 23  11  30  1   
 24  12  13  1   
 25  12  14  1   
 26  12  31  1   
 27  13  15  1   
 28  13  32  1   
 29  13  33  1   
 30  14  16  1   
 31  14  34  1   
 32  14  35  1   
 33  15  17  1   
 34  15  36  1   
 35  15  37  1   
 36  16  18  1   
 37  16  38  1   
 38  16  39  1   
 39  17  18  1   
 40  17  19  1   
 41  17  40  1   
 42  18  41  1   
 43  18  42  1   
 44  19  43  1   
 45  19  44  1   
 46  19  45  1   
@<TRIPOS>SUBSTRUCTURE
  1 ****   8 GROUP 4 **** **** 0

# MOE 2024.06 (io_trps.svl 2023.06)
