@<TRIPOS>MOLECULE
NONAME
48 50 1 0 0 
SMALL
USER_CHARGES


@<TRIPOS>ATOM
  1 S        0.2090    -0.1310     0.8910 S.o2  1 <1>   1.4470 
  2 O        0.7100    -0.1850     2.2490 O.2   1 <1>  -0.6500 
  3 O       -0.6040     0.9930     0.4820 O.2   1 <1>  -0.6500 
  4 N        1.5740    -0.1510    -0.1160 N.am  1 <1>  -0.8490 
  5 C       -0.6430    -1.6770     0.4690 C.ar  1 <1>  -0.0090 
  6 C        2.5270    -1.2060     0.2700 C.3   1 <1>   0.1960 
  7 C        2.2170     1.1650    -0.1590 C.3   1 <1>   0.1960 
  8 C       -1.0120    -2.5900     1.4510 C.ar  1 <1>  -0.1500 
  9 C       -0.9420    -1.9870    -0.8530 C.ar  1 <1>  -0.1500 
 10 C        3.6900    -1.2880    -0.7240 C.3   1 <1>  -0.0190 
 11 C        3.3630     1.1650    -1.1780 C.3   1 <1>  -0.1600 
 12 C       -1.6510    -3.7740     1.1260 C.ar  1 <1>  -0.1500 
 13 C       -1.5800    -3.1690    -1.1870 C.ar  1 <1>  -0.1500 
 14 C        4.6230    -2.4170    -0.3130 C.2   1 <1>   0.5690 
 15 C        4.3960     0.0760    -0.8630 C.3   1 <1>  -0.1600 
 16 C       -1.9340    -4.0650    -0.1960 C.ar  1 <1>  -0.1500 
 17 O        4.5320    -3.4760    -0.8810 O.2   1 <1>  -0.5700 
 18 N        5.5250    -2.2220     0.6850 N.am  1 <1>  -0.7300 
 19 C        6.4790    -3.2590     1.1720 C.3   1 <1>   0.1400 
 20 C        7.6050    -3.5270     0.1620 C.3   1 <1>   0.2000 
 21 O        8.5870    -4.3050     0.7630 O.3   1 <1>  -0.5600 
 22 C        8.3620    -2.2910    -0.3110 C.3   1 <1>  -0.1600 
 23 C        9.7760    -4.2020     0.0490 C.3   1 <1>   0.1200 
 24 C        9.7430    -2.8370    -0.6370 C.3   1 <1>  -0.1600 
 25 H        2.0250    -2.1590     0.2880 H     1 <1>   0.0800 
 26 H        2.9080    -1.0110     1.2600 H     1 <1>   0.0800 
 27 H        2.5880     1.4230     0.8200 H     1 <1>   0.0800 
 28 H        1.4980     1.9130    -0.4520 H     1 <1>   0.0800 
 29 H       -0.7970    -2.3720     2.4840 H     1 <1>   0.1500 
 30 H       -0.6680    -1.2920    -1.6290 H     1 <1>   0.1500 
 31 H        3.2760    -1.5530    -1.6810 H     1 <1>   0.0800 
 32 H        3.8390     2.1290    -1.1760 H     1 <1>   0.0800 
 33 H        2.9500     1.0060    -2.1600 H     1 <1>   0.0800 
 34 H       -1.9280    -4.4680     1.9010 H     1 <1>   0.1500 
 35 H       -1.8000    -3.3910    -2.2170 H     1 <1>   0.1500 
 36 H        5.1310     0.0280    -1.6490 H     1 <1>   0.0800 
 37 H        4.8980     0.3320     0.0530 H     1 <1>   0.0800 
 38 H       -2.4290    -4.9860    -0.4520 H     1 <1>   0.1500 
 39 H        5.6120    -1.3050     1.1240 H     1 <1>   0.3700 
 40 H        5.9430    -4.1770     1.3420 H     1 <1>   0.0800 
 41 H        6.9070    -2.9320     2.1030 H     1 <1>   0.0800 
 42 H        7.2220    -4.0810    -0.6790 H     1 <1>   0.0800 
 43 H        8.4270    -1.5750     0.4900 H     1 <1>   0.0800 
 44 H        7.8830    -1.8370    -1.1600 H     1 <1>   0.0800 
 45 H        9.8040    -5.0010    -0.6710 H     1 <1>   0.0800 
 46 H       10.5980    -4.2930     0.7370 H     1 <1>   0.0800 
 47 H       10.5210    -2.1960    -0.2630 H     1 <1>   0.0800 
 48 H        9.8700    -2.9630    -1.6980 H     1 <1>   0.0800 
@<TRIPOS>BOND
  1   1   2  2   
  2   1   3  2   
  3   1   4  am  
  4   1   5  1   
  5   4   6  1   
  6   4   7  1   
  7   5   8  ar  
  8   5   9  ar  
  9   6  10  1   
 10   6  25  1   
 11   6  26  1   
 12   7  11  1   
 13   7  27  1   
 14   7  28  1   
 15   8  12  ar  
 16   8  29  1   
 17   9  13  ar  
 18   9  30  1   
 19  10  14  1   
 20  10  15  1   
 21  10  31  1   
 22  11  15  1   
 23  11  32  1   
 24  11  33  1   
 25  12  16  ar  
 26  12  34  1   
 27  13  16  ar  
 28  13  35  1   
 29  14  17  2   
 30  14  18  am  
 31  15  36  1   
 32  15  37  1   
 33  16  38  1   
 34  18  19  1   
 35  18  39  1   
 36  19  20  1   
 37  19  40  1   
 38  19  41  1   
 39  20  21  1   
 40  20  22  1   
 41  20  42  1   
 42  21  23  1   
 43  22  24  1   
 44  22  43  1   
 45  22  44  1   
 46  23  24  1   
 47  23  45  1   
 48  23  46  1   
 49  24  47  1   
 50  24  48  1   
@<TRIPOS>SUBSTRUCTURE
  1 ****   6 GROUP 4 **** **** 0

# MOE 2024.06 (io_trps.svl 2023.06)
