@<TRIPOS>MOLECULE
NONAME
36 36 1 0 0 
SMALL
USER_CHARGES


@<TRIPOS>ATOM
  1 F        6.2110    -3.6690    -0.2080 F     1 <1>  -0.1900 
  2 C        5.0450    -3.0860    -0.1610 C.ar  1 <1>   0.1900 
  3 C        3.9100    -3.8690    -0.1510 C.ar  1 <1>  -0.1500 
  4 C        4.9960    -1.7070    -0.1220 C.ar  1 <1>  -0.1500 
  5 C        2.6480    -3.2720    -0.1010 C.ar  1 <1>   0.0860 
  6 C        3.7550    -1.0980    -0.0730 C.ar  1 <1>  -0.1500 
  7 C        1.4450    -4.0860    -0.0900 C.2   1 <1>   0.6340 
  8 C        2.6040    -1.8720    -0.0620 C.ar  1 <1>  -0.1500 
  9 O        1.4580    -5.2980    -0.1170 O.2   1 <1>  -0.5700 
 10 O        0.2540    -3.4740    -0.0490 O.3   1 <1>  -0.4300 
 11 C       -0.9410    -4.2290    -0.0410 C.3   1 <1>   0.1200 
 12 C       -2.1310    -3.2670     0.0310 C.3   1 <1>   0.3430 
 13 N       -3.4550    -3.9770    -0.0450 N.4   1 <1>  -0.9590 
 14 C       -4.5560    -3.0050    -0.2950 C.3   1 <1>   0.4230 
 15 C       -3.6830    -4.8670     1.1460 C.3   1 <1>   0.2630 
 16 C       -4.8680    -2.1580     0.9410 C.3   1 <1>  -0.2400 
 17 C       -5.7930    -3.7610    -0.7680 C.3   1 <1>  -0.2400 
 18 H        4.0060    -4.9400    -0.1820 H     1 <1>   0.1500 
 19 H        5.9050    -1.1310    -0.1320 H     1 <1>   0.1500 
 20 H        3.6870    -0.0230    -0.0420 H     1 <1>   0.1500 
 21 H        1.6530    -1.3720    -0.0230 H     1 <1>   0.1500 
 22 H       -0.9110    -4.8800     0.8150 H     1 <1>   0.0800 
 23 H       -0.9690    -4.8100    -0.9470 H     1 <1>   0.0800 
 24 H       -2.0530    -2.5750    -0.7910 H     1 <1>   0.0800 
 25 H       -2.0730    -2.7090     0.9510 H     1 <1>   0.0800 
 26 H       -3.4320    -4.5800    -0.8790 H     1 <1>   0.4500 
 27 H       -4.2530    -2.3400    -1.0900 H     1 <1>   0.0800 
 28 H       -3.6780    -4.2870     2.0550 H     1 <1>   0.0800 
 29 H       -2.9110    -5.6160     1.2130 H     1 <1>   0.0800 
 30 H       -4.6330    -5.3690     1.0650 H     1 <1>   0.0800 
 31 H       -5.2720    -2.7520     1.7420 H     1 <1>   0.0800 
 32 H       -5.6100    -1.4220     0.6840 H     1 <1>   0.0800 
 33 H       -3.9990    -1.6300     1.2860 H     1 <1>   0.0800 
 34 H       -6.2000    -4.3860     0.0060 H     1 <1>   0.0800 
 35 H       -5.5680    -4.3570    -1.6340 H     1 <1>   0.0800 
 36 H       -6.5550    -3.0550    -1.0480 H     1 <1>   0.0800 
@<TRIPOS>BOND
  1   1   2  1   
  2   2   3  ar  
  3   2   4  ar  
  4   3   5  ar  
  5   3  18  1   
  6   4   6  ar  
  7   4  19  1   
  8   5   7  1   
  9   5   8  ar  
 10   6   8  ar  
 11   6  20  1   
 12   7   9  2   
 13   7  10  1   
 14   8  21  1   
 15  10  11  1   
 16  11  12  1   
 17  11  22  1   
 18  11  23  1   
 19  12  13  1   
 20  12  24  1   
 21  12  25  1   
 22  13  14  1   
 23  13  15  1   
 24  13  26  1   
 25  14  16  1   
 26  14  17  1   
 27  14  27  1   
 28  15  28  1   
 29  15  29  1   
 30  15  30  1   
 31  16  31  1   
 32  16  32  1   
 33  16  33  1   
 34  17  34  1   
 35  17  35  1   
 36  17  36  1   
@<TRIPOS>SUBSTRUCTURE
  1 ****  10 GROUP 4 **** **** 0

# MOE 2024.06 (io_trps.svl 2023.06)
