@<TRIPOS>MOLECULE
NONAME
39 41 1 0 0 
SMALL
USER_CHARGES


@<TRIPOS>ATOM
  1 O        0.5310     0.1080     1.0010 O.3   1 <1>  -0.5600 
  2 C        1.4330    -0.8090     0.4410 C.3   1 <1>   0.2000 
  3 C        0.1260     1.1940     0.2080 C.3   1 <1>   0.2000 
  4 C        2.7490    -0.0980     0.0260 C.3   1 <1>   0.3430 
  5 C        0.7530    -1.5620    -0.7090 C.3   1 <1>  -0.2400 
  6 C        1.2980     1.7600    -0.6360 C.3   1 <1>   0.3430 
  7 C       -0.4260     2.2390     1.1760 C.3   1 <1>  -0.2400 
  8 N        2.6180     1.4040    -0.0210 N.4   1 <1>  -0.9590 
  9 C        3.7830     2.0770    -0.6630 C.3   1 <1>   0.4230 
 10 C        5.2080     1.7390     0.0730 C.3   1 <1>  -0.0800 
 11 C        3.6090     3.7420    -0.6680 C.3   1 <1>  -0.1600 
 12 C        5.1220     3.0670    -0.0720 C.3   1 <1>  -0.1600 
 13 C        6.6330     2.3850     0.5470 C.3   1 <1>  -0.1600 
 14 C        5.0240     4.3950    -0.1700 C.3   1 <1>  -0.0800 
 15 C        6.4730     4.0500     0.5090 C.3   1 <1>  -0.1600 
 16 H        1.6620    -1.5240     1.2140 H     1 <1>   0.0800 
 17 H       -0.6680     0.8630    -0.4420 H     1 <1>   0.0800 
 18 H        3.0490    -0.4710    -0.9390 H     1 <1>   0.0800 
 19 H        3.5200    -0.3730     0.7250 H     1 <1>   0.0800 
 20 H        0.5590    -0.9260    -1.5520 H     1 <1>   0.0800 
 21 H       -0.1730    -1.9900    -0.3650 H     1 <1>   0.0800 
 22 H        1.3840    -2.3680    -1.0390 H     1 <1>   0.0800 
 23 H        1.1860     2.8280    -0.7170 H     1 <1>   0.0800 
 24 H        1.2410     1.3510    -1.6300 H     1 <1>   0.0800 
 25 H        0.3350     2.5670     1.8610 H     1 <1>   0.0800 
 26 H       -1.2420     1.8170     1.7370 H     1 <1>   0.0800 
 27 H       -0.7990     3.0910     0.6370 H     1 <1>   0.0800 
 28 H        2.5580     1.7150     0.9590 H     1 <1>   0.4500 
 29 H        3.8550     1.7480    -1.6890 H     1 <1>   0.0800 
 30 H        4.8970     1.2620     0.9920 H     1 <1>   0.0800 
 31 H        2.8230     4.0590    -0.0010 H     1 <1>   0.0800 
 32 H        3.3640     4.0880    -1.6600 H     1 <1>   0.0800 
 33 H        5.5880     3.0190    -1.1540 H     1 <1>   0.0800 
 34 H        4.6720     3.1330     1.0170 H     1 <1>   0.0800 
 35 H        7.4260     2.0760    -0.1190 H     1 <1>   0.0800 
 36 H        6.9030     2.0570     1.5390 H     1 <1>   0.0800 
 37 H        5.3370     4.9240    -1.0620 H     1 <1>   0.0800 
 38 H        7.2820     4.4940    -0.0510 H     1 <1>   0.0800 
 39 H        6.5190     4.4520     1.5110 H     1 <1>   0.0800 
@<TRIPOS>BOND
  1   1   2  1   
  2   1   3  1   
  3   2   4  1   
  4   2   5  1   
  5   2  16  1   
  6   3   6  1   
  7   3   7  1   
  8   3  17  1   
  9   4   8  1   
 10   4  18  1   
 11   4  19  1   
 12   5  20  1   
 13   5  21  1   
 14   5  22  1   
 15   6   8  1   
 16   6  23  1   
 17   6  24  1   
 18   7  25  1   
 19   7  26  1   
 20   7  27  1   
 21   8   9  1   
 22   8  28  1   
 23   9  10  1   
 24   9  11  1   
 25   9  29  1   
 26  10  12  1   
 27  10  13  1   
 28  10  30  1   
 29  11  14  1   
 30  11  31  1   
 31  11  32  1   
 32  12  14  1   
 33  12  33  1   
 34  12  34  1   
 35  13  15  1   
 36  13  35  1   
 37  13  36  1   
 38  14  15  1   
 39  14  37  1   
 40  15  38  1   
 41  15  39  1   
@<TRIPOS>SUBSTRUCTURE
  1 ****   8 GROUP 4 **** **** 0

# MOE 2024.06 (io_trps.svl 2023.06)
