@<TRIPOS>MOLECULE
NONAME
29 30 1 0 0 
SMALL
USER_CHARGES


@<TRIPOS>ATOM
  1 O       -0.6770    -0.2010    -0.1590 O.3   1 <1>  -0.3370 
  2 N       -1.1540     1.0250    -0.2300 N.2   1 <1>  -0.5130 
  3 C       -2.4040     1.1720    -0.1880 C.2   1 <1>   0.3280 
  4 C       -3.4570     0.0850    -0.0490 C.3   1 <1>   0.4040 
  5 C       -3.1090     2.5010    -0.2390 C.3   1 <1>  -0.0990 
  6 N       -4.7830     0.7930    -0.0390 N.4   1 <1>  -0.9590 
  7 C       -4.4950     2.2080     0.3250 C.3   1 <1>   0.3430 
  8 C       -5.7920     0.1270     0.8270 C.3   1 <1>   0.4860 
  9 C       -6.0570    -1.2530     0.2610 C.ar  1 <1>  -0.1440 
 10 C       -5.4940    -2.3730     0.8580 C.ar  1 <1>  -0.1500 
 11 C       -6.8580    -1.4070    -0.8620 C.ar  1 <1>  -0.1500 
 12 C       -5.7200    -3.6310     0.3280 C.ar  1 <1>  -0.1500 
 13 C       -7.0820    -2.6660    -1.3890 C.ar  1 <1>  -0.1500 
 14 C       -6.5120    -3.7780    -0.7960 C.ar  1 <1>  -0.1500 
 15 H        0.3030    -0.2630    -0.2150 H     1 <1>   0.4000 
 16 H       -3.2920    -0.4390     0.8770 H     1 <1>   0.0800 
 17 H       -3.3910    -0.6140    -0.8660 H     1 <1>   0.0800 
 18 H       -2.5940     3.2460     0.3420 H     1 <1>   0.0800 
 19 H       -3.1820     2.8360    -1.2580 H     1 <1>   0.0800 
 20 H       -5.1420     0.7540    -1.0030 H     1 <1>   0.4500 
 21 H       -5.2360     2.8830    -0.0730 H     1 <1>   0.0800 
 22 H       -4.4650     2.3080     1.3980 H     1 <1>   0.0800 
 23 H       -5.4290     0.0480     1.8390 H     1 <1>   0.0800 
 24 H       -6.7110     0.6920     0.8340 H     1 <1>   0.0800 
 25 H       -4.8790    -2.2880     1.7380 H     1 <1>   0.1500 
 26 H       -7.3210    -0.5590    -1.3380 H     1 <1>   0.1500 
 27 H       -5.2830    -4.5010     0.7900 H     1 <1>   0.1500 
 28 H       -7.7050    -2.7870    -2.2610 H     1 <1>   0.1500 
 29 H       -6.6880    -4.7580    -1.2070 H     1 <1>   0.1500 
@<TRIPOS>BOND
  1   1   2  1   
  2   1  15  1   
  3   2   3  2   
  4   3   4  1   
  5   3   5  1   
  6   4   6  1   
  7   4  16  1   
  8   4  17  1   
  9   5   7  1   
 10   5  18  1   
 11   5  19  1   
 12   6   7  1   
 13   6   8  1   
 14   6  20  1   
 15   7  21  1   
 16   7  22  1   
 17   8   9  1   
 18   8  23  1   
 19   8  24  1   
 20   9  10  ar  
 21   9  11  ar  
 22  10  12  ar  
 23  10  25  1   
 24  11  13  ar  
 25  11  26  1   
 26  12  14  ar  
 27  12  27  1   
 28  13  14  ar  
 29  13  28  1   
 30  14  29  1   
@<TRIPOS>SUBSTRUCTURE
  1 ****   4 GROUP 4 **** **** 0

# MOE 2024.06 (io_trps.svl 2023.06)
