@<TRIPOS>MOLECULE
NONAME
48 51 1 0 0 
SMALL
USER_CHARGES


@<TRIPOS>ATOM
  1 S       -0.1740     0.7920    -2.0940 S.3   1 <1>  -0.0800 
  2 C        0.3250     2.3480    -1.4480 C.2   1 <1>   0.1660 
  3 C       -1.7420     0.9500    -1.3180 C.2   1 <1>  -0.1400 
  4 N        1.5440     2.8760    -1.7040 N.2   1 <1>  -0.5760 
  5 C       -0.6520     2.9130    -0.6960 C.2   1 <1>  -0.0860 
  6 C       -1.8310     2.0920    -0.6270 C.2   1 <1>  -0.1810 
  7 C       -2.8170    -0.1090    -1.4480 C.3   1 <1>   0.3000 
  8 C        1.7920     4.0260    -1.1750 C.2   1 <1>   0.4490 
  9 C       -0.3560     4.1800    -0.1210 C.2   1 <1>   0.7160 
 10 C       -3.1180     2.4020     0.1150 C.3   1 <1>   0.0210 
 11 O       -4.0270     0.3890    -0.9230 O.3   1 <1>  -0.5600 
 12 N        0.9000     4.7150    -0.3600 N.am  1 <1>  -0.4200 
 13 C        3.1590     4.5980    -1.5020 C.3   1 <1>  -0.0380 
 14 O       -1.1740     4.7810     0.5620 O.2   1 <1>  -0.5700 
 15 C       -3.9910     1.1260     0.2750 C.3   1 <1>   0.2800 
 16 C        1.2450     6.0100     0.3080 C.3   1 <1>   0.2840 
 17 C        4.1030     4.3600    -0.3550 C.2   1 <1>   0.5690 
 18 C       -3.4850     0.2160     1.4060 C.3   1 <1>  -0.2400 
 19 C       -5.4430     1.5120     0.5590 C.3   1 <1>  -0.2400 
 20 C        1.2030     7.1750    -0.6720 C.ar  1 <1>  -0.1440 
 21 O        4.5240     5.2950     0.2750 O.2   1 <1>  -0.5700 
 22 N        4.4630     3.1040    -0.0380 N.am  1 <1>  -0.8000 
 23 C        0.0660     7.4290    -1.4270 C.ar  1 <1>  -0.1500 
 24 C        2.3060     8.0050    -0.8100 C.ar  1 <1>  -0.1500 
 25 C        0.0390     8.4880    -2.3170 C.ar  1 <1>  -0.1500 
 26 C        2.2790     9.0650    -1.6990 C.ar  1 <1>  -0.1500 
 27 C        1.1460     9.3070    -2.4540 C.ar  1 <1>  -0.1500 
 28 H       -2.5460    -1.0010    -0.9110 H     1 <1>   0.0800 
 29 H       -2.9850    -0.3530    -2.4810 H     1 <1>   0.0800 
 30 H       -3.6580     3.1510    -0.4350 H     1 <1>   0.0800 
 31 H       -2.8970     2.8070     1.0860 H     1 <1>   0.0800 
 32 H        3.1040     5.6390    -1.7390 H     1 <1>   0.0800 
 33 H        3.5580     4.1060    -2.3700 H     1 <1>   0.0800 
 34 H        2.2170     5.9370     0.7560 H     1 <1>   0.0800 
 35 H        0.5650     6.2210     1.1140 H     1 <1>   0.0800 
 36 H       -2.4440    -0.0180     1.2830 H     1 <1>   0.0800 
 37 H       -4.0560    -0.6950     1.4340 H     1 <1>   0.0800 
 38 H       -3.5950     0.7140     2.3520 H     1 <1>   0.0800 
 39 H       -5.8360     2.1010    -0.2500 H     1 <1>   0.0800 
 40 H       -5.5080     2.0890     1.4640 H     1 <1>   0.0800 
 41 H       -6.0470     0.6300     0.6720 H     1 <1>   0.0800 
 42 H        5.1110     2.9380     0.7330 H     1 <1>   0.3700 
 43 H        4.0910     2.2770    -0.5120 H     1 <1>   0.3700 
 44 H       -0.8060     6.8050    -1.3250 H     1 <1>   0.1500 
 45 H        3.1970     7.8310    -0.2270 H     1 <1>   0.1500 
 46 H       -0.8450     8.6770    -2.9010 H     1 <1>   0.1500 
 47 H        3.1400     9.7030    -1.8020 H     1 <1>   0.1500 
 48 H        1.1250    10.1300    -3.1460 H     1 <1>   0.1500 
@<TRIPOS>BOND
  1   1   2  1   
  2   1   3  1   
  3   2   4  1   
  4   2   5  2   
  5   3   6  2   
  6   3   7  1   
  7   4   8  2   
  8   5   6  1   
  9   5   9  1   
 10   6  10  1   
 11   7  11  1   
 12   7  28  1   
 13   7  29  1   
 14   8  12  1   
 15   8  13  1   
 16   9  12  am  
 17   9  14  2   
 18  10  15  1   
 19  10  30  1   
 20  10  31  1   
 21  11  15  1   
 22  12  16  1   
 23  13  17  1   
 24  13  32  1   
 25  13  33  1   
 26  15  18  1   
 27  15  19  1   
 28  16  20  1   
 29  16  34  1   
 30  16  35  1   
 31  17  21  2   
 32  17  22  am  
 33  18  36  1   
 34  18  37  1   
 35  18  38  1   
 36  19  39  1   
 37  19  40  1   
 38  19  41  1   
 39  20  23  ar  
 40  20  24  ar  
 41  22  42  1   
 42  22  43  1   
 43  23  25  ar  
 44  23  44  1   
 45  24  26  ar  
 46  24  45  1   
 47  25  27  ar  
 48  25  46  1   
 49  26  27  ar  
 50  26  47  1   
 51  27  48  1   
@<TRIPOS>SUBSTRUCTURE
  1 ****   9 GROUP 4 **** **** 0

# MOE 2024.06 (io_trps.svl 2023.06)
