@<TRIPOS>MOLECULE
NONAME
42 43 1 0 0 
SMALL
USER_CHARGES


@<TRIPOS>ATOM
  1 S       -0.2620    -0.4130     0.0850 S.3   1 <1>  -0.2860 
  2 C        1.3010    -0.9920    -0.5860 C.2   1 <1>   0.2420 
  3 C       -1.5000    -1.1210    -1.1110 C.3   1 <1>   0.1310 
  4 N        1.3940    -1.6770    -1.6690 N.2   1 <1>  -0.3380 
  5 N        2.4760    -0.7460    -0.0060 N.pl3 1 <1>   0.0480 
  6 C       -2.9130    -0.6560    -0.7960 C.2   1 <1>   0.5690 
  7 N        2.6990    -1.9100    -1.8390 N.2   1 <1>  -0.3380 
  8 C        3.3210    -1.3550    -0.8520 C.2   1 <1>   0.0060 
  9 C        2.7580    -0.0010     1.2390 C.3   1 <1>   0.0960 
 10 O       -3.8300    -1.3440    -1.1730 O.2   1 <1>  -0.5700 
 11 N       -3.0780     0.5150    -0.1060 N.am  1 <1>  -0.5470 
 12 C        4.8280    -1.3930    -0.6790 C.3   1 <1>  -0.0600 
 13 C        2.9460     1.4930     0.9430 C.3   1 <1>  -0.1600 
 14 C       -4.2330     1.2130     0.2810 C.ar  1 <1>   0.1170 
 15 C        3.2540     2.2770     2.2230 C.3   1 <1>  -0.2400 
 16 C       -5.4630     1.0570    -0.3480 C.ar  1 <1>  -0.1500 
 17 C       -4.1390     2.1180     1.3330 C.ar  1 <1>  -0.1500 
 18 C       -6.5720     1.7790     0.0570 C.ar  1 <1>   0.0820 
 19 C       -5.2400     2.8440     1.7480 C.ar  1 <1>  -0.1500 
 20 O       -7.7280     1.5590    -0.6200 O.3   1 <1>  -0.3620 
 21 C       -6.4590     2.6790     1.1140 C.ar  1 <1>  -0.1500 
 22 C       -8.9260     2.2080    -0.2600 C.3   1 <1>   0.0400 
 23 H       -1.4320    -2.1910    -1.0430 H     1 <1>   0.0800 
 24 H       -1.2140    -0.8020    -2.0960 H     1 <1>   0.0800 
 25 H        3.6460    -0.4030     1.6920 H     1 <1>   0.0800 
 26 H        1.9390    -0.1430     1.9220 H     1 <1>   0.0800 
 27 H       -2.2040     0.9190     0.2300 H     1 <1>   0.3700 
 28 H        5.2240    -0.3940    -0.6500 H     1 <1>   0.0800 
 29 H        5.2750    -1.9140    -1.5070 H     1 <1>   0.0800 
 30 H        5.0840    -1.9080     0.2280 H     1 <1>   0.0800 
 31 H        2.0470     1.8870     0.4980 H     1 <1>   0.0800 
 32 H        3.7560     1.6250     0.2470 H     1 <1>   0.0800 
 33 H        2.4480     2.1810     2.9300 H     1 <1>   0.0800 
 34 H        3.3800     3.3210     1.9920 H     1 <1>   0.0800 
 35 H        4.1610     1.9200     2.6790 H     1 <1>   0.0800 
 36 H       -5.5720     0.3720    -1.1670 H     1 <1>   0.1500 
 37 H       -3.1990     2.2550     1.8350 H     1 <1>   0.1500 
 38 H       -5.1510     3.5390     2.5650 H     1 <1>   0.1500 
 39 H       -7.3000     3.2530     1.4520 H     1 <1>   0.1500 
 40 H       -9.7020     1.8650    -0.9200 H     1 <1>   0.0800 
 41 H       -8.7950     3.2690    -0.3700 H     1 <1>   0.0800 
 42 H       -9.1700     1.9500     0.7560 H     1 <1>   0.0800 
@<TRIPOS>BOND
  1   1   2  1   
  2   1   3  1   
  3   2   4  2   
  4   2   5  1   
  5   3   6  1   
  6   3  23  1   
  7   3  24  1   
  8   4   7  1   
  9   5   8  1   
 10   5   9  1   
 11   6  10  2   
 12   6  11  am  
 13   7   8  2   
 14   8  12  1   
 15   9  13  1   
 16   9  25  1   
 17   9  26  1   
 18  11  14  1   
 19  11  27  1   
 20  12  28  1   
 21  12  29  1   
 22  12  30  1   
 23  13  15  1   
 24  13  31  1   
 25  13  32  1   
 26  14  16  ar  
 27  14  17  ar  
 28  15  33  1   
 29  15  34  1   
 30  15  35  1   
 31  16  18  ar  
 32  16  36  1   
 33  17  19  ar  
 34  17  37  1   
 35  18  20  1   
 36  18  21  ar  
 37  19  21  ar  
 38  19  38  1   
 39  20  22  1   
 40  21  39  1   
 41  22  40  1   
 42  22  41  1   
 43  22  42  1   
@<TRIPOS>SUBSTRUCTURE
  1 ****  11 GROUP 4 **** **** 0

# MOE 2024.06 (io_trps.svl 2023.06)
