@<TRIPOS>MOLECULE
NONAME
35 36 1 0 0 
SMALL
USER_CHARGES


@<TRIPOS>ATOM
  1 CL       0.1950    -0.1620    -1.2840 Cl    1 <1>  -0.1770 
  2 C        0.0190    -1.7610    -0.6060 C.ar  1 <1>   0.1770 
  3 C       -1.2370    -2.3220    -0.5050 C.ar  1 <1>  -0.1500 
  4 C        1.1430    -2.4360    -0.1770 C.ar  1 <1>  -0.1500 
  5 C       -1.3920    -3.5950     0.0340 C.ar  1 <1>   0.1170 
  6 C        1.0010    -3.7010     0.3640 C.ar  1 <1>  -0.1500 
  7 N       -2.6570    -4.1920     0.1670 N.am  1 <1>  -0.5470 
  8 C       -0.2540    -4.2840     0.4730 C.ar  1 <1>  -0.1430 
  9 C       -3.8250    -3.9950    -0.5180 C.2   1 <1>   0.5690 
 10 C       -0.3590    -5.6820     1.0700 C.3   1 <1>  -0.0960 
 11 O       -3.9320    -3.2210    -1.4380 O.2   1 <1>  -0.5700 
 12 C       -5.0400    -4.8220    -0.0940 C.3   1 <1>  -0.0190 
 13 C       -5.4250    -5.8430    -1.1820 C.3   1 <1>  -0.1600 
 14 C       -6.2440    -3.9250     0.2570 C.3   1 <1>  -0.1600 
 15 C       -6.6460    -6.6760    -0.7670 C.3   1 <1>  -0.1600 
 16 C       -7.4650    -4.7580     0.6740 C.3   1 <1>  -0.1600 
 17 C       -7.8370    -5.7760    -0.4130 C.3   1 <1>  -0.1600 
 18 H       -2.0850    -1.7590    -0.8460 H     1 <1>   0.1500 
 19 H        2.1110    -1.9760    -0.2660 H     1 <1>   0.1500 
 20 H        1.8780    -4.2270     0.6990 H     1 <1>   0.1500 
 21 H       -2.6890    -4.9370     0.8580 H     1 <1>   0.3700 
 22 H       -0.8580    -6.3420     0.3820 H     1 <1>   0.0800 
 23 H       -0.9080    -5.6500     1.9940 H     1 <1>   0.0800 
 24 H        0.6150    -6.0890     1.2720 H     1 <1>   0.0800 
 25 H       -4.7790    -5.3710     0.7930 H     1 <1>   0.0800 
 26 H       -4.5930    -6.4960    -1.3780 H     1 <1>   0.0800 
 27 H       -5.6490    -5.3170    -2.0950 H     1 <1>   0.0800 
 28 H       -6.5020    -3.3260    -0.6010 H     1 <1>   0.0800 
 29 H       -5.9760    -3.2540     1.0540 H     1 <1>   0.0800 
 30 H       -6.3940    -7.2850     0.0840 H     1 <1>   0.0800 
 31 H       -6.9220    -7.3340    -1.5730 H     1 <1>   0.0800 
 32 H       -8.3010    -4.1040     0.8540 H     1 <1>   0.0800 
 33 H       -7.2490    -5.2780     1.5910 H     1 <1>   0.0800 
 34 H       -8.6590    -6.3810    -0.0730 H     1 <1>   0.0800 
 35 H       -8.1580    -5.2500    -1.2960 H     1 <1>   0.0800 
@<TRIPOS>BOND
  1   1   2  1   
  2   2   3  ar  
  3   2   4  ar  
  4   3   5  ar  
  5   3  18  1   
  6   4   6  ar  
  7   4  19  1   
  8   5   7  1   
  9   5   8  ar  
 10   6   8  ar  
 11   6  20  1   
 12   7   9  am  
 13   7  21  1   
 14   8  10  1   
 15   9  11  2   
 16   9  12  1   
 17  10  22  1   
 18  10  23  1   
 19  10  24  1   
 20  12  13  1   
 21  12  14  1   
 22  12  25  1   
 23  13  15  1   
 24  13  26  1   
 25  13  27  1   
 26  14  16  1   
 27  14  28  1   
 28  14  29  1   
 29  15  17  1   
 30  15  30  1   
 31  15  31  1   
 32  16  17  1   
 33  16  32  1   
 34  16  33  1   
 35  17  34  1   
 36  17  35  1   
@<TRIPOS>SUBSTRUCTURE
  1 ****   7 GROUP 4 **** **** 0

# MOE 2024.06 (io_trps.svl 2023.06)
