@<TRIPOS>MOLECULE
NONAME
45 47 1 0 0 
SMALL
USER_CHARGES


@<TRIPOS>ATOM
  1 F       -0.5290    -2.3860    -2.3540 F     1 <1>  -0.1900 
  2 C       -1.3160    -2.0570    -1.3550 C.ar  1 <1>   0.1900 
  3 C       -0.9840    -2.4590    -0.0550 C.ar  1 <1>   0.1000 
  4 C       -2.4470    -1.3200    -1.6470 C.ar  1 <1>  -0.1500 
  5 N        0.1540    -3.2060     0.2810 N.pl3 1 <1>  -0.8380 
  6 C       -1.8540    -2.0810     0.9590 C.ar  1 <1>  -0.1500 
  7 C       -3.2940    -0.9600    -0.6120 C.ar  1 <1>  -0.1500 
  8 C        1.4530    -2.4880     0.1020 C.3   1 <1>   0.2090 
  9 C        0.1610    -4.6090    -0.2330 C.3   1 <1>   0.2090 
 10 C       -2.9950    -1.3410     0.6870 C.ar  1 <1>  -0.1500 
 11 C        2.6260    -3.3060     0.6820 C.3   1 <1>   0.3430 
 12 C        1.3430    -5.4110     0.3520 C.3   1 <1>   0.3430 
 13 N        2.6640    -4.7170     0.1440 N.4   1 <1>  -0.9590 
 14 C        3.8010    -5.4920     0.7070 C.3   1 <1>   0.4860 
 15 C        5.0910    -4.8170     0.2860 C.ar  1 <1>  -0.1430 
 16 C        5.4470    -4.7810    -1.0550 C.ar  1 <1>  -0.1500 
 17 C        5.9210    -4.2190     1.2260 C.ar  1 <1>  -0.1500 
 18 C        6.6040    -4.1370    -1.4420 C.ar  1 <1>   0.0830 
 19 C        7.0880    -3.5810     0.8350 C.ar  1 <1>  -0.1500 
 20 O        6.9210    -4.0950    -2.7450 O.3   1 <1>  -0.5330 
 21 C        7.4410    -3.5320    -0.5100 C.ar  1 <1>   0.0830 
 22 O        8.5670    -2.9240    -0.9810 O.3   1 <1>  -0.3630 
 23 C        9.5190    -2.3680    -0.0990 C.3   1 <1>   0.0400 
 24 H       -2.6610    -1.0340    -2.6610 H     1 <1>   0.1500 
 25 H       -1.6330    -2.3710     1.9700 H     1 <1>   0.1500 
 26 H       -4.1820    -0.3850    -0.8150 H     1 <1>   0.1500 
 27 H        1.4020    -1.5360     0.6020 H     1 <1>   0.0800 
 28 H        1.6270    -2.3000    -0.9440 H     1 <1>   0.0800 
 29 H        0.2240    -4.6050    -1.3080 H     1 <1>   0.0800 
 30 H       -0.7640    -5.0880     0.0400 H     1 <1>   0.0800 
 31 H       -3.6540    -1.0610     1.4910 H     1 <1>   0.1500 
 32 H        2.5190    -3.3290     1.7530 H     1 <1>   0.0800 
 33 H        3.5490    -2.7990     0.4520 H     1 <1>   0.0800 
 34 H        1.3630    -6.3870    -0.1050 H     1 <1>   0.0800 
 35 H        1.1650    -5.5420     1.4060 H     1 <1>   0.0800 
 36 H        2.8310    -4.6360    -0.8670 H     1 <1>   0.4500 
 37 H        3.7890    -6.5010     0.3290 H     1 <1>   0.0800 
 38 H        3.7350    -5.5270     1.7830 H     1 <1>   0.0800 
 39 H        4.8480    -5.2450    -1.8190 H     1 <1>   0.1500 
 40 H        5.6730    -4.2420     2.2750 H     1 <1>   0.1500 
 41 H        7.7090    -3.1310     1.5870 H     1 <1>   0.1500 
 42 H        7.7720    -3.6240    -2.8610 H     1 <1>   0.4500 
 43 H       10.3310    -1.9780    -0.6860 H     1 <1>   0.0800 
 44 H        9.8820    -3.1400     0.5570 H     1 <1>   0.0800 
 45 H        9.0580    -1.5720     0.4590 H     1 <1>   0.0800 
@<TRIPOS>BOND
  1   1   2  1   
  2   2   3  ar  
  3   2   4  ar  
  4   3   5  1   
  5   3   6  ar  
  6   4   7  ar  
  7   4  24  1   
  8   5   8  1   
  9   5   9  1   
 10   6  10  ar  
 11   6  25  1   
 12   7  10  ar  
 13   7  26  1   
 14   8  11  1   
 15   8  27  1   
 16   8  28  1   
 17   9  12  1   
 18   9  29  1   
 19   9  30  1   
 20  10  31  1   
 21  11  13  1   
 22  11  32  1   
 23  11  33  1   
 24  12  13  1   
 25  12  34  1   
 26  12  35  1   
 27  13  14  1   
 28  13  36  1   
 29  14  15  1   
 30  14  37  1   
 31  14  38  1   
 32  15  16  ar  
 33  15  17  ar  
 34  16  18  ar  
 35  16  39  1   
 36  17  19  ar  
 37  17  40  1   
 38  18  20  1   
 39  18  21  ar  
 40  19  21  ar  
 41  19  41  1   
 42  20  42  1   
 43  21  22  1   
 44  22  23  1   
 45  23  43  1   
 46  23  44  1   
 47  23  45  1   
@<TRIPOS>SUBSTRUCTURE
  1 ****  11 GROUP 4 **** **** 0

# MOE 2024.06 (io_trps.svl 2023.06)
