@<TRIPOS>MOLECULE
NONAME
33 33 1 0 0 
SMALL
USER_CHARGES


@<TRIPOS>ATOM
  1 CL      -0.1840    -0.0680     1.3700 Cl    1 <1>  -0.1770 
  2 C        1.2650     0.7510     0.8510 C.ar  1 <1>   0.1770 
  3 C        2.2380     1.0660     1.7790 C.ar  1 <1>  -0.1500 
  4 C        1.4230     1.0730    -0.4830 C.ar  1 <1>  -0.1500 
  5 C        3.3870     1.7150     1.3580 C.ar  1 <1>  -0.1500 
  6 C        2.5780     1.7210    -0.8900 C.ar  1 <1>  -0.1500 
  7 C        3.5800     2.0500     0.0200 C.ar  1 <1>  -0.0090 
  8 S        5.0920     2.9010    -0.5140 S.o2  1 <1>   1.4470 
  9 O        5.2940     2.7400    -1.9380 O.2   1 <1>  -0.6500 
 10 O        5.1200     4.2310     0.0520 O.2   1 <1>  -0.6500 
 11 N        6.3240     2.0130     0.2350 N.am  1 <1>  -0.8490 
 12 C        7.5660     2.8340     0.3020 C.3   1 <1>   0.2570 
 13 C        6.5170     0.6920    -0.3700 C.3   1 <1>   0.1960 
 14 C        8.8300     2.1650     0.8630 C.2   1 <1>   0.5690 
 15 C        6.7170    -0.3450     0.7320 C.3   1 <1>  -0.2400 
 16 O        9.0150     2.1570     2.0570 O.2   1 <1>  -0.5700 
 17 N        9.7300     1.6060    -0.0010 N.am  1 <1>  -0.7300 
 18 C       10.9870     0.9250     0.4040 C.3   1 <1>   0.0600 
 19 H        2.0950     0.8090     2.8130 H     1 <1>   0.1500 
 20 H        0.6510     0.8200    -1.1890 H     1 <1>   0.1500 
 21 H        4.1500     1.9660     2.0780 H     1 <1>   0.1500 
 22 H        2.7040     1.9760    -1.9300 H     1 <1>   0.1500 
 23 H        7.3750     3.6920     0.9230 H     1 <1>   0.0800 
 24 H        7.7970     3.2020    -0.6820 H     1 <1>   0.0800 
 25 H        7.3480     0.6970    -1.0550 H     1 <1>   0.0800 
 26 H        5.6420     0.4040    -0.9290 H     1 <1>   0.0800 
 27 H        7.6030    -0.1460     1.3060 H     1 <1>   0.0800 
 28 H        6.8130    -1.3220     0.2950 H     1 <1>   0.0800 
 29 H        5.8670    -0.3510     1.3910 H     1 <1>   0.0800 
 30 H        9.5610     1.6540    -1.0080 H     1 <1>   0.3700 
 31 H       11.0810     0.9160     1.4770 H     1 <1>   0.0800 
 32 H       11.8330     1.4430    -0.0130 H     1 <1>   0.0800 
 33 H       10.9810    -0.0910     0.0490 H     1 <1>   0.0800 
@<TRIPOS>BOND
  1   1   2  1   
  2   2   3  ar  
  3   2   4  ar  
  4   3   5  ar  
  5   3  19  1   
  6   4   6  ar  
  7   4  20  1   
  8   5   7  ar  
  9   5  21  1   
 10   6   7  ar  
 11   6  22  1   
 12   7   8  1   
 13   8   9  2   
 14   8  10  2   
 15   8  11  am  
 16  11  12  1   
 17  11  13  1   
 18  12  14  1   
 19  12  23  1   
 20  12  24  1   
 21  13  15  1   
 22  13  25  1   
 23  13  26  1   
 24  14  16  2   
 25  14  17  am  
 26  15  27  1   
 27  15  28  1   
 28  15  29  1   
 29  17  18  1   
 30  17  30  1   
 31  18  31  1   
 32  18  32  1   
 33  18  33  1   
@<TRIPOS>SUBSTRUCTURE
  1 ****  11 GROUP 4 **** **** 0

# MOE 2024.06 (io_trps.svl 2023.06)
