@<TRIPOS>MOLECULE
NONAME
62 65 1 0 0 
SMALL
USER_CHARGES


@<TRIPOS>ATOM
  1 N        0.1310     1.0340    -0.4510 N.3   1 <1>  -0.8100 
  2 C        1.3240     1.6720     0.1760 C.3   1 <1>   0.1900 
  3 C       -1.0160     1.9710    -0.6280 C.3   1 <1>   0.1100 
  4 C       -0.3370    -0.1950     0.2570 C.3   1 <1>   0.1100 
  5 C        1.8180     2.8400    -0.7000 C.3   1 <1>  -0.1600 
  6 C        2.4650     0.6480     0.3420 C.3   1 <1>  -0.1600 
  7 C       -2.2270     1.3180    -1.3290 C.3   1 <1>   0.3430 
  8 C       -1.5430    -0.8670    -0.4320 C.3   1 <1>   0.3430 
  9 C        3.1570     3.4180    -0.2430 C.3   1 <1>   0.3430 
 10 C        3.7850     1.2780     0.7770 C.3   1 <1>   0.3430 
 11 N       -2.6840     0.0870    -0.6150 N.4   1 <1>  -0.9590 
 12 N        4.1730     2.3420    -0.1850 N.4   1 <1>  -0.9590 
 13 C       -3.8380    -0.5600    -1.2950 C.3   1 <1>   0.4860 
 14 C        5.5300     2.8830     0.1100 C.3   1 <1>   0.4860 
 15 C       -4.3690    -1.6540    -0.3880 C.ar  1 <1>  -0.1440 
 16 C        6.5420     1.7670    -0.0550 C.ar  1 <1>  -0.1440 
 17 C       -5.1500    -1.3680     0.7300 C.ar  1 <1>  -0.1440 
 18 C       -4.0520    -2.9720    -0.6870 C.ar  1 <1>  -0.1500 
 19 C        7.1270     1.1850     1.0610 C.ar  1 <1>  -0.1500 
 20 C        6.8870     1.3140    -1.3210 C.ar  1 <1>  -0.1500 
 21 C       -5.5770    -2.4090     1.5410 C.ar  1 <1>  -0.1500 
 22 C       -5.5720     0.0490     1.1040 C.3   1 <1>  -0.0970 
 23 C       -4.4870    -4.0010     0.1270 C.ar  1 <1>  -0.1500 
 24 C        8.0370     0.1530     0.9120 C.ar  1 <1>  -0.1500 
 25 C        7.7960     0.2810    -1.4670 C.ar  1 <1>  -0.1500 
 26 C       -5.2460    -3.7180     1.2450 C.ar  1 <1>  -0.1500 
 27 C        8.3690    -0.3010    -0.3510 C.ar  1 <1>  -0.1500 
 28 H        1.0530     2.0510     1.1500 H     1 <1>   0.0800 
 29 H       -0.7240     2.8010    -1.2440 H     1 <1>   0.0800 
 30 H       -1.3230     2.3610     0.3280 H     1 <1>   0.0800 
 31 H       -0.5930     0.0410     1.2760 H     1 <1>   0.0800 
 32 H        0.4450    -0.9320     0.2740 H     1 <1>   0.0800 
 33 H        1.1150     3.6510    -0.6660 H     1 <1>   0.0800 
 34 H        1.9090     2.5150    -1.7210 H     1 <1>   0.0800 
 35 H        2.6190     0.1200    -0.5830 H     1 <1>   0.0800 
 36 H        2.2100    -0.0670     1.1010 H     1 <1>   0.0800 
 37 H       -1.9400     1.0680    -2.3370 H     1 <1>   0.0800 
 38 H       -3.0320     2.0330    -1.3810 H     1 <1>   0.0800 
 39 H       -1.8620    -1.7090     0.1610 H     1 <1>   0.0800 
 40 H       -1.2230    -1.2400    -1.3910 H     1 <1>   0.0800 
 41 H        3.0440     3.8670     0.7310 H     1 <1>   0.0800 
 42 H        3.4680     4.1840    -0.9350 H     1 <1>   0.0800 
 43 H        4.5470     0.5130     0.8100 H     1 <1>   0.0800 
 44 H        3.6830     1.6960     1.7650 H     1 <1>   0.0800 
 45 H       -3.0140     0.3370     0.3240 H     1 <1>   0.4500 
 46 H        4.2420     1.8960    -1.1090 H     1 <1>   0.4500 
 47 H       -3.5300    -0.9790    -2.2390 H     1 <1>   0.0800 
 48 H       -4.6170     0.1600    -1.4800 H     1 <1>   0.0800 
 49 H        5.5700     3.2710     1.1150 H     1 <1>   0.0800 
 50 H        5.7700     3.6810    -0.5740 H     1 <1>   0.0800 
 51 H       -3.4660    -3.2200    -1.5560 H     1 <1>   0.1500 
 52 H        6.8900     1.5240     2.0560 H     1 <1>   0.1500 
 53 H        6.4630     1.7560    -2.2070 H     1 <1>   0.1500 
 54 H       -6.1780    -2.2120     2.4130 H     1 <1>   0.1500 
 55 H       -4.7640     0.5690     1.5850 H     1 <1>   0.0800 
 56 H       -6.4010     0.0230     1.7900 H     1 <1>   0.0800 
 57 H       -5.8920     0.5980     0.2380 H     1 <1>   0.0800 
 58 H       -4.2390    -5.0240    -0.1070 H     1 <1>   0.1500 
 59 H        8.4910    -0.2990     1.7780 H     1 <1>   0.1500 
 60 H        8.0630    -0.0710    -2.4490 H     1 <1>   0.1500 
 61 H       -5.5860    -4.5170     1.8820 H     1 <1>   0.1500 
 62 H        9.0780    -1.1040    -0.4660 H     1 <1>   0.1500 
@<TRIPOS>BOND
  1   1   2  1   
  2   1   3  1   
  3   1   4  1   
  4   2   5  1   
  5   2   6  1   
  6   2  28  1   
  7   3   7  1   
  8   3  29  1   
  9   3  30  1   
 10   4   8  1   
 11   4  31  1   
 12   4  32  1   
 13   5   9  1   
 14   5  33  1   
 15   5  34  1   
 16   6  10  1   
 17   6  35  1   
 18   6  36  1   
 19   7  11  1   
 20   7  37  1   
 21   7  38  1   
 22   8  11  1   
 23   8  39  1   
 24   8  40  1   
 25   9  12  1   
 26   9  41  1   
 27   9  42  1   
 28  10  12  1   
 29  10  43  1   
 30  10  44  1   
 31  11  13  1   
 32  11  45  1   
 33  12  14  1   
 34  12  46  1   
 35  13  15  1   
 36  13  47  1   
 37  13  48  1   
 38  14  16  1   
 39  14  49  1   
 40  14  50  1   
 41  15  17  ar  
 42  15  18  ar  
 43  16  19  ar  
 44  16  20  ar  
 45  17  21  ar  
 46  17  22  1   
 47  18  23  ar  
 48  18  51  1   
 49  19  24  ar  
 50  19  52  1   
 51  20  25  ar  
 52  20  53  1   
 53  21  26  ar  
 54  21  54  1   
 55  22  55  1   
 56  22  56  1   
 57  22  57  1   
 58  23  26  ar  
 59  23  58  1   
 60  24  27  ar  
 61  24  59  1   
 62  25  27  ar  
 63  25  60  1   
 64  26  61  1   
 65  27  62  1   
@<TRIPOS>SUBSTRUCTURE
  1 ****   1 GROUP 4 **** **** 0

# MOE 2024.06 (io_trps.svl 2023.06)
