@<TRIPOS>MOLECULE
NONAME
43 44 1 0 0 
SMALL
USER_CHARGES


@<TRIPOS>ATOM
  1 O        0.2100    -0.1140    -0.3390 O.2   1 <1>  -0.5700 
  2 C        0.6560     1.0170    -0.4000 C.2   1 <1>   0.6900 
  3 N        1.9800     1.2280    -0.6920 N.am  1 <1>  -0.6600 
  4 N       -0.1390     2.0990    -0.1450 N.am  1 <1>  -0.5470 
  5 C        2.9710     0.1180    -0.6090 C.3   1 <1>   0.1400 
  6 C        2.5250     2.4820    -1.2790 C.3   1 <1>   0.1400 
  7 C       -1.5200     2.2220     0.0200 C.ar  1 <1>   0.1170 
  8 C        4.1870     0.5610     0.2210 C.3   1 <1>  -0.0800 
  9 C        3.7150     2.9600    -0.4420 C.3   1 <1>  -0.1600 
 10 C       -2.0260     3.3310     0.6880 C.ar  1 <1>  -0.1500 
 11 C       -2.4320     1.2920    -0.4700 C.ar  1 <1>  -0.1500 
 12 C        4.7890     1.8680    -0.3250 C.3   1 <1>  -0.1600 
 13 C        5.2520    -0.5430     0.2560 C.3   1 <1>  -0.2400 
 14 C       -3.3860     3.5000     0.8630 C.ar  1 <1>  -0.1500 
 15 C       -3.7910     1.4620    -0.2930 C.ar  1 <1>  -0.1500 
 16 C       -4.3120     2.5710     0.3800 C.ar  1 <1>   0.0860 
 17 C       -5.7360     2.7640     0.5740 C.2   1 <1>   0.6340 
 18 O       -6.2050     3.7230     1.1530 O.2   1 <1>  -0.5700 
 19 O       -6.5700     1.8390     0.0870 O.3   1 <1>  -0.4300 
 20 C       -7.9680     1.9530     0.2350 C.3   1 <1>   0.1200 
 21 C       -8.6140     0.7410    -0.4280 C.3   1 <1>  -0.2400 
 22 H        0.4100     2.9250     0.0650 H     1 <1>   0.3700 
 23 H        3.2790    -0.1500    -1.6050 H     1 <1>   0.0800 
 24 H        2.5260    -0.7500    -0.1530 H     1 <1>   0.0800 
 25 H        1.7740     3.2510    -1.3270 H     1 <1>   0.0800 
 26 H        2.8510     2.2780    -2.2850 H     1 <1>   0.0800 
 27 H        3.8500     0.7310     1.2300 H     1 <1>   0.0800 
 28 H        3.3690     3.2340     0.5390 H     1 <1>   0.0800 
 29 H        4.1420     3.8360    -0.8970 H     1 <1>   0.0800 
 30 H       -1.3480     4.0680     1.0790 H     1 <1>   0.1500 
 31 H       -2.0750     0.4250    -0.9970 H     1 <1>   0.1500 
 32 H        5.2150     1.6870    -1.2980 H     1 <1>   0.0800 
 33 H        5.5770     2.2060     0.3250 H     1 <1>   0.0800 
 34 H        5.6140    -0.7540    -0.7350 H     1 <1>   0.0800 
 35 H        4.8380    -1.4450     0.6700 H     1 <1>   0.0800 
 36 H        6.0830    -0.2410     0.8690 H     1 <1>   0.0800 
 37 H       -3.7470     4.3680     1.3880 H     1 <1>   0.1500 
 38 H       -4.4630     0.7170    -0.6840 H     1 <1>   0.1500 
 39 H       -8.2870     2.8680    -0.2350 H     1 <1>   0.0800 
 40 H       -8.1970     1.9880     1.2870 H     1 <1>   0.0800 
 41 H       -8.3660     0.7150    -1.4740 H     1 <1>   0.0800 
 42 H       -9.6830     0.8020    -0.3300 H     1 <1>   0.0800 
 43 H       -8.2770    -0.1630     0.0460 H     1 <1>   0.0800 
@<TRIPOS>BOND
  1   1   2  2   
  2   2   3  am  
  3   2   4  am  
  4   3   5  1   
  5   3   6  1   
  6   4   7  1   
  7   4  22  1   
  8   5   8  1   
  9   5  23  1   
 10   5  24  1   
 11   6   9  1   
 12   6  25  1   
 13   6  26  1   
 14   7  10  ar  
 15   7  11  ar  
 16   8  12  1   
 17   8  13  1   
 18   8  27  1   
 19   9  12  1   
 20   9  28  1   
 21   9  29  1   
 22  10  14  ar  
 23  10  30  1   
 24  11  15  ar  
 25  11  31  1   
 26  12  32  1   
 27  12  33  1   
 28  13  34  1   
 29  13  35  1   
 30  13  36  1   
 31  14  16  ar  
 32  14  37  1   
 33  15  16  ar  
 34  15  38  1   
 35  16  17  1   
 36  17  18  2   
 37  17  19  1   
 38  19  20  1   
 39  20  21  1   
 40  20  39  1   
 41  20  40  1   
 42  21  41  1   
 43  21  42  1   
 44  21  43  1   
@<TRIPOS>SUBSTRUCTURE
  1 ****   7 GROUP 4 **** **** 0

# MOE 2024.06 (io_trps.svl 2023.06)
