@<TRIPOS>MOLECULE
NONAME
47 49 1 0 0 
SMALL
USER_CHARGES


@<TRIPOS>ATOM
  1 F        0.9940    -1.3370    -0.4300 F     1 <1>  -0.1900 
  2 C        2.2320    -0.9150    -0.4440 C.ar  1 <1>   0.1900 
  3 C        3.2080    -1.7260    -0.9900 C.ar  1 <1>  -0.1500 
  4 C        2.5210     0.3270     0.0880 C.ar  1 <1>  -0.1500 
  5 C        4.5160    -1.2730    -1.0010 C.ar  1 <1>  -0.1500 
  6 C        3.8340     0.7660     0.0680 C.ar  1 <1>  -0.1500 
  7 C        4.8470    -0.0270    -0.4730 C.ar  1 <1>   0.1170 
  8 N        6.1830     0.3940    -0.5230 N.am  1 <1>  -0.5470 
  9 C        6.8800     1.2680     0.2630 C.2   1 <1>   0.6900 
 10 O        6.3940     1.7080     1.2870 O.2   1 <1>  -0.5700 
 11 N        8.1530     1.6230    -0.1040 N.am  1 <1>  -0.6600 
 12 C        9.0530     2.3630     0.8380 C.3   1 <1>   0.1400 
 13 C        8.7380     1.4790    -1.4770 C.3   1 <1>   0.1400 
 14 C       10.4670     1.7570     0.8600 C.3   1 <1>   0.2090 
 15 C       10.1520     0.8730    -1.4250 C.3   1 <1>   0.2090 
 16 N       11.0380     1.6590    -0.5180 N.pl3 1 <1>  -0.8380 
 17 C       12.3980     1.3230    -0.5770 C.ar  1 <1>   0.1000 
 18 C       12.9260     0.0790    -0.1840 C.ar  1 <1>   0.0830 
 19 C       13.2690     2.2930    -1.0540 C.ar  1 <1>  -0.1500 
 20 O       12.0670    -0.8740     0.2910 O.3   1 <1>  -0.3620 
 21 C       14.2940    -0.1540    -0.2880 C.ar  1 <1>  -0.1500 
 22 C       14.6280     2.0560    -1.1500 C.ar  1 <1>  -0.1500 
 23 C       12.5380    -1.9650     1.0450 C.3   1 <1>   0.1200 
 24 C       15.1410     0.8310    -0.7680 C.ar  1 <1>  -0.1500 
 25 C       11.3260    -2.6940     1.6190 C.3   1 <1>  -0.2400 
 26 H        2.9430    -2.6870    -1.3930 H     1 <1>   0.1500 
 27 H        1.7370     0.9330     0.5050 H     1 <1>   0.1500 
 28 H        5.2850    -1.8960    -1.4190 H     1 <1>   0.1500 
 29 H        4.0720     1.7330     0.4750 H     1 <1>   0.1500 
 30 H        6.7820    -0.1160    -1.1600 H     1 <1>   0.3700 
 31 H        8.6520     2.3430     1.8360 H     1 <1>   0.0800 
 32 H        9.1180     3.3910     0.5280 H     1 <1>   0.0800 
 33 H        8.8030     2.4540    -1.9280 H     1 <1>   0.0800 
 34 H        8.1140     0.8710    -2.1040 H     1 <1>   0.0800 
 35 H       10.4220     0.7790     1.3060 H     1 <1>   0.0800 
 36 H       11.1110     2.3700     1.4660 H     1 <1>   0.0800 
 37 H       10.5780     0.8650    -2.4120 H     1 <1>   0.0800 
 38 H       10.0890    -0.1440    -1.0800 H     1 <1>   0.0800 
 39 H       12.8630     3.2420    -1.3510 H     1 <1>   0.1500 
 40 H       14.7230    -1.0960    -0.0070 H     1 <1>   0.1500 
 41 H       15.2830     2.8240    -1.5230 H     1 <1>   0.1500 
 42 H       13.1660    -1.5900     1.8340 H     1 <1>   0.0800 
 43 H       13.0980    -2.6140     0.3940 H     1 <1>   0.0800 
 44 H       16.1980     0.6430    -0.8440 H     1 <1>   0.1500 
 45 H       10.7630    -2.0300     2.2510 H     1 <1>   0.0800 
 46 H       11.6510    -3.5340     2.2060 H     1 <1>   0.0800 
 47 H       10.6990    -3.0510     0.8230 H     1 <1>   0.0800 
@<TRIPOS>BOND
  1   1   2  1   
  2   2   3  ar  
  3   2   4  ar  
  4   3   5  ar  
  5   3  26  1   
  6   4   6  ar  
  7   4  27  1   
  8   5   7  ar  
  9   5  28  1   
 10   6   7  ar  
 11   6  29  1   
 12   7   8  1   
 13   8   9  am  
 14   8  30  1   
 15   9  10  2   
 16   9  11  am  
 17  11  12  1   
 18  11  13  1   
 19  12  14  1   
 20  12  31  1   
 21  12  32  1   
 22  13  15  1   
 23  13  33  1   
 24  13  34  1   
 25  14  16  1   
 26  14  35  1   
 27  14  36  1   
 28  15  16  1   
 29  15  37  1   
 30  15  38  1   
 31  16  17  1   
 32  17  18  ar  
 33  17  19  ar  
 34  18  20  1   
 35  18  21  ar  
 36  19  22  ar  
 37  19  39  1   
 38  20  23  1   
 39  21  24  ar  
 40  21  40  1   
 41  22  24  ar  
 42  22  41  1   
 43  23  25  1   
 44  23  42  1   
 45  23  43  1   
 46  24  44  1   
 47  25  45  1   
 48  25  46  1   
 49  25  47  1   
@<TRIPOS>SUBSTRUCTURE
  1 ****  11 GROUP 4 **** **** 0

# MOE 2024.06 (io_trps.svl 2023.06)
