@<TRIPOS>MOLECULE
NONAME
53 55 1 0 0 
SMALL
USER_CHARGES


@<TRIPOS>ATOM
  1 O        0.6570    -3.2340     1.5220 O.2   1 <1>  -0.5700 
  2 C       -0.0360    -2.6070     0.7570 C.2   1 <1>   0.5690 
  3 N        0.4070    -1.5690    -0.0110 N.am  1 <1>  -0.5470 
  4 C       -1.5180    -2.9620     0.6240 C.3   1 <1>   0.1710 
  5 C        1.6490    -0.9190    -0.0350 C.ar  1 <1>   0.1170 
  6 N       -2.3710    -1.8050     0.2240 N.3   1 <1>  -0.8100 
  7 C        2.8620    -1.5640    -0.3100 C.ar  1 <1>  -0.1430 
  8 C        1.6480     0.4460     0.2190 C.ar  1 <1>  -0.1500 
  9 C       -3.7040    -2.2650    -0.2340 C.3   1 <1>   0.1100 
 10 C       -2.5430    -0.8580     1.3580 C.3   1 <1>   0.1100 
 11 C        4.0500    -0.8350    -0.2870 C.ar  1 <1>  -0.1430 
 12 C        2.8850    -3.0580    -0.6390 C.3   1 <1>  -0.0970 
 13 C        2.8230     1.1680     0.2240 C.ar  1 <1>  -0.1500 
 14 C       -4.6250    -1.0920    -0.6220 C.3   1 <1>   0.2090 
 15 C       -3.4490     0.3340     0.9940 C.3   1 <1>   0.2090 
 16 C        4.0200     0.5260    -0.0240 C.ar  1 <1>  -0.1500 
 17 C        5.4060    -1.4820    -0.5390 C.3   1 <1>  -0.0970 
 18 N       -4.7780    -0.1420     0.5160 N.pl3 1 <1>  -0.8380 
 19 C       -5.7500     0.8550     0.3480 C.ar  1 <1>   0.1000 
 20 C       -5.6820     1.8830    -0.6120 C.ar  1 <1>   0.0830 
 21 C       -6.8480     0.8080     1.1950 C.ar  1 <1>  -0.1500 
 22 O       -4.5970     1.9270    -1.4470 O.3   1 <1>  -0.3630 
 23 C       -6.7070     2.8220    -0.6870 C.ar  1 <1>  -0.1500 
 24 C       -7.8630     1.7430     1.1130 C.ar  1 <1>  -0.1500 
 25 C       -4.5000     2.8800    -2.4820 C.3   1 <1>   0.0400 
 26 C       -7.7920     2.7520     0.1710 C.ar  1 <1>  -0.1500 
 27 H       -0.3700    -1.0910    -0.4770 H     1 <1>   0.3700 
 28 H       -1.8640    -3.3710     1.5570 H     1 <1>   0.0800 
 29 H       -1.5900    -3.7310    -0.1230 H     1 <1>   0.0800 
 30 H        0.7190     0.9450     0.4200 H     1 <1>   0.1500 
 31 H       -4.1840    -2.8320     0.5450 H     1 <1>   0.0800 
 32 H       -3.5850    -2.9050    -1.0910 H     1 <1>   0.0800 
 33 H       -1.5840    -0.4780     1.6650 H     1 <1>   0.0800 
 34 H       -2.9810    -1.3700     2.1980 H     1 <1>   0.0800 
 35 H        1.9610    -3.3710    -1.0870 H     1 <1>   0.0800 
 36 H        3.0370    -3.6220     0.2630 H     1 <1>   0.0800 
 37 H        3.6650    -3.2980    -1.3360 H     1 <1>   0.0800 
 38 H        2.8100     2.2250     0.4250 H     1 <1>   0.1500 
 39 H       -5.5940    -1.4690    -0.8990 H     1 <1>   0.0800 
 40 H       -4.2080    -0.5810    -1.4720 H     1 <1>   0.0800 
 41 H       -2.9730     0.9200     0.2280 H     1 <1>   0.0800 
 42 H       -3.5880     0.9590     1.8580 H     1 <1>   0.0800 
 43 H        4.9320     1.0970    -0.0100 H     1 <1>   0.1500 
 44 H        5.4970    -1.7490    -1.5760 H     1 <1>   0.0800 
 45 H        5.5130    -2.3640     0.0650 H     1 <1>   0.0800 
 46 H        6.2070    -0.8100    -0.2900 H     1 <1>   0.0800 
 47 H       -6.8960     0.0210     1.9240 H     1 <1>   0.1500 
 48 H       -6.6870     3.6190    -1.4040 H     1 <1>   0.1500 
 49 H       -8.7030     1.6840     1.7820 H     1 <1>   0.1500 
 50 H       -3.5870     2.6980    -3.0180 H     1 <1>   0.0800 
 51 H       -4.4780     3.8650    -2.0490 H     1 <1>   0.0800 
 52 H       -5.3410     2.7650    -3.1420 H     1 <1>   0.0800 
 53 H       -8.5800     3.4810     0.1050 H     1 <1>   0.1500 
@<TRIPOS>BOND
  1   1   2  2   
  2   2   3  am  
  3   2   4  1   
  4   3   5  1   
  5   3  27  1   
  6   4   6  1   
  7   4  28  1   
  8   4  29  1   
  9   5   7  ar  
 10   5   8  ar  
 11   6   9  1   
 12   6  10  1   
 13   7  11  ar  
 14   7  12  1   
 15   8  13  ar  
 16   8  30  1   
 17   9  14  1   
 18   9  31  1   
 19   9  32  1   
 20  10  15  1   
 21  10  33  1   
 22  10  34  1   
 23  11  16  ar  
 24  11  17  1   
 25  12  35  1   
 26  12  36  1   
 27  12  37  1   
 28  13  16  ar  
 29  13  38  1   
 30  14  18  1   
 31  14  39  1   
 32  14  40  1   
 33  15  18  1   
 34  15  41  1   
 35  15  42  1   
 36  16  43  1   
 37  17  44  1   
 38  17  45  1   
 39  17  46  1   
 40  18  19  1   
 41  19  20  ar  
 42  19  21  ar  
 43  20  22  1   
 44  20  23  ar  
 45  21  24  ar  
 46  21  47  1   
 47  22  25  1   
 48  23  26  ar  
 49  23  48  1   
 50  24  26  ar  
 51  24  49  1   
 52  25  50  1   
 53  25  51  1   
 54  25  52  1   
 55  26  53  1   
@<TRIPOS>SUBSTRUCTURE
  1 ****  10 GROUP 4 **** **** 0

# MOE 2024.06 (io_trps.svl 2023.06)
