@<TRIPOS>MOLECULE
NONAME
49 50 1 0 0 
SMALL
USER_CHARGES


@<TRIPOS>ATOM
  1 O       -0.5880    -3.2380    -2.6750 O.2   1 <1>  -0.5700 
  2 C       -0.1990    -2.3170    -2.0010 C.2   1 <1>   0.5690 
  3 N       -0.9440    -1.2210    -1.7090 N.am  1 <1>  -0.7300 
  4 C        1.2100    -2.3920    -1.4440 C.3   1 <1>  -0.0990 
  5 C       -2.3670    -0.9080    -1.9630 C.3   1 <1>   0.3640 
  6 C        1.2440    -2.4890     0.0930 C.3   1 <1>   0.0630 
  7 C       -3.1680    -1.2350    -0.7040 C.ar  1 <1>  -0.1440 
  8 C       -2.9420    -1.6010    -3.1990 C.3   1 <1>  -0.2400 
  9 C        0.7130    -1.2130     0.7460 C.ar  1 <1>  -0.1440 
 10 C        2.6610    -2.7950     0.5920 C.3   1 <1>  -0.2400 
 11 C       -3.8900    -0.2520    -0.0300 C.ar  1 <1>   0.0820 
 12 C       -3.1660    -2.5320    -0.2080 C.ar  1 <1>  -0.1500 
 13 C        1.3530     0.0080     0.5780 C.ar  1 <1>  -0.1500 
 14 C       -0.4510    -1.2600     1.4990 C.ar  1 <1>  -0.1500 
 15 O       -3.8740     1.0130    -0.5330 O.3   1 <1>  -0.3630 
 16 C       -4.5960    -0.5850     1.1250 C.ar  1 <1>  -0.1500 
 17 C       -3.8580    -2.8620     0.9440 C.ar  1 <1>   0.0820 
 18 C        0.8340     1.1590     1.1440 C.ar  1 <1>  -0.1500 
 19 C       -0.9740    -0.1100     2.0620 C.ar  1 <1>  -0.1500 
 20 C       -4.4370     2.0970     0.1700 C.3   1 <1>   0.0400 
 21 C       -4.5800    -1.8790     1.6120 C.ar  1 <1>  -0.1500 
 22 O       -3.7790    -4.1540     1.3560 O.3   1 <1>  -0.3620 
 23 C       -0.3320     1.1020     1.8850 C.ar  1 <1>  -0.1500 
 24 C       -4.4840    -4.6020     2.4920 C.3   1 <1>   0.0400 
 25 H       -0.5750    -0.6270    -0.9590 H     1 <1>   0.3700 
 26 H        1.7590    -1.5330    -1.7800 H     1 <1>   0.0800 
 27 H        1.6830    -3.2620    -1.8610 H     1 <1>   0.0800 
 28 H       -2.4130     0.1480    -2.1570 H     1 <1>   0.0800 
 29 H        0.6150    -3.3150     0.3810 H     1 <1>   0.0800 
 30 H       -2.3220    -1.4050    -4.0540 H     1 <1>   0.0800 
 31 H       -3.9280    -1.2200    -3.3910 H     1 <1>   0.0800 
 32 H       -3.0190    -2.6610    -3.0480 H     1 <1>   0.0800 
 33 H        3.3540    -2.0360     0.2780 H     1 <1>   0.0800 
 34 H        2.9940    -3.7440     0.2120 H     1 <1>   0.0800 
 35 H        2.6660    -2.8390     1.6670 H     1 <1>   0.0800 
 36 H       -2.6140    -3.3030    -0.7160 H     1 <1>   0.1500 
 37 H        2.2600     0.0720     0.0030 H     1 <1>   0.1500 
 38 H       -0.9710    -2.1930     1.6420 H     1 <1>   0.1500 
 39 H       -5.1660     0.1500     1.6600 H     1 <1>   0.1500 
 40 H        1.3380     2.1000     1.0080 H     1 <1>   0.1500 
 41 H       -1.8840    -0.1630     2.6330 H     1 <1>   0.1500 
 42 H       -4.2420     2.9950    -0.3890 H     1 <1>   0.0800 
 43 H       -5.4980     1.9450     0.2570 H     1 <1>   0.0800 
 44 H       -3.9740     2.1630     1.1390 H     1 <1>   0.0800 
 45 H       -5.1310    -2.1030     2.5050 H     1 <1>   0.1500 
 46 H       -0.7390     1.9960     2.3240 H     1 <1>   0.1500 
 47 H       -4.2870    -5.6520     2.6130 H     1 <1>   0.0800 
 48 H       -5.5360    -4.4430     2.3340 H     1 <1>   0.0800 
 49 H       -4.1350    -4.0640     3.3550 H     1 <1>   0.0800 
@<TRIPOS>BOND
  1   1   2  2   
  2   2   3  am  
  3   2   4  1   
  4   3   5  1   
  5   3  25  1   
  6   4   6  1   
  7   4  26  1   
  8   4  27  1   
  9   5   7  1   
 10   5   8  1   
 11   5  28  1   
 12   6   9  1   
 13   6  10  1   
 14   6  29  1   
 15   7  11  ar  
 16   7  12  ar  
 17   8  30  1   
 18   8  31  1   
 19   8  32  1   
 20   9  13  ar  
 21   9  14  ar  
 22  10  33  1   
 23  10  34  1   
 24  10  35  1   
 25  11  15  1   
 26  11  16  ar  
 27  12  17  ar  
 28  12  36  1   
 29  13  18  ar  
 30  13  37  1   
 31  14  19  ar  
 32  14  38  1   
 33  15  20  1   
 34  16  21  ar  
 35  16  39  1   
 36  17  21  ar  
 37  17  22  1   
 38  18  23  ar  
 39  18  40  1   
 40  19  23  ar  
 41  19  41  1   
 42  20  42  1   
 43  20  43  1   
 44  20  44  1   
 45  21  45  1   
 46  22  24  1   
 47  23  46  1   
 48  24  47  1   
 49  24  48  1   
 50  24  49  1   
@<TRIPOS>SUBSTRUCTURE
  1 ****   7 GROUP 4 **** **** 0

# MOE 2024.06 (io_trps.svl 2023.06)
