@<TRIPOS>MOLECULE
NONAME
26 26 1 0 0 
SMALL
USER_CHARGES


@<TRIPOS>ATOM
  1 F       -2.2860     0.9190    -2.9130 F     1 <1>  -0.1900 
  2 C       -2.6450     1.1980    -1.6890 C.ar  1 <1>   0.1900 
  3 C       -1.6920     1.6740    -0.8120 C.ar  1 <1>  -0.1500 
  4 C       -3.9640     1.0040    -1.3230 C.ar  1 <1>  -0.1500 
  5 C       -2.1180     1.9540     0.4700 C.ar  1 <1>   0.1900 
  6 C       -4.3750     1.2920    -0.0250 C.ar  1 <1>   0.1170 
  7 F       -1.2470     2.4080     1.3300 F     1 <1>  -0.1900 
  8 C       -3.4280     1.7750     0.8780 C.ar  1 <1>  -0.1500 
  9 N       -5.7220     1.0820     0.3070 N.am  1 <1>  -0.5470 
 10 C       -6.4350     1.2170     1.4660 C.2   1 <1>   0.5690 
 11 O       -5.9640     1.5820     2.5160 O.2   1 <1>  -0.5700 
 12 C       -7.9220     0.8790     1.4090 C.3   1 <1>   0.1810 
 13 O       -8.3040     0.4640     0.1170 O.3   1 <1>  -0.5600 
 14 C       -9.6500     0.1420     0.0050 C.3   1 <1>   0.1200 
 15 C       -9.9000    -0.2820    -1.4360 C.3   1 <1>  -0.2400 
 16 H       -0.6710     1.8190    -1.1110 H     1 <1>   0.1500 
 17 H       -4.6620     0.6300    -2.0490 H     1 <1>   0.1500 
 18 H       -3.6920     2.0140     1.8900 H     1 <1>   0.1500 
 19 H       -6.3280     0.7540    -0.4530 H     1 <1>   0.3700 
 20 H       -8.4920     1.7510     1.6760 H     1 <1>   0.0800 
 21 H       -8.1290     0.0850     2.1040 H     1 <1>   0.0800 
 22 H      -10.2400     1.0090     0.2530 H     1 <1>   0.0800 
 23 H       -9.8750    -0.6650     0.6830 H     1 <1>   0.0800 
 24 H       -9.6630     0.5250    -2.1070 H     1 <1>   0.0800 
 25 H      -10.9350    -0.5410    -1.5650 H     1 <1>   0.0800 
 26 H       -9.3000    -1.1410    -1.6790 H     1 <1>   0.0800 
@<TRIPOS>BOND
  1   1   2  1   
  2   2   3  ar  
  3   2   4  ar  
  4   3   5  ar  
  5   3  16  1   
  6   4   6  ar  
  7   4  17  1   
  8   5   7  1   
  9   5   8  ar  
 10   6   8  ar  
 11   6   9  1   
 12   8  18  1   
 13   9  10  am  
 14   9  19  1   
 15  10  11  2   
 16  10  12  1   
 17  12  13  1   
 18  12  20  1   
 19  12  21  1   
 20  13  14  1   
 21  14  15  1   
 22  14  22  1   
 23  14  23  1   
 24  15  24  1   
 25  15  25  1   
 26  15  26  1   
@<TRIPOS>SUBSTRUCTURE
  1 ****   6 GROUP 4 **** **** 0

# MOE 2024.06 (io_trps.svl 2023.06)
