@<TRIPOS>MOLECULE
NONAME
47 48 1 0 0 
SMALL
USER_CHARGES


@<TRIPOS>ATOM
  1 O      -10.2320     1.0750    -0.8760 O.3   1 <1>  -0.3630 
  2 C      -10.6490    -0.0570    -0.2540 C.ar  1 <1>   0.0830 
  3 C       -9.5960     2.0830    -0.1120 C.3   1 <1>   0.1200 
  4 C      -11.7230    -0.0010     0.6480 C.ar  1 <1>  -0.1440 
  5 C      -10.0150    -1.2780    -0.5360 C.ar  1 <1>  -0.1440 
  6 C       -8.1470     1.6970     0.1760 C.3   1 <1>  -0.1600 
  7 C      -12.0570    -1.1440     1.3600 C.ar  1 <1>  -0.1500 
  8 C      -12.5900     1.2510     0.8500 C.3   1 <1>   0.0640 
  9 C      -10.3880    -2.3940     0.2000 C.ar  1 <1>  -0.1500 
 10 C       -8.9530    -1.5500    -1.6210 C.3   1 <1>   0.0640 
 11 C       -7.4360     2.7820     0.9900 C.3   1 <1>   0.0960 
 12 C      -11.3860    -2.3300     1.1510 C.ar  1 <1>  -0.1500 
 13 C      -12.5230     1.7570     2.2970 C.3   1 <1>  -0.2400 
 14 C      -14.0450     0.9740     0.4510 C.3   1 <1>  -0.2400 
 15 C       -7.5410    -1.6700    -1.0350 C.3   1 <1>  -0.2400 
 16 C       -8.9630    -0.6140    -2.8360 C.3   1 <1>  -0.2400 
 17 N       -6.0360     2.3940     1.2400 N.pl3 1 <1>   0.0480 
 18 C       -4.9330     2.7790     0.5600 C.2   1 <1>   0.0360 
 19 C       -5.5740     1.5660     2.1950 C.2   1 <1>  -0.3020 
 20 N       -3.8310     2.2690     1.0070 N.2   1 <1>  -0.5650 
 21 C       -4.2340     1.5030     2.0380 C.2   1 <1>   0.0770 
 22 H      -10.1300     2.2250     0.8080 H     1 <1>   0.0800 
 23 H       -9.6380     2.9910    -0.6870 H     1 <1>   0.0800 
 24 H       -7.6300     1.5610    -0.7560 H     1 <1>   0.0800 
 25 H       -8.1390     0.7810     0.7390 H     1 <1>   0.0800 
 26 H      -12.8570    -1.1260     2.0770 H     1 <1>   0.1500 
 27 H      -12.2530     2.0380     0.2020 H     1 <1>   0.0800 
 28 H       -9.9040    -3.3400     0.0300 H     1 <1>   0.1500 
 29 H       -9.1930    -2.5200    -2.0240 H     1 <1>   0.0800 
 30 H       -7.9270     2.9210     1.9370 H     1 <1>   0.0800 
 31 H       -7.4460     3.7160     0.4560 H     1 <1>   0.0800 
 32 H      -11.6530    -3.2070     1.7130 H     1 <1>   0.1500 
 33 H      -12.9670     1.0480     2.9720 H     1 <1>   0.0800 
 34 H      -13.0520     2.6890     2.3880 H     1 <1>   0.0800 
 35 H      -11.5020     1.9100     2.5930 H     1 <1>   0.0800 
 36 H      -14.4940     0.2420     1.0970 H     1 <1>   0.0800 
 37 H      -14.0790     0.6050    -0.5590 H     1 <1>   0.0800 
 38 H      -14.6240     1.8780     0.5040 H     1 <1>   0.0800 
 39 H       -7.5370    -2.3550    -0.2070 H     1 <1>   0.0800 
 40 H       -7.1800    -0.7220    -0.6940 H     1 <1>   0.0800 
 41 H       -6.8620    -2.0390    -1.7830 H     1 <1>   0.0800 
 42 H       -8.5590     0.3490    -2.5890 H     1 <1>   0.0800 
 43 H       -9.9700    -0.4880    -3.1930 H     1 <1>   0.0800 
 44 H       -8.3700    -1.0320    -3.6290 H     1 <1>   0.0800 
 45 H       -4.9850     3.4520    -0.2780 H     1 <1>   0.1500 
 46 H       -6.2050     1.0780     2.9140 H     1 <1>   0.1500 
 47 H       -3.5270     0.9370     2.6210 H     1 <1>   0.1500 
@<TRIPOS>BOND
  1   1   2  1   
  2   1   3  1   
  3   2   4  ar  
  4   2   5  ar  
  5   3   6  1   
  6   3  22  1   
  7   3  23  1   
  8   4   7  ar  
  9   4   8  1   
 10   5   9  ar  
 11   5  10  1   
 12   6  11  1   
 13   6  24  1   
 14   6  25  1   
 15   7  12  ar  
 16   7  26  1   
 17   8  13  1   
 18   8  14  1   
 19   8  27  1   
 20   9  12  ar  
 21   9  28  1   
 22  10  15  1   
 23  10  16  1   
 24  10  29  1   
 25  11  17  1   
 26  11  30  1   
 27  11  31  1   
 28  12  32  1   
 29  13  33  1   
 30  13  34  1   
 31  13  35  1   
 32  14  36  1   
 33  14  37  1   
 34  14  38  1   
 35  15  39  1   
 36  15  40  1   
 37  15  41  1   
 38  16  42  1   
 39  16  43  1   
 40  16  44  1   
 41  17  18  1   
 42  17  19  1   
 43  18  20  2   
 44  18  45  1   
 45  19  21  2   
 46  19  46  1   
 47  20  21  1   
 48  21  47  1   
@<TRIPOS>SUBSTRUCTURE
  1 ****   6 GROUP 4 **** **** 0

# MOE 2024.06 (io_trps.svl 2023.06)
