@<TRIPOS>MOLECULE
NONAME
30 31 1 0 0 
SMALL
USER_CHARGES


@<TRIPOS>ATOM
  1 CL      -0.3260     0.2750    -0.6670 Cl    1 <1>  -0.1770 
  2 C       -1.4670    -1.0100    -0.3320 C.ar  1 <1>   0.1770 
  3 C       -2.8220    -0.7460    -0.1710 C.ar  1 <1>  -0.1440 
  4 C       -0.9530    -2.2890    -0.2290 C.ar  1 <1>  -0.1500 
  5 C       -3.6800    -1.8110     0.1210 C.ar  1 <1>   0.1170 
  6 C       -3.3640     0.6790    -0.3110 C.3   1 <1>  -0.0970 
  7 C       -1.8040    -3.3410     0.0480 C.ar  1 <1>  -0.1500 
  8 N       -5.0480    -1.5720     0.3360 N.am  1 <1>  -0.5470 
  9 C       -3.1530    -3.0970     0.2240 C.ar  1 <1>  -0.1500 
 10 C       -6.1440    -2.3640     0.0930 C.2   1 <1>   0.5690 
 11 O       -6.0570    -3.4690    -0.3880 O.2   1 <1>  -0.5700 
 12 C       -7.5450    -1.8290     0.4660 C.3   1 <1>   0.2810 
 13 N       -8.6510    -2.4210    -0.3140 N.am  1 <1>  -0.7300 
 14 C       -7.7570    -0.3160     0.2270 C.3   1 <1>  -0.1600 
 15 C       -9.5510    -1.5370    -0.7560 C.2   1 <1>   0.5690 
 16 C       -9.2120    -0.1600    -0.2580 C.3   1 <1>  -0.0990 
 17 O      -10.4830    -1.7900    -1.4720 O.2   1 <1>  -0.5700 
 18 H        0.1000    -2.4550    -0.3650 H     1 <1>   0.1500 
 19 H       -2.7020     1.3020    -0.8830 H     1 <1>   0.0800 
 20 H       -3.4880     1.1210     0.6620 H     1 <1>   0.0800 
 21 H       -4.3080     0.6800    -0.8240 H     1 <1>   0.0800 
 22 H       -1.4200    -4.3430     0.1290 H     1 <1>   0.1500 
 23 H       -5.2480    -0.6310     0.6680 H     1 <1>   0.3700 
 24 H       -3.8010    -3.9250     0.4490 H     1 <1>   0.1500 
 25 H       -7.7200    -2.0570     1.5030 H     1 <1>   0.0800 
 26 H       -8.5750    -3.3760    -0.6780 H     1 <1>   0.3700 
 27 H       -7.1010     0.0190    -0.5580 H     1 <1>   0.0800 
 28 H       -7.5640     0.2600     1.1150 H     1 <1>   0.0800 
 29 H       -9.3040     0.5640    -1.0460 H     1 <1>   0.0800 
 30 H       -9.8740     0.0880     0.5520 H     1 <1>   0.0800 
@<TRIPOS>BOND
  1   1   2  1   
  2   2   3  ar  
  3   2   4  ar  
  4   3   5  ar  
  5   3   6  1   
  6   4   7  ar  
  7   4  18  1   
  8   5   8  1   
  9   5   9  ar  
 10   6  19  1   
 11   6  20  1   
 12   6  21  1   
 13   7   9  ar  
 14   7  22  1   
 15   8  10  am  
 16   8  23  1   
 17   9  24  1   
 18  10  11  2   
 19  10  12  1   
 20  12  13  1   
 21  12  14  1   
 22  12  25  1   
 23  13  15  am  
 24  13  26  1   
 25  14  16  1   
 26  14  27  1   
 27  14  28  1   
 28  15  16  1   
 29  15  17  2   
 30  16  29  1   
 31  16  30  1   
@<TRIPOS>SUBSTRUCTURE
  1 ****   8 GROUP 4 **** **** 0

# MOE 2024.06 (io_trps.svl 2023.06)
