@<TRIPOS>MOLECULE
NONAME
39 40 1 0 0 
SMALL
USER_CHARGES


@<TRIPOS>ATOM
  1 CL      -0.1940    -2.0300     1.9640 Cl    1 <1>  -0.1400 
  2 C       -0.1000    -1.9540     0.2220 C.2   1 <1>   0.0020 
  3 C        1.0060    -1.5720    -0.4440 C.2   1 <1>  -0.1780 
  4 C       -1.4130    -2.3770    -0.4110 C.3   1 <1>   0.4810 
  5 C        2.2820    -1.1360     0.0730 C.ar  1 <1>   0.0280 
  6 N       -2.5000    -1.4640     0.0430 N.4   1 <1>  -0.9590 
  7 C        3.4530    -1.5200    -0.5750 C.ar  1 <1>  -0.1500 
  8 C        2.4020    -0.3160     1.1940 C.ar  1 <1>  -0.1500 
  9 C       -3.8730    -1.8930    -0.3680 C.3   1 <1>   0.3430 
 10 C       -2.2680    -0.0210    -0.3250 C.3   1 <1>   0.3430 
 11 C        4.6940    -1.1130    -0.1200 C.ar  1 <1>  -0.1500 
 12 C        3.6390     0.0930     1.6550 C.ar  1 <1>  -0.1500 
 13 C       -4.9540    -1.0190     0.3220 C.3   1 <1>   0.2000 
 14 C       -3.5150     0.8690    -0.0800 C.3   1 <1>   0.2000 
 15 C        4.7890    -0.3060     0.9990 C.ar  1 <1>  -0.1500 
 16 O       -4.4330     0.2130     0.7540 O.3   1 <1>  -0.5600 
 17 C       -5.5150    -1.6970     1.5700 C.3   1 <1>  -0.2400 
 18 C       -4.2180     1.3090    -1.3700 C.3   1 <1>  -0.2400 
 19 H        0.9950    -1.5810    -1.5200 H     1 <1>   0.1500 
 20 H       -1.6330    -3.3890    -0.1120 H     1 <1>   0.0800 
 21 H       -1.3260    -2.3470    -1.4840 H     1 <1>   0.0800 
 22 H       -2.5020    -1.4750     1.0760 H     1 <1>   0.4500 
 23 H        3.3990    -2.1500    -1.4450 H     1 <1>   0.1500 
 24 H        1.5240     0.0160     1.7150 H     1 <1>   0.1500 
 25 H       -3.9800    -1.7980    -1.4350 H     1 <1>   0.0800 
 26 H       -4.0410    -2.9270    -0.1130 H     1 <1>   0.0800 
 27 H       -1.4480     0.3700     0.2560 H     1 <1>   0.0800 
 28 H       -1.9890     0.0590    -1.3620 H     1 <1>   0.0800 
 29 H        5.5870    -1.4240    -0.6330 H     1 <1>   0.1500 
 30 H        3.7110     0.7230     2.5250 H     1 <1>   0.1500 
 31 H       -5.7610    -0.8230    -0.3640 H     1 <1>   0.0800 
 32 H       -3.2030     1.7560     0.4460 H     1 <1>   0.0800 
 33 H        5.7540     0.0110     1.3570 H     1 <1>   0.1500 
 34 H       -4.7380    -1.8760     2.2920 H     1 <1>   0.0800 
 35 H       -5.9740    -2.6350     1.3150 H     1 <1>   0.0800 
 36 H       -6.2670    -1.0690     2.0160 H     1 <1>   0.0800 
 37 H       -4.4950     0.4750    -1.9880 H     1 <1>   0.0800 
 38 H       -3.5630     1.9440    -1.9420 H     1 <1>   0.0800 
 39 H       -5.0980     1.8800    -1.1280 H     1 <1>   0.0800 
@<TRIPOS>BOND
  1   1   2  1   
  2   2   3  2   
  3   2   4  1   
  4   3   5  1   
  5   3  19  1   
  6   4   6  1   
  7   4  20  1   
  8   4  21  1   
  9   5   7  ar  
 10   5   8  ar  
 11   6   9  1   
 12   6  10  1   
 13   6  22  1   
 14   7  11  ar  
 15   7  23  1   
 16   8  12  ar  
 17   8  24  1   
 18   9  13  1   
 19   9  25  1   
 20   9  26  1   
 21  10  14  1   
 22  10  27  1   
 23  10  28  1   
 24  11  15  ar  
 25  11  29  1   
 26  12  15  ar  
 27  12  30  1   
 28  13  16  1   
 29  13  17  1   
 30  13  31  1   
 31  14  16  1   
 32  14  18  1   
 33  14  32  1   
 34  15  33  1   
 35  17  34  1   
 36  17  35  1   
 37  17  36  1   
 38  18  37  1   
 39  18  38  1   
 40  18  39  1   
@<TRIPOS>SUBSTRUCTURE
  1 ****   2 GROUP 4 **** **** 0

# MOE 2024.06 (io_trps.svl 2023.06)
