@<TRIPOS>MOLECULE
NONAME
27 28 1 0 0 
SMALL
USER_CHARGES


@<TRIPOS>ATOM
  1 S       -0.0520    -0.5590    -0.7300 S.3   1 <1>  -0.0800 
  2 C        1.3890     0.4550    -0.7280 C.ar  1 <1>   0.2970 
  3 C       -1.0630     0.7720    -0.1530 C.2   1 <1>  -0.1400 
  4 N        2.5840     0.0330    -1.0840 N.ar  1 <1>  -0.5670 
  5 C        1.0730     1.7240    -0.3060 C.ar  1 <1>   0.0000 
  6 C       -0.3220     1.8830     0.0150 C.2   1 <1>  -0.1500 
  7 C       -2.5350     0.4550     0.0480 C.3   1 <1>   0.0200 
  8 C        3.5110     0.9700    -1.0020 C.ar  1 <1>   0.4700 
  9 C        2.1550     2.5840    -0.2760 C.ar  1 <1>   0.4120 
 10 C       -3.3220     1.6690     0.5480 C.3   1 <1>  -0.2400 
 11 N        3.3770     2.2380    -0.6160 N.ar  1 <1>  -0.6200 
 12 S        1.9070     4.2730     0.2510 S.3   1 <1>  -0.3320 
 13 C        3.6030     5.0370     0.1330 C.3   1 <1>   0.1310 
 14 C        3.5990     6.5010     0.5480 C.2   1 <1>   0.5690 
 15 O        4.6310     7.1200     0.5200 O.2   1 <1>  -0.5700 
 16 N        2.4650     7.1110     0.9440 N.am  1 <1>  -0.8000 
 17 H       -0.6890     2.8350     0.3570 H     1 <1>   0.1500 
 18 H       -2.6260    -0.3470     0.7600 H     1 <1>   0.0800 
 19 H       -2.9520     0.1190    -0.8860 H     1 <1>   0.0800 
 20 H        4.5070     0.6700    -1.2840 H     1 <1>   0.1500 
 21 H       -2.9310     2.0040     1.4930 H     1 <1>   0.0800 
 22 H       -4.3570     1.4070     0.6790 H     1 <1>   0.0800 
 23 H       -3.2590     2.4730    -0.1630 H     1 <1>   0.0800 
 24 H        3.9250     4.9420    -0.8870 H     1 <1>   0.0800 
 25 H        4.2530     4.4720     0.7740 H     1 <1>   0.0800 
 26 H        2.4800     8.0930     1.2190 H     1 <1>   0.3700 
 27 H        1.5670     6.6240     0.9830 H     1 <1>   0.3700 
@<TRIPOS>BOND
  1   1   2  1   
  2   1   3  1   
  3   2   4  ar  
  4   2   5  ar  
  5   3   6  2   
  6   3   7  1   
  7   4   8  ar  
  8   5   6  1   
  9   5   9  ar  
 10   6  17  1   
 11   7  10  1   
 12   7  18  1   
 13   7  19  1   
 14   8  11  ar  
 15   8  20  1   
 16   9  11  ar  
 17   9  12  1   
 18  10  21  1   
 19  10  22  1   
 20  10  23  1   
 21  12  13  1   
 22  13  14  1   
 23  13  24  1   
 24  13  25  1   
 25  14  15  2   
 26  14  16  am  
 27  16  26  1   
 28  16  27  1   
@<TRIPOS>SUBSTRUCTURE
  1 ****   9 GROUP 4 **** **** 0

# MOE 2024.06 (io_trps.svl 2023.06)
