@<TRIPOS>MOLECULE
NONAME
53 55 1 0 0 
SMALL
USER_CHARGES


@<TRIPOS>ATOM
  1 O        0.0720     1.2720    -2.3130 O.2   1 <1>  -0.5700 
  2 C       -0.9760     1.5770    -1.7730 C.2   1 <1>   0.5440 
  3 N       -1.8630     0.5640    -1.4460 N.am  1 <1>  -0.6600 
  4 C       -1.2370     2.9640    -1.4570 C.ar  1 <1>   0.0860 
  5 C       -1.4130    -0.8560    -1.4990 C.3   1 <1>   0.1400 
  6 C       -3.0210     0.7510    -0.5180 C.3   1 <1>   0.1400 
  7 C       -0.3890     3.7030    -0.6110 C.ar  1 <1>   0.1170 
  8 C       -2.3460     3.6090    -2.0090 C.ar  1 <1>  -0.1500 
  9 C       -0.9580    -1.2780    -0.0930 C.3   1 <1>   0.3430 
 10 C       -2.6780     0.2520     0.9020 C.3   1 <1>   0.3430 
 11 N        0.7920     3.1810    -0.0690 N.am  1 <1>  -0.5470 
 12 C       -0.6950     5.0290    -0.3280 C.ar  1 <1>  -0.1500 
 13 C       -2.6360     4.9270    -1.7190 C.ar  1 <1>  -0.1500 
 14 N       -2.0560    -1.1270     0.9340 N.4   1 <1>  -0.9590 
 15 C        1.0000     2.0210     0.6350 C.2   1 <1>   0.5440 
 16 C       -1.8090     5.6390    -0.8690 C.ar  1 <1>  -0.1500 
 17 C       -1.4950    -1.3760     2.2940 C.3   1 <1>   0.2630 
 18 O        0.0720     1.4890     1.2170 O.2   1 <1>  -0.5700 
 19 C        2.3260     1.4490     0.6840 C.ar  1 <1>   0.0860 
 20 C        3.0720     1.2580    -0.4800 C.ar  1 <1>  -0.1500 
 21 C        2.9040     1.0630     1.8940 C.ar  1 <1>  -0.1500 
 22 C        4.3430     0.7170    -0.4330 C.ar  1 <1>  -0.1500 
 23 C        4.1750     0.5210     1.9480 C.ar  1 <1>  -0.1500 
 24 C        4.9070     0.3460     0.7760 C.ar  1 <1>   0.0820 
 25 O        6.1540    -0.1710     0.7360 O.3   1 <1>  -0.3620 
 26 C        6.8390    -0.5630     1.9030 C.3   1 <1>   0.1200 
 27 C        8.2110    -1.0890     1.4920 C.3   1 <1>  -0.2400 
 28 H       -0.5980    -0.9760    -2.1920 H     1 <1>   0.0800 
 29 H       -2.2190    -1.4820    -1.8380 H     1 <1>   0.0800 
 30 H       -3.8670     0.2040    -0.8980 H     1 <1>   0.0800 
 31 H       -3.3100     1.7840    -0.4590 H     1 <1>   0.0800 
 32 H       -2.9850     3.0630    -2.6830 H     1 <1>   0.1500 
 33 H       -0.1170    -0.6610     0.1820 H     1 <1>   0.0800 
 34 H       -0.6210    -2.3010    -0.1220 H     1 <1>   0.0800 
 35 H       -3.5750     0.2580     1.4990 H     1 <1>   0.0800 
 36 H       -2.0050     0.9620     1.3460 H     1 <1>   0.0800 
 37 H        1.6450     3.6690    -0.3490 H     1 <1>   0.3700 
 38 H       -0.0510     5.5910     0.3260 H     1 <1>   0.1500 
 39 H       -3.4980     5.4050    -2.1540 H     1 <1>   0.1500 
 40 H       -2.7880    -1.8180     0.7260 H     1 <1>   0.4500 
 41 H       -2.0310     6.6680    -0.6380 H     1 <1>   0.1500 
 42 H       -0.7310    -0.6460     2.5150 H     1 <1>   0.0800 
 43 H       -1.0580    -2.3590     2.3470 H     1 <1>   0.0800 
 44 H       -2.2690    -1.3010     3.0400 H     1 <1>   0.0800 
 45 H        2.6470     1.5280    -1.4330 H     1 <1>   0.1500 
 46 H        2.3440     1.1980     2.8040 H     1 <1>   0.1500 
 47 H        4.9090     0.5750    -1.3370 H     1 <1>   0.1500 
 48 H        4.5820     0.2430     2.9020 H     1 <1>   0.1500 
 49 H        6.2680    -1.3330     2.3920 H     1 <1>   0.0800 
 50 H        6.9380     0.2950     2.5450 H     1 <1>   0.0800 
 51 H        8.1010    -1.9350     0.8380 H     1 <1>   0.0800 
 52 H        8.7600    -1.3970     2.3630 H     1 <1>   0.0800 
 53 H        8.7670    -0.3170     0.9900 H     1 <1>   0.0800 
@<TRIPOS>BOND
  1   1   2  2   
  2   2   3  am  
  3   2   4  1   
  4   3   5  1   
  5   3   6  1   
  6   4   7  ar  
  7   4   8  ar  
  8   5   9  1   
  9   5  28  1   
 10   5  29  1   
 11   6  10  1   
 12   6  30  1   
 13   6  31  1   
 14   7  11  1   
 15   7  12  ar  
 16   8  13  ar  
 17   8  32  1   
 18   9  14  1   
 19   9  33  1   
 20   9  34  1   
 21  10  14  1   
 22  10  35  1   
 23  10  36  1   
 24  11  15  am  
 25  11  37  1   
 26  12  16  ar  
 27  12  38  1   
 28  13  16  ar  
 29  13  39  1   
 30  14  17  1   
 31  14  40  1   
 32  15  18  2   
 33  15  19  1   
 34  16  41  1   
 35  17  42  1   
 36  17  43  1   
 37  17  44  1   
 38  19  20  ar  
 39  19  21  ar  
 40  20  22  ar  
 41  20  45  1   
 42  21  23  ar  
 43  21  46  1   
 44  22  24  ar  
 45  22  47  1   
 46  23  24  ar  
 47  23  48  1   
 48  24  25  1   
 49  25  26  1   
 50  26  27  1   
 51  26  49  1   
 52  26  50  1   
 53  27  51  1   
 54  27  52  1   
 55  27  53  1   
@<TRIPOS>SUBSTRUCTURE
  1 ****  15 GROUP 4 **** **** 0

# MOE 2024.06 (io_trps.svl 2023.06)
