@<TRIPOS>MOLECULE
NONAME
45 46 1 0 0 
SMALL
USER_CHARGES


@<TRIPOS>ATOM
  1 O       -0.1100    -1.3060     2.0810 O.2   1 <1>  -0.5700 
  2 C       -0.2300    -1.7170     0.9510 C.2   1 <1>   0.5690 
  3 N       -1.4010    -1.5290     0.2560 N.am  1 <1>  -0.6600 
  4 C        0.9560    -2.4770     0.3630 C.3   1 <1>  -0.0990 
  5 C       -2.5510    -0.8260     0.9140 C.3   1 <1>   0.3200 
  6 C       -1.7090    -2.0550    -1.1070 C.3   1 <1>   0.0600 
  7 C        2.0720    -1.6050    -0.2650 C.3   1 <1>   0.0000 
  8 C       -3.7550    -1.7410     1.0840 C.2   1 <1>   0.2980 
  9 C        3.1840    -2.5290    -0.7840 C.3   1 <1>  -0.2400 
 10 C        2.6820    -0.6580     0.7810 C.3   1 <1>  -0.2400 
 11 C        1.5490    -0.7670    -1.4410 C.3   1 <1>  -0.2400 
 12 O       -3.6740    -2.7320     1.9330 O.3   1 <1>  -0.0190 
 13 N       -4.8600    -1.6440     0.4640 N.2   1 <1>  -0.5650 
 14 N       -4.8260    -3.3180     1.8440 N.2   1 <1>  -0.4100 
 15 C       -5.5320    -2.6800     0.9780 C.2   1 <1>   0.4620 
 16 C       -6.8900    -3.0130     0.5790 C.ar  1 <1>   0.0540 
 17 C       -7.5550    -4.1140     1.1200 C.ar  1 <1>  -0.1500 
 18 C       -7.5890    -2.2510    -0.3590 C.ar  1 <1>  -0.1500 
 19 C       -8.8450    -4.4400     0.7450 C.ar  1 <1>  -0.1500 
 20 C       -8.8790    -2.5720    -0.7380 C.ar  1 <1>  -0.1500 
 21 C       -9.5170    -3.6700    -0.1890 C.ar  1 <1>  -0.1440 
 22 C      -10.9340    -4.0240    -0.6020 C.3   1 <1>  -0.0970 
 23 H        0.6090    -3.1980    -0.3500 H     1 <1>   0.0800 
 24 H        1.3860    -3.0440     1.1680 H     1 <1>   0.0800 
 25 H       -2.8360     0.0130     0.3060 H     1 <1>   0.0800 
 26 H       -2.2750    -0.4440     1.8800 H     1 <1>   0.0800 
 27 H       -0.8150    -2.2690    -1.6600 H     1 <1>   0.0800 
 28 H       -2.2770    -1.3270    -1.6600 H     1 <1>   0.0800 
 29 H       -2.2910    -2.9570    -1.0240 H     1 <1>   0.0800 
 30 H        2.8020    -3.2010    -1.5320 H     1 <1>   0.0800 
 31 H        3.5960    -3.1130     0.0200 H     1 <1>   0.0800 
 32 H        3.9800    -1.9540    -1.2240 H     1 <1>   0.0800 
 33 H        3.0310    -1.2130     1.6340 H     1 <1>   0.0800 
 34 H        1.9550     0.0570     1.1220 H     1 <1>   0.0800 
 35 H        3.5120    -0.1160     0.3660 H     1 <1>   0.0800 
 36 H        1.1780    -1.4000    -2.2260 H     1 <1>   0.0800 
 37 H        2.3400    -0.1620    -1.8490 H     1 <1>   0.0800 
 38 H        0.7610    -0.1090    -1.1210 H     1 <1>   0.0800 
 39 H       -7.0530    -4.7280     1.8480 H     1 <1>   0.1500 
 40 H       -7.1150    -1.3910    -0.8000 H     1 <1>   0.1500 
 41 H       -9.3260    -5.2960     1.1850 H     1 <1>   0.1500 
 42 H       -9.3870    -1.9600    -1.4630 H     1 <1>   0.1500 
 43 H      -11.0930    -5.0850    -0.5320 H     1 <1>   0.0800 
 44 H      -11.1170    -3.7210    -1.6170 H     1 <1>   0.0800 
 45 H      -11.6350    -3.5240     0.0420 H     1 <1>   0.0800 
@<TRIPOS>BOND
  1   1   2  2   
  2   2   3  am  
  3   2   4  1   
  4   3   5  1   
  5   3   6  1   
  6   4   7  1   
  7   4  23  1   
  8   4  24  1   
  9   5   8  1   
 10   5  25  1   
 11   5  26  1   
 12   6  27  1   
 13   6  28  1   
 14   6  29  1   
 15   7   9  1   
 16   7  10  1   
 17   7  11  1   
 18   8  12  1   
 19   8  13  2   
 20   9  30  1   
 21   9  31  1   
 22   9  32  1   
 23  10  33  1   
 24  10  34  1   
 25  10  35  1   
 26  11  36  1   
 27  11  37  1   
 28  11  38  1   
 29  12  14  1   
 30  13  15  1   
 31  14  15  2   
 32  15  16  1   
 33  16  17  ar  
 34  16  18  ar  
 35  17  19  ar  
 36  17  39  1   
 37  18  20  ar  
 38  18  40  1   
 39  19  21  ar  
 40  19  41  1   
 41  20  21  ar  
 42  20  42  1   
 43  21  22  1   
 44  22  43  1   
 45  22  44  1   
 46  22  45  1   
@<TRIPOS>SUBSTRUCTURE
  1 ****   8 GROUP 4 **** **** 0

# MOE 2024.06 (io_trps.svl 2023.06)
