@<TRIPOS>MOLECULE
NONAME
41 43 1 0 0 
SMALL
USER_CHARGES


@<TRIPOS>ATOM
  1 O       -0.4380     0.6290     0.8100 O.3   1 <1>  -0.6800 
  2 C       -1.1760     1.8010     0.8030 C.3   1 <1>   0.2000 
  3 C       -2.5910     1.5060     0.2730 C.3   1 <1>   0.2090 
  4 C       -0.4040     2.8040    -0.0560 C.3   1 <1>  -0.2400 
  5 N       -3.4360     2.7300     0.3060 N.pl3 1 <1>  -0.8690 
  6 C       -4.7890     2.7320     0.0250 C.ar  1 <1>   0.4100 
  7 N       -5.3830     1.5730     0.0550 N.ar  1 <1>  -0.6200 
  8 C       -5.4800     3.9590    -0.2750 C.ar  1 <1>   0.2870 
  9 C       -6.7040     1.6020    -0.2400 C.ar  1 <1>   0.3100 
 10 N       -6.7590     4.0050    -0.5580 N.ar  1 <1>  -0.6200 
 11 N       -4.7190     5.1700    -0.2410 N.pl3 1 <1>   0.5930 
 12 C       -7.3870     2.8020    -0.5470 C.ar  1 <1>   0.3100 
 13 C       -7.4260     0.3990    -0.2420 C.ar  1 <1>  -0.1500 
 14 N       -3.5210     5.3410    -0.8920 N.2   1 <1>  -0.7070 
 15 C       -5.0070     6.3140     0.4550 C.2   1 <1>  -0.3320 
 16 C       -8.7550     2.7450    -0.8460 C.ar  1 <1>  -0.1500 
 17 C       -8.7660     0.3690    -0.5360 C.ar  1 <1>  -0.1500 
 18 C       -3.1240     6.5350    -0.6040 C.2   1 <1>   0.1080 
 19 C       -4.0090     7.1950     0.2380 C.2   1 <1>  -0.1500 
 20 C       -6.2450     6.5120     1.3170 C.3   1 <1>  -0.0600 
 21 C       -9.4370     1.5540    -0.8420 C.ar  1 <1>  -0.1500 
 22 C       -1.8360     7.1150    -1.1390 C.3   1 <1>  -0.0590 
 23 H       -0.8230    -0.0120     1.4380 H     1 <1>   0.4000 
 24 H       -1.2370     2.1520     1.8190 H     1 <1>   0.0800 
 25 H       -3.0510     0.7490     0.8830 H     1 <1>   0.0800 
 26 H       -2.5320     1.1490    -0.7410 H     1 <1>   0.0800 
 27 H       -0.3460     2.4590    -1.0720 H     1 <1>   0.0800 
 28 H        0.5890     2.9340     0.3340 H     1 <1>   0.0800 
 29 H       -0.8970     3.7590    -0.0460 H     1 <1>   0.0800 
 30 H       -2.9480     3.5680    -0.0550 H     1 <1>   0.4000 
 31 H       -6.8920    -0.5030    -0.0060 H     1 <1>   0.1500 
 32 H       -9.2560     3.6670    -1.0800 H     1 <1>   0.1500 
 33 H       -9.3090    -0.5610    -0.5350 H     1 <1>   0.1500 
 34 H       -3.8950     8.1950     0.6170 H     1 <1>   0.1500 
 35 H       -6.3050     5.7420     2.0660 H     1 <1>   0.0800 
 36 H       -7.1310     6.4730     0.7070 H     1 <1>   0.0800 
 37 H       -6.2100     7.4680     1.8080 H     1 <1>   0.0800 
 38 H      -10.4890     1.5220    -1.0730 H     1 <1>   0.1500 
 39 H       -1.8350     7.0560    -2.2120 H     1 <1>   0.0800 
 40 H       -1.0030     6.5530    -0.7580 H     1 <1>   0.0800 
 41 H       -1.7340     8.1420    -0.8430 H     1 <1>   0.0800 
@<TRIPOS>BOND
  1   1   2  1   
  2   1  23  1   
  3   2   3  1   
  4   2   4  1   
  5   2  24  1   
  6   3   5  1   
  7   3  25  1   
  8   3  26  1   
  9   4  27  1   
 10   4  28  1   
 11   4  29  1   
 12   5   6  1   
 13   5  30  1   
 14   6   7  ar  
 15   6   8  ar  
 16   7   9  ar  
 17   8  10  ar  
 18   8  11  1   
 19   9  12  ar  
 20   9  13  ar  
 21  10  12  ar  
 22  11  14  1   
 23  11  15  1   
 24  12  16  ar  
 25  13  17  ar  
 26  13  31  1   
 27  14  18  2   
 28  15  19  2   
 29  15  20  1   
 30  16  21  ar  
 31  16  32  1   
 32  17  21  ar  
 33  17  33  1   
 34  18  19  1   
 35  18  22  1   
 36  19  34  1   
 37  20  35  1   
 38  20  36  1   
 39  20  37  1   
 40  21  38  1   
 41  22  39  1   
 42  22  40  1   
 43  22  41  1   
@<TRIPOS>SUBSTRUCTURE
  1 ****   6 GROUP 4 **** **** 0

# MOE 2024.06 (io_trps.svl 2023.06)
