@<TRIPOS>MOLECULE
NONAME
35 36 1 0 0 
SMALL
USER_CHARGES


@<TRIPOS>ATOM
  1 CL       0.2230    -0.7340    -1.8580 Cl    1 <1>  -0.1770 
  2 C       -0.6480    -1.8190    -0.7890 C.ar  1 <1>   0.1770 
  3 C        0.0370    -2.6990     0.0600 C.ar  1 <1>   0.1000 
  4 C       -2.0290    -1.7670    -0.8200 C.ar  1 <1>  -0.1500 
  5 N        1.4290    -2.8100     0.1500 N.pl3 1 <1>  -0.8380 
  6 C       -0.7280    -3.5240     0.8750 C.ar  1 <1>  -0.1500 
  7 C       -2.7660    -2.6010     0.0030 C.ar  1 <1>  -0.1500 
  8 C        2.1680    -1.6530     0.7370 C.3   1 <1>   0.2090 
  9 C        2.1440    -3.3910    -1.0270 C.3   1 <1>   0.2090 
 10 C       -2.1120    -3.4800     0.8510 C.ar  1 <1>  -0.1500 
 11 C        3.6290    -2.0360     1.0450 C.3   1 <1>   0.1960 
 12 C        3.6120    -3.7150    -0.6860 C.3   1 <1>   0.1960 
 13 N        4.3400    -2.5460    -0.1480 N.am  1 <1>  -0.8490 
 14 S        5.9660    -2.9050     0.1630 S.o2  1 <1>   1.3330 
 15 O        6.0770    -3.2860     1.5530 O.2   1 <1>  -0.6500 
 16 O        6.4280    -3.8060    -0.8700 O.2   1 <1>  -0.6500 
 17 C        6.7670    -1.3140    -0.0860 C.3   1 <1>  -0.0550 
 18 C        8.2920    -1.3290     0.1250 C.3   1 <1>  -0.2400 
 19 H       -2.5210    -1.0790    -1.4840 H     1 <1>   0.1500 
 20 H       -0.2210    -4.2070     1.5330 H     1 <1>   0.1500 
 21 H       -3.8420    -2.5670    -0.0150 H     1 <1>   0.1500 
 22 H        1.6790    -1.3440     1.6430 H     1 <1>   0.0800 
 23 H        2.1600    -0.8260     0.0500 H     1 <1>   0.0800 
 24 H        2.1230    -2.6950    -1.8460 H     1 <1>   0.0800 
 25 H        1.6420    -4.2900    -1.3380 H     1 <1>   0.0800 
 26 H       -2.6810    -4.1300     1.4930 H     1 <1>   0.1500 
 27 H        3.6260    -2.7850     1.8190 H     1 <1>   0.0800 
 28 H        4.1400    -1.1690     1.4270 H     1 <1>   0.0800 
 29 H        4.0940    -4.0590    -1.5850 H     1 <1>   0.0800 
 30 H        3.6370    -4.5200     0.0290 H     1 <1>   0.0800 
 31 H        6.3380    -0.5980     0.5870 H     1 <1>   0.0800 
 32 H        6.5640    -0.9810    -1.0860 H     1 <1>   0.0800 
 33 H        8.5240    -1.6370     1.1300 H     1 <1>   0.0800 
 34 H        8.7010    -0.3490    -0.0420 H     1 <1>   0.0800 
 35 H        8.7520    -2.0190    -0.5610 H     1 <1>   0.0800 
@<TRIPOS>BOND
  1   1   2  1   
  2   2   3  ar  
  3   2   4  ar  
  4   3   5  1   
  5   3   6  ar  
  6   4   7  ar  
  7   4  19  1   
  8   5   8  1   
  9   5   9  1   
 10   6  10  ar  
 11   6  20  1   
 12   7  10  ar  
 13   7  21  1   
 14   8  11  1   
 15   8  22  1   
 16   8  23  1   
 17   9  12  1   
 18   9  24  1   
 19   9  25  1   
 20  10  26  1   
 21  11  13  1   
 22  11  27  1   
 23  11  28  1   
 24  12  13  1   
 25  12  29  1   
 26  12  30  1   
 27  13  14  am  
 28  14  15  2   
 29  14  16  2   
 30  14  17  1   
 31  17  18  1   
 32  17  31  1   
 33  17  32  1   
 34  18  33  1   
 35  18  34  1   
 36  18  35  1   
@<TRIPOS>SUBSTRUCTURE
  1 ****   5 GROUP 4 **** **** 0

# MOE 2024.06 (io_trps.svl 2023.06)
