@<TRIPOS>MOLECULE
NONAME
28 29 1 0 0 
SMALL
USER_CHARGES


@<TRIPOS>ATOM
  1 O        0.1690    -0.3020     0.3900 O.2   1 <1>  -0.5700 
  2 C       -0.0200    -1.4970     0.5080 C.2   1 <1>   0.6900 
  3 N        1.0290    -2.3470     0.7350 N.am  1 <1>  -0.6600 
  4 N       -1.2790    -2.0230     0.4470 N.am  1 <1>  -0.5470 
  5 C        2.3630    -1.8280     1.1660 C.3   1 <1>   0.1400 
  6 C        1.0910    -3.7430     0.2050 C.3   1 <1>   0.1400 
  7 C       -2.5060    -1.4310     0.0980 C.ar  1 <1>   0.1170 
  8 C        3.4160    -2.0710     0.0740 C.3   1 <1>   0.1200 
  9 C        2.2250    -3.8780    -0.8270 C.3   1 <1>   0.1200 
 10 C       -3.7070    -1.9540     0.5820 C.ar  1 <1>   0.1600 
 11 C       -2.5890    -0.3330    -0.7450 C.ar  1 <1>  -0.1500 
 12 O        3.4360    -3.4210    -0.2960 O.3   1 <1>  -0.5600 
 13 N       -4.9200    -1.5010     0.3090 N.ar  1 <1>  -0.6200 
 14 C       -3.8420     0.1600    -1.0390 C.ar  1 <1>  -0.1500 
 15 C       -4.9590    -0.4500    -0.4950 C.ar  1 <1>   0.1600 
 16 H       -1.3240    -2.9510     0.8530 H     1 <1>   0.3700 
 17 H        2.6650    -2.3340     2.0660 H     1 <1>   0.0800 
 18 H        2.3100    -0.7750     1.3850 H     1 <1>   0.0800 
 19 H        0.1640    -4.0160    -0.2640 H     1 <1>   0.0800 
 20 H        1.2720    -4.4230     1.0190 H     1 <1>   0.0800 
 21 H        4.3950    -1.8140     0.4380 H     1 <1>   0.0800 
 22 H        3.2010    -1.4740    -0.7960 H     1 <1>   0.0800 
 23 H        2.0010    -3.3090    -1.7130 H     1 <1>   0.0800 
 24 H        2.3570    -4.9100    -1.1020 H     1 <1>   0.0800 
 25 H       -3.6550    -2.8020     1.2390 H     1 <1>   0.1500 
 26 H       -1.7070     0.1210    -1.1580 H     1 <1>   0.1500 
 27 H       -3.9530     1.0120    -1.6840 H     1 <1>   0.1500 
 28 H       -5.9320    -0.0550    -0.7330 H     1 <1>   0.1500 
@<TRIPOS>BOND
  1   1   2  2   
  2   2   3  am  
  3   2   4  am  
  4   3   5  1   
  5   3   6  1   
  6   4   7  1   
  7   4  16  1   
  8   5   8  1   
  9   5  17  1   
 10   5  18  1   
 11   6   9  1   
 12   6  19  1   
 13   6  20  1   
 14   7  10  ar  
 15   7  11  ar  
 16   8  12  1   
 17   8  21  1   
 18   8  22  1   
 19   9  12  1   
 20   9  23  1   
 21   9  24  1   
 22  10  13  ar  
 23  10  25  1   
 24  11  14  ar  
 25  11  26  1   
 26  13  15  ar  
 27  14  15  ar  
 28  14  27  1   
 29  15  28  1   
@<TRIPOS>SUBSTRUCTURE
  1 ****   4 GROUP 4 **** **** 0

# MOE 2024.06 (io_trps.svl 2023.06)
