@<TRIPOS>MOLECULE
NONAME
39 41 1 0 0 
SMALL
USER_CHARGES


@<TRIPOS>ATOM
  1 S        0.2670    -0.1310     0.1400 S.3   1 <1>  -0.0800 
  2 C        0.8300     1.4230     0.7290 C.2   1 <1>  -0.0360 
  3 C       -1.3810     0.4450     0.0850 C.2   1 <1>  -0.1400 
  4 N        2.2010     1.5340     1.0100 N.pl3 1 <1>   0.3790 
  5 C       -0.1980     2.3180     0.8570 C.2   1 <1>  -0.0860 
  6 C       -1.4620     1.7270     0.4720 C.2   1 <1>  -0.1810 
  7 C       -2.4950    -0.4760    -0.3640 C.3   1 <1>   0.0200 
  8 C        2.7890     1.5320     2.2540 C.2   1 <1>  -0.3320 
  9 C        3.2270     1.7040     0.1100 C.2   1 <1>  -0.3320 
 10 C       -0.0520     3.6780     1.3220 C.2   1 <1>   0.8060 
 11 C       -2.8040     2.4500     0.4860 C.3   1 <1>   0.0210 
 12 C       -3.8490     0.1620    -0.0060 C.3   1 <1>  -0.1600 
 13 C        4.1310     1.6900     2.1340 C.2   1 <1>  -0.1500 
 14 C        1.9910     1.3670     3.5370 C.3   1 <1>  -0.0600 
 15 C        4.4110     1.7990     0.7670 C.2   1 <1>  -0.1500 
 16 C        2.9960     1.7750    -1.3890 C.3   1 <1>  -0.0600 
 17 O       -0.9450     4.3180     1.8430 O.2   1 <1>  -0.5700 
 18 O        1.1390     4.2640     1.1690 O.3   1 <1>  -0.4300 
 19 C       -3.8710     1.6730    -0.3130 C.3   1 <1>  -0.1600 
 20 C        1.4030     5.5750     1.6240 C.3   1 <1>   0.0400 
 21 H       -2.4010    -1.4330     0.1190 H     1 <1>   0.0800 
 22 H       -2.4200    -0.6180    -1.4270 H     1 <1>   0.0800 
 23 H       -2.6990     3.4320     0.0610 H     1 <1>   0.0800 
 24 H       -3.1240     2.5600     1.5080 H     1 <1>   0.0800 
 25 H       -4.0320     0.0210     1.0450 H     1 <1>   0.0800 
 26 H       -4.6340    -0.3360    -0.5480 H     1 <1>   0.0800 
 27 H        4.8700     1.7280     2.9160 H     1 <1>   0.1500 
 28 H        1.3000     2.1830     3.6530 H     1 <1>   0.0800 
 29 H        2.6510     1.3530     4.3850 H     1 <1>   0.0800 
 30 H        1.4400     0.4430     3.5130 H     1 <1>   0.0800 
 31 H        5.3940     1.9360     0.3510 H     1 <1>   0.1500 
 32 H        2.5660     0.8550    -1.7430 H     1 <1>   0.0800 
 33 H        3.9270     1.9390    -1.9020 H     1 <1>   0.0800 
 34 H        2.3280     2.5850    -1.6220 H     1 <1>   0.0800 
 35 H       -3.6870     1.8150    -1.3640 H     1 <1>   0.0800 
 36 H       -4.8430     2.0770    -0.0920 H     1 <1>   0.0800 
 37 H        2.4280     5.8120     1.3980 H     1 <1>   0.0800 
 38 H        1.2420     5.6130     2.6880 H     1 <1>   0.0800 
 39 H        0.7430     6.2590     1.1210 H     1 <1>   0.0800 
@<TRIPOS>BOND
  1   1   2  1   
  2   1   3  1   
  3   2   4  1   
  4   2   5  2   
  5   3   6  2   
  6   3   7  1   
  7   4   8  1   
  8   4   9  1   
  9   5   6  1   
 10   5  10  1   
 11   6  11  1   
 12   7  12  1   
 13   7  21  1   
 14   7  22  1   
 15   8  13  2   
 16   8  14  1   
 17   9  15  2   
 18   9  16  1   
 19  10  17  2   
 20  10  18  1   
 21  11  19  1   
 22  11  23  1   
 23  11  24  1   
 24  12  19  1   
 25  12  25  1   
 26  12  26  1   
 27  13  15  1   
 28  13  27  1   
 29  14  28  1   
 30  14  29  1   
 31  14  30  1   
 32  15  31  1   
 33  16  32  1   
 34  16  33  1   
 35  16  34  1   
 36  18  20  1   
 37  19  35  1   
 38  19  36  1   
 39  20  37  1   
 40  20  38  1   
 41  20  39  1   
@<TRIPOS>SUBSTRUCTURE
  1 ****   2 GROUP 4 **** **** 0

# MOE 2024.06 (io_trps.svl 2023.06)
