@<TRIPOS>MOLECULE
NONAME
37 37 1 0 0 
SMALL
USER_CHARGES


@<TRIPOS>ATOM
  1 F        0.0820     0.6590     0.2770 F     1 <1>  -0.1900 
  2 C        1.3100     1.0930     0.1670 C.ar  1 <1>   0.1900 
  3 C        1.5220     2.4000    -0.2260 C.ar  1 <1>  -0.1500 
  4 C        2.3500     0.2270     0.4480 C.ar  1 <1>  -0.1500 
  5 C        2.8260     2.8520    -0.3400 C.ar  1 <1>  -0.1500 
  6 C        3.6510     0.6870     0.3320 C.ar  1 <1>  -0.1500 
  7 C        3.8920     2.0050    -0.0640 C.ar  1 <1>   0.0830 
  8 O        5.1340     2.5340    -0.2030 O.3   1 <1>  -0.3630 
  9 C        6.2880     1.7740     0.0470 C.3   1 <1>   0.1200 
 10 C        7.4890     2.6850    -0.2100 C.3   1 <1>  -0.1600 
 11 C        8.7980     1.9470     0.0350 C.3   1 <1>   0.3430 
 12 N        9.9260     2.8730    -0.2330 N.4   1 <1>  -0.9060 
 13 C       11.2580     2.2890     0.0040 C.3   1 <1>   0.4230 
 14 C       12.2650     3.4450     0.0760 C.3   1 <1>  -0.1600 
 15 C       11.5740     1.3130    -1.1300 C.3   1 <1>  -0.2400 
 16 C       13.6740     2.9990     0.4970 C.3   1 <1>  -0.2400 
 17 H        0.6870     3.0440    -0.4370 H     1 <1>   0.1500 
 18 H        2.1390    -0.7830     0.7510 H     1 <1>   0.1500 
 19 H        3.0220     3.8640    -0.6440 H     1 <1>   0.1500 
 20 H        4.4530     0.0090     0.5520 H     1 <1>   0.1500 
 21 H        6.2860     0.9300    -0.6220 H     1 <1>   0.0800 
 22 H        6.2580     1.4440     1.0720 H     1 <1>   0.0800 
 23 H        7.4180     3.5320     0.4500 H     1 <1>   0.0800 
 24 H        7.4460     3.0210    -1.2320 H     1 <1>   0.0800 
 25 H        8.8580     1.0900    -0.6170 H     1 <1>   0.0800 
 26 H        8.8370     1.6040     1.0580 H     1 <1>   0.0800 
 27 H        9.8260     3.7040     0.3610 H     1 <1>   0.4500 
 28 H        9.8850     3.2020    -1.2050 H     1 <1>   0.4500 
 29 H       11.2620     1.7650     0.9480 H     1 <1>   0.0800 
 30 H       11.9280     4.1640     0.8030 H     1 <1>   0.0800 
 31 H       12.3320     3.9390    -0.8790 H     1 <1>   0.0800 
 32 H       11.6110     1.8170    -2.0790 H     1 <1>   0.0800 
 33 H       10.8540     0.5160    -1.1750 H     1 <1>   0.0800 
 34 H       12.5330     0.8560    -0.9620 H     1 <1>   0.0800 
 35 H       13.6460     2.4680     1.4330 H     1 <1>   0.0800 
 36 H       14.3070     3.8610     0.6220 H     1 <1>   0.0800 
 37 H       14.1270     2.3680    -0.2480 H     1 <1>   0.0800 
@<TRIPOS>BOND
  1   1   2  1   
  2   2   3  ar  
  3   2   4  ar  
  4   3   5  ar  
  5   3  17  1   
  6   4   6  ar  
  7   4  18  1   
  8   5   7  ar  
  9   5  19  1   
 10   6   7  ar  
 11   6  20  1   
 12   7   8  1   
 13   8   9  1   
 14   9  10  1   
 15   9  21  1   
 16   9  22  1   
 17  10  11  1   
 18  10  23  1   
 19  10  24  1   
 20  11  12  1   
 21  11  25  1   
 22  11  26  1   
 23  12  13  1   
 24  12  27  1   
 25  12  28  1   
 26  13  14  1   
 27  13  15  1   
 28  13  29  1   
 29  14  16  1   
 30  14  30  1   
 31  14  31  1   
 32  15  32  1   
 33  15  33  1   
 34  15  34  1   
 35  16  35  1   
 36  16  36  1   
 37  16  37  1   
@<TRIPOS>SUBSTRUCTURE
  1 ****   9 GROUP 4 **** **** 0

# MOE 2024.06 (io_trps.svl 2023.06)
