@<TRIPOS>MOLECULE
NONAME
41 42 1 0 0 
SMALL
USER_CHARGES


@<TRIPOS>ATOM
  1 O        0.6260     0.4250    -0.7360 O.2   1 <1>  -0.5700 
  2 C        0.9740     1.2480     0.0900 C.2   1 <1>   0.6900 
  3 N        2.2470     1.2460     0.5880 N.am  1 <1>  -0.6600 
  4 N        0.0960     2.1750     0.5400 N.am  1 <1>  -0.7300 
  5 C        3.1440     0.0710     0.3690 C.3   1 <1>   0.1400 
  6 C        2.9850     2.5030     0.9120 C.3   1 <1>   0.1400 
  7 C       -1.3090     2.2830     0.1040 C.3   1 <1>   0.1400 
  8 C        4.1720     0.3790    -0.7270 C.3   1 <1>   0.1400 
  9 C        4.0410     2.8140    -0.1650 C.3   1 <1>   0.1400 
 10 C       -1.7250     3.7540     0.1170 C.3   1 <1>  -0.1600 
 11 N        4.9260     1.6330    -0.4070 N.am  1 <1>  -0.6600 
 12 C       -3.1780     3.9220    -0.3460 C.3   1 <1>  -0.1600 
 13 C        6.2570     1.6010    -0.0360 C.2   1 <1>   0.7150 
 14 C       -3.5920     5.3960    -0.3340 C.3   1 <1>  -0.2400 
 15 O        6.7410     0.5280     0.2810 O.2   1 <1>  -0.5700 
 16 C        7.0650     2.8030    -0.0280 C.2   1 <1>   0.0550 
 17 O        7.9840     3.0100     0.9130 O.3   1 <1>  -0.2800 
 18 C        7.0790     3.8720    -0.8760 C.2   1 <1>  -0.1500 
 19 C        8.5730     4.1620     0.6900 C.2   1 <1>  -0.0100 
 20 C        8.0560     4.7520    -0.4080 C.2   1 <1>  -0.1500 
 21 H        0.3300     2.6320     1.4170 H     1 <1>   0.3700 
 22 H        2.5670    -0.7940     0.0880 H     1 <1>   0.0800 
 23 H        3.6590    -0.1610     1.2840 H     1 <1>   0.0800 
 24 H        3.4720     2.3870     1.8650 H     1 <1>   0.0800 
 25 H        2.3070     3.3350     0.9850 H     1 <1>   0.0800 
 26 H       -1.9320     1.7100     0.7710 H     1 <1>   0.0800 
 27 H       -1.4130     1.8800    -0.8900 H     1 <1>   0.0800 
 28 H        3.6580     0.5020    -1.6650 H     1 <1>   0.0800 
 29 H        4.8450    -0.4550    -0.8310 H     1 <1>   0.0800 
 30 H        4.6150     3.6640     0.1540 H     1 <1>   0.0800 
 31 H        3.5420     3.0730    -1.0830 H     1 <1>   0.0800 
 32 H       -1.0770     4.3060    -0.5410 H     1 <1>   0.0800 
 33 H       -1.6230     4.1450     1.1140 H     1 <1>   0.0800 
 34 H       -3.8330     3.3650     0.3030 H     1 <1>   0.0800 
 35 H       -3.2860     3.5320    -1.3440 H     1 <1>   0.0800 
 36 H       -3.5150     5.8020     0.6590 H     1 <1>   0.0800 
 37 H       -4.6110     5.4940    -0.6640 H     1 <1>   0.0800 
 38 H       -2.9640     5.9690    -0.9930 H     1 <1>   0.0800 
 39 H        6.4700     4.0230    -1.7500 H     1 <1>   0.1500 
 40 H        9.3510     4.4880     1.3590 H     1 <1>   0.1500 
 41 H        8.3240     5.6950    -0.8520 H     1 <1>   0.1500 
@<TRIPOS>BOND
  1   1   2  2   
  2   2   3  am  
  3   2   4  am  
  4   3   5  1   
  5   3   6  1   
  6   4   7  1   
  7   4  21  1   
  8   5   8  1   
  9   5  22  1   
 10   5  23  1   
 11   6   9  1   
 12   6  24  1   
 13   6  25  1   
 14   7  10  1   
 15   7  26  1   
 16   7  27  1   
 17   8  11  1   
 18   8  28  1   
 19   8  29  1   
 20   9  11  1   
 21   9  30  1   
 22   9  31  1   
 23  10  12  1   
 24  10  32  1   
 25  10  33  1   
 26  11  13  am  
 27  12  14  1   
 28  12  34  1   
 29  12  35  1   
 30  13  15  2   
 31  13  16  1   
 32  14  36  1   
 33  14  37  1   
 34  14  38  1   
 35  16  17  1   
 36  16  18  2   
 37  17  19  1   
 38  18  20  1   
 39  18  39  1   
 40  19  20  2   
 41  19  40  1   
 42  20  41  1   
@<TRIPOS>SUBSTRUCTURE
  1 ****   9 GROUP 4 **** **** 0

# MOE 2024.06 (io_trps.svl 2023.06)
