@<TRIPOS>MOLECULE
NONAME
29 29 1 0 0 
SMALL
USER_CHARGES


@<TRIPOS>ATOM
  1 CL       0.6990     0.0930     0.8530 Cl    1 <1>  -0.1770 
  2 C        0.2470     1.7480     0.5250 C.ar  1 <1>   0.1770 
  3 C       -1.0630     2.1430     0.7080 C.ar  1 <1>  -0.1500 
  4 C        1.2140     2.6320     0.0880 C.ar  1 <1>  -0.1500 
  5 C       -1.4330     3.4580     0.4500 C.ar  1 <1>   0.1170 
  6 C        0.8610     3.9460    -0.1720 C.ar  1 <1>  -0.1500 
  7 N       -2.7470     3.9350     0.6140 N.am  1 <1>  -0.5470 
  8 C       -0.4570     4.3620     0.0070 C.ar  1 <1>   0.0830 
  9 C       -3.9250     3.3390     0.9590 C.2   1 <1>   0.5690 
 10 O       -0.8640     5.6460    -0.2330 O.3   1 <1>  -0.3630 
 11 O       -4.0410     2.1670     1.2170 O.2   1 <1>  -0.5700 
 12 C       -5.1580     4.2200     1.0190 C.3   1 <1>  -0.0990 
 13 C        0.0400     6.6290    -0.6920 C.3   1 <1>   0.0400 
 14 C       -5.6540     4.6250    -0.3790 C.3   1 <1>  -0.1600 
 15 C       -6.9020     5.5090    -0.2930 C.3   1 <1>  -0.2400 
 16 H       -1.7770     1.4190     1.0500 H     1 <1>   0.1500 
 17 H        2.2260     2.2930    -0.0450 H     1 <1>   0.1500 
 18 H        1.6240     4.6200    -0.5100 H     1 <1>   0.1500 
 19 H       -2.8100     4.9310     0.3970 H     1 <1>   0.3700 
 20 H       -4.9310     5.0960     1.5990 H     1 <1>   0.0800 
 21 H       -5.9350     3.6810     1.5320 H     1 <1>   0.0800 
 22 H       -0.5010     7.5510    -0.8130 H     1 <1>   0.0800 
 23 H        0.4440     6.3180    -1.6390 H     1 <1>   0.0800 
 24 H        0.8190     6.7580     0.0390 H     1 <1>   0.0800 
 25 H       -5.8850     3.7360    -0.9430 H     1 <1>   0.0800 
 26 H       -4.8790     5.1570    -0.9040 H     1 <1>   0.0800 
 27 H       -7.7010     4.9850     0.2030 H     1 <1>   0.0800 
 28 H       -7.2330     5.7740    -1.2820 H     1 <1>   0.0800 
 29 H       -6.6900     6.4130     0.2490 H     1 <1>   0.0800 
@<TRIPOS>BOND
  1   1   2  1   
  2   2   3  ar  
  3   2   4  ar  
  4   3   5  ar  
  5   3  16  1   
  6   4   6  ar  
  7   4  17  1   
  8   5   7  1   
  9   5   8  ar  
 10   6   8  ar  
 11   6  18  1   
 12   7   9  am  
 13   7  19  1   
 14   8  10  1   
 15   9  11  2   
 16   9  12  1   
 17  10  13  1   
 18  12  14  1   
 19  12  20  1   
 20  12  21  1   
 21  13  22  1   
 22  13  23  1   
 23  13  24  1   
 24  14  15  1   
 25  14  25  1   
 26  14  26  1   
 27  15  27  1   
 28  15  28  1   
 29  15  29  1   
@<TRIPOS>SUBSTRUCTURE
  1 ****   5 GROUP 4 **** **** 0

# MOE 2024.06 (io_trps.svl 2023.06)
