@<TRIPOS>MOLECULE
NONAME
35 35 1 0 0 
SMALL
USER_CHARGES


@<TRIPOS>ATOM
  1 O        0.1060    -0.6550     1.6880 O.2   1 <1>  -0.5700 
  2 C        0.1070    -1.8240     1.3920 C.2   1 <1>   0.5690 
  3 N        1.1600    -2.5970     1.7630 N.am  1 <1>  -0.7300 
  4 C       -1.0570    -2.3730     0.5710 C.3   1 <1>   0.1810 
  5 C        1.3890    -4.0390     1.5150 C.3   1 <1>   0.1400 
  6 O       -1.7210    -3.4290     1.2490 O.3   1 <1>  -0.3620 
  7 C        2.6450    -4.2340     0.6610 C.3   1 <1>  -0.1600 
  8 C       -2.7200    -4.1260     0.6520 C.ar  1 <1>   0.0820 
  9 C        2.5140    -3.6180    -0.7410 C.3   1 <1>  -0.1600 
 10 C       -3.2400    -5.1980     1.3580 C.ar  1 <1>  -0.1500 
 11 C       -3.2350    -3.8230    -0.6060 C.ar  1 <1>  -0.1500 
 12 C        3.7610    -3.8990    -1.5840 C.3   1 <1>  -0.2400 
 13 C       -4.2550    -5.9680     0.8200 C.ar  1 <1>  -0.1500 
 14 C       -4.2510    -4.5960    -1.1410 C.ar  1 <1>  -0.1500 
 15 C       -4.7650    -5.6720    -0.4350 C.ar  1 <1>  -0.1440 
 16 C       -5.8810    -6.5150    -1.0260 C.3   1 <1>  -0.0970 
 17 H        1.8860    -2.1150     2.2960 H     1 <1>   0.3700 
 18 H       -0.6830    -2.7470    -0.3630 H     1 <1>   0.0800 
 19 H       -1.7700    -1.5890     0.3940 H     1 <1>   0.0800 
 20 H        0.5430    -4.4800     1.0190 H     1 <1>   0.0800 
 21 H        1.5130    -4.5370     2.4620 H     1 <1>   0.0800 
 22 H        2.8200    -5.2910     0.5610 H     1 <1>   0.0800 
 23 H        3.4920    -3.8120     1.1720 H     1 <1>   0.0800 
 24 H        2.3800    -2.5520    -0.6620 H     1 <1>   0.0800 
 25 H        1.6510    -4.0280    -1.2380 H     1 <1>   0.0800 
 26 H       -2.8450    -5.4250     2.3320 H     1 <1>   0.1500 
 27 H       -2.8650    -2.9960    -1.1800 H     1 <1>   0.1500 
 28 H        4.6340    -3.4800    -1.1160 H     1 <1>   0.0800 
 29 H        3.6530    -3.4580    -2.5590 H     1 <1>   0.0800 
 30 H        3.9050    -4.9590    -1.7030 H     1 <1>   0.0800 
 31 H       -4.6480    -6.7960     1.3820 H     1 <1>   0.1500 
 32 H       -4.6440    -4.3550    -2.1130 H     1 <1>   0.1500 
 33 H       -5.8210    -7.5260    -0.6650 H     1 <1>   0.0800 
 34 H       -5.8100    -6.5340    -2.0990 H     1 <1>   0.0800 
 35 H       -6.8340    -6.1030    -0.7480 H     1 <1>   0.0800 
@<TRIPOS>BOND
  1   1   2  2   
  2   2   3  am  
  3   2   4  1   
  4   3   5  1   
  5   3  17  1   
  6   4   6  1   
  7   4  18  1   
  8   4  19  1   
  9   5   7  1   
 10   5  20  1   
 11   5  21  1   
 12   6   8  1   
 13   7   9  1   
 14   7  22  1   
 15   7  23  1   
 16   8  10  ar  
 17   8  11  ar  
 18   9  12  1   
 19   9  24  1   
 20   9  25  1   
 21  10  13  ar  
 22  10  26  1   
 23  11  14  ar  
 24  11  27  1   
 25  12  28  1   
 26  12  29  1   
 27  12  30  1   
 28  13  15  ar  
 29  13  31  1   
 30  14  15  ar  
 31  14  32  1   
 32  15  16  1   
 33  16  33  1   
 34  16  34  1   
 35  16  35  1   
@<TRIPOS>SUBSTRUCTURE
  1 ****   6 GROUP 4 **** **** 0

# MOE 2024.06 (io_trps.svl 2023.06)
