@<TRIPOS>MOLECULE
NONAME
44 45 1 0 0 
SMALL
USER_CHARGES


@<TRIPOS>ATOM
  1 O       -4.0630     6.3480    -0.4230 O.3   1 <1>  -0.3630 
  2 C       -5.2100     5.6880    -0.1230 C.ar  1 <1>   0.0830 
  3 C       -3.4190     6.1600    -1.6690 C.3   1 <1>   0.1200 
  4 C       -5.7900     5.9650     1.1030 C.ar  1 <1>  -0.1500 
  5 C       -5.8170     4.7640    -0.9660 C.ar  1 <1>  -0.1500 
  6 C       -2.1530     7.0250    -1.6850 C.3   1 <1>   0.3430 
  7 C       -6.9580     5.3320     1.4880 C.ar  1 <1>  -0.1500 
  8 C       -6.9850     4.1350    -0.5740 C.ar  1 <1>  -0.1500 
  9 N       -1.4590     6.9370    -0.3660 N.4   1 <1>  -0.9060 
 10 C       -7.5800     4.4060     0.6540 C.ar  1 <1>  -0.1430 
 11 C       -0.4210     7.9870    -0.1630 C.3   1 <1>   0.2630 
 12 C       -8.8800     3.6630     1.0330 C.3   1 <1>   0.2870 
 13 C       -9.8640     3.6780    -0.1580 C.ar  1 <1>  -0.1430 
 14 C       -9.6160     4.3040     2.2220 C.3   1 <1>  -0.2400 
 15 C       -8.4670     2.2430     1.4560 C.3   1 <1>  -0.2400 
 16 C      -10.5270     2.5420    -0.6180 C.ar  1 <1>  -0.1500 
 17 C      -10.1170     4.8840    -0.8030 C.ar  1 <1>  -0.1500 
 18 C      -11.4030     2.6130    -1.6870 C.ar  1 <1>  -0.1500 
 19 C      -10.9920     4.9590    -1.8720 C.ar  1 <1>  -0.1500 
 20 C      -11.6370     3.8210    -2.3170 C.ar  1 <1>  -0.1500 
 21 H       -4.0910     6.4520    -2.4570 H     1 <1>   0.0800 
 22 H       -3.1670     5.1190    -1.7710 H     1 <1>   0.0800 
 23 H       -5.3310     6.6790     1.7600 H     1 <1>   0.1500 
 24 H       -5.4110     4.5150    -1.9270 H     1 <1>   0.1500 
 25 H       -2.4450     8.0460    -1.8720 H     1 <1>   0.0800 
 26 H       -1.5000     6.7120    -2.4830 H     1 <1>   0.0800 
 27 H       -7.3680     5.5770     2.4510 H     1 <1>   0.1500 
 28 H       -7.4420     3.4230    -1.2400 H     1 <1>   0.1500 
 29 H       -1.0630     5.9960    -0.2370 H     1 <1>   0.4500 
 30 H       -2.2060     7.0180     0.3480 H     1 <1>   0.4500 
 31 H        0.3600     7.8920    -0.9010 H     1 <1>   0.0800 
 32 H        0.0200     7.8910     0.8170 H     1 <1>   0.0800 
 33 H       -0.8590     8.9690    -0.2460 H     1 <1>   0.0800 
 34 H       -9.0380     4.2250     3.1240 H     1 <1>   0.0800 
 35 H      -10.5560     3.8060     2.3820 H     1 <1>   0.0800 
 36 H       -9.8170     5.3410     2.0230 H     1 <1>   0.0800 
 37 H       -7.7250     2.2930     2.2330 H     1 <1>   0.0800 
 38 H       -8.0440     1.7120     0.6230 H     1 <1>   0.0800 
 39 H       -9.3100     1.6920     1.8320 H     1 <1>   0.0800 
 40 H      -10.3800     1.5840    -0.1580 H     1 <1>   0.1500 
 41 H       -9.6240     5.7830    -0.4730 H     1 <1>   0.1500 
 42 H      -11.9050     1.7250    -2.0300 H     1 <1>   0.1500 
 43 H      -11.1690     5.9030    -2.3560 H     1 <1>   0.1500 
 44 H      -12.3180     3.8760    -3.1480 H     1 <1>   0.1500 
@<TRIPOS>BOND
  1   1   2  1   
  2   1   3  1   
  3   2   4  ar  
  4   2   5  ar  
  5   3   6  1   
  6   3  21  1   
  7   3  22  1   
  8   4   7  ar  
  9   4  23  1   
 10   5   8  ar  
 11   5  24  1   
 12   6   9  1   
 13   6  25  1   
 14   6  26  1   
 15   7  10  ar  
 16   7  27  1   
 17   8  10  ar  
 18   8  28  1   
 19   9  11  1   
 20   9  29  1   
 21   9  30  1   
 22  10  12  1   
 23  11  31  1   
 24  11  32  1   
 25  11  33  1   
 26  12  13  1   
 27  12  14  1   
 28  12  15  1   
 29  13  16  ar  
 30  13  17  ar  
 31  14  34  1   
 32  14  35  1   
 33  14  36  1   
 34  15  37  1   
 35  15  38  1   
 36  15  39  1   
 37  16  18  ar  
 38  16  40  1   
 39  17  19  ar  
 40  17  41  1   
 41  18  20  ar  
 42  18  42  1   
 43  19  20  ar  
 44  19  43  1   
 45  20  44  1   
@<TRIPOS>SUBSTRUCTURE
  1 ****   8 GROUP 4 **** **** 0

# MOE 2024.06 (io_trps.svl 2023.06)
