@<TRIPOS>MOLECULE
NONAME
40 42 1 0 0 
SMALL
USER_CHARGES


@<TRIPOS>ATOM
  1 BR      -1.4700    -0.3340     3.1220 Br    1 <1>  -0.0580 
  2 C       -2.2530     0.9920     1.9730 C.2   1 <1>   0.1980 
  3 O       -3.4930     0.8170     1.5880 O.3   1 <1>  -0.2800 
  4 C       -1.7000     2.1170     1.4820 C.2   1 <1>  -0.1500 
  5 C       -3.8070     1.8530     0.8060 C.2   1 <1>   0.0550 
  6 C       -2.7220     2.6820     0.7150 C.2   1 <1>  -0.1500 
  7 C       -5.1140     1.9550     0.2070 C.2   1 <1>   0.7150 
  8 O       -5.3810     2.8810    -0.5340 O.2   1 <1>  -0.5700 
  9 N       -6.0380     0.9700     0.4680 N.am  1 <1>  -0.5470 
 10 C       -7.3630     0.7390     0.0600 C.ar  1 <1>   0.1170 
 11 C       -7.9360    -0.5260     0.2800 C.ar  1 <1>   0.0860 
 12 C       -8.1390     1.7280    -0.5450 C.ar  1 <1>  -0.1500 
 13 C       -7.1900    -1.5950     0.9060 C.2   1 <1>   0.5440 
 14 C       -9.2570    -0.7470    -0.1070 C.ar  1 <1>  -0.1500 
 15 C       -9.4420     1.4850    -0.9310 C.ar  1 <1>  -0.1500 
 16 O       -7.5780    -2.0340     1.9730 O.2   1 <1>  -0.5700 
 17 N       -6.0490    -2.1290     0.3390 N.am  1 <1>  -0.6600 
 18 C      -10.0060     0.2420    -0.7100 C.ar  1 <1>  -0.1500 
 19 C       -5.6990    -1.9700    -1.1030 C.3   1 <1>   0.1400 
 20 C       -5.2230    -3.1400     1.0600 C.3   1 <1>   0.1400 
 21 C       -4.2150    -1.6170    -1.2520 C.3   1 <1>  -0.1600 
 22 C       -3.7370    -2.7900     0.9300 C.3   1 <1>  -0.1600 
 23 C       -3.3130    -2.6320    -0.5370 C.3   1 <1>  -0.1600 
 24 H       -0.7090     2.5060     1.6320 H     1 <1>   0.1500 
 25 H       -2.6560     3.6010     0.1590 H     1 <1>   0.1500 
 26 H       -5.6270     0.2030     1.0120 H     1 <1>   0.3700 
 27 H       -7.7350     2.7070    -0.7180 H     1 <1>   0.1500 
 28 H       -9.6950    -1.7130     0.0780 H     1 <1>   0.1500 
 29 H      -10.0200     2.2640    -1.3990 H     1 <1>   0.1500 
 30 H      -11.0250     0.0510    -1.0040 H     1 <1>   0.1500 
 31 H       -6.2980    -1.2070    -1.5680 H     1 <1>   0.0800 
 32 H       -5.8980    -2.9000    -1.6090 H     1 <1>   0.0800 
 33 H       -5.4110    -4.1110     0.6350 H     1 <1>   0.0800 
 34 H       -5.4880    -3.1750     2.1030 H     1 <1>   0.0800 
 35 H       -4.0420    -0.6360    -0.8510 H     1 <1>   0.0800 
 36 H       -3.9620    -1.5870    -2.2970 H     1 <1>   0.0800 
 37 H       -3.1500    -3.5630     1.3940 H     1 <1>   0.0800 
 38 H       -3.5520    -1.8770     1.4640 H     1 <1>   0.0800 
 39 H       -2.2880    -2.3070    -0.5850 H     1 <1>   0.0800 
 40 H       -3.3850    -3.5850    -1.0320 H     1 <1>   0.0800 
@<TRIPOS>BOND
  1   1   2  1   
  2   2   3  1   
  3   2   4  2   
  4   3   5  1   
  5   4   6  1   
  6   4  24  1   
  7   5   6  2   
  8   5   7  1   
  9   6  25  1   
 10   7   8  2   
 11   7   9  am  
 12   9  10  1   
 13   9  26  1   
 14  10  11  ar  
 15  10  12  ar  
 16  11  13  1   
 17  11  14  ar  
 18  12  15  ar  
 19  12  27  1   
 20  13  16  2   
 21  13  17  am  
 22  14  18  ar  
 23  14  28  1   
 24  15  18  ar  
 25  15  29  1   
 26  17  19  1   
 27  17  20  1   
 28  18  30  1   
 29  19  21  1   
 30  19  31  1   
 31  19  32  1   
 32  20  22  1   
 33  20  33  1   
 34  20  34  1   
 35  21  23  1   
 36  21  35  1   
 37  21  36  1   
 38  22  23  1   
 39  22  37  1   
 40  22  38  1   
 41  23  39  1   
 42  23  40  1   
@<TRIPOS>SUBSTRUCTURE
  1 ****   9 GROUP 4 **** **** 0

# MOE 2024.06 (io_trps.svl 2023.06)
