@<TRIPOS>MOLECULE
NONAME
44 45 1 0 0 
SMALL
USER_CHARGES


@<TRIPOS>ATOM
  1 S       -0.1790    -0.3280     1.1430 S.o2  1 <1>   1.3330 
  2 O        0.1990    -1.3340     2.1110 O.2   1 <1>  -0.6500 
  3 O       -0.4510     1.0240     1.5760 O.2   1 <1>  -0.6500 
  4 N       -1.5410    -0.9010     0.3120 N.am  1 <1>  -0.8490 
  5 C        1.0690    -0.2480    -0.1510 C.3   1 <1>  -0.0550 
  6 C       -2.7930    -0.4810     0.9680 C.3   1 <1>   0.1960 
  7 C       -1.5210    -2.3600     0.1500 C.3   1 <1>   0.1960 
  8 C        2.4420     0.2640     0.3190 C.3   1 <1>  -0.2400 
  9 C       -4.0050    -0.8490     0.1000 C.3   1 <1>  -0.0190 
 10 C       -2.6690    -2.8060    -0.7610 C.3   1 <1>  -0.1600 
 11 C       -5.2920    -0.4020     0.7780 C.2   1 <1>   0.5690 
 12 C       -4.0260    -2.3590    -0.2020 C.3   1 <1>  -0.1600 
 13 O       -5.4750    -0.7080     1.9310 O.2   1 <1>  -0.5700 
 14 N       -6.1810     0.3170     0.0300 N.am  1 <1>  -0.5470 
 15 C       -7.4480     0.8710     0.2930 C.ar  1 <1>   0.1170 
 16 C       -8.0800     1.5720    -0.7410 C.ar  1 <1>   0.0820 
 17 C       -8.0980     0.7550     1.5170 C.ar  1 <1>  -0.1500 
 18 O       -7.4080     1.6650    -1.9300 O.3   1 <1>  -0.3630 
 19 C       -9.3350     2.1370    -0.5370 C.ar  1 <1>  -0.1500 
 20 C       -9.3450     1.3190     1.7150 C.ar  1 <1>  -0.1500 
 21 C       -7.9430     2.3900    -3.0170 C.3   1 <1>   0.0400 
 22 C       -9.9650     2.0100     0.6890 C.ar  1 <1>  -0.1500 
 23 H        0.7120     0.3980    -0.9300 H     1 <1>   0.0800 
 24 H        1.1980    -1.2240    -0.5740 H     1 <1>   0.0800 
 25 H       -2.7930     0.5870     1.1110 H     1 <1>   0.0800 
 26 H       -2.8720    -0.9450     1.9380 H     1 <1>   0.0800 
 27 H       -1.6120    -2.8390     1.1120 H     1 <1>   0.0800 
 28 H       -0.5860    -2.6680    -0.2880 H     1 <1>   0.0800 
 29 H        2.3470     1.2580     0.7220 H     1 <1>   0.0800 
 30 H        3.1340     0.2880    -0.5030 H     1 <1>   0.0800 
 31 H        2.8340    -0.3810     1.0870 H     1 <1>   0.0800 
 32 H       -3.9050    -0.3140    -0.8270 H     1 <1>   0.0800 
 33 H       -2.6540    -3.8770    -0.8550 H     1 <1>   0.0800 
 34 H       -2.5200    -2.3870    -1.7410 H     1 <1>   0.0800 
 35 H       -4.8090    -2.5850    -0.9040 H     1 <1>   0.0800 
 36 H       -4.2300    -2.8990     0.7090 H     1 <1>   0.0800 
 37 H       -5.8970     0.5110    -0.9320 H     1 <1>   0.3700 
 38 H       -7.6370     0.2240     2.3280 H     1 <1>   0.1500 
 39 H       -9.8420     2.6780    -1.3130 H     1 <1>   0.1500 
 40 H       -9.8320     1.2190     2.6700 H     1 <1>   0.1500 
 41 H       -7.2410     2.3410    -3.8300 H     1 <1>   0.0800 
 42 H       -8.0830     3.4140    -2.7180 H     1 <1>   0.0800 
 43 H       -8.8750     1.9420    -3.3120 H     1 <1>   0.0800 
 44 H      -10.9360     2.4470     0.8460 H     1 <1>   0.1500 
@<TRIPOS>BOND
  1   1   2  2   
  2   1   3  2   
  3   1   4  am  
  4   1   5  1   
  5   4   6  1   
  6   4   7  1   
  7   5   8  1   
  8   5  23  1   
  9   5  24  1   
 10   6   9  1   
 11   6  25  1   
 12   6  26  1   
 13   7  10  1   
 14   7  27  1   
 15   7  28  1   
 16   8  29  1   
 17   8  30  1   
 18   8  31  1   
 19   9  11  1   
 20   9  12  1   
 21   9  32  1   
 22  10  12  1   
 23  10  33  1   
 24  10  34  1   
 25  11  13  2   
 26  11  14  am  
 27  12  35  1   
 28  12  36  1   
 29  14  15  1   
 30  14  37  1   
 31  15  16  ar  
 32  15  17  ar  
 33  16  18  1   
 34  16  19  ar  
 35  17  20  ar  
 36  17  38  1   
 37  18  21  1   
 38  19  22  ar  
 39  19  39  1   
 40  20  22  ar  
 41  20  40  1   
 42  21  41  1   
 43  21  42  1   
 44  21  43  1   
 45  22  44  1   
@<TRIPOS>SUBSTRUCTURE
  1 ****   9 GROUP 4 **** **** 0

# MOE 2024.06 (io_trps.svl 2023.06)
