@<TRIPOS>MOLECULE
NONAME
35 36 1 0 0 
SMALL
USER_CHARGES


@<TRIPOS>ATOM
  1 O       -0.6680    -1.0530     1.6850 O.2   1 <1>  -0.5700 
  2 C       -1.0930    -1.4390     0.6220 C.2   1 <1>   0.5690 
  3 N       -2.1660    -0.8580     0.0350 N.am  1 <1>  -0.7300 
  4 C       -0.4200    -2.6110    -0.0920 C.3   1 <1>  -0.0190 
  5 C       -2.9730     0.2020     0.6430 C.3   1 <1>   0.3640 
  6 C       -0.4310    -3.9160     0.7070 C.3   1 <1>  -0.1600 
  7 C        1.0640    -2.3940    -0.3910 C.3   1 <1>  -0.1600 
  8 C       -4.4080     0.0440     0.1510 C.ar  1 <1>  -0.1440 
  9 C       -2.3780     1.5570     0.2700 C.3   1 <1>  -0.2400 
 10 C        0.6780    -4.7700     0.0860 C.3   1 <1>  -0.1600 
 11 C        1.6340    -3.7970    -0.6150 C.3   1 <1>  -0.1600 
 12 C       -5.4090    -0.2860     1.0530 C.ar  1 <1>  -0.1500 
 13 C       -4.7390     0.2130    -1.1880 C.ar  1 <1>  -0.1500 
 14 C       -6.7170    -0.4400     0.6290 C.ar  1 <1>  -0.1500 
 15 C       -6.0470     0.0580    -1.6140 C.ar  1 <1>  -0.1500 
 16 C       -7.0380    -0.2680    -0.7060 C.ar  1 <1>  -0.1500 
 17 H       -2.5710    -1.2460    -0.8140 H     1 <1>   0.3700 
 18 H       -0.9240    -2.7890    -1.0250 H     1 <1>   0.0800 
 19 H       -2.9440     0.0940     1.7160 H     1 <1>   0.0800 
 20 H       -1.3890    -4.4030     0.6700 H     1 <1>   0.0800 
 21 H       -0.1830    -3.7070     1.7340 H     1 <1>   0.0800 
 22 H        1.5410    -1.9530     0.4690 H     1 <1>   0.0800 
 23 H        1.2150    -1.7520    -1.2410 H     1 <1>   0.0800 
 24 H       -2.3110     1.6730    -0.7950 H     1 <1>   0.0800 
 25 H       -1.3970     1.6500     0.6990 H     1 <1>   0.0800 
 26 H       -2.9970     2.3420     0.6660 H     1 <1>   0.0800 
 27 H        0.2570    -5.4470    -0.6370 H     1 <1>   0.0800 
 28 H        1.1860    -5.3430     0.8430 H     1 <1>   0.0800 
 29 H        2.6320    -3.8710    -0.2180 H     1 <1>   0.0800 
 30 H        1.6630    -4.0170    -1.6690 H     1 <1>   0.0800 
 31 H       -5.1750    -0.4260     2.0940 H     1 <1>   0.1500 
 32 H       -3.9820     0.4670    -1.9090 H     1 <1>   0.1500 
 33 H       -7.4860    -0.6950     1.3370 H     1 <1>   0.1500 
 34 H       -6.2950     0.1930    -2.6530 H     1 <1>   0.1500 
 35 H       -8.0550    -0.3880    -1.0360 H     1 <1>   0.1500 
@<TRIPOS>BOND
  1   1   2  2   
  2   2   3  am  
  3   2   4  1   
  4   3   5  1   
  5   3  17  1   
  6   4   6  1   
  7   4   7  1   
  8   4  18  1   
  9   5   8  1   
 10   5   9  1   
 11   5  19  1   
 12   6  10  1   
 13   6  20  1   
 14   6  21  1   
 15   7  11  1   
 16   7  22  1   
 17   7  23  1   
 18   8  12  ar  
 19   8  13  ar  
 20   9  24  1   
 21   9  25  1   
 22   9  26  1   
 23  10  11  1   
 24  10  27  1   
 25  10  28  1   
 26  11  29  1   
 27  11  30  1   
 28  12  14  ar  
 29  12  31  1   
 30  13  15  ar  
 31  13  32  1   
 32  14  16  ar  
 33  14  33  1   
 34  15  16  ar  
 35  15  34  1   
 36  16  35  1   
@<TRIPOS>SUBSTRUCTURE
  1 ****   3 GROUP 4 **** **** 0

# MOE 2024.06 (io_trps.svl 2023.06)
