@<TRIPOS>MOLECULE
NONAME
43 45 1 0 0 
SMALL
USER_CHARGES


@<TRIPOS>ATOM
  1 O       -0.1890     0.6040    -0.1930 O.2   1 <1>  -0.5700 
  2 C       -1.0410     1.3430     0.2360 C.2   1 <1>   0.5690 
  3 N       -2.3760     1.0860     0.0530 N.am  1 <1>  -0.6600 
  4 C       -0.5530     2.5540     1.0030 C.3   1 <1>  -0.1790 
  5 C       -3.4610     1.9630     0.6110 C.3   1 <1>   0.5070 
  6 C       -2.7860    -0.2160    -0.5620 C.3   1 <1>   0.1400 
  7 C       -4.8830     1.4350     0.3820 C.ar  1 <1>  -0.1440 
  8 C       -3.3720     3.3760     0.0370 C.ar  1 <1>  -0.1440 
  9 C       -4.0330    -0.0680    -1.4290 C.3   1 <1>  -0.0160 
 10 C       -5.1650     0.4850    -0.5910 C.ar  1 <1>  -0.1440 
 11 C       -5.9230     1.9340     1.1560 C.ar  1 <1>  -0.1500 
 12 C       -3.4970     4.4670     0.8860 C.ar  1 <1>   0.1600 
 13 C       -3.1710     3.6110    -1.3100 C.ar  1 <1>  -0.1500 
 14 C       -6.4650     0.0410    -0.7820 C.ar  1 <1>  -0.1500 
 15 C       -7.2250     1.5040     0.9640 C.ar  1 <1>   0.0830 
 16 N       -3.4280     5.7340     0.5140 N.ar  1 <1>  -0.6200 
 17 C       -3.1020     4.9260    -1.7180 C.ar  1 <1>  -0.1500 
 18 C       -7.4970     0.5300    -0.0010 C.ar  1 <1>   0.0830 
 19 O       -8.1870     2.0700     1.7320 O.3   1 <1>  -0.3630 
 20 C       -3.2350     5.9340    -0.7790 C.ar  1 <1>   0.1600 
 21 O       -8.7370     0.0270    -0.2190 O.3   1 <1>  -0.3630 
 22 C       -9.1080     2.8980     1.0570 C.3   1 <1>   0.0400 
 23 C       -9.3260    -0.6860     0.8470 C.3   1 <1>   0.0400 
 24 H       -0.6710     3.4380     0.4050 H     1 <1>   0.0800 
 25 H        0.4920     2.4380     1.2250 H     1 <1>   0.0800 
 26 H       -1.0820     2.6610     1.9290 H     1 <1>   0.0800 
 27 H       -3.3120     2.0100     1.6750 H     1 <1>   0.0800 
 28 H       -2.9820    -0.9220     0.2270 H     1 <1>   0.0800 
 29 H       -1.9890    -0.6120    -1.1690 H     1 <1>   0.0800 
 30 H       -4.3000    -1.0330    -1.8210 H     1 <1>   0.0800 
 31 H       -3.8300     0.5830    -2.2590 H     1 <1>   0.0800 
 32 H       -5.7430     2.6750     1.9130 H     1 <1>   0.1500 
 33 H       -3.6610     4.2940     1.9360 H     1 <1>   0.1500 
 34 H       -3.0680     2.8050    -2.0150 H     1 <1>   0.1500 
 35 H       -6.6900    -0.6940    -1.5330 H     1 <1>   0.1500 
 36 H       -2.9470     5.1690    -2.7530 H     1 <1>   0.1500 
 37 H       -3.1790     6.9570    -1.1090 H     1 <1>   0.1500 
 38 H       -9.7580     3.3440     1.7880 H     1 <1>   0.0800 
 39 H       -9.6830     2.3060     0.3680 H     1 <1>   0.0800 
 40 H       -8.5660     3.6630     0.5300 H     1 <1>   0.0800 
 41 H      -10.2240    -1.1520     0.4850 H     1 <1>   0.0800 
 42 H       -9.5640    -0.0060     1.6440 H     1 <1>   0.0800 
 43 H       -8.6330    -1.4350     1.1890 H     1 <1>   0.0800 
@<TRIPOS>BOND
  1   1   2  2   
  2   2   3  am  
  3   2   4  1   
  4   3   5  1   
  5   3   6  1   
  6   4  24  1   
  7   4  25  1   
  8   4  26  1   
  9   5   7  1   
 10   5   8  1   
 11   5  27  1   
 12   6   9  1   
 13   6  28  1   
 14   6  29  1   
 15   7  10  ar  
 16   7  11  ar  
 17   8  12  ar  
 18   8  13  ar  
 19   9  10  1   
 20   9  30  1   
 21   9  31  1   
 22  10  14  ar  
 23  11  15  ar  
 24  11  32  1   
 25  12  16  ar  
 26  12  33  1   
 27  13  17  ar  
 28  13  34  1   
 29  14  18  ar  
 30  14  35  1   
 31  15  18  ar  
 32  15  19  1   
 33  16  20  ar  
 34  17  20  ar  
 35  17  36  1   
 36  18  21  1   
 37  19  22  1   
 38  20  37  1   
 39  21  23  1   
 40  22  38  1   
 41  22  39  1   
 42  22  40  1   
 43  23  41  1   
 44  23  42  1   
 45  23  43  1   
@<TRIPOS>SUBSTRUCTURE
  1 ****   7 GROUP 4 **** **** 0

# MOE 2024.06 (io_trps.svl 2023.06)
