@<TRIPOS>MOLECULE
NONAME
48 51 1 0 0 
SMALL
USER_CHARGES


@<TRIPOS>ATOM
  1 CL      -0.1910     0.1020    -0.8740 Cl    1 <1>  -0.1770 
  2 C       -1.9150     0.0160    -0.6230 C.ar  1 <1>   0.1770 
  3 C       -2.5320    -1.1990    -0.5040 C.ar  1 <1>  -0.1500 
  4 C       -2.6380     1.2060    -0.5490 C.ar  1 <1>  -0.1500 
  5 C       -3.9260    -1.2720    -0.2980 C.ar  1 <1>   0.0000 
  6 C       -3.9950     1.1480    -0.3540 C.ar  1 <1>  -0.1500 
  7 C       -4.6680    -2.4660    -0.1580 C.ar  1 <1>   0.3100 
  8 C       -4.6620    -0.0820    -0.2270 C.ar  1 <1>   0.3100 
  9 N       -5.9540    -2.4440     0.0110 N.ar  1 <1>  -0.6200 
 10 C       -3.9960    -3.7420    -0.2010 C.ar  1 <1>   0.0000 
 11 N       -5.9910    -0.0950    -0.0430 N.ar  1 <1>  -0.6200 
 12 C       -6.5720    -1.2540     0.0690 C.ar  1 <1>   0.7200 
 13 C       -4.0330    -4.5340    -1.3470 C.ar  1 <1>  -0.1500 
 14 C       -3.2840    -4.2170     0.8990 C.ar  1 <1>  -0.1500 
 15 N       -7.9410    -1.2870     0.2700 N.pl3 1 <1>  -0.8380 
 16 C       -3.3760    -5.7500    -1.3970 C.ar  1 <1>  -0.1500 
 17 C       -2.6260    -5.4320     0.8530 C.ar  1 <1>  -0.1500 
 18 C       -8.7290    -0.0220     0.4440 C.3   1 <1>   0.2090 
 19 C       -8.6530    -2.5570     0.6420 C.3   1 <1>   0.2090 
 20 C       -2.6700    -6.2000    -0.2970 C.ar  1 <1>  -0.1500 
 21 C      -10.1560    -0.1510    -0.1280 C.3   1 <1>   0.3430 
 22 C      -10.0830    -2.6060     0.0660 C.3   1 <1>   0.3430 
 23 N      -10.8860    -1.3670     0.3850 N.4   1 <1>  -0.9590 
 24 C      -12.2730    -1.4160    -0.1850 C.3   1 <1>   0.3430 
 25 C      -13.1650    -2.4710     0.4880 C.3   1 <1>   0.1200 
 26 O      -14.4300    -2.3630    -0.0640 O.3   1 <1>  -0.6800 
 27 H       -1.9460    -2.0990    -0.5690 H     1 <1>   0.1500 
 28 H       -2.1190     2.1430    -0.6460 H     1 <1>   0.1500 
 29 H       -4.5810     2.0470    -0.2930 H     1 <1>   0.1500 
 30 H       -4.5840    -4.1890    -2.2040 H     1 <1>   0.1500 
 31 H       -3.2510    -3.6270     1.7980 H     1 <1>   0.1500 
 32 H       -3.4150    -6.3470    -2.2920 H     1 <1>   0.1500 
 33 H       -2.0800    -5.7830     1.7120 H     1 <1>   0.1500 
 34 H       -8.2480     0.7990    -0.0580 H     1 <1>   0.0800 
 35 H       -8.7750     0.2220     1.4910 H     1 <1>   0.0800 
 36 H       -8.6880    -2.6380     1.7140 H     1 <1>   0.0800 
 37 H       -8.1250    -3.4190     0.2730 H     1 <1>   0.0800 
 38 H       -2.1580    -7.1460    -0.3340 H     1 <1>   0.1500 
 39 H      -10.0810    -0.2030    -1.2020 H     1 <1>   0.0800 
 40 H      -10.7100     0.7400     0.1190 H     1 <1>   0.0800 
 41 H      -10.5800    -3.4790     0.4540 H     1 <1>   0.0800 
 42 H      -10.0080    -2.7200    -1.0030 H     1 <1>   0.0800 
 43 H      -10.9430    -1.2770     1.4080 H     1 <1>   0.4500 
 44 H      -12.2240    -1.6250    -1.2420 H     1 <1>   0.0800 
 45 H      -12.7450    -0.4560    -0.0550 H     1 <1>   0.0800 
 46 H      -13.2490    -2.2900     1.5450 H     1 <1>   0.0800 
 47 H      -12.8070    -3.4680     0.3010 H     1 <1>   0.0800 
 48 H      -15.0610    -3.0020     0.3330 H     1 <1>   0.4000 
@<TRIPOS>BOND
  1   1   2  1   
  2   2   3  ar  
  3   2   4  ar  
  4   3   5  ar  
  5   3  27  1   
  6   4   6  ar  
  7   4  28  1   
  8   5   7  ar  
  9   5   8  ar  
 10   6   8  ar  
 11   6  29  1   
 12   7   9  ar  
 13   7  10  1   
 14   8  11  ar  
 15   9  12  ar  
 16  10  13  ar  
 17  10  14  ar  
 18  11  12  ar  
 19  12  15  1   
 20  13  16  ar  
 21  13  30  1   
 22  14  17  ar  
 23  14  31  1   
 24  15  18  1   
 25  15  19  1   
 26  16  20  ar  
 27  16  32  1   
 28  17  20  ar  
 29  17  33  1   
 30  18  21  1   
 31  18  34  1   
 32  18  35  1   
 33  19  22  1   
 34  19  36  1   
 35  19  37  1   
 36  20  38  1   
 37  21  23  1   
 38  21  39  1   
 39  21  40  1   
 40  22  23  1   
 41  22  41  1   
 42  22  42  1   
 43  23  24  1   
 44  23  43  1   
 45  24  25  1   
 46  24  44  1   
 47  24  45  1   
 48  25  26  1   
 49  25  46  1   
 50  25  47  1   
 51  26  48  1   
@<TRIPOS>SUBSTRUCTURE
  1 ****   9 GROUP 4 **** **** 0

# MOE 2024.06 (io_trps.svl 2023.06)
