@<TRIPOS>MOLECULE
NONAME
36 40 1 0 0 
SMALL
USER_CHARGES


@<TRIPOS>ATOM
  1 O       -0.2460     1.2550     1.4580 O.2   1 <1>  -0.5700 
  2 C        0.2380     2.2360     0.9470 C.2   1 <1>   0.5690 
  3 N       -0.4200     3.1160     0.1250 N.am  1 <1>  -0.1840 
  4 C        1.6800     2.6330     1.1670 C.3   1 <1>  -0.0190 
  5 C       -1.7610     2.9480    -0.2910 C.2   1 <1>   0.2500 
  6 C        0.4360     4.1280    -0.2500 C.2   1 <1>   0.5690 
  7 C        1.8160     3.9370     0.3430 C.3   1 <1>  -0.0190 
  8 C        2.7040     1.6860     0.5030 C.3   1 <1>   0.0580 
  9 N       -2.5660     2.0050     0.1990 N.pl3 1 <1>   0.0330 
 10 N       -2.3870     3.6460    -1.1830 N.2   1 <1>  -0.3380 
 11 O        0.1930     5.0810    -0.9430 O.2   1 <1>  -0.5700 
 12 C        2.9040     3.5890    -0.6950 C.3   1 <1>   0.0580 
 13 C        4.0610     2.2870     0.8130 C.2   1 <1>  -0.2880 
 14 C        2.6120     2.1120    -0.9630 C.3   1 <1>  -0.1600 
 15 C       -3.7300     2.1620    -0.4470 C.2   1 <1>   0.1330 
 16 N       -3.6230     3.1550    -1.2790 N.2   1 <1>  -0.3380 
 17 C        4.1790     3.4090     0.1080 C.2   1 <1>  -0.2880 
 18 C       -4.9080     1.3520    -0.2340 C.ar  1 <1>   0.0530 
 19 C       -4.8640     0.1180     0.4230 C.ar  1 <1>   0.1600 
 20 C       -6.1540     1.7710    -0.6820 C.ar  1 <1>  -0.1500 
 21 N       -5.8950    -0.6730     0.6670 N.ar  1 <1>  -0.6200 
 22 C       -7.2430     0.9620    -0.4430 C.ar  1 <1>  -0.1500 
 23 C       -7.0630    -0.2340     0.2280 C.ar  1 <1>   0.1600 
 24 H        1.8820     2.7800     2.2130 H     1 <1>   0.0800 
 25 H        2.0900     4.7840     0.9470 H     1 <1>   0.0800 
 26 H        2.6000     0.6310     0.6920 H     1 <1>   0.0800 
 27 H       -2.3020     1.3190     0.9110 H     1 <1>   0.2700 
 28 H        2.9770     4.2190    -1.5650 H     1 <1>   0.0800 
 29 H        4.7310     1.8140     1.5130 H     1 <1>   0.1500 
 30 H        1.6540     1.9310    -1.4190 H     1 <1>   0.0800 
 31 H        3.3830     1.6550    -1.5630 H     1 <1>   0.0800 
 32 H        4.9740     4.1350     0.0530 H     1 <1>   0.1500 
 33 H       -3.9130    -0.2440     0.7690 H     1 <1>   0.1500 
 34 H       -6.2610     2.7080    -1.2020 H     1 <1>   0.1500 
 35 H       -8.2230     1.2540    -0.7740 H     1 <1>   0.1500 
 36 H       -7.9210    -0.8600     0.4120 H     1 <1>   0.1500 
@<TRIPOS>BOND
  1   1   2  2   
  2   2   3  am  
  3   2   4  1   
  4   3   5  1   
  5   3   6  am  
  6   4   7  1   
  7   4   8  1   
  8   4  24  1   
  9   5   9  1   
 10   5  10  2   
 11   6   7  1   
 12   6  11  2   
 13   7  12  1   
 14   7  25  1   
 15   8  13  1   
 16   8  14  1   
 17   8  26  1   
 18   9  15  1   
 19   9  27  1   
 20  10  16  1   
 21  12  14  1   
 22  12  17  1   
 23  12  28  1   
 24  13  17  2   
 25  13  29  1   
 26  14  30  1   
 27  14  31  1   
 28  15  16  2   
 29  15  18  1   
 30  17  32  1   
 31  18  19  ar  
 32  18  20  ar  
 33  19  21  ar  
 34  19  33  1   
 35  20  22  ar  
 36  20  34  1   
 37  21  23  ar  
 38  22  23  ar  
 39  22  35  1   
 40  23  36  1   
@<TRIPOS>SUBSTRUCTURE
  1 ****   5 GROUP 4 **** **** 0

# MOE 2024.06 (io_trps.svl 2023.06)
