@<TRIPOS>MOLECULE
NONAME
45 47 1 0 0 
SMALL
USER_CHARGES


@<TRIPOS>ATOM
  1 O        1.4240    -1.1130     1.9680 O.2   1 <1>  -0.5700 
  2 C        1.0010    -1.6500     0.9760 C.2   1 <1>   0.5690 
  3 N        1.7150    -1.7770    -0.1810 N.am  1 <1>  -0.5470 
  4 C       -0.3890    -2.2340     1.0050 C.3   1 <1>  -0.1790 
  5 C        3.0000    -1.3070    -0.4870 C.ar  1 <1>   0.1170 
  6 C        3.7970    -2.0210    -1.3720 C.ar  1 <1>  -0.1500 
  7 C        3.5080    -0.1320     0.0560 C.ar  1 <1>  -0.1500 
  8 C        5.0720    -1.5870    -1.6910 C.ar  1 <1>  -0.1500 
  9 C        4.7790     0.3090    -0.2610 C.ar  1 <1>  -0.1500 
 10 C        5.5760    -0.4220    -1.1300 C.ar  1 <1>  -0.1430 
 11 C        6.9810     0.0460    -1.4540 C.3   1 <1>   0.4860 
 12 N        7.8360    -0.1680    -0.2580 N.4   1 <1>  -0.9590 
 13 C        9.1830     0.5030    -0.4070 C.3   1 <1>   0.3430 
 14 C        7.9740    -1.6440     0.0600 C.3   1 <1>   0.3430 
 15 C       10.1280     0.2260     0.7830 C.3   1 <1>   0.2090 
 16 C        8.9180    -1.9050     1.2510 C.3   1 <1>   0.2090 
 17 N       10.2340    -1.2430     1.0050 N.pl3 1 <1>  -0.8380 
 18 C       11.2610    -1.9310     0.4010 C.ar  1 <1>   0.7200 
 19 N       12.4750    -1.4070     0.5180 N.ar  1 <1>  -0.6200 
 20 N       10.9300    -3.0290    -0.2770 N.ar  1 <1>  -0.6200 
 21 C       13.4490    -2.0770    -0.0500 C.ar  1 <1>   0.1600 
 22 C       11.9260    -3.6780    -0.8340 C.ar  1 <1>   0.1600 
 23 C       13.2250    -3.2380    -0.7470 C.ar  1 <1>  -0.1500 
 24 H        1.2640    -2.3270    -0.9100 H     1 <1>   0.3700 
 25 H       -0.3390    -3.3000     0.8800 H     1 <1>   0.0800 
 26 H       -0.9840    -1.8040     0.2220 H     1 <1>   0.0800 
 27 H       -0.8520    -2.0180     1.9510 H     1 <1>   0.0800 
 28 H        3.4170    -2.9270    -1.8110 H     1 <1>   0.1500 
 29 H        2.8990     0.4440     0.7310 H     1 <1>   0.1500 
 30 H        5.6610    -2.1690    -2.3810 H     1 <1>   0.1500 
 31 H        5.1270     1.2270     0.1800 H     1 <1>   0.1500 
 32 H        6.9540     1.0930    -1.7100 H     1 <1>   0.0800 
 33 H        7.3710    -0.5020    -2.2960 H     1 <1>   0.0800 
 34 H        7.3440     0.2550     0.5380 H     1 <1>   0.4500 
 35 H        9.0540     1.5680    -0.5110 H     1 <1>   0.0800 
 36 H        9.6670     0.1400    -1.2990 H     1 <1>   0.0800 
 37 H        8.3750    -2.1630    -0.7960 H     1 <1>   0.0800 
 38 H        7.0070    -2.0660     0.2800 H     1 <1>   0.0800 
 39 H        9.7520     0.6970     1.6740 H     1 <1>   0.0800 
 40 H       11.0940     0.6530     0.5760 H     1 <1>   0.0800 
 41 H        9.0510    -2.9660     1.3860 H     1 <1>   0.0800 
 42 H        8.4850    -1.5190     2.1570 H     1 <1>   0.0800 
 43 H       14.4500    -1.6900     0.0430 H     1 <1>   0.1500 
 44 H       11.7040    -4.5830    -1.3760 H     1 <1>   0.1500 
 45 H       14.0320    -3.7800    -1.2040 H     1 <1>   0.1500 
@<TRIPOS>BOND
  1   1   2  2   
  2   2   3  am  
  3   2   4  1   
  4   3   5  1   
  5   3  24  1   
  6   4  25  1   
  7   4  26  1   
  8   4  27  1   
  9   5   6  ar  
 10   5   7  ar  
 11   6   8  ar  
 12   6  28  1   
 13   7   9  ar  
 14   7  29  1   
 15   8  10  ar  
 16   8  30  1   
 17   9  10  ar  
 18   9  31  1   
 19  10  11  1   
 20  11  12  1   
 21  11  32  1   
 22  11  33  1   
 23  12  13  1   
 24  12  14  1   
 25  12  34  1   
 26  13  15  1   
 27  13  35  1   
 28  13  36  1   
 29  14  16  1   
 30  14  37  1   
 31  14  38  1   
 32  15  17  1   
 33  15  39  1   
 34  15  40  1   
 35  16  17  1   
 36  16  41  1   
 37  16  42  1   
 38  17  18  1   
 39  18  19  ar  
 40  18  20  ar  
 41  19  21  ar  
 42  20  22  ar  
 43  21  23  ar  
 44  21  43  1   
 45  22  23  ar  
 46  22  44  1   
 47  23  45  1   
@<TRIPOS>SUBSTRUCTURE
  1 ****  14 GROUP 4 **** **** 0

# MOE 2024.06 (io_trps.svl 2023.06)
