@<TRIPOS>MOLECULE
NONAME
46 48 1 0 0 
SMALL
USER_CHARGES


@<TRIPOS>ATOM
  1 N       -0.1590     0.1670     0.0570 N.4   1 <1>  -0.9590 
  2 C        0.9640     0.8160     0.7870 C.3   1 <1>   0.4230 
  3 C       -1.4800     0.8320     0.3560 C.3   1 <1>   0.3430 
  4 C       -0.2680    -1.3060     0.3640 C.3   1 <1>   0.3430 
  5 C        1.1650     2.2740     0.3440 C.3   1 <1>  -0.1600 
  6 C        2.2980     0.1110     0.5030 C.3   1 <1>  -0.1600 
  7 C       -2.6480     0.1550    -0.3850 C.3   1 <1>   0.1100 
  8 C       -1.4460    -1.9690    -0.3780 C.3   1 <1>   0.1100 
  9 C        2.5510     2.3540    -0.3000 C.3   1 <1>  -0.0800 
 10 C        3.3320     1.2230     0.3530 C.3   1 <1>  -0.1600 
 11 N       -2.7160    -1.2880    -0.0720 N.3   1 <1>  -0.8100 
 12 C        3.2190     3.7200    -0.1200 C.3   1 <1>  -0.2400 
 13 C       -3.8620    -1.9510    -0.7290 C.3   1 <1>   0.2530 
 14 C       -5.1760    -1.3120    -0.3020 C.ar  1 <1>  -0.1430 
 15 C       -5.5530    -1.3240     1.0330 C.ar  1 <1>  -0.1500 
 16 C       -6.0050    -0.7100    -1.2360 C.ar  1 <1>  -0.1500 
 17 C       -6.7420    -0.7380     1.4310 C.ar  1 <1>  -0.1500 
 18 C       -7.1940    -0.1220    -0.8390 C.ar  1 <1>  -0.1500 
 19 C       -7.5630    -0.1360     0.4940 C.ar  1 <1>  -0.1500 
 20 H        0.0250     0.2690    -0.9470 H     1 <1>   0.4500 
 21 H        0.7710     0.7980     1.8490 H     1 <1>   0.0800 
 22 H       -1.4490     1.8710     0.0760 H     1 <1>   0.0800 
 23 H       -1.6800     0.7800     1.4140 H     1 <1>   0.0800 
 24 H       -0.4150    -1.4450     1.4220 H     1 <1>   0.0800 
 25 H        0.6430    -1.8110     0.0880 H     1 <1>   0.0800 
 26 H        1.1470     2.8920     1.2240 H     1 <1>   0.0800 
 27 H        0.4210     2.6340    -0.3430 H     1 <1>   0.0800 
 28 H        2.2590    -0.4290    -0.4270 H     1 <1>   0.0800 
 29 H        2.5710    -0.5580     1.3000 H     1 <1>   0.0800 
 30 H       -2.5450     0.3020    -1.4460 H     1 <1>   0.0800 
 31 H       -3.5600     0.6370    -0.0730 H     1 <1>   0.0800 
 32 H       -1.5140    -2.9980    -0.0680 H     1 <1>   0.0800 
 33 H       -1.2630    -1.9530    -1.4400 H     1 <1>   0.0800 
 34 H        2.4600     2.1440    -1.3550 H     1 <1>   0.0800 
 35 H        4.1760     0.9180    -0.2440 H     1 <1>   0.0800 
 36 H        3.6840     1.5280     1.3260 H     1 <1>   0.0800 
 37 H        3.3380     3.9590     0.9230 H     1 <1>   0.0800 
 38 H        2.6270     4.4900    -0.5830 H     1 <1>   0.0800 
 39 H        4.1910     3.7190    -0.5810 H     1 <1>   0.0800 
 40 H       -3.8840    -2.9900    -0.4490 H     1 <1>   0.0800 
 41 H       -3.7560    -1.8950    -1.8000 H     1 <1>   0.0800 
 42 H       -4.9150    -1.7890     1.7650 H     1 <1>   0.1500 
 43 H       -5.7350    -0.6940    -2.2770 H     1 <1>   0.1500 
 44 H       -7.0280    -0.7510     2.4680 H     1 <1>   0.1500 
 45 H       -7.8350     0.3430    -1.5680 H     1 <1>   0.1500 
 46 H       -8.4870     0.3200     0.8030 H     1 <1>   0.1500 
@<TRIPOS>BOND
  1   1   2  1   
  2   1   3  1   
  3   1   4  1   
  4   1  20  1   
  5   2   5  1   
  6   2   6  1   
  7   2  21  1   
  8   3   7  1   
  9   3  22  1   
 10   3  23  1   
 11   4   8  1   
 12   4  24  1   
 13   4  25  1   
 14   5   9  1   
 15   5  26  1   
 16   5  27  1   
 17   6  10  1   
 18   6  28  1   
 19   6  29  1   
 20   7  11  1   
 21   7  30  1   
 22   7  31  1   
 23   8  11  1   
 24   8  32  1   
 25   8  33  1   
 26   9  10  1   
 27   9  12  1   
 28   9  34  1   
 29  10  35  1   
 30  10  36  1   
 31  11  13  1   
 32  12  37  1   
 33  12  38  1   
 34  12  39  1   
 35  13  14  1   
 36  13  40  1   
 37  13  41  1   
 38  14  15  ar  
 39  14  16  ar  
 40  15  17  ar  
 41  15  42  1   
 42  16  18  ar  
 43  16  43  1   
 44  17  19  ar  
 45  17  44  1   
 46  18  19  ar  
 47  18  45  1   
 48  19  46  1   
@<TRIPOS>SUBSTRUCTURE
  1 ****   7 GROUP 4 **** **** 0

# MOE 2024.06 (io_trps.svl 2023.06)
