@<TRIPOS>MOLECULE
NONAME
58 60 1 0 0 
SMALL
USER_CHARGES


@<TRIPOS>ATOM
  1 O        2.2730    -1.4890     1.8570 O.2   1 <1>  -0.5700 
  2 C        2.3120    -1.8590     0.7060 C.2   1 <1>   0.5690 
  3 N        1.3510    -2.6920     0.1820 N.am  1 <1>  -0.6600 
  4 C        3.4970    -1.3470    -0.1110 C.3   1 <1>  -0.0190 
  5 C        1.3300    -3.2510    -1.2020 C.3   1 <1>   0.1400 
  6 C        0.2480    -3.1890     1.0610 C.3   1 <1>   0.1400 
  7 C        4.7550    -1.5070     0.7670 C.3   1 <1>   0.3430 
  8 C        3.2720     0.1150    -0.5660 C.3   1 <1>  -0.1600 
  9 C        0.8790    -2.1970    -2.2130 C.3   1 <1>  -0.2400 
 10 C       -1.0280    -2.3920     0.8090 C.3   1 <1>  -0.2400 
 11 N        5.8550    -0.5590     0.3890 N.4   1 <1>  -0.9590 
 12 C        3.9410     1.1070     0.3960 C.3   1 <1>  -0.1600 
 13 C        5.4550     0.8840     0.5370 C.3   1 <1>   0.3430 
 14 C        6.4200    -0.8480    -0.9580 C.3   1 <1>   0.4860 
 15 C        7.7260    -0.0930    -1.1040 C.ar  1 <1>  -0.1440 
 16 C        8.8390    -0.4820    -0.3720 C.ar  1 <1>  -0.1500 
 17 C        7.8200     0.9950    -1.9610 C.ar  1 <1>  -0.1500 
 18 C       10.0340     0.2180    -0.4880 C.ar  1 <1>   0.0820 
 19 C        9.0090     1.6960    -2.0740 C.ar  1 <1>  -0.1500 
 20 O       11.1370    -0.1240     0.2230 O.3   1 <1>  -0.1650 
 21 C       10.1130     1.3110    -1.3350 C.ar  1 <1>  -0.1500 
 22 C       11.4010    -1.4180     0.5270 C.ar  1 <1>   0.0820 
 23 C       11.3080    -2.4200    -0.4310 C.ar  1 <1>  -0.1500 
 24 C       11.7790    -1.7310     1.8240 C.ar  1 <1>  -0.1500 
 25 C       11.5720    -3.7340    -0.0830 C.ar  1 <1>  -0.1500 
 26 C       12.0430    -3.0450     2.1690 C.ar  1 <1>  -0.1500 
 27 C       11.9360    -4.0460     1.2160 C.ar  1 <1>  -0.1500 
 28 H        3.6220    -1.9620    -0.9790 H     1 <1>   0.0800 
 29 H        0.6470    -4.0840    -1.2430 H     1 <1>   0.0800 
 30 H        2.3020    -3.6300    -1.4630 H     1 <1>   0.0800 
 31 H        0.5240    -3.0900     2.0980 H     1 <1>   0.0800 
 32 H        0.0730    -4.2360     0.8780 H     1 <1>   0.0800 
 33 H        5.1000    -2.5270     0.7200 H     1 <1>   0.0800 
 34 H        4.4850    -1.3080     1.7930 H     1 <1>   0.0800 
 35 H        2.2150     0.3250    -0.6220 H     1 <1>   0.0800 
 36 H        3.6760     0.2560    -1.5530 H     1 <1>   0.0800 
 37 H       -0.0790    -1.7950    -1.9390 H     1 <1>   0.0800 
 38 H        0.7850    -2.6510    -3.1830 H     1 <1>   0.0800 
 39 H        1.5880    -1.3970    -2.2880 H     1 <1>   0.0800 
 40 H       -0.8410    -1.3410     0.9440 H     1 <1>   0.0800 
 41 H       -1.7840    -2.6940     1.5120 H     1 <1>   0.0800 
 42 H       -1.4020    -2.5710    -0.1820 H     1 <1>   0.0800 
 43 H        6.6360    -0.7030     1.0420 H     1 <1>   0.4500 
 44 H        3.4850     1.0170     1.3690 H     1 <1>   0.0800 
 45 H        3.7650     2.1160     0.0650 H     1 <1>   0.0800 
 46 H        5.9690     1.4780    -0.2020 H     1 <1>   0.0800 
 47 H        5.7620     1.2460     1.5050 H     1 <1>   0.0800 
 48 H        5.7300    -0.5470    -1.7280 H     1 <1>   0.0800 
 49 H        6.6110    -1.9040    -1.0610 H     1 <1>   0.0800 
 50 H        8.7930    -1.3260     0.2930 H     1 <1>   0.1500 
 51 H        6.9760     1.3130    -2.5510 H     1 <1>   0.1500 
 52 H        9.0810     2.5420    -2.7380 H     1 <1>   0.1500 
 53 H       11.0400     1.8520    -1.4150 H     1 <1>   0.1500 
 54 H       11.0400    -2.1740    -1.4430 H     1 <1>   0.1500 
 55 H       11.8670    -0.9480     2.5560 H     1 <1>   0.1500 
 56 H       11.5020    -4.5130    -0.8230 H     1 <1>   0.1500 
 57 H       12.3350    -3.2900     3.1750 H     1 <1>   0.1500 
 58 H       12.1430    -5.0670     1.4860 H     1 <1>   0.1500 
@<TRIPOS>BOND
  1   1   2  2   
  2   2   3  am  
  3   2   4  1   
  4   3   5  1   
  5   3   6  1   
  6   4   7  1   
  7   4   8  1   
  8   4  28  1   
  9   5   9  1   
 10   5  29  1   
 11   5  30  1   
 12   6  10  1   
 13   6  31  1   
 14   6  32  1   
 15   7  11  1   
 16   7  33  1   
 17   7  34  1   
 18   8  12  1   
 19   8  35  1   
 20   8  36  1   
 21   9  37  1   
 22   9  38  1   
 23   9  39  1   
 24  10  40  1   
 25  10  41  1   
 26  10  42  1   
 27  11  13  1   
 28  11  14  1   
 29  11  43  1   
 30  12  13  1   
 31  12  44  1   
 32  12  45  1   
 33  13  46  1   
 34  13  47  1   
 35  14  15  1   
 36  14  48  1   
 37  14  49  1   
 38  15  16  ar  
 39  15  17  ar  
 40  16  18  ar  
 41  16  50  1   
 42  17  19  ar  
 43  17  51  1   
 44  18  20  1   
 45  18  21  ar  
 46  19  21  ar  
 47  19  52  1   
 48  20  22  1   
 49  21  53  1   
 50  22  23  ar  
 51  22  24  ar  
 52  23  25  ar  
 53  23  54  1   
 54  24  26  ar  
 55  24  55  1   
 56  25  27  ar  
 57  25  56  1   
 58  26  27  ar  
 59  26  57  1   
 60  27  58  1   
@<TRIPOS>SUBSTRUCTURE
  1 ****  11 GROUP 4 **** **** 0

# MOE 2024.06 (io_trps.svl 2023.06)
