@<TRIPOS>MOLECULE
NONAME
41 41 1 0 0 
SMALL
USER_CHARGES


@<TRIPOS>ATOM
  1 CL      -0.2560     0.3540     0.0440 Cl    1 <1>  -0.1770 
  2 C        1.3800     0.9870     0.0270 C.ar  1 <1>   0.1770 
  3 C        2.4500     0.1000     0.0420 C.ar  1 <1>  -0.1440 
  4 C        1.5730     2.3620    -0.0010 C.ar  1 <1>  -0.1440 
  5 C        3.7400     0.6080     0.0290 C.ar  1 <1>  -0.1500 
  6 C        2.2200    -1.4040     0.0730 C.3   1 <1>  -0.0960 
  7 C        2.8700     2.8490    -0.0130 C.ar  1 <1>  -0.1500 
  8 C        0.3950     3.3250    -0.0170 C.3   1 <1>  -0.0960 
  9 C        3.9530     1.9850     0.0010 C.ar  1 <1>   0.0820 
 10 O        5.1830     2.5580    -0.0130 O.3   1 <1>  -0.3630 
 11 C        6.3560     1.7840    -0.0020 C.3   1 <1>   0.1200 
 12 C        7.5410     2.7530    -0.0250 C.3   1 <1>  -0.1600 
 13 C        8.8870     2.0150    -0.0160 C.3   1 <1>  -0.1600 
 14 C       10.0410     3.0150    -0.0400 C.3   1 <1>   0.3430 
 15 N       11.3270     2.2770    -0.0320 N.4   1 <1>  -0.9060 
 16 C       12.4950     3.2070    -0.0540 C.3   1 <1>   0.3430 
 17 C       13.8290     2.4490    -0.0460 C.3   1 <1>   0.1200 
 18 O       14.8380     3.3930    -0.0680 O.3   1 <1>  -0.6800 
 19 H        4.5650    -0.0770     0.0410 H     1 <1>   0.1500 
 20 H        1.6650    -1.6720     0.9540 H     1 <1>   0.0800 
 21 H        3.1510    -1.9410     0.0810 H     1 <1>   0.0800 
 22 H        1.6610    -1.7070    -0.7940 H     1 <1>   0.0800 
 23 H        3.0570     3.9070    -0.0350 H     1 <1>   0.1500 
 24 H       -0.2120     3.1480    -0.8870 H     1 <1>   0.0800 
 25 H        0.7320     4.3460    -0.0380 H     1 <1>   0.0800 
 26 H       -0.2080     3.1830     0.8620 H     1 <1>   0.0800 
 27 H        6.3530     1.1540    -0.8750 H     1 <1>   0.0800 
 28 H        6.3590     1.1880     0.8940 H     1 <1>   0.0800 
 29 H        7.4710     3.3950     0.8370 H     1 <1>   0.0800 
 30 H        7.4640     3.3610    -0.9110 H     1 <1>   0.0800 
 31 H        8.9390     1.3760    -0.8810 H     1 <1>   0.0800 
 32 H        8.9460     1.4090     0.8720 H     1 <1>   0.0800 
 33 H        9.9790     3.6600     0.8230 H     1 <1>   0.0800 
 34 H        9.9710     3.6260    -0.9260 H     1 <1>   0.0800 
 35 H       11.3630     1.6540    -0.8490 H     1 <1>   0.4500 
 36 H       11.3700     1.6850     0.8080 H     1 <1>   0.4500 
 37 H       12.4630     3.8520     0.8090 H     1 <1>   0.0800 
 38 H       12.4550     3.8200    -0.9400 H     1 <1>   0.0800 
 39 H       13.9340     1.8300    -0.9200 H     1 <1>   0.0800 
 40 H       13.9420     1.8630     0.8510 H     1 <1>   0.0800 
 41 H       15.7290     2.9790    -0.0640 H     1 <1>   0.4000 
@<TRIPOS>BOND
  1   1   2  1   
  2   2   3  ar  
  3   2   4  ar  
  4   3   5  ar  
  5   3   6  1   
  6   4   7  ar  
  7   4   8  1   
  8   5   9  ar  
  9   5  19  1   
 10   6  20  1   
 11   6  21  1   
 12   6  22  1   
 13   7   9  ar  
 14   7  23  1   
 15   8  24  1   
 16   8  25  1   
 17   8  26  1   
 18   9  10  1   
 19  10  11  1   
 20  11  12  1   
 21  11  27  1   
 22  11  28  1   
 23  12  13  1   
 24  12  29  1   
 25  12  30  1   
 26  13  14  1   
 27  13  31  1   
 28  13  32  1   
 29  14  15  1   
 30  14  33  1   
 31  14  34  1   
 32  15  16  1   
 33  15  35  1   
 34  15  36  1   
 35  16  17  1   
 36  16  37  1   
 37  16  38  1   
 38  17  18  1   
 39  17  39  1   
 40  17  40  1   
 41  18  41  1   
@<TRIPOS>SUBSTRUCTURE
  1 ****  11 GROUP 4 **** **** 0

# MOE 2024.06 (io_trps.svl 2023.06)
