@<TRIPOS>MOLECULE
NONAME
45 46 1 0 0 
SMALL
USER_CHARGES


@<TRIPOS>ATOM
  1 O        0.1960    -0.3120    -0.5850 O.2   1 <1>  -0.5700 
  2 C        0.8200     0.7230    -0.5870 C.2   1 <1>   0.5690 
  3 N        0.2970     1.9220    -0.1860 N.am  1 <1>  -0.5470 
  4 C        2.2790     0.7020    -1.0480 C.3   1 <1>   0.2610 
  5 C       -0.9750     2.2340     0.3200 C.ar  1 <1>   0.1170 
  6 O        3.0260     1.6500    -0.2980 O.3   1 <1>  -0.3630 
  7 C        2.4330     1.0580    -2.5310 C.3   1 <1>  -0.2400 
  8 C       -1.0680     2.8220     1.5840 C.ar  1 <1>  -0.1440 
  9 C       -2.1430     2.0040    -0.4160 C.ar  1 <1>  -0.1430 
 10 C        4.2260     1.2490     0.1730 C.ar  1 <1>   0.0820 
 11 C       -2.3080     3.1530     2.1040 C.ar  1 <1>  -0.1500 
 12 C        0.1750     3.1040     2.4200 C.3   1 <1>  -0.0970 
 13 C       -3.3730     2.3380     0.1250 C.ar  1 <1>  -0.1500 
 14 C       -2.1200     1.4000    -1.8150 C.3   1 <1>  -0.0970 
 15 C        4.3340     0.3520     1.2340 C.ar  1 <1>  -0.1430 
 16 C        5.3610     1.7700    -0.4280 C.ar  1 <1>  -0.1500 
 17 C       -3.4590     2.9100     1.3800 C.ar  1 <1>  -0.1500 
 18 C        5.5970    -0.0290     1.6560 C.ar  1 <1>  -0.1500 
 19 C        3.1140    -0.2140     1.9510 C.3   1 <1>  -0.0970 
 20 C        6.6200     1.3880     0.0030 C.ar  1 <1>  -0.1430 
 21 C        6.7310     0.4820     1.0450 C.ar  1 <1>  -0.1500 
 22 C        7.8690     1.9460    -0.6540 C.3   1 <1>  -0.0970 
 23 H        0.9990     2.6530    -0.0670 H     1 <1>   0.3700 
 24 H        2.6800    -0.2800    -0.8700 H     1 <1>   0.0800 
 25 H        2.0580     2.0480    -2.7200 H     1 <1>   0.0800 
 26 H        1.8750     0.3590    -3.1280 H     1 <1>   0.0800 
 27 H        3.4670     1.0010    -2.8190 H     1 <1>   0.0800 
 28 H       -2.3890     3.6010     3.0790 H     1 <1>   0.1500 
 29 H        0.6930     2.1840     2.6230 H     1 <1>   0.0800 
 30 H       -0.0840     3.5570     3.3600 H     1 <1>   0.0800 
 31 H        0.8350     3.7700     1.8950 H     1 <1>   0.0800 
 32 H       -4.2760     2.1540    -0.4290 H     1 <1>   0.1500 
 33 H       -1.2790     1.7680    -2.3740 H     1 <1>   0.0800 
 34 H       -3.0140     1.6530    -2.3550 H     1 <1>   0.0800 
 35 H       -2.0530     0.3300    -1.7470 H     1 <1>   0.0800 
 36 H        5.2480     2.4720    -1.2330 H     1 <1>   0.1500 
 37 H       -4.4200     3.1650     1.7910 H     1 <1>   0.1500 
 38 H        5.7100    -0.7260     2.4670 H     1 <1>   0.1500 
 39 H        2.7290    -1.0630     1.4150 H     1 <1>   0.0800 
 40 H        2.3430     0.5300     2.0250 H     1 <1>   0.0800 
 41 H        3.3710    -0.5260     2.9470 H     1 <1>   0.0800 
 42 H        7.7020     0.1720     1.3870 H     1 <1>   0.1500 
 43 H        7.6340     2.8100    -1.2490 H     1 <1>   0.0800 
 44 H        8.3120     1.2000    -1.2880 H     1 <1>   0.0800 
 45 H        8.5830     2.2350     0.0960 H     1 <1>   0.0800 
@<TRIPOS>BOND
  1   1   2  2   
  2   2   3  am  
  3   2   4  1   
  4   3   5  1   
  5   3  23  1   
  6   4   6  1   
  7   4   7  1   
  8   4  24  1   
  9   5   8  ar  
 10   5   9  ar  
 11   6  10  1   
 12   7  25  1   
 13   7  26  1   
 14   7  27  1   
 15   8  11  ar  
 16   8  12  1   
 17   9  13  ar  
 18   9  14  1   
 19  10  15  ar  
 20  10  16  ar  
 21  11  17  ar  
 22  11  28  1   
 23  12  29  1   
 24  12  30  1   
 25  12  31  1   
 26  13  17  ar  
 27  13  32  1   
 28  14  33  1   
 29  14  34  1   
 30  14  35  1   
 31  15  18  ar  
 32  15  19  1   
 33  16  20  ar  
 34  16  36  1   
 35  17  37  1   
 36  18  21  ar  
 37  18  38  1   
 38  19  39  1   
 39  19  40  1   
 40  19  41  1   
 41  20  21  ar  
 42  20  22  1   
 43  21  42  1   
 44  22  43  1   
 45  22  44  1   
 46  22  45  1   
@<TRIPOS>SUBSTRUCTURE
  1 ****   6 GROUP 4 **** **** 0

# MOE 2024.06 (io_trps.svl 2023.06)
