@<TRIPOS>MOLECULE
NONAME
50 52 1 0 0 
SMALL
USER_CHARGES


@<TRIPOS>ATOM
  1 N        0.6940    -0.0300    -0.1920 N.3   1 <1>  -0.8100 
  2 C        0.2930    -1.1800    -1.0440 C.3   1 <1>   0.1100 
  3 C        1.5900     0.8840    -0.9340 C.3   1 <1>   0.1100 
  4 C       -0.4720     0.6810     0.3700 C.3   1 <1>   0.2540 
  5 C        1.5090    -1.9200    -1.6510 C.3   1 <1>   0.3430 
  6 C        2.8420     0.1580    -1.4900 C.3   1 <1>   0.3430 
  7 C       -1.3130    -0.2560     1.2240 C.ar  1 <1>  -0.1440 
  8 N        2.7980    -1.3110    -1.1940 N.4   1 <1>  -0.9590 
  9 C       -0.7760    -0.8240     2.3700 C.ar  1 <1>  -0.1500 
 10 C       -2.6200    -0.5550     0.8680 C.ar  1 <1>  -0.1500 
 11 C        3.9990    -2.0640    -1.6130 C.3   1 <1>   0.4810 
 12 C       -1.5320    -1.6820     3.1490 C.ar  1 <1>  -0.1500 
 13 C       -3.3780    -1.4140     1.6460 C.ar  1 <1>  -0.1500 
 14 C        5.1910    -1.5140    -0.8520 C.2   1 <1>  -0.2760 
 15 C       -2.8340    -1.9780     2.7860 C.ar  1 <1>  -0.1500 
 16 C        5.3660    -1.7500     0.4630 C.2   1 <1>  -0.1780 
 17 C        6.1630    -0.7230    -1.7260 C.3   1 <1>  -0.1020 
 18 C        6.4260    -1.2950     1.3310 C.ar  1 <1>   0.0280 
 19 C        7.1440    -2.2070     2.0970 C.ar  1 <1>  -0.1500 
 20 C        6.7490     0.0540     1.4480 C.ar  1 <1>  -0.1500 
 21 C        8.1570    -1.7910     2.9420 C.ar  1 <1>  -0.1500 
 22 C        7.7610     0.4770     2.2910 C.ar  1 <1>  -0.1500 
 23 C        8.4680    -0.4470     3.0400 C.ar  1 <1>  -0.1500 
 24 H       -0.2680    -1.8870    -0.4560 H     1 <1>   0.0800 
 25 H       -0.3500    -0.8430    -1.8380 H     1 <1>   0.0800 
 26 H        1.0550     1.3390    -1.7510 H     1 <1>   0.0800 
 27 H        1.9140     1.6760    -0.2800 H     1 <1>   0.0800 
 28 H       -0.1320     1.4940     0.9900 H     1 <1>   0.0800 
 29 H       -1.0710     1.0950    -0.4240 H     1 <1>   0.0800 
 30 H        1.4440    -1.8830    -2.7260 H     1 <1>   0.0800 
 31 H        1.4650    -2.9550    -1.3550 H     1 <1>   0.0800 
 32 H        3.7190     0.5920    -1.0380 H     1 <1>   0.0800 
 33 H        2.9050     0.3210    -2.5520 H     1 <1>   0.0800 
 34 H        2.7470    -1.3410    -0.1640 H     1 <1>   0.4500 
 35 H        0.2370    -0.5970     2.6550 H     1 <1>   0.1500 
 36 H       -3.0580    -0.1220    -0.0140 H     1 <1>   0.1500 
 37 H        3.8770    -3.1070    -1.3660 H     1 <1>   0.0800 
 38 H        4.1530    -1.9790    -2.6760 H     1 <1>   0.0800 
 39 H       -1.1090    -2.1180     4.0370 H     1 <1>   0.1500 
 40 H       -4.3920    -1.6420     1.3660 H     1 <1>   0.1500 
 41 H       -3.4240    -2.6440     3.3920 H     1 <1>   0.1500 
 42 H        4.6580    -2.3620     0.9960 H     1 <1>   0.1500 
 43 H        6.4730    -1.3170    -2.5680 H     1 <1>   0.0800 
 44 H        7.0520    -0.4570    -1.1820 H     1 <1>   0.0800 
 45 H        5.7110     0.1810    -2.0910 H     1 <1>   0.0800 
 46 H        6.9120    -3.2550     2.0280 H     1 <1>   0.1500 
 47 H        6.2020     0.7810     0.8770 H     1 <1>   0.1500 
 48 H        8.7040    -2.5120     3.5250 H     1 <1>   0.1500 
 49 H        8.0010     1.5230     2.3680 H     1 <1>   0.1500 
 50 H        9.2560    -0.1210     3.6960 H     1 <1>   0.1500 
@<TRIPOS>BOND
  1   1   2  1   
  2   1   3  1   
  3   1   4  1   
  4   2   5  1   
  5   2  24  1   
  6   2  25  1   
  7   3   6  1   
  8   3  26  1   
  9   3  27  1   
 10   4   7  1   
 11   4  28  1   
 12   4  29  1   
 13   5   8  1   
 14   5  30  1   
 15   5  31  1   
 16   6   8  1   
 17   6  32  1   
 18   6  33  1   
 19   7   9  ar  
 20   7  10  ar  
 21   8  11  1   
 22   8  34  1   
 23   9  12  ar  
 24   9  35  1   
 25  10  13  ar  
 26  10  36  1   
 27  11  14  1   
 28  11  37  1   
 29  11  38  1   
 30  12  15  ar  
 31  12  39  1   
 32  13  15  ar  
 33  13  40  1   
 34  14  16  2   
 35  14  17  1   
 36  15  41  1   
 37  16  18  1   
 38  16  42  1   
 39  17  43  1   
 40  17  44  1   
 41  17  45  1   
 42  18  19  ar  
 43  18  20  ar  
 44  19  21  ar  
 45  19  46  1   
 46  20  22  ar  
 47  20  47  1   
 48  21  23  ar  
 49  21  48  1   
 50  22  23  ar  
 51  22  49  1   
 52  23  50  1   
@<TRIPOS>SUBSTRUCTURE
  1 ****   8 GROUP 4 **** **** 0

# MOE 2024.06 (io_trps.svl 2023.06)
