@<TRIPOS>MOLECULE
NONAME
39 40 1 0 0 
SMALL
USER_CHARGES


@<TRIPOS>ATOM
  1 O       -0.2390    -2.1460     3.2480 O.co2 1 <1>  -0.9000 
  2 C       -0.7910    -3.1570     2.7700 C.2   1 <1>   1.0320 
  3 O       -0.5220    -4.2730     3.2480 O.co2 1 <1>  -0.9000 
  4 C       -1.7450    -2.9720     1.6880 C.2   1 <1>  -0.0920 
  5 O       -2.4810    -3.9480     1.1620 O.3   1 <1>  -0.2800 
  6 C       -2.0660    -1.8190     1.0520 C.2   1 <1>  -0.1500 
  7 C       -3.2740    -3.4610     0.2280 C.2   1 <1>  -0.0400 
  8 C       -3.0680    -2.1240     0.1270 C.2   1 <1>  -0.1810 
  9 C       -4.2020    -4.4710    -0.4670 C.3   1 <1>   0.1800 
 10 C       -3.7220    -1.0480    -0.6990 C.3   1 <1>   0.5240 
 11 C       -5.0690    -3.8330    -1.5610 C.3   1 <1>  -0.2400 
 12 C       -5.1290    -5.1040     0.5800 C.3   1 <1>  -0.2400 
 13 C       -3.3480    -5.5710    -1.1120 C.3   1 <1>  -0.2400 
 14 N       -4.3980    -0.1330     0.2550 N.4   1 <1>  -0.9590 
 15 C       -5.4020    -0.8170     1.1060 C.3   1 <1>   0.3430 
 16 C       -5.0660     1.0340    -0.3530 C.3   1 <1>   0.3430 
 17 C       -6.2650     0.3130     1.6500 C.3   1 <1>  -0.1600 
 18 C       -6.0250     1.5150     0.7270 C.3   1 <1>  -0.1600 
 19 H       -1.6120    -0.8650     1.2590 H     1 <1>   0.1500 
 20 H       -4.4350    -1.4670    -1.3860 H     1 <1>   0.0800 
 21 H       -2.9690    -0.5180    -1.2590 H     1 <1>   0.0800 
 22 H       -5.6770    -4.5850    -2.0330 H     1 <1>   0.0800 
 23 H       -5.7270    -3.0940    -1.1430 H     1 <1>   0.0800 
 24 H       -4.4500    -3.3880    -2.3180 H     1 <1>   0.0800 
 25 H       -5.7230    -4.3500     1.0630 H     1 <1>   0.0800 
 26 H       -4.5470    -5.6030     1.3360 H     1 <1>   0.0800 
 27 H       -5.7830    -5.8270     0.1270 H     1 <1>   0.0800 
 28 H       -2.6710    -5.1450    -1.8310 H     1 <1>   0.0800 
 29 H       -3.9650    -6.3010    -1.6050 H     1 <1>   0.0800 
 30 H       -2.7610    -6.0750    -0.3630 H     1 <1>   0.0800 
 31 H       -3.6660     0.1910     0.9020 H     1 <1>   0.4500 
 32 H       -4.9310    -1.3840     1.8960 H     1 <1>   0.0800 
 33 H       -6.0040    -1.4790     0.5050 H     1 <1>   0.0800 
 34 H       -5.6260     0.7240    -1.2210 H     1 <1>   0.0800 
 35 H       -4.3600     1.8000    -0.6320 H     1 <1>   0.0800 
 36 H       -5.9640     0.5460     2.6570 H     1 <1>   0.0800 
 37 H       -7.3000     0.0180     1.6630 H     1 <1>   0.0800 
 38 H       -6.9410     1.8720     0.2880 H     1 <1>   0.0800 
 39 H       -5.5740     2.3220     1.2780 H     1 <1>   0.0800 
@<TRIPOS>BOND
  1   1   2  ar  
  2   2   3  ar  
  3   2   4  1   
  4   4   5  1   
  5   4   6  2   
  6   5   7  1   
  7   6   8  1   
  8   6  19  1   
  9   7   8  2   
 10   7   9  1   
 11   8  10  1   
 12   9  11  1   
 13   9  12  1   
 14   9  13  1   
 15  10  14  1   
 16  10  20  1   
 17  10  21  1   
 18  11  22  1   
 19  11  23  1   
 20  11  24  1   
 21  12  25  1   
 22  12  26  1   
 23  12  27  1   
 24  13  28  1   
 25  13  29  1   
 26  13  30  1   
 27  14  15  1   
 28  14  16  1   
 29  14  31  1   
 30  15  17  1   
 31  15  32  1   
 32  15  33  1   
 33  16  18  1   
 34  16  34  1   
 35  16  35  1   
 36  17  18  1   
 37  17  36  1   
 38  17  37  1   
 39  18  38  1   
 40  18  39  1   
@<TRIPOS>SUBSTRUCTURE
  1 ****   8 GROUP 4 **** **** 0

# MOE 2024.06 (io_trps.svl 2023.06)
