@<TRIPOS>MOLECULE
NONAME
28 29 1 0 0 
SMALL
USER_CHARGES


@<TRIPOS>ATOM
  1 S       -0.4660     0.5310    -0.0430 S.3   1 <1>  -0.3320 
  2 C        1.2240     1.0650    -0.2350 C.ar  1 <1>   0.7220 
  3 C       -1.4140     1.5800    -1.2550 C.3   1 <1>   0.1310 
  4 N        2.0900     0.4420     0.5430 N.ar  1 <1>  -0.6200 
  5 N        1.4280     2.0200    -1.1300 N.ar  1 <1>  -0.6200 
  6 C       -2.9010     1.2640    -1.2360 C.2   1 <1>   0.5690 
  7 C        3.3350     0.8340     0.4040 C.ar  1 <1>   0.1660 
  8 C        2.6850     2.3880    -1.2440 C.ar  1 <1>   0.1600 
  9 O       -3.6240     1.8820    -1.9820 O.2   1 <1>  -0.5700 
 10 N       -3.3740     0.3080    -0.3910 N.am  1 <1>  -0.5790 
 11 C        3.6860     1.8190    -0.4920 C.ar  1 <1>  -0.1500 
 12 C        4.3700     0.1520     1.2730 C.3   1 <1>  -0.0970 
 13 C       -4.7730    -0.1140    -0.2510 C.3   1 <1>   0.0490 
 14 C       -5.2500    -0.5120     1.1050 C.3   1 <1>  -0.2000 
 15 C       -5.0440    -1.5510     0.0440 C.3   1 <1>  -0.2000 
 16 H       -1.0080     1.3890    -2.2310 H     1 <1>   0.0800 
 17 H       -1.2500     2.6070    -0.9870 H     1 <1>   0.0800 
 18 H        2.9220     3.1620    -1.9550 H     1 <1>   0.1500 
 19 H       -2.7030    -0.1750     0.2120 H     1 <1>   0.3700 
 20 H        4.7060     2.1380    -0.6040 H     1 <1>   0.1500 
 21 H        4.3690    -0.9040     1.0720 H     1 <1>   0.0800 
 22 H        4.1280     0.3060     2.3090 H     1 <1>   0.0800 
 23 H        5.3540     0.5410     1.0840 H     1 <1>   0.0800 
 24 H       -5.4480     0.4190    -0.9040 H     1 <1>   0.1000 
 25 H       -6.2590    -0.2660     1.3880 H     1 <1>   0.1000 
 26 H       -4.5640    -0.4620     1.9320 H     1 <1>   0.1000 
 27 H       -4.2130    -2.2290     0.1280 H     1 <1>   0.1000 
 28 H       -5.9120    -2.0110    -0.3950 H     1 <1>   0.1000 
@<TRIPOS>BOND
  1   1   2  1   
  2   1   3  1   
  3   2   4  ar  
  4   2   5  ar  
  5   3   6  1   
  6   3  16  1   
  7   3  17  1   
  8   4   7  ar  
  9   5   8  ar  
 10   6   9  2   
 11   6  10  am  
 12   7  11  ar  
 13   7  12  1   
 14   8  11  ar  
 15   8  18  1   
 16  10  13  1   
 17  10  19  1   
 18  11  20  1   
 19  12  21  1   
 20  12  22  1   
 21  12  23  1   
 22  13  14  1   
 23  13  15  1   
 24  13  24  1   
 25  14  15  1   
 26  14  25  1   
 27  14  26  1   
 28  15  27  1   
 29  15  28  1   
@<TRIPOS>SUBSTRUCTURE
  1 ****   1 GROUP 4 **** **** 0

# MOE 2024.06 (io_trps.svl 2023.06)
