@<TRIPOS>MOLECULE
NONAME
38 39 1 0 0 
SMALL
USER_CHARGES


@<TRIPOS>ATOM
  1 S        0.1120     0.0660     0.1220 S.o2  1 <1>   1.3330 
  2 O        0.3290    -1.1880    -0.5630 O.2   1 <1>  -0.6500 
  3 O       -0.2900     0.0690     1.5110 O.2   1 <1>  -0.6500 
  4 N        1.5410     0.9740     0.0100 N.am  1 <1>  -0.8490 
  5 C       -1.0580     1.0290    -0.8480 C.3   1 <1>  -0.0550 
  6 C        2.7290     0.1310     0.2300 C.3   1 <1>   0.1960 
  7 C        1.5480     2.1150     0.9340 C.3   1 <1>   0.1960 
  8 C       -2.4670     0.4160    -0.9360 C.3   1 <1>  -0.2400 
  9 C        4.0160     0.9240    -0.0470 C.3   1 <1>  -0.0190 
 10 C        2.7730     2.9960     0.6730 C.3   1 <1>  -0.1600 
 11 C        5.2440     0.0550     0.1740 C.2   1 <1>   0.6590 
 12 C        4.0740     2.1960     0.8190 C.3   1 <1>  -0.1600 
 13 O        5.2440    -0.8460     0.9720 O.2   1 <1>  -0.5700 
 14 O        6.3080     0.3880    -0.5560 O.3   1 <1>  -0.2330 
 15 C        7.5370    -0.1970    -0.5990 C.ar  1 <1>   0.0820 
 16 C        7.8010    -1.5190    -0.2360 C.ar  1 <1>   0.1600 
 17 C        8.5830     0.5850    -1.0480 C.ar  1 <1>  -0.1500 
 18 N        8.9970    -2.0910    -0.2840 N.ar  1 <1>  -0.6200 
 19 C        9.8310     0.0030    -1.1010 C.ar  1 <1>  -0.1500 
 20 C        9.9820    -1.3180    -0.7120 C.ar  1 <1>   0.1600 
 21 H       -0.6710     1.1370    -1.8430 H     1 <1>   0.0800 
 22 H       -1.1430     2.0110    -0.4250 H     1 <1>   0.0800 
 23 H        2.7050    -0.7170    -0.4350 H     1 <1>   0.0800 
 24 H        2.7270    -0.2420     1.2420 H     1 <1>   0.0800 
 25 H        1.5620     1.7620     1.9540 H     1 <1>   0.0800 
 26 H        0.6570     2.7040     0.7980 H     1 <1>   0.0800 
 27 H       -2.4170    -0.5600    -1.3870 H     1 <1>   0.0800 
 28 H       -3.1110     1.0400    -1.5290 H     1 <1>   0.0800 
 29 H       -2.8900     0.3170     0.0500 H     1 <1>   0.0800 
 30 H        4.0010     1.2070    -1.0840 H     1 <1>   0.0800 
 31 H        2.7750     3.8170     1.3680 H     1 <1>   0.0800 
 32 H        2.7020     3.4060    -0.3200 H     1 <1>   0.0800 
 33 H        4.9130     2.8060     0.5290 H     1 <1>   0.0800 
 34 H        4.2040     1.9180     1.8520 H     1 <1>   0.0800 
 35 H        6.9970    -2.1470     0.1020 H     1 <1>   0.1500 
 36 H        8.4260     1.6070    -1.3440 H     1 <1>   0.1500 
 37 H       10.6840     0.5640    -1.4400 H     1 <1>   0.1500 
 38 H       10.9620    -1.7620    -0.7570 H     1 <1>   0.1500 
@<TRIPOS>BOND
  1   1   2  2   
  2   1   3  2   
  3   1   4  am  
  4   1   5  1   
  5   4   6  1   
  6   4   7  1   
  7   5   8  1   
  8   5  21  1   
  9   5  22  1   
 10   6   9  1   
 11   6  23  1   
 12   6  24  1   
 13   7  10  1   
 14   7  25  1   
 15   7  26  1   
 16   8  27  1   
 17   8  28  1   
 18   8  29  1   
 19   9  11  1   
 20   9  12  1   
 21   9  30  1   
 22  10  12  1   
 23  10  31  1   
 24  10  32  1   
 25  11  13  2   
 26  11  14  1   
 27  12  33  1   
 28  12  34  1   
 29  14  15  1   
 30  15  16  ar  
 31  15  17  ar  
 32  16  18  ar  
 33  16  35  1   
 34  17  19  ar  
 35  17  36  1   
 36  18  20  ar  
 37  19  20  ar  
 38  19  37  1   
 39  20  38  1   
@<TRIPOS>SUBSTRUCTURE
  1 ****   9 GROUP 4 **** **** 0

# MOE 2024.06 (io_trps.svl 2023.06)
