@<TRIPOS>MOLECULE
NONAME
47 48 1 0 0 
SMALL
USER_CHARGES


@<TRIPOS>ATOM
  1 CL      -0.0400    -0.6810     1.5160 Cl    1 <1>  -0.1770 
  2 C       -1.0540    -1.8140     0.6590 C.ar  1 <1>   0.1770 
  3 C       -2.4260    -1.6980     0.7520 C.ar  1 <1>  -0.1500 
  4 C       -0.4630    -2.8080    -0.1000 C.ar  1 <1>  -0.1500 
  5 C       -3.2400    -2.5940     0.0740 C.ar  1 <1>   0.1000 
  6 C       -1.2710    -3.7050    -0.7790 C.ar  1 <1>  -0.1500 
  7 N       -4.6210    -2.4730     0.1710 N.pl3 1 <1>  -0.8380 
  8 C       -2.6480    -3.5960    -0.6910 C.ar  1 <1>  -0.1500 
  9 C       -5.3310    -3.5740     0.8880 C.3   1 <1>   0.2090 
 10 C       -5.3250    -1.9900    -1.0540 C.3   1 <1>   0.2090 
 11 C       -6.7880    -3.1750     1.2030 C.3   1 <1>   0.3430 
 12 C       -6.7850    -1.6010    -0.7360 C.3   1 <1>   0.3430 
 13 N       -7.5280    -2.6990    -0.0220 N.4   1 <1>  -0.9590 
 14 C       -8.9610    -2.3720     0.2520 C.3   1 <1>   0.3430 
 15 C       -9.7890    -3.6710     0.3470 C.3   1 <1>   0.2000 
 16 O       -9.2600    -4.6170    -0.5330 O.3   1 <1>  -0.6800 
 17 C      -11.2720    -3.4730     0.0030 C.3   1 <1>   0.1200 
 18 O      -11.8400    -4.7350    -0.1910 O.3   1 <1>  -0.5600 
 19 C      -13.1940    -4.7470    -0.5050 C.3   1 <1>   0.2000 
 20 C      -14.0000    -4.7070     0.7920 C.3   1 <1>  -0.2400 
 21 C      -13.4500    -6.0380    -1.2740 C.3   1 <1>  -0.2400 
 22 H       -2.8610    -0.9190     1.3470 H     1 <1>   0.1500 
 23 H        0.6080    -2.8750    -0.1540 H     1 <1>   0.1500 
 24 H       -0.8260    -4.4850    -1.3740 H     1 <1>   0.1500 
 25 H       -3.2690    -4.2950    -1.2200 H     1 <1>   0.1500 
 26 H       -4.8130    -3.7890     1.8070 H     1 <1>   0.0800 
 27 H       -5.3210    -4.4660     0.2860 H     1 <1>   0.0800 
 28 H       -5.3090    -2.7580    -1.8080 H     1 <1>   0.0800 
 29 H       -4.8040    -1.1320    -1.4460 H     1 <1>   0.0800 
 30 H       -6.7680    -2.3900     1.9400 H     1 <1>   0.0800 
 31 H       -7.2960    -4.0230     1.6310 H     1 <1>   0.0800 
 32 H       -7.2890    -1.3540    -1.6550 H     1 <1>   0.0800 
 33 H       -6.7670    -0.7180    -0.1180 H     1 <1>   0.0800 
 34 H       -7.5980    -3.5230    -0.6510 H     1 <1>   0.4500 
 35 H       -9.3530    -1.7870    -0.5630 H     1 <1>   0.0800 
 36 H       -9.0600    -1.7930     1.1550 H     1 <1>   0.0800 
 37 H       -9.7180    -4.0780     1.3410 H     1 <1>   0.0800 
 38 H       -9.9800    -5.2790    -0.6900 H     1 <1>   0.4000 
 39 H      -11.3800    -2.9070    -0.9070 H     1 <1>   0.0800 
 40 H      -11.7840    -2.9710     0.8050 H     1 <1>   0.0800 
 41 H      -13.4280    -3.9020    -1.1330 H     1 <1>   0.0800 
 42 H      -13.7170    -5.5230     1.4330 H     1 <1>   0.0800 
 43 H      -15.0480    -4.8010     0.5700 H     1 <1>   0.0800 
 44 H      -13.8560    -3.7780     1.3090 H     1 <1>   0.0800 
 45 H      -13.2000    -6.8920    -0.6700 H     1 <1>   0.0800 
 46 H      -12.8630    -6.0540    -2.1740 H     1 <1>   0.0800 
 47 H      -14.4880    -6.1040    -1.5460 H     1 <1>   0.0800 
@<TRIPOS>BOND
  1   1   2  1   
  2   2   3  ar  
  3   2   4  ar  
  4   3   5  ar  
  5   3  22  1   
  6   4   6  ar  
  7   4  23  1   
  8   5   7  1   
  9   5   8  ar  
 10   6   8  ar  
 11   6  24  1   
 12   7   9  1   
 13   7  10  1   
 14   8  25  1   
 15   9  11  1   
 16   9  26  1   
 17   9  27  1   
 18  10  12  1   
 19  10  28  1   
 20  10  29  1   
 21  11  13  1   
 22  11  30  1   
 23  11  31  1   
 24  12  13  1   
 25  12  32  1   
 26  12  33  1   
 27  13  14  1   
 28  13  34  1   
 29  14  15  1   
 30  14  35  1   
 31  14  36  1   
 32  15  16  1   
 33  15  17  1   
 34  15  37  1   
 35  16  38  1   
 36  17  18  1   
 37  17  39  1   
 38  17  40  1   
 39  18  19  1   
 40  19  20  1   
 41  19  21  1   
 42  19  41  1   
 43  20  42  1   
 44  20  43  1   
 45  20  44  1   
 46  21  45  1   
 47  21  46  1   
 48  21  47  1   
@<TRIPOS>SUBSTRUCTURE
  1 ****  13 GROUP 4 **** **** 0

# MOE 2024.06 (io_trps.svl 2023.06)
