@<TRIPOS>MOLECULE
NONAME
33 34 1 0 0 
SMALL
USER_CHARGES


@<TRIPOS>ATOM
  1 O       -1.4000    -2.1300    -1.7220 O.2   1 <1>  -0.5700 
  2 C       -1.6060    -1.0770    -1.1670 C.2   1 <1>   0.5690 
  3 N       -2.5140    -0.8710    -0.1900 N.am  1 <1>  -0.6600 
  4 C       -0.8250     0.1760    -1.4460 C.3   1 <1>  -0.0990 
  5 C       -2.4260     0.4720     0.4010 C.3   1 <1>   0.1400 
  6 C       -3.3510    -1.9400     0.4420 C.3   1 <1>   0.2010 
  7 C       -1.5050     1.2370    -0.5610 C.3   1 <1>  -0.1600 
  8 C       -2.5460    -2.8940     1.3250 C.2   1 <1>   0.5690 
  9 O       -2.8110    -2.9810     2.5010 O.2   1 <1>  -0.5700 
 10 N       -1.5540    -3.6190     0.7570 N.am  1 <1>  -0.7300 
 11 C       -0.7020    -4.6040     1.4360 C.3   1 <1>   0.2840 
 12 C       -0.4230    -5.7480     0.4770 C.ar  1 <1>  -0.1440 
 13 C       -0.9880    -6.9970     0.6880 C.ar  1 <1>  -0.1500 
 14 C        0.3990    -5.5510    -0.6240 C.ar  1 <1>  -0.1500 
 15 C       -0.7300    -8.0380    -0.1860 C.ar  1 <1>  -0.1500 
 16 C        0.6560    -6.5920    -1.4990 C.ar  1 <1>  -0.1500 
 17 C        0.0930    -7.8370    -1.2800 C.ar  1 <1>  -0.1500 
 18 H       -0.8780     0.4280    -2.4890 H     1 <1>   0.0800 
 19 H        0.1980     0.0230    -1.1540 H     1 <1>   0.0800 
 20 H       -1.9890     0.4040     1.3830 H     1 <1>   0.0800 
 21 H       -3.4000     0.9290     0.4610 H     1 <1>   0.0800 
 22 H       -3.8180    -2.5180    -0.3350 H     1 <1>   0.0800 
 23 H       -4.1270    -1.4880     1.0320 H     1 <1>   0.0800 
 24 H       -2.1040     1.8890    -1.1730 H     1 <1>   0.0800 
 25 H       -0.7880     1.8320    -0.0240 H     1 <1>   0.0800 
 26 H       -1.3480    -3.4650    -0.2420 H     1 <1>   0.3700 
 27 H       -1.1940    -4.9630     2.3240 H     1 <1>   0.0800 
 28 H        0.2230    -4.1360     1.7240 H     1 <1>   0.0800 
 29 H       -1.6340    -7.1620     1.5330 H     1 <1>   0.1500 
 30 H        0.8370    -4.5850    -0.8050 H     1 <1>   0.1500 
 31 H       -1.1720    -9.0040    -0.0160 H     1 <1>   0.1500 
 32 H        1.2930    -6.4310    -2.3520 H     1 <1>   0.1500 
 33 H        0.2920    -8.6450    -1.9610 H     1 <1>   0.1500 
@<TRIPOS>BOND
  1   1   2  2   
  2   2   3  am  
  3   2   4  1   
  4   3   5  1   
  5   3   6  1   
  6   4   7  1   
  7   4  18  1   
  8   4  19  1   
  9   5   7  1   
 10   5  20  1   
 11   5  21  1   
 12   6   8  1   
 13   6  22  1   
 14   6  23  1   
 15   7  24  1   
 16   7  25  1   
 17   8   9  2   
 18   8  10  am  
 19  10  11  1   
 20  10  26  1   
 21  11  12  1   
 22  11  27  1   
 23  11  28  1   
 24  12  13  ar  
 25  12  14  ar  
 26  13  15  ar  
 27  13  29  1   
 28  14  16  ar  
 29  14  30  1   
 30  15  17  ar  
 31  15  31  1   
 32  16  17  ar  
 33  16  32  1   
 34  17  33  1   
@<TRIPOS>SUBSTRUCTURE
  1 ****  10 GROUP 4 **** **** 0

# MOE 2024.06 (io_trps.svl 2023.06)
