@<TRIPOS>MOLECULE
NONAME
41 43 1 0 0 
SMALL
USER_CHARGES


@<TRIPOS>ATOM
  1 CL       0.6280     0.5090     1.4850 Cl    1 <1>  -0.1230 
  2 C        1.9910     0.6960     0.3910 C.2   1 <1>   0.1230 
  3 C        1.9560     1.2960    -0.8580 C.2   1 <1>   0.1080 
  4 C        3.2580     0.2840     0.5870 C.2   1 <1>  -0.3320 
  5 N        3.1240     1.2630    -1.4220 N.2   1 <1>  -0.7070 
  6 C        0.7490     1.9140    -1.5280 C.3   1 <1>  -0.0590 
  7 N        3.9450     0.6550    -0.5290 N.pl3 1 <1>   0.6010 
  8 C        3.8260    -0.4660     1.7850 C.3   1 <1>  -0.0600 
  9 C        5.2820     0.3840    -0.8890 C.2   1 <1>  -0.1810 
 10 C        6.3830     0.5930    -0.1420 C.2   1 <1>   0.1770 
 11 O        6.4120     1.1300     1.0950 O.3   1 <1>  -0.0140 
 12 N        7.6930     0.3430    -0.4600 N.pl3 1 <1>  -0.5500 
 13 N        7.6740     1.2410     1.5160 N.2   1 <1>  -0.5130 
 14 C        8.4400     0.7920     0.5990 C.2   1 <1>   0.4140 
 15 C        9.8890     0.7540     0.6070 C.ar  1 <1>   0.0860 
 16 C       10.6110    -0.0580    -0.2670 C.ar  1 <1>  -0.1500 
 17 C       10.6230     1.5350     1.4960 C.ar  1 <1>  -0.1500 
 18 C       11.9930    -0.0900    -0.2770 C.ar  1 <1>   0.0820 
 19 C       12.0060     1.5250     1.5020 C.ar  1 <1>  -0.1500 
 20 O       12.5310    -0.9440    -1.1940 O.3   1 <1>  -0.3630 
 21 C       12.7160     0.7230     0.6120 C.ar  1 <1>   0.0820 
 22 C       13.7630    -1.5910    -0.9620 C.3   1 <1>   0.0400 
 23 O       14.0790     0.7310     0.5820 O.3   1 <1>  -0.3620 
 24 C       14.8480     1.6120     1.3710 C.3   1 <1>   0.0400 
 25 H       -0.0840     1.9550    -0.8520 H     1 <1>   0.0800 
 26 H        0.4770     1.3290    -2.3870 H     1 <1>   0.0800 
 27 H        0.9890     2.9110    -1.8490 H     1 <1>   0.0800 
 28 H        3.0300    -0.8720     2.3830 H     1 <1>   0.0800 
 29 H        4.4020     0.1990     2.4040 H     1 <1>   0.0800 
 30 H        4.4550    -1.2760     1.4620 H     1 <1>   0.0800 
 31 H        5.3550    -0.0110    -1.8810 H     1 <1>   0.1500 
 32 H        8.0530     0.3140    -1.4130 H     1 <1>   0.4000 
 33 H       10.0920    -0.6960    -0.9570 H     1 <1>   0.1500 
 34 H       10.0950     2.1640     2.1930 H     1 <1>   0.1500 
 35 H       12.5090     2.1550     2.2110 H     1 <1>   0.1500 
 36 H       13.8190    -2.4470    -1.6100 H     1 <1>   0.0800 
 37 H       13.8100    -1.9020     0.0670 H     1 <1>   0.0800 
 38 H       14.5620    -0.9090    -1.1920 H     1 <1>   0.0800 
 39 H       15.8850     1.4560     1.1310 H     1 <1>   0.0800 
 40 H       14.6780     1.3910     2.4100 H     1 <1>   0.0800 
 41 H       14.5690     2.6250     1.1380 H     1 <1>   0.0800 
@<TRIPOS>BOND
  1   1   2  1   
  2   2   3  1   
  3   2   4  2   
  4   3   5  2   
  5   3   6  1   
  6   4   7  1   
  7   4   8  1   
  8   5   7  1   
  9   6  25  1   
 10   6  26  1   
 11   6  27  1   
 12   7   9  1   
 13   8  28  1   
 14   8  29  1   
 15   8  30  1   
 16   9  10  2   
 17   9  31  1   
 18  10  11  1   
 19  10  12  1   
 20  11  13  1   
 21  12  14  1   
 22  12  32  1   
 23  13  14  2   
 24  14  15  1   
 25  15  16  ar  
 26  15  17  ar  
 27  16  18  ar  
 28  16  33  1   
 29  17  19  ar  
 30  17  34  1   
 31  18  20  1   
 32  18  21  ar  
 33  19  21  ar  
 34  19  35  1   
 35  20  22  1   
 36  21  23  1   
 37  22  36  1   
 38  22  37  1   
 39  22  38  1   
 40  23  24  1   
 41  24  39  1   
 42  24  40  1   
 43  24  41  1   
@<TRIPOS>SUBSTRUCTURE
  1 ****  12 GROUP 4 **** **** 0

# MOE 2024.06 (io_trps.svl 2023.06)
