@<TRIPOS>MOLECULE
NONAME
48 51 1 0 0 
SMALL
USER_CHARGES


@<TRIPOS>ATOM
  1 O       -0.5960    -0.2150    -0.9880 O.2   1 <1>  -0.5700 
  2 C       -1.7110     0.1000    -0.6330 C.2   1 <1>   0.6900 
  3 N       -2.0620     1.3850    -0.3470 N.am  1 <1>  -0.5470 
  4 N       -2.6300    -0.8850    -0.5380 N.am  1 <1>  -0.7300 
  5 C       -1.3570     2.6000    -0.3000 C.ar  1 <1>   0.1170 
  6 C       -4.0590    -0.8920    -0.1840 C.3   1 <1>   0.3000 
  7 C       -2.0630     3.8110    -0.3020 C.ar  1 <1>  -0.1430 
  8 C        0.0330     2.6300    -0.2290 C.ar  1 <1>  -0.1500 
  9 C       -4.2820    -0.3510     1.2430 C.3   1 <1>  -0.1600 
 10 C       -4.5400    -2.3540    -0.2350 C.3   1 <1>  -0.1600 
 11 C       -4.8760    -0.0720    -1.2020 C.3   1 <1>  -0.1600 
 12 C       -1.3560     5.0070    -0.2420 C.ar  1 <1>  -0.1500 
 13 C       -3.5970     3.7880    -0.3800 C.3   1 <1>  -0.0170 
 14 C        0.7220     3.8250    -0.1710 C.ar  1 <1>  -0.1500 
 15 C       -5.7800    -0.4110     1.5990 C.3   1 <1>  -0.0800 
 16 C       -6.0380    -2.4390     0.1190 C.3   1 <1>  -0.0800 
 17 C       -6.3730    -0.1300    -0.8440 C.3   1 <1>  -0.0800 
 18 C        0.0250     5.0170    -0.1770 C.ar  1 <1>  -0.1500 
 19 C       -4.2990     5.1500    -0.3260 C.3   1 <1>  -0.2400 
 20 C       -6.2540    -1.8750     1.5360 C.3   1 <1>  -0.1600 
 21 C       -6.5780     0.4250     0.5790 C.3   1 <1>  -0.1600 
 22 C       -6.8440    -1.5960    -0.8870 C.3   1 <1>  -0.1600 
 23 H       -3.0520     1.4640    -0.1560 H     1 <1>   0.3700 
 24 H       -2.2560    -1.8000    -0.7820 H     1 <1>   0.3700 
 25 H        0.5920     1.7140    -0.2160 H     1 <1>   0.1500 
 26 H       -3.9520     0.6660     1.3290 H     1 <1>   0.0800 
 27 H       -3.7210    -0.9420     1.9450 H     1 <1>   0.0800 
 28 H       -3.9770    -2.9480     0.4630 H     1 <1>   0.0800 
 29 H       -4.3870    -2.7560    -1.2210 H     1 <1>   0.0800 
 30 H       -4.5630     0.9540    -1.2080 H     1 <1>   0.0800 
 31 H       -4.7270    -0.4690    -2.1910 H     1 <1>   0.0800 
 32 H       -1.8590     5.9550    -0.2450 H     1 <1>   0.1500 
 33 H       -3.9720     3.1960     0.4370 H     1 <1>   0.0800 
 34 H       -3.8800     3.3050    -1.2990 H     1 <1>   0.0800 
 35 H        1.7960     3.8250    -0.1200 H     1 <1>   0.1500 
 36 H       -5.9340    -0.0230     2.5920 H     1 <1>   0.0800 
 37 H       -6.3660    -3.4640     0.0810 H     1 <1>   0.0800 
 38 H       -6.9410     0.4540    -1.5490 H     1 <1>   0.0800 
 39 H        0.5570     5.9520    -0.1320 H     1 <1>   0.1500 
 40 H       -4.0620     5.6600     0.5910 H     1 <1>   0.0800 
 41 H       -5.3640     5.0140    -0.3730 H     1 <1>   0.0800 
 42 H       -4.0000     5.7600    -1.1610 H     1 <1>   0.0800 
 43 H       -5.7110    -2.4670     2.2520 H     1 <1>   0.0800 
 44 H       -7.2980    -1.9310     1.7940 H     1 <1>   0.0800 
 45 H       -6.2630     1.4530     0.6210 H     1 <1>   0.0800 
 46 H       -7.6250     0.3980     0.8310 H     1 <1>   0.0800 
 47 H       -7.8920    -1.6500    -0.6500 H     1 <1>   0.0800 
 48 H       -6.7160    -1.9920    -1.8800 H     1 <1>   0.0800 
@<TRIPOS>BOND
  1   1   2  2   
  2   2   3  am  
  3   2   4  am  
  4   3   5  1   
  5   3  23  1   
  6   4   6  1   
  7   4  24  1   
  8   5   7  ar  
  9   5   8  ar  
 10   6   9  1   
 11   6  10  1   
 12   6  11  1   
 13   7  12  ar  
 14   7  13  1   
 15   8  14  ar  
 16   8  25  1   
 17   9  15  1   
 18   9  26  1   
 19   9  27  1   
 20  10  16  1   
 21  10  28  1   
 22  10  29  1   
 23  11  17  1   
 24  11  30  1   
 25  11  31  1   
 26  12  18  ar  
 27  12  32  1   
 28  13  19  1   
 29  13  33  1   
 30  13  34  1   
 31  14  18  ar  
 32  14  35  1   
 33  15  20  1   
 34  15  21  1   
 35  15  36  1   
 36  16  20  1   
 37  16  22  1   
 38  16  37  1   
 39  17  21  1   
 40  17  22  1   
 41  17  38  1   
 42  18  39  1   
 43  19  40  1   
 44  19  41  1   
 45  19  42  1   
 46  20  43  1   
 47  20  44  1   
 48  21  45  1   
 49  21  46  1   
 50  22  47  1   
 51  22  48  1   
@<TRIPOS>SUBSTRUCTURE
  1 ****   3 GROUP 4 **** **** 0

# MOE 2024.06 (io_trps.svl 2023.06)
