@<TRIPOS>MOLECULE
NONAME
51 53 1 0 0 
SMALL
USER_CHARGES


@<TRIPOS>ATOM
  1 O        0.0230    -1.3200     0.6040 O.3   1 <1>  -0.3630 
  2 C       -1.2160    -1.8700     0.6090 C.ar  1 <1>   0.0830 
  3 C        0.3690    -0.5390    -0.5210 C.3   1 <1>   0.2640 
  4 C       -1.6510    -2.7840    -0.3570 C.ar  1 <1>   0.0830 
  5 C       -2.0750    -1.4910     1.6260 C.ar  1 <1>  -0.1500 
  6 C        1.6490     0.2290    -0.2240 C.ar  1 <1>  -0.1440 
  7 O       -0.8510    -3.2350    -1.3520 O.3   1 <1>  -0.3630 
  8 C       -2.9490    -3.2650    -0.3120 C.ar  1 <1>  -0.1500 
  9 C       -3.3670    -1.9860     1.6690 C.ar  1 <1>  -0.1500 
 10 C        1.7020     1.6040    -0.4050 C.ar  1 <1>  -0.1500 
 11 C        2.7800    -0.4390     0.2220 C.ar  1 <1>  -0.1500 
 12 C        0.2100    -4.0780    -0.9590 C.3   1 <1>   0.0400 
 13 C       -3.8150    -2.8690     0.6970 C.ar  1 <1>  -0.1430 
 14 C        2.8700     2.3000    -0.1450 C.ar  1 <1>  -0.1500 
 15 C        3.9490     0.2560     0.4820 C.ar  1 <1>  -0.1500 
 16 C       -5.2410    -3.3970     0.7420 C.3   1 <1>   0.2530 
 17 C        3.9940     1.6270     0.2980 C.ar  1 <1>  -0.1500 
 18 N       -6.2050    -2.3090     0.4820 N.3   1 <1>  -0.8100 
 19 C       -6.0080    -1.6940    -0.8580 C.3   1 <1>   0.1100 
 20 C       -7.6030    -2.7680     0.6450 C.3   1 <1>   0.1100 
 21 C       -7.0530    -0.5960    -1.1700 C.3   1 <1>   0.3430 
 22 C       -8.6250    -1.6230     0.4270 C.3   1 <1>   0.3430 
 23 N       -7.9440    -0.3520     0.0110 N.4   1 <1>  -0.9590 
 24 C       -8.8790     0.7940    -0.1730 C.3   1 <1>   0.2630 
 25 H       -0.4440     0.1350    -0.7250 H     1 <1>   0.0800 
 26 H        0.5180    -1.1880    -1.3640 H     1 <1>   0.0800 
 27 H       -1.7280    -0.8050     2.3780 H     1 <1>   0.1500 
 28 H       -3.2660    -3.9550    -1.0730 H     1 <1>   0.1500 
 29 H       -4.0290    -1.6780     2.4600 H     1 <1>   0.1500 
 30 H        0.8350     2.1400    -0.7480 H     1 <1>   0.1500 
 31 H        2.7490    -1.5040     0.3720 H     1 <1>   0.1500 
 32 H        0.7240    -4.4080    -1.8440 H     1 <1>   0.0800 
 33 H       -0.1950    -4.9230    -0.4310 H     1 <1>   0.0800 
 34 H        0.8850    -3.5320    -0.3250 H     1 <1>   0.0800 
 35 H        2.9030     3.3660    -0.2870 H     1 <1>   0.1500 
 36 H        4.8200    -0.2700     0.8300 H     1 <1>   0.1500 
 37 H       -5.4210    -3.8110     1.7200 H     1 <1>   0.0800 
 38 H       -5.3680    -4.1850     0.0180 H     1 <1>   0.0800 
 39 H        4.9020     2.1670     0.5000 H     1 <1>   0.1500 
 40 H       -6.0520    -2.4520    -1.6220 H     1 <1>   0.0800 
 41 H       -5.0280    -1.2480    -0.9070 H     1 <1>   0.0800 
 42 H       -7.7360    -3.1650     1.6380 H     1 <1>   0.0800 
 43 H       -7.8100    -3.5630    -0.0510 H     1 <1>   0.0800 
 44 H       -7.6430    -0.9000    -2.0190 H     1 <1>   0.0800 
 45 H       -6.5360     0.3110    -1.4370 H     1 <1>   0.0800 
 46 H       -9.1660    -1.4620     1.3450 H     1 <1>   0.0800 
 47 H       -9.3370    -1.9250    -0.3240 H     1 <1>   0.0800 
 48 H       -7.2780    -0.1670     0.7810 H     1 <1>   0.4500 
 49 H       -9.5660     0.5920    -0.9780 H     1 <1>   0.0800 
 50 H       -8.3290     1.6920    -0.4040 H     1 <1>   0.0800 
 51 H       -9.4440     0.9630     0.7300 H     1 <1>   0.0800 
@<TRIPOS>BOND
  1   1   2  1   
  2   1   3  1   
  3   2   4  ar  
  4   2   5  ar  
  5   3   6  1   
  6   3  25  1   
  7   3  26  1   
  8   4   7  1   
  9   4   8  ar  
 10   5   9  ar  
 11   5  27  1   
 12   6  10  ar  
 13   6  11  ar  
 14   7  12  1   
 15   8  13  ar  
 16   8  28  1   
 17   9  13  ar  
 18   9  29  1   
 19  10  14  ar  
 20  10  30  1   
 21  11  15  ar  
 22  11  31  1   
 23  12  32  1   
 24  12  33  1   
 25  12  34  1   
 26  13  16  1   
 27  14  17  ar  
 28  14  35  1   
 29  15  17  ar  
 30  15  36  1   
 31  16  18  1   
 32  16  37  1   
 33  16  38  1   
 34  17  39  1   
 35  18  19  1   
 36  18  20  1   
 37  19  21  1   
 38  19  40  1   
 39  19  41  1   
 40  20  22  1   
 41  20  42  1   
 42  20  43  1   
 43  21  23  1   
 44  21  44  1   
 45  21  45  1   
 46  22  23  1   
 47  22  46  1   
 48  22  47  1   
 49  23  24  1   
 50  23  48  1   
 51  24  49  1   
 52  24  50  1   
 53  24  51  1   
@<TRIPOS>SUBSTRUCTURE
  1 ****   2 GROUP 4 **** **** 0

# MOE 2024.06 (io_trps.svl 2023.06)
