@<TRIPOS>MOLECULE
NONAME
40 42 1 0 0 
SMALL
USER_CHARGES


@<TRIPOS>ATOM
  1 F        0.5570     0.8520    -0.7120 F     1 <1>  -0.3400 
  2 C        1.5460     1.4420    -0.0510 C.3   1 <1>   1.1640 
  3 F        1.8480     2.5380    -0.7390 F     1 <1>  -0.3400 
  4 F        1.0320     1.8560     1.0990 F     1 <1>  -0.3400 
  5 C        2.7530     0.5150     0.1610 C.ar  1 <1>  -0.1440 
  6 C        4.0570     0.9940     0.0730 C.ar  1 <1>  -0.1500 
  7 C        2.5590    -0.8300     0.4560 C.ar  1 <1>  -0.1500 
  8 C        5.1570     0.1660     0.2630 C.ar  1 <1>   0.1170 
  9 C        3.6420    -1.6680     0.6520 C.ar  1 <1>  -0.1500 
 10 N        6.4390     0.7240     0.1650 N.am  1 <1>  -0.5470 
 11 C        4.9280    -1.1740     0.5580 C.ar  1 <1>  -0.1500 
 12 C        7.6660     0.1740    -0.0830 C.2   1 <1>   0.6900 
 13 O        7.7980    -1.0240    -0.2520 O.2   1 <1>  -0.5700 
 14 N        8.7610     1.0010    -0.1400 N.am  1 <1>  -0.6600 
 15 C       10.1340     0.4070    -0.1620 C.3   1 <1>   0.1400 
 16 C        8.6600     2.4880    -0.2790 C.3   1 <1>   0.1400 
 17 C       11.1240     1.3450     0.5260 C.3   1 <1>  -0.1600 
 18 C        9.9020     3.0500    -0.9640 C.3   1 <1>  -0.1600 
 19 C       11.1560     2.7210    -0.1570 C.3   1 <1>   0.5600 
 20 O       12.2540     2.8170    -1.0000 O.3   1 <1>  -0.5600 
 21 O       11.3390     3.7100     0.7990 O.3   1 <1>  -0.5600 
 22 C       13.3070     3.4050    -0.3210 C.3   1 <1>   0.1200 
 23 C       12.6930     3.9170     0.9680 C.3   1 <1>   0.1200 
 24 H        4.2320     2.0310    -0.1520 H     1 <1>   0.1500 
 25 H        1.5630    -1.2360     0.5350 H     1 <1>   0.1500 
 26 H        3.4860    -2.7090     0.8790 H     1 <1>   0.1500 
 27 H        6.4870     1.7270     0.2910 H     1 <1>   0.3700 
 28 H        5.7570    -1.8390     0.7200 H     1 <1>   0.1500 
 29 H       10.4300     0.2390    -1.1840 H     1 <1>   0.0800 
 30 H       10.1310    -0.5430     0.3460 H     1 <1>   0.0800 
 31 H        8.5600     2.9280     0.6990 H     1 <1>   0.0800 
 32 H        7.7950     2.7420    -0.8670 H     1 <1>   0.0800 
 33 H       12.1020     0.9020     0.5170 H     1 <1>   0.0800 
 34 H       10.8110     1.4570     1.5480 H     1 <1>   0.0800 
 35 H        9.8170     4.1150    -1.0780 H     1 <1>   0.0800 
 36 H        9.9780     2.6120    -1.9430 H     1 <1>   0.0800 
 37 H       13.7000     4.2060    -0.9210 H     1 <1>   0.0800 
 38 H       14.0680     2.6670    -0.1370 H     1 <1>   0.0800 
 39 H       13.0310     3.3500     1.8170 H     1 <1>   0.0800 
 40 H       12.8770     4.9660     1.1210 H     1 <1>   0.0800 
@<TRIPOS>BOND
  1   1   2  1   
  2   2   3  1   
  3   2   4  1   
  4   2   5  1   
  5   5   6  ar  
  6   5   7  ar  
  7   6   8  ar  
  8   6  24  1   
  9   7   9  ar  
 10   7  25  1   
 11   8  10  1   
 12   8  11  ar  
 13   9  11  ar  
 14   9  26  1   
 15  10  12  am  
 16  10  27  1   
 17  11  28  1   
 18  12  13  2   
 19  12  14  am  
 20  14  15  1   
 21  14  16  1   
 22  15  17  1   
 23  15  29  1   
 24  15  30  1   
 25  16  18  1   
 26  16  31  1   
 27  16  32  1   
 28  17  19  1   
 29  17  33  1   
 30  17  34  1   
 31  18  19  1   
 32  18  35  1   
 33  18  36  1   
 34  19  20  1   
 35  19  21  1   
 36  20  22  1   
 37  21  23  1   
 38  22  23  1   
 39  22  37  1   
 40  22  38  1   
 41  23  39  1   
 42  23  40  1   
@<TRIPOS>SUBSTRUCTURE
  1 ****  10 GROUP 4 **** **** 0

# MOE 2024.06 (io_trps.svl 2023.06)
