@<TRIPOS>MOLECULE
NONAME
48 49 1 0 0 
SMALL
USER_CHARGES


@<TRIPOS>ATOM
  1 O        0.8650     2.0300    -1.9090 O.2   1 <1>  -0.5700 
  2 C        0.2220     2.5030    -0.9900 C.2   1 <1>   0.5440 
  3 N        0.8830     2.9170     0.1520 N.am  1 <1>  -0.6600 
  4 C       -1.2160     2.6240    -1.1340 C.ar  1 <1>   0.0860 
  5 C        0.3070     3.9170     1.0940 C.3   1 <1>   0.1400 
  6 C        2.3340     2.6280     0.3290 C.3   1 <1>   0.1400 
  7 C       -2.0970     2.0800    -0.2020 C.ar  1 <1>  -0.1500 
  8 C       -1.7760     3.2900    -2.2220 C.ar  1 <1>  -0.1500 
  9 C        0.1440     3.3130     2.4870 C.3   1 <1>  -0.2400 
 10 C        2.5120     1.2080     0.8600 C.3   1 <1>  -0.2400 
 11 C       -3.4650     2.2190    -0.3340 C.ar  1 <1>  -0.1500 
 12 C       -3.1450     3.4280    -2.3550 C.ar  1 <1>  -0.1500 
 13 C       -4.0310     2.9070    -1.4100 C.ar  1 <1>   0.0860 
 14 C       -5.4650     3.0750    -1.5620 C.2   1 <1>   0.3980 
 15 O       -5.9370     3.3030    -2.6580 O.2   1 <1>  -0.5700 
 16 C       -6.3580     2.9630    -0.4320 C.ar  1 <1>   0.0860 
 17 C       -6.1800     3.7020     0.7460 C.ar  1 <1>   0.0830 
 18 C       -7.4450     2.0910    -0.4900 C.ar  1 <1>  -0.1500 
 19 O       -5.1790     4.5970     0.8640 O.3   1 <1>  -0.3630 
 20 C       -7.0230     3.5320     1.8320 C.ar  1 <1>  -0.1500 
 21 C       -8.3020     1.9280     0.5900 C.ar  1 <1>   0.0830 
 22 C       -5.3700     5.8490     0.2400 C.3   1 <1>   0.0400 
 23 C       -8.0810     2.6470     1.7540 C.ar  1 <1>  -0.1500 
 24 O       -9.3720     1.0910     0.5880 O.3   1 <1>  -0.3630 
 25 C       -9.7470     0.3930    -0.5800 C.3   1 <1>   0.0400 
 26 H       -0.6490     4.2610     0.7400 H     1 <1>   0.0800 
 27 H        0.9570     4.7740     1.1420 H     1 <1>   0.0800 
 28 H        2.7730     3.3340     1.0130 H     1 <1>   0.0800 
 29 H        2.8410     2.7270    -0.6170 H     1 <1>   0.0800 
 30 H       -1.6920     1.5390     0.6340 H     1 <1>   0.1500 
 31 H       -1.1180     3.6980    -2.9700 H     1 <1>   0.1500 
 32 H       -0.4530     2.4220     2.4450 H     1 <1>   0.0800 
 33 H       -0.3440     4.0210     3.1310 H     1 <1>   0.0800 
 34 H        1.1030     3.0800     2.9130 H     1 <1>   0.0800 
 35 H        2.0140     1.0890     1.8050 H     1 <1>   0.0800 
 36 H        3.5580     1.0000     0.9930 H     1 <1>   0.0800 
 37 H        2.1130     0.5000     0.1550 H     1 <1>   0.0800 
 38 H       -4.1030     1.7820     0.4140 H     1 <1>   0.1500 
 39 H       -3.5430     3.9480    -3.2100 H     1 <1>   0.1500 
 40 H       -7.5930     1.5460    -1.4040 H     1 <1>   0.1500 
 41 H       -6.8510     4.0960     2.7310 H     1 <1>   0.1500 
 42 H       -4.5070     6.4590     0.4390 H     1 <1>   0.0800 
 43 H       -6.2510     6.3110     0.6500 H     1 <1>   0.0800 
 44 H       -5.4820     5.7060    -0.8200 H     1 <1>   0.0800 
 45 H       -8.7440     2.5090     2.5900 H     1 <1>   0.1500 
 46 H      -10.6380    -0.1670    -0.3620 H     1 <1>   0.0800 
 47 H       -8.9540    -0.2780    -0.8580 H     1 <1>   0.0800 
 48 H       -9.9450     1.1030    -1.3640 H     1 <1>   0.0800 
@<TRIPOS>BOND
  1   1   2  2   
  2   2   3  am  
  3   2   4  1   
  4   3   5  1   
  5   3   6  1   
  6   4   7  ar  
  7   4   8  ar  
  8   5   9  1   
  9   5  26  1   
 10   5  27  1   
 11   6  10  1   
 12   6  28  1   
 13   6  29  1   
 14   7  11  ar  
 15   7  30  1   
 16   8  12  ar  
 17   8  31  1   
 18   9  32  1   
 19   9  33  1   
 20   9  34  1   
 21  10  35  1   
 22  10  36  1   
 23  10  37  1   
 24  11  13  ar  
 25  11  38  1   
 26  12  13  ar  
 27  12  39  1   
 28  13  14  1   
 29  14  15  2   
 30  14  16  1   
 31  16  17  ar  
 32  16  18  ar  
 33  17  19  1   
 34  17  20  ar  
 35  18  21  ar  
 36  18  40  1   
 37  19  22  1   
 38  20  23  ar  
 39  20  41  1   
 40  21  23  ar  
 41  21  24  1   
 42  22  42  1   
 43  22  43  1   
 44  22  44  1   
 45  23  45  1   
 46  24  25  1   
 47  25  46  1   
 48  25  47  1   
 49  25  48  1   
@<TRIPOS>SUBSTRUCTURE
  1 ****  11 GROUP 4 **** **** 0

# MOE 2024.06 (io_trps.svl 2023.06)
