@<TRIPOS>MOLECULE
NONAME
54 56 1 0 0 
SMALL
USER_CHARGES


@<TRIPOS>ATOM
  1 O       -0.9150    -0.0600     1.2500 O.2   1 <1>  -0.5700 
  2 C       -1.7180     0.6980     0.7400 C.2   1 <1>   0.5440 
  3 N       -2.6940     0.2070    -0.1120 N.am  1 <1>  -0.6600 
  4 C       -1.6330     2.1010     1.0790 C.ar  1 <1>   0.0860 
  5 C       -2.9800    -1.2390    -0.3330 C.3   1 <1>   0.2200 
  6 C       -3.6550     1.1210    -0.8070 C.3   1 <1>   0.3200 
  7 C       -1.1020     3.0430     0.1950 C.ar  1 <1>   0.0820 
  8 C       -2.0840     2.5480     2.3200 C.ar  1 <1>  -0.1500 
  9 C       -3.3680    -1.9250     0.9770 C.3   1 <1>  -0.2400 
 10 C       -1.8050    -1.9260    -1.0290 C.3   1 <1>  -0.2400 
 11 C       -4.9920     1.1730    -0.0850 C.2   1 <1>   0.2980 
 12 O       -0.6800     2.6330    -1.0230 O.3   1 <1>  -0.3630 
 13 C       -1.0330     4.3950     0.5360 C.ar  1 <1>   0.0820 
 14 C       -2.0200     3.8830     2.6680 C.ar  1 <1>  -0.1500 
 15 O       -5.0410     1.7360     1.0930 O.3   1 <1>  -0.0190 
 16 N       -6.0950     0.7100    -0.5140 N.2   1 <1>  -0.5650 
 17 C        0.6730     2.2520    -1.1110 C.3   1 <1>   0.0400 
 18 O       -0.5080     5.2600    -0.3780 O.3   1 <1>  -0.3630 
 19 C       -1.4960     4.8080     1.7810 C.ar  1 <1>  -0.1500 
 20 N       -6.2810     1.6190     1.4480 N.2   1 <1>  -0.4100 
 21 C       -6.9090     1.0120     0.5040 C.2   1 <1>   0.4620 
 22 C       -0.4510     6.6480    -0.1380 C.3   1 <1>   0.0400 
 23 C       -8.3240     0.6750     0.5070 C.ar  1 <1>   0.0540 
 24 C       -8.9310     0.0370    -0.5770 C.ar  1 <1>  -0.1500 
 25 C       -9.1360     0.9800     1.6010 C.ar  1 <1>  -0.1500 
 26 C      -10.2780    -0.2860    -0.5770 C.ar  1 <1>  -0.1430 
 27 C      -10.4820     0.6640     1.6130 C.ar  1 <1>  -0.1500 
 28 C      -11.0540     0.0310     0.5240 C.ar  1 <1>  -0.1500 
 29 C      -10.9110    -0.9790    -1.7700 C.3   1 <1>  -0.0970 
 30 H       -3.8290    -1.3230    -0.9920 H     1 <1>   0.0800 
 31 H       -3.8110     0.7690    -1.8110 H     1 <1>   0.0800 
 32 H       -3.2640     2.1180    -0.8830 H     1 <1>   0.0800 
 33 H       -2.4890     1.8300     3.0130 H     1 <1>   0.1500 
 34 H       -2.5370    -1.9600     1.6570 H     1 <1>   0.0800 
 35 H       -3.6810    -2.9330     0.7800 H     1 <1>   0.0800 
 36 H       -4.1850    -1.4010     1.4410 H     1 <1>   0.0800 
 37 H       -0.9470    -1.9710    -0.3840 H     1 <1>   0.0800 
 38 H       -1.5460    -1.3950    -1.9260 H     1 <1>   0.0800 
 39 H       -2.0770    -2.9310    -1.2930 H     1 <1>   0.0800 
 40 H       -2.3780     4.2050     3.6320 H     1 <1>   0.1500 
 41 H        0.8750     1.9570    -2.1250 H     1 <1>   0.0800 
 42 H        0.8490     1.4250    -0.4450 H     1 <1>   0.0800 
 43 H        1.2880     3.0920    -0.8400 H     1 <1>   0.0800 
 44 H       -1.4590     5.8380     2.0810 H     1 <1>   0.1500 
 45 H       -0.0230     7.1190    -1.0040 H     1 <1>   0.0800 
 46 H        0.1700     6.8290     0.7210 H     1 <1>   0.0800 
 47 H       -1.4490     7.0160     0.0210 H     1 <1>   0.0800 
 48 H       -8.3320    -0.2100    -1.4360 H     1 <1>   0.1500 
 49 H       -8.7070     1.4720     2.4560 H     1 <1>   0.1500 
 50 H      -11.0860     0.9100     2.4690 H     1 <1>   0.1500 
 51 H      -12.1020    -0.2120     0.5380 H     1 <1>   0.1500 
 52 H      -10.1590    -1.3550    -2.4390 H     1 <1>   0.0800 
 53 H      -11.5340    -0.2860    -2.3050 H     1 <1>   0.0800 
 54 H      -11.5150    -1.8060    -1.4390 H     1 <1>   0.0800 
@<TRIPOS>BOND
  1   1   2  2   
  2   2   3  am  
  3   2   4  1   
  4   3   5  1   
  5   3   6  1   
  6   4   7  ar  
  7   4   8  ar  
  8   5   9  1   
  9   5  10  1   
 10   5  30  1   
 11   6  11  1   
 12   6  31  1   
 13   6  32  1   
 14   7  12  1   
 15   7  13  ar  
 16   8  14  ar  
 17   8  33  1   
 18   9  34  1   
 19   9  35  1   
 20   9  36  1   
 21  10  37  1   
 22  10  38  1   
 23  10  39  1   
 24  11  15  1   
 25  11  16  2   
 26  12  17  1   
 27  13  18  1   
 28  13  19  ar  
 29  14  19  ar  
 30  14  40  1   
 31  15  20  1   
 32  16  21  1   
 33  17  41  1   
 34  17  42  1   
 35  17  43  1   
 36  18  22  1   
 37  19  44  1   
 38  20  21  2   
 39  21  23  1   
 40  22  45  1   
 41  22  46  1   
 42  22  47  1   
 43  23  24  ar  
 44  23  25  ar  
 45  24  26  ar  
 46  24  48  1   
 47  25  27  ar  
 48  25  49  1   
 49  26  28  ar  
 50  26  29  1   
 51  27  28  ar  
 52  27  50  1   
 53  28  51  1   
 54  29  52  1   
 55  29  53  1   
 56  29  54  1   
@<TRIPOS>SUBSTRUCTURE
  1 ****  11 GROUP 4 **** **** 0

# MOE 2024.06 (io_trps.svl 2023.06)
