@<TRIPOS>MOLECULE
NONAME
35 36 1 0 0 
SMALL
USER_CHARGES


@<TRIPOS>ATOM
  1 S        0.0750     0.0850     1.3170 S.3   1 <1>  -0.0800 
  2 C        0.1710    -1.4810     0.5310 C.2   1 <1>  -0.1400 
  3 C       -1.6560    -0.0350     1.4620 C.2   1 <1>  -0.1100 
  4 C       -1.0640    -2.0270     0.4010 C.2   1 <1>  -0.1810 
  5 C        1.6020    -1.8620     0.1880 C.3   1 <1>  -0.0600 
  6 C       -2.1200    -1.1880     0.9330 C.2   1 <1>  -0.0010 
  7 C       -1.5000    -3.3680    -0.2040 C.3   1 <1>   0.0210 
  8 C       -3.5210    -1.5360     0.8820 C.2   1 <1>   0.1870 
  9 C       -0.4250    -4.2130    -0.8880 C.3   1 <1>  -0.2400 
 10 N       -4.0940    -2.5220     1.5180 N.2   1 <1>  -0.3380 
 11 N       -4.4240    -0.8600     0.1470 N.pl3 1 <1>   0.0480 
 12 N       -5.3910    -2.5120     1.2070 N.2   1 <1>  -0.3380 
 13 C       -5.5470    -1.5230     0.4020 C.2   1 <1>   0.2430 
 14 C       -4.2110     0.2990    -0.7440 C.3   1 <1>   0.0160 
 15 S       -7.1280    -1.0720    -0.3170 S.3   1 <1>  -0.2860 
 16 C       -8.2630    -2.3920     0.3390 C.3   1 <1>   0.1310 
 17 C       -9.6930    -2.1830    -0.1340 C.2   1 <1>   0.5690 
 18 O      -10.4320    -3.1300    -0.2150 O.2   1 <1>  -0.5700 
 19 N      -10.1450    -0.9540    -0.4520 N.am  1 <1>  -0.8000 
 20 H       -2.1680     0.7810     1.9380 H     1 <1>   0.1500 
 21 H        2.0180    -1.1280    -0.4790 H     1 <1>   0.0800 
 22 H        1.6830    -2.8190    -0.2790 H     1 <1>   0.0800 
 23 H        2.1920    -1.8780     1.0860 H     1 <1>   0.0800 
 24 H       -2.2700    -3.1760    -0.9310 H     1 <1>   0.0800 
 25 H       -1.9420    -3.9630     0.5770 H     1 <1>   0.0800 
 26 H        0.0540    -3.6500    -1.6680 H     1 <1>   0.0800 
 27 H       -0.8770    -5.0840    -1.3270 H     1 <1>   0.0800 
 28 H        0.3010    -4.5440    -0.1670 H     1 <1>   0.0800 
 29 H       -3.1990     0.2970    -1.1080 H     1 <1>   0.0800 
 30 H       -4.3940     1.2060    -0.1970 H     1 <1>   0.0800 
 31 H       -4.8840     0.2420    -1.5800 H     1 <1>   0.0800 
 32 H       -8.2130    -2.3550     1.4110 H     1 <1>   0.0800 
 33 H       -7.8870    -3.3360    -0.0090 H     1 <1>   0.0800 
 34 H      -11.1050    -0.8360    -0.7780 H     1 <1>   0.3700 
 35 H       -9.5480    -0.1260    -0.4540 H     1 <1>   0.3700 
@<TRIPOS>BOND
  1   1   2  1   
  2   1   3  1   
  3   2   4  2   
  4   2   5  1   
  5   3   6  2   
  6   3  20  1   
  7   4   6  1   
  8   4   7  1   
  9   5  21  1   
 10   5  22  1   
 11   5  23  1   
 12   6   8  1   
 13   7   9  1   
 14   7  24  1   
 15   7  25  1   
 16   8  10  2   
 17   8  11  1   
 18   9  26  1   
 19   9  27  1   
 20   9  28  1   
 21  10  12  1   
 22  11  13  1   
 23  11  14  1   
 24  12  13  2   
 25  13  15  1   
 26  14  29  1   
 27  14  30  1   
 28  14  31  1   
 29  15  16  1   
 30  16  17  1   
 31  16  32  1   
 32  16  33  1   
 33  17  18  2   
 34  17  19  am  
 35  19  34  1   
 36  19  35  1   
@<TRIPOS>SUBSTRUCTURE
  1 ****   8 GROUP 4 **** **** 0

# MOE 2024.06 (io_trps.svl 2023.06)
