@<TRIPOS>MOLECULE
NONAME
39 41 1 0 0 
SMALL
USER_CHARGES


@<TRIPOS>ATOM
  1 BR      -0.3440     4.2950    -2.6310 Br    1 <1>  -0.1110 
  2 C        0.4760     3.7300    -0.9810 C.ar  1 <1>   0.1110 
  3 C       -0.3150     3.1580     0.0140 C.ar  1 <1>   0.0530 
  4 C        1.8370     3.9190    -0.8470 C.ar  1 <1>  -0.1500 
  5 C       -1.7360     2.9870    -0.1290 C.2   1 <1>   0.1330 
  6 C        0.3380     2.7600     1.1780 C.ar  1 <1>  -0.1500 
  7 C        2.4550     3.5220     0.3260 C.ar  1 <1>  -0.1500 
  8 N       -2.3220     1.9330    -0.6290 N.2   1 <1>  -0.3380 
  9 N       -2.6480     3.9000     0.2550 N.pl3 1 <1>   0.0480 
 10 C        1.7030     2.9410     1.3350 C.ar  1 <1>  -0.1500 
 11 N       -3.6380     2.1390    -0.5850 N.2   1 <1>  -0.3380 
 12 C       -3.7920     3.3020    -0.0600 C.2   1 <1>   0.2430 
 13 C       -2.4360     5.2080     0.9160 C.3   1 <1>   0.0960 
 14 S       -5.3970     4.0490     0.2270 S.3   1 <1>  -0.2860 
 15 C       -2.4460     6.3500    -0.1040 C.3   1 <1>  -0.2400 
 16 C       -6.5700     2.7370    -0.3820 C.3   1 <1>   0.1310 
 17 C       -8.0180     3.1930    -0.2990 C.2   1 <1>   0.5690 
 18 O       -8.8840     2.3520    -0.3330 O.2   1 <1>  -0.5700 
 19 N       -8.2990     4.5210    -0.2000 N.am  1 <1>  -0.5790 
 20 C       -9.6380     5.1180    -0.1170 C.3   1 <1>   0.0490 
 21 C       -9.8480     6.4560    -0.7450 C.3   1 <1>  -0.2000 
 22 C       -9.8160     6.3210     0.7480 C.3   1 <1>  -0.2000 
 23 H        2.4030     4.3670    -1.6450 H     1 <1>   0.1500 
 24 H       -0.2330     2.2970     1.9650 H     1 <1>   0.1500 
 25 H        3.5160     3.6590     0.4520 H     1 <1>   0.1500 
 26 H        2.1850     2.6240     2.2450 H     1 <1>   0.1500 
 27 H       -1.4950     5.1910     1.4370 H     1 <1>   0.0800 
 28 H       -3.2170     5.3590     1.6410 H     1 <1>   0.0800 
 29 H       -1.6390     6.2380    -0.8050 H     1 <1>   0.0800 
 30 H       -2.3220     7.2900     0.4030 H     1 <1>   0.0800 
 31 H       -3.3810     6.3730    -0.6380 H     1 <1>   0.0800 
 32 H       -6.4160     1.8660     0.2270 H     1 <1>   0.0800 
 33 H       -6.3060     2.5180    -1.4000 H     1 <1>   0.0800 
 34 H       -7.5200     5.1800    -0.1390 H     1 <1>   0.3700 
 35 H      -10.4340     4.3910    -0.1650 H     1 <1>   0.1000 
 36 H      -10.7930     6.6590    -1.2160 H     1 <1>   0.1000 
 37 H       -9.0240     6.9300    -1.2470 H     1 <1>   0.1000 
 38 H       -8.9690     6.7000     1.2920 H     1 <1>   0.1000 
 39 H      -10.7390     6.4320     1.2890 H     1 <1>   0.1000 
@<TRIPOS>BOND
  1   1   2  1   
  2   2   3  ar  
  3   2   4  ar  
  4   3   5  1   
  5   3   6  ar  
  6   4   7  ar  
  7   4  23  1   
  8   5   8  2   
  9   5   9  1   
 10   6  10  ar  
 11   6  24  1   
 12   7  10  ar  
 13   7  25  1   
 14   8  11  1   
 15   9  12  1   
 16   9  13  1   
 17  10  26  1   
 18  11  12  2   
 19  12  14  1   
 20  13  15  1   
 21  13  27  1   
 22  13  28  1   
 23  14  16  1   
 24  15  29  1   
 25  15  30  1   
 26  15  31  1   
 27  16  17  1   
 28  16  32  1   
 29  16  33  1   
 30  17  18  2   
 31  17  19  am  
 32  19  20  1   
 33  19  34  1   
 34  20  21  1   
 35  20  22  1   
 36  20  35  1   
 37  21  22  1   
 38  21  36  1   
 39  21  37  1   
 40  22  38  1   
 41  22  39  1   
@<TRIPOS>SUBSTRUCTURE
  1 ****  12 GROUP 4 **** **** 0

# MOE 2024.06 (io_trps.svl 2023.06)
