@<TRIPOS>MOLECULE
NONAME
52 53 1 0 0 
SMALL
USER_CHARGES


@<TRIPOS>ATOM
  1 S        0.1270    -0.1150     0.5380 S.o2  1 <1>   1.3330 
  2 O        1.2620     0.4130     1.2660 O.2   1 <1>  -0.6500 
  3 O       -1.1490     0.5350     0.7100 O.2   1 <1>  -0.6500 
  4 N        0.0120    -1.7580     0.9550 N.am  1 <1>  -0.8490 
  5 C        0.5410    -0.0990    -1.1940 C.3   1 <1>  -0.1350 
  6 C       -0.9940    -2.6910     0.4130 C.3   1 <1>   0.2760 
  7 C        1.2530    -2.3820     1.4880 C.3   1 <1>   0.2570 
  8 C       -0.5570    -3.3620    -0.9000 C.3   1 <1>  -0.1600 
  9 C       -2.3920    -2.0710     0.2680 C.3   1 <1>  -0.1600 
 10 C        2.5190    -2.2880     0.6170 C.2   1 <1>   0.5690 
 11 C       -1.5930    -4.3940    -1.3730 C.3   1 <1>  -0.1600 
 12 C       -3.4230    -3.1180    -0.1760 C.3   1 <1>  -0.1600 
 13 O        2.6720    -3.0900    -0.2730 O.2   1 <1>  -0.5700 
 14 N        3.4270    -1.3010     0.8880 N.am  1 <1>  -0.5470 
 15 C       -2.9940    -3.7800    -1.4920 C.3   1 <1>  -0.1600 
 16 C        4.7160    -1.0840     0.3650 C.ar  1 <1>   0.1170 
 17 C        5.0370     0.1810    -0.1360 C.ar  1 <1>  -0.1440 
 18 C        5.6990    -2.0820     0.3580 C.ar  1 <1>  -0.1440 
 19 C        6.2930     0.4230    -0.6650 C.ar  1 <1>  -0.1500 
 20 C        4.0310     1.3260    -0.1200 C.3   1 <1>  -0.0970 
 21 C        6.9470    -1.8180    -0.1810 C.ar  1 <1>  -0.1500 
 22 C        5.4720    -3.4710     0.9430 C.3   1 <1>  -0.0970 
 23 C        7.2520    -0.5720    -0.6990 C.ar  1 <1>  -0.1440 
 24 C        8.6250    -0.3010    -1.2860 C.3   1 <1>  -0.0970 
 25 H       -0.2890    -0.4400    -1.7780 H     1 <1>   0.0800 
 26 H        1.3900    -0.7250    -1.3890 H     1 <1>   0.0800 
 27 H        0.7740     0.9010    -1.5010 H     1 <1>   0.0800 
 28 H       -1.1000    -3.4800     1.1390 H     1 <1>   0.0800 
 29 H        1.0730    -3.4240     1.6870 H     1 <1>   0.0800 
 30 H        1.4740    -1.9240     2.4360 H     1 <1>   0.0800 
 31 H        0.3730    -3.8780    -0.7610 H     1 <1>   0.0800 
 32 H       -0.4290    -2.6300    -1.6730 H     1 <1>   0.0800 
 33 H       -2.3770    -1.2930    -0.4730 H     1 <1>   0.0800 
 34 H       -2.6980    -1.6470     1.2080 H     1 <1>   0.0800 
 35 H       -1.6250    -5.2130    -0.6740 H     1 <1>   0.0800 
 36 H       -1.2930    -4.7930    -2.3280 H     1 <1>   0.0800 
 37 H       -4.3820    -2.6450    -0.3070 H     1 <1>   0.0800 
 38 H       -3.5290    -3.8690     0.5880 H     1 <1>   0.0800 
 39 H        3.0250    -0.4890     1.3740 H     1 <1>   0.3700 
 40 H       -3.7020    -4.5460    -1.7580 H     1 <1>   0.0800 
 41 H       -2.9960    -3.0440    -2.2780 H     1 <1>   0.0800 
 42 H        6.5350     1.3950    -1.0560 H     1 <1>   0.1500 
 43 H        4.4580     2.2250    -0.5240 H     1 <1>   0.0800 
 44 H        3.1740     1.0670    -0.7110 H     1 <1>   0.0800 
 45 H        3.7170     1.5300     0.8880 H     1 <1>   0.0800 
 46 H        7.6960    -2.5890    -0.1970 H     1 <1>   0.1500 
 47 H        5.0070    -4.1030     0.2080 H     1 <1>   0.0800 
 48 H        4.8460    -3.4210     1.8140 H     1 <1>   0.0800 
 49 H        6.4050    -3.9190     1.2330 H     1 <1>   0.0800 
 50 H        8.5680     0.4630    -2.0400 H     1 <1>   0.0800 
 51 H        9.0220    -1.1920    -1.7370 H     1 <1>   0.0800 
 52 H        9.2930     0.0250    -0.5090 H     1 <1>   0.0800 
@<TRIPOS>BOND
  1   1   2  2   
  2   1   3  2   
  3   1   4  am  
  4   1   5  1   
  5   4   6  1   
  6   4   7  1   
  7   5  25  1   
  8   5  26  1   
  9   5  27  1   
 10   6   8  1   
 11   6   9  1   
 12   6  28  1   
 13   7  10  1   
 14   7  29  1   
 15   7  30  1   
 16   8  11  1   
 17   8  31  1   
 18   8  32  1   
 19   9  12  1   
 20   9  33  1   
 21   9  34  1   
 22  10  13  2   
 23  10  14  am  
 24  11  15  1   
 25  11  35  1   
 26  11  36  1   
 27  12  15  1   
 28  12  37  1   
 29  12  38  1   
 30  14  16  1   
 31  14  39  1   
 32  15  40  1   
 33  15  41  1   
 34  16  17  ar  
 35  16  18  ar  
 36  17  19  ar  
 37  17  20  1   
 38  18  21  ar  
 39  18  22  1   
 40  19  23  ar  
 41  19  42  1   
 42  20  43  1   
 43  20  44  1   
 44  20  45  1   
 45  21  23  ar  
 46  21  46  1   
 47  22  47  1   
 48  22  48  1   
 49  22  49  1   
 50  23  24  1   
 51  24  50  1   
 52  24  51  1   
 53  24  52  1   
@<TRIPOS>SUBSTRUCTURE
  1 ****  10 GROUP 4 **** **** 0

# MOE 2024.06 (io_trps.svl 2023.06)
