@<TRIPOS>MOLECULE
NONAME
33 33 1 0 0 
SMALL
USER_CHARGES


@<TRIPOS>ATOM
  1 BR      -0.4860     0.0650     0.8530 Br    1 <1>  -0.1110 
  2 C        1.1770     0.9490     0.4620 C.ar  1 <1>   0.1110 
  3 C        2.0920     1.1310     1.4790 C.ar  1 <1>  -0.1500 
  4 C        1.4160     1.3810    -0.8280 C.ar  1 <1>  -0.1500 
  5 C        3.2870     1.7670     1.1850 C.ar  1 <1>  -0.1500 
  6 C        2.6180     2.0140    -1.1000 C.ar  1 <1>  -0.1500 
  7 C        3.5710     2.2150    -0.1030 C.ar  1 <1>  -0.0090 
  8 S        5.1440     3.0470    -0.4660 S.o2  1 <1>   1.4470 
  9 O        5.4270     3.0100    -1.8850 O.2   1 <1>  -0.6500 
 10 O        5.1860     4.3180     0.2230 O.2   1 <1>  -0.6500 
 11 N        6.2960     2.0450     0.2650 N.am  1 <1>  -0.8490 
 12 C        7.5630     2.8030     0.4700 C.3   1 <1>   0.2570 
 13 C        6.4720     0.7750    -0.4460 C.3   1 <1>   0.1960 
 14 C        8.7700     2.0350     1.0280 C.2   1 <1>   0.5690 
 15 C        6.5730    -0.3620     0.5660 C.3   1 <1>  -0.2400 
 16 O        8.8940     1.9130     2.2240 O.2   1 <1>  -0.5700 
 17 N        9.6910     1.5170     0.1600 N.am  1 <1>  -0.7300 
 18 C       10.8990     0.7510     0.5600 C.3   1 <1>   0.0600 
 19 H        1.8750     0.7840     2.4740 H     1 <1>   0.1500 
 20 H        0.6800     1.2260    -1.5970 H     1 <1>   0.1500 
 21 H        4.0140     1.9200     1.9670 H     1 <1>   0.1500 
 22 H        2.8190     2.3590    -2.1010 H     1 <1>   0.1500 
 23 H        7.3700     3.6080     1.1590 H     1 <1>   0.0800 
 24 H        7.8590     3.2510    -0.4620 H     1 <1>   0.0800 
 25 H        7.3390     0.8060    -1.0860 H     1 <1>   0.0800 
 26 H        5.6180     0.5750    -1.0730 H     1 <1>   0.0800 
 27 H        7.4340    -0.2520     1.1990 H     1 <1>   0.0800 
 28 H        6.6570    -1.3000     0.0470 H     1 <1>   0.0800 
 29 H        5.6900    -0.3910     1.1780 H     1 <1>   0.0800 
 30 H        9.5740     1.6610    -0.8450 H     1 <1>   0.3700 
 31 H       10.9400     0.6440     1.6320 H     1 <1>   0.0800 
 32 H       11.7840     1.2680     0.2310 H     1 <1>   0.0800 
 33 H       10.8740    -0.2290     0.1160 H     1 <1>   0.0800 
@<TRIPOS>BOND
  1   1   2  1   
  2   2   3  ar  
  3   2   4  ar  
  4   3   5  ar  
  5   3  19  1   
  6   4   6  ar  
  7   4  20  1   
  8   5   7  ar  
  9   5  21  1   
 10   6   7  ar  
 11   6  22  1   
 12   7   8  1   
 13   8   9  2   
 14   8  10  2   
 15   8  11  am  
 16  11  12  1   
 17  11  13  1   
 18  12  14  1   
 19  12  23  1   
 20  12  24  1   
 21  13  15  1   
 22  13  25  1   
 23  13  26  1   
 24  14  16  2   
 25  14  17  am  
 26  15  27  1   
 27  15  28  1   
 28  15  29  1   
 29  17  18  1   
 30  17  30  1   
 31  18  31  1   
 32  18  32  1   
 33  18  33  1   
@<TRIPOS>SUBSTRUCTURE
  1 ****  11 GROUP 4 **** **** 0

# MOE 2024.06 (io_trps.svl 2023.06)
