@<TRIPOS>MOLECULE
NONAME
38 38 1 0 0 
SMALL
USER_CHARGES


@<TRIPOS>ATOM
  1 S       -3.5320     2.8780    -2.7190 S.2   1 <1>  -0.3800 
  2 C       -3.5140     2.0710    -1.3400 C.2   1 <1>   0.6710 
  3 S       -3.0730     0.3650    -1.4180 S.3   1 <1>  -0.3710 
  4 O       -3.7940     2.5020    -0.1320 O.3   1 <1>  -0.4300 
  5 C       -3.2920    -0.2560     0.3260 C.3   1 <1>   0.1310 
  6 C       -4.2770     3.8340    -0.0410 C.3   1 <1>   0.1200 
  7 C       -4.7570    -0.2410     0.7410 C.2   1 <1>   0.5690 
  8 C       -3.0960     4.7910     0.1540 C.3   1 <1>  -0.1600 
  9 O       -5.0070    -0.1280     1.9160 O.2   1 <1>  -0.5700 
 10 N       -5.7090    -0.3560    -0.2380 N.am  1 <1>  -0.5470 
 11 C       -3.5830     6.2350     0.3320 C.3   1 <1>  -0.1600 
 12 C       -7.1100    -0.3180    -0.1930 C.ar  1 <1>   0.1170 
 13 C       -2.4050     7.1910     0.5320 C.3   1 <1>  -0.2400 
 14 C       -7.8470    -0.5120     0.9710 C.ar  1 <1>  -0.1500 
 15 C       -7.8020    -0.0840    -1.3750 C.ar  1 <1>  -0.1500 
 16 C       -9.2290    -0.4660     0.9530 C.ar  1 <1>  -0.1500 
 17 C       -9.1850    -0.0390    -1.3960 C.ar  1 <1>  -0.1500 
 18 C       -9.9080    -0.2280    -0.2300 C.ar  1 <1>  -0.1430 
 19 C      -11.4250    -0.1800    -0.2490 C.3   1 <1>  -0.0970 
 20 H       -2.7130     0.3790     0.9710 H     1 <1>   0.0800 
 21 H       -2.9070    -1.2570     0.3600 H     1 <1>   0.0800 
 22 H       -4.9140     3.8720     0.8260 H     1 <1>   0.0800 
 23 H       -4.8800     4.0940    -0.8950 H     1 <1>   0.0800 
 24 H       -2.4440     4.7440    -0.7010 H     1 <1>   0.0800 
 25 H       -2.5430     4.4920     1.0270 H     1 <1>   0.0800 
 26 H       -5.3220    -0.4120    -1.1810 H     1 <1>   0.3700 
 27 H       -4.2360     6.2950     1.1870 H     1 <1>   0.0800 
 28 H       -4.1410     6.5390    -0.5380 H     1 <1>   0.0800 
 29 H       -1.8430     6.9200     1.4090 H     1 <1>   0.0800 
 30 H       -2.7640     8.1980     0.6540 H     1 <1>   0.0800 
 31 H       -1.7490     7.1640    -0.3210 H     1 <1>   0.0800 
 32 H       -7.3460    -0.7030     1.9020 H     1 <1>   0.1500 
 33 H       -7.2600     0.0670    -2.2900 H     1 <1>   0.1500 
 34 H       -9.7740    -0.6190     1.8680 H     1 <1>   0.1500 
 35 H       -9.6970     0.1440    -2.3250 H     1 <1>   0.1500 
 36 H      -11.8170    -1.1640    -0.4310 H     1 <1>   0.0800 
 37 H      -11.7710     0.4820    -1.0230 H     1 <1>   0.0800 
 38 H      -11.8010     0.1750     0.6940 H     1 <1>   0.0800 
@<TRIPOS>BOND
  1   1   2  2   
  2   2   3  1   
  3   2   4  1   
  4   3   5  1   
  5   4   6  1   
  6   5   7  1   
  7   5  20  1   
  8   5  21  1   
  9   6   8  1   
 10   6  22  1   
 11   6  23  1   
 12   7   9  2   
 13   7  10  am  
 14   8  11  1   
 15   8  24  1   
 16   8  25  1   
 17  10  12  1   
 18  10  26  1   
 19  11  13  1   
 20  11  27  1   
 21  11  28  1   
 22  12  14  ar  
 23  12  15  ar  
 24  13  29  1   
 25  13  30  1   
 26  13  31  1   
 27  14  16  ar  
 28  14  32  1   
 29  15  17  ar  
 30  15  33  1   
 31  16  18  ar  
 32  16  34  1   
 33  17  18  ar  
 34  17  35  1   
 35  18  19  1   
 36  19  36  1   
 37  19  37  1   
 38  19  38  1   
@<TRIPOS>SUBSTRUCTURE
  1 ****  10 GROUP 4 **** **** 0

# MOE 2024.06 (io_trps.svl 2023.06)
