@<TRIPOS>MOLECULE
NONAME
35 36 1 0 0 
SMALL
USER_CHARGES


@<TRIPOS>ATOM
  1 S       -0.4190    -0.3000    -0.2050 S.o2  1 <1>   1.4470 
  2 O       -0.7930    -1.1910    -1.2810 O.2   1 <1>  -0.6500 
  3 O       -0.8750    -0.5570     1.1420 O.2   1 <1>  -0.6500 
  4 N       -1.0160     1.1930    -0.6880 N.am  1 <1>  -0.7890 
  5 C        1.3770    -0.0490    -0.2080 C.ar  1 <1>  -0.0090 
  6 C       -2.4090     1.3810    -0.3710 C.3   1 <1>   0.1310 
  7 C        2.2230    -0.8870    -0.9260 C.ar  1 <1>  -0.1500 
  8 C        1.9590     0.9860     0.5130 C.ar  1 <1>  -0.1500 
  9 C       -2.9550     2.7650    -0.4650 C.3   1 <1>  -0.2000 
 10 C       -2.7570     2.1190     0.8760 C.3   1 <1>  -0.2000 
 11 C        3.5930    -0.6940    -0.9270 C.ar  1 <1>  -0.1500 
 12 C        3.3290     1.1820     0.5150 C.ar  1 <1>  -0.1500 
 13 C        4.1710     0.3460    -0.2100 C.ar  1 <1>   0.1170 
 14 N        5.5640     0.4930    -0.2420 N.am  1 <1>  -0.5470 
 15 C        6.3800     1.5280     0.0930 C.2   1 <1>   0.7800 
 16 O        6.0010     2.6070     0.4990 O.2   1 <1>  -0.5700 
 17 O        7.6790     1.2880    -0.0650 O.3   1 <1>  -0.4300 
 18 C        8.6370     2.2770     0.2370 C.3   1 <1>   0.1200 
 19 C       10.0200     1.7000    -0.0480 C.3   1 <1>  -0.2400 
 20 H       -0.9550     1.1540    -1.7020 H     1 <1>   0.4200 
 21 H       -3.0390     0.5570    -0.6730 H     1 <1>   0.1000 
 22 H        1.8030    -1.7020    -1.4920 H     1 <1>   0.1500 
 23 H        1.3300     1.6480     1.0850 H     1 <1>   0.1500 
 24 H       -3.9630     2.9080    -0.8110 H     1 <1>   0.1000 
 25 H       -2.2970     3.5680    -0.7480 H     1 <1>   0.1000 
 26 H       -1.9520     2.4470     1.5110 H     1 <1>   0.1000 
 27 H       -3.6220     1.8040     1.4320 H     1 <1>   0.1000 
 28 H        4.2180    -1.3600    -1.4950 H     1 <1>   0.1500 
 29 H        3.7360     1.9930     1.0920 H     1 <1>   0.1500 
 30 H        6.0900    -0.2950    -0.6100 H     1 <1>   0.3700 
 31 H        8.5360     2.5450     1.2750 H     1 <1>   0.0800 
 32 H        8.4440     3.1400    -0.3790 H     1 <1>   0.0800 
 33 H       10.1940     0.8350     0.5670 H     1 <1>   0.0800 
 34 H       10.7720     2.4350     0.1750 H     1 <1>   0.0800 
 35 H       10.1030     1.4290    -1.0850 H     1 <1>   0.0800 
@<TRIPOS>BOND
  1   1   2  2   
  2   1   3  2   
  3   1   4  am  
  4   1   5  1   
  5   4   6  1   
  6   4  20  1   
  7   5   7  ar  
  8   5   8  ar  
  9   6   9  1   
 10   6  10  1   
 11   6  21  1   
 12   7  11  ar  
 13   7  22  1   
 14   8  12  ar  
 15   8  23  1   
 16   9  10  1   
 17   9  24  1   
 18   9  25  1   
 19  10  26  1   
 20  10  27  1   
 21  11  13  ar  
 22  11  28  1   
 23  12  13  ar  
 24  12  29  1   
 25  13  14  1   
 26  14  15  am  
 27  14  30  1   
 28  15  16  2   
 29  15  17  1   
 30  17  18  1   
 31  18  19  1   
 32  18  31  1   
 33  18  32  1   
 34  19  33  1   
 35  19  34  1   
 36  19  35  1   
@<TRIPOS>SUBSTRUCTURE
  1 ****   8 GROUP 4 **** **** 0

# MOE 2024.06 (io_trps.svl 2023.06)
