@<TRIPOS>MOLECULE
NONAME
47 49 1 0 0 
SMALL
USER_CHARGES


@<TRIPOS>ATOM
  1 S       -0.2800     0.0590    -2.0890 S.o2  1 <1>   1.4470 
  2 O        0.2640     1.3320    -2.5120 O.2   1 <1>  -0.6500 
  3 O       -0.4950    -0.9820    -3.0700 O.2   1 <1>  -0.6500 
  4 N        0.8060    -0.5700    -0.9490 N.am  1 <1>  -0.8490 
  5 C       -1.7950     0.3040    -1.1210 C.ar  1 <1>  -0.0090 
  6 C        1.1960     0.4300     0.0630 C.3   1 <1>   0.1960 
  7 C        2.0080    -1.1090    -1.6070 C.3   1 <1>   0.1960 
  8 C       -2.4500    -0.7730    -0.5380 C.ar  1 <1>  -0.1500 
  9 C       -2.3300     1.5720    -0.9210 C.ar  1 <1>  -0.1500 
 10 C        2.1080    -0.1860     1.1350 C.3   1 <1>   0.1400 
 11 C        2.9760    -1.7590    -0.6000 C.3   1 <1>   0.1400 
 12 C       -3.5950    -0.5950     0.2190 C.ar  1 <1>  -0.1500 
 13 C       -3.4740     1.7570    -0.1650 C.ar  1 <1>  -0.1500 
 14 N        3.3120    -0.8150     0.5100 N.am  1 <1>  -0.6600 
 15 C       -4.1130     0.6740     0.4130 C.ar  1 <1>  -0.1430 
 16 C        4.5850    -0.3170     0.7190 C.2   1 <1>   0.7150 
 17 C       -5.3710     0.8740     1.2430 C.3   1 <1>  -0.0160 
 18 O        4.6950     0.7820     1.2340 O.2   1 <1>  -0.5700 
 19 C        5.7610    -1.0770     0.3490 C.2   1 <1>   0.0550 
 20 C       -6.6200     0.7970     0.3580 C.3   1 <1>  -0.1600 
 21 O        6.8310    -0.4800    -0.1690 O.3   1 <1>  -0.2800 
 22 C        6.0190    -2.4140     0.4320 C.2   1 <1>  -0.1500 
 23 C       -7.9030     0.9970     1.1720 C.3   1 <1>  -0.2400 
 24 C        7.7500    -1.3860    -0.4150 C.2   1 <1>  -0.0100 
 25 C        7.3080    -2.6120    -0.0640 C.2   1 <1>  -0.1500 
 26 H        0.3160     0.8200     0.5460 H     1 <1>   0.0800 
 27 H        1.7120     1.2540    -0.4030 H     1 <1>   0.0800 
 28 H        2.5200    -0.3210    -2.1360 H     1 <1>   0.0800 
 29 H        1.7210    -1.8550    -2.3290 H     1 <1>   0.0800 
 30 H       -2.0570    -1.7660    -0.6820 H     1 <1>   0.1500 
 31 H       -1.8460     2.4270    -1.3640 H     1 <1>   0.1500 
 32 H        1.5590    -0.9380     1.6750 H     1 <1>   0.0800 
 33 H        2.3960     0.5760     1.8380 H     1 <1>   0.0800 
 34 H        3.8620    -2.0610    -1.1270 H     1 <1>   0.0800 
 35 H        2.5150    -2.6390    -0.1870 H     1 <1>   0.0800 
 36 H       -4.0830    -1.4500     0.6550 H     1 <1>   0.1500 
 37 H       -3.8670     2.7510    -0.0290 H     1 <1>   0.1500 
 38 H       -5.3310     1.8320     1.7330 H     1 <1>   0.0800 
 39 H       -5.4220     0.1190     2.0080 H     1 <1>   0.0800 
 40 H       -6.6520    -0.1630    -0.1290 H     1 <1>   0.0800 
 41 H       -6.5610     1.5530    -0.4070 H     1 <1>   0.0800 
 42 H        5.3730    -3.1850     0.8130 H     1 <1>   0.1500 
 43 H       -7.9930     0.2370     1.9280 H     1 <1>   0.0800 
 44 H       -8.7610     0.9380     0.5250 H     1 <1>   0.0800 
 45 H       -7.9010     1.9620     1.6480 H     1 <1>   0.0800 
 46 H        8.6900    -1.0750    -0.8370 H     1 <1>   0.1500 
 47 H        7.8200    -3.5560    -0.1370 H     1 <1>   0.1500 
@<TRIPOS>BOND
  1   1   2  2   
  2   1   3  2   
  3   1   4  am  
  4   1   5  1   
  5   4   6  1   
  6   4   7  1   
  7   5   8  ar  
  8   5   9  ar  
  9   6  10  1   
 10   6  26  1   
 11   6  27  1   
 12   7  11  1   
 13   7  28  1   
 14   7  29  1   
 15   8  12  ar  
 16   8  30  1   
 17   9  13  ar  
 18   9  31  1   
 19  10  14  1   
 20  10  32  1   
 21  10  33  1   
 22  11  14  1   
 23  11  34  1   
 24  11  35  1   
 25  12  15  ar  
 26  12  36  1   
 27  13  15  ar  
 28  13  37  1   
 29  14  16  am  
 30  15  17  1   
 31  16  18  2   
 32  16  19  1   
 33  17  20  1   
 34  17  38  1   
 35  17  39  1   
 36  19  21  1   
 37  19  22  2   
 38  20  23  1   
 39  20  40  1   
 40  20  41  1   
 41  21  24  1   
 42  22  25  1   
 43  22  42  1   
 44  23  43  1   
 45  23  44  1   
 46  23  45  1   
 47  24  25  2   
 48  24  46  1   
 49  25  47  1   
@<TRIPOS>SUBSTRUCTURE
  1 ****   4 GROUP 4 **** **** 0

# MOE 2024.06 (io_trps.svl 2023.06)
