@<TRIPOS>MOLECULE
NONAME
47 50 1 0 0 
SMALL
USER_CHARGES


@<TRIPOS>ATOM
  1 N        9.1680     1.9280     0.4530 N.ar  1 <1>  -0.6200 
  2 C        9.6290     0.7510     0.1330 C.ar  1 <1>   0.4100 
  3 C        7.8410     2.0940     0.2210 C.ar  1 <1>   0.3100 
  4 N       10.9840     0.5810     0.3770 N.pl3 1 <1>  -0.8380 
  5 C        8.8160    -0.2880    -0.4380 C.ar  1 <1>   0.2870 
  6 C        7.0300     1.0720    -0.3280 C.ar  1 <1>   0.3100 
  7 C        7.2430     3.3230     0.5360 C.ar  1 <1>  -0.1500 
  8 C       11.8920     0.7980    -0.7900 C.3   1 <1>   0.2090 
  9 C       11.5340     1.0270     1.6940 C.3   1 <1>   0.2090 
 10 N        7.5330    -0.1440    -0.6570 N.ar  1 <1>  -0.6200 
 11 N        9.4500    -1.5240    -0.7530 N.pl3 1 <1>   0.5930 
 12 C        5.6680     1.3250    -0.5360 C.ar  1 <1>  -0.1500 
 13 C        5.9070     3.5440     0.3220 C.ar  1 <1>  -0.1500 
 14 C       12.3870     2.2580    -0.8350 C.3   1 <1>   0.3430 
 15 C       12.0350     2.4850     1.6170 C.3   1 <1>   0.3430 
 16 N       10.2880    -1.7080    -1.8220 N.2   1 <1>  -0.7070 
 17 C        9.3190    -2.7040    -0.0770 C.2   1 <1>  -0.3320 
 18 C        5.1050     2.5370    -0.2200 C.ar  1 <1>  -0.1430 
 19 N       12.9900     2.7030     0.4720 N.4   1 <1>  -0.9060 
 20 C       10.6350    -2.9520    -1.7860 C.2   1 <1>   0.1080 
 21 C       10.0650    -3.6280    -0.7150 C.2   1 <1>  -0.1500 
 22 C        8.4580    -2.8820     1.1640 C.3   1 <1>  -0.0600 
 23 C        3.6290     2.8060    -0.4490 C.3   1 <1>  -0.0970 
 24 C       11.5520    -3.5750    -2.8130 C.3   1 <1>  -0.0590 
 25 H        7.8630     4.0940     0.9540 H     1 <1>   0.1500 
 26 H       11.3680     0.5910    -1.7080 H     1 <1>   0.0800 
 27 H       12.7230     0.1160    -0.7320 H     1 <1>   0.0800 
 28 H       12.3370     0.3720     1.9850 H     1 <1>   0.0800 
 29 H       10.7660     0.9540     2.4470 H     1 <1>   0.0800 
 30 H        5.0780     0.5310    -0.9560 H     1 <1>   0.1500 
 31 H        5.4640     4.4940     0.5700 H     1 <1>   0.1500 
 32 H       11.5410     2.8840    -1.0690 H     1 <1>   0.0800 
 33 H       13.1060     2.3640    -1.6310 H     1 <1>   0.0800 
 34 H       12.5070     2.7480     2.5500 H     1 <1>   0.0800 
 35 H       11.1740     3.1220     1.4920 H     1 <1>   0.0800 
 36 H       13.2430     3.6960     0.4170 H     1 <1>   0.4500 
 37 H       13.8490     2.1670     0.6440 H     1 <1>   0.4500 
 38 H       10.2030    -4.6680    -0.4760 H     1 <1>   0.1500 
 39 H        8.7920    -2.2270     1.9490 H     1 <1>   0.0800 
 40 H        8.5150    -3.8970     1.5150 H     1 <1>   0.0800 
 41 H        7.4300    -2.6570     0.9360 H     1 <1>   0.0800 
 42 H        3.1400     1.9440    -0.8670 H     1 <1>   0.0800 
 43 H        3.5070     3.6310    -1.1290 H     1 <1>   0.0800 
 44 H        3.1510     3.0510     0.4830 H     1 <1>   0.0800 
 45 H       12.5130    -3.0960    -2.7770 H     1 <1>   0.0800 
 46 H       11.1320    -3.4430    -3.7930 H     1 <1>   0.0800 
 47 H       11.6730    -4.6250    -2.6220 H     1 <1>   0.0800 
@<TRIPOS>BOND
  1   1   2  ar  
  2   1   3  ar  
  3   2   4  1   
  4   2   5  ar  
  5   3   6  ar  
  6   3   7  ar  
  7   4   8  1   
  8   4   9  1   
  9   5  10  ar  
 10   5  11  1   
 11   6  10  ar  
 12   6  12  ar  
 13   7  13  ar  
 14   7  25  1   
 15   8  14  1   
 16   8  26  1   
 17   8  27  1   
 18   9  15  1   
 19   9  28  1   
 20   9  29  1   
 21  11  16  1   
 22  11  17  1   
 23  12  18  ar  
 24  12  30  1   
 25  13  18  ar  
 26  13  31  1   
 27  14  19  1   
 28  14  32  1   
 29  14  33  1   
 30  15  19  1   
 31  15  34  1   
 32  15  35  1   
 33  16  20  2   
 34  17  21  2   
 35  17  22  1   
 36  18  23  1   
 37  19  36  1   
 38  19  37  1   
 39  20  21  1   
 40  20  24  1   
 41  21  38  1   
 42  22  39  1   
 43  22  40  1   
 44  22  41  1   
 45  23  42  1   
 46  23  43  1   
 47  23  44  1   
 48  24  45  1   
 49  24  46  1   
 50  24  47  1   
@<TRIPOS>SUBSTRUCTURE
  1 ****   2 GROUP 4 **** **** 0

# MOE 2024.06 (io_trps.svl 2023.06)
