@<TRIPOS>MOLECULE
NONAME
42 43 1 0 0 
SMALL
USER_CHARGES


@<TRIPOS>ATOM
  1 CL      -1.4390     0.5960     2.6170 Cl    1 <1>  -0.1770 
  2 C       -1.7690     1.8270     1.4240 C.ar  1 <1>   0.1770 
  3 C       -3.0740     2.0890     1.0670 C.ar  1 <1>  -0.1500 
  4 C       -0.7150     2.5170     0.8570 C.ar  1 <1>  -0.1500 
  5 C       -3.3520     3.0660     0.1180 C.ar  1 <1>   0.1000 
  6 C       -0.9830     3.4920    -0.0880 C.ar  1 <1>  -0.1500 
  7 N       -4.6690     3.3330    -0.2470 N.pl3 1 <1>  -0.8380 
  8 C       -2.2900     3.7690    -0.4590 C.ar  1 <1>  -0.1430 
  9 C       -5.5430     4.0880     0.7040 C.3   1 <1>   0.2090 
 10 C       -5.3910     2.3500    -1.1100 C.3   1 <1>   0.2090 
 11 C       -2.5630     4.8460    -1.5000 C.3   1 <1>  -0.0970 
 12 C       -6.4760     3.1580     1.4990 C.3   1 <1>   0.1400 
 13 C       -6.3400     1.4400    -0.3060 C.3   1 <1>   0.1400 
 14 N       -7.2300     2.2350     0.5950 N.am  1 <1>  -0.6600 
 15 C       -8.5640     2.4250     0.3580 C.2   1 <1>   0.6900 
 16 O       -9.1180     3.4520     0.7070 O.2   1 <1>  -0.5700 
 17 N       -9.2690     1.4460    -0.2590 N.am  1 <1>  -0.7300 
 18 C      -10.7170     1.4820    -0.5440 C.3   1 <1>   0.1400 
 19 C      -11.4110     0.3740     0.2480 C.3   1 <1>  -0.1600 
 20 C      -12.9210     0.3610    -0.0160 C.3   1 <1>  -0.2400 
 21 H       -3.8710     1.5390     1.5240 H     1 <1>   0.1500 
 22 H        0.2950     2.2940     1.1520 H     1 <1>   0.1500 
 23 H       -0.1660     4.0330    -0.5330 H     1 <1>   0.1500 
 24 H       -6.1410     4.7880     0.1480 H     1 <1>   0.0800 
 25 H       -4.9290     4.6480     1.3870 H     1 <1>   0.0800 
 26 H       -4.6740     1.7440    -1.6370 H     1 <1>   0.0800 
 27 H       -5.9630     2.8920    -1.8430 H     1 <1>   0.0800 
 28 H       -3.0770     4.4150    -2.3400 H     1 <1>   0.0800 
 29 H       -1.6520     5.2970    -1.8460 H     1 <1>   0.0800 
 30 H       -3.1870     5.6110    -1.0730 H     1 <1>   0.0800 
 31 H       -7.1570     3.7540     2.0800 H     1 <1>   0.0800 
 32 H       -5.8920     2.5750     2.1870 H     1 <1>   0.0800 
 33 H       -5.7560     0.7610     0.2880 H     1 <1>   0.0800 
 34 H       -6.9190     0.8570    -0.9970 H     1 <1>   0.0800 
 35 H       -8.8250     0.5340    -0.3180 H     1 <1>   0.3700 
 36 H      -10.8730     1.3390    -1.6000 H     1 <1>   0.0800 
 37 H      -11.1250     2.4420    -0.2690 H     1 <1>   0.0800 
 38 H      -11.2400     0.5350     1.2990 H     1 <1>   0.0800 
 39 H      -10.9980    -0.5800    -0.0270 H     1 <1>   0.0800 
 40 H      -13.3600     1.3010     0.2710 H     1 <1>   0.0800 
 41 H      -13.3880    -0.4210     0.5560 H     1 <1>   0.0800 
 42 H      -13.1210     0.1880    -1.0590 H     1 <1>   0.0800 
@<TRIPOS>BOND
  1   1   2  1   
  2   2   3  ar  
  3   2   4  ar  
  4   3   5  ar  
  5   3  21  1   
  6   4   6  ar  
  7   4  22  1   
  8   5   7  1   
  9   5   8  ar  
 10   6   8  ar  
 11   6  23  1   
 12   7   9  1   
 13   7  10  1   
 14   8  11  1   
 15   9  12  1   
 16   9  24  1   
 17   9  25  1   
 18  10  13  1   
 19  10  26  1   
 20  10  27  1   
 21  11  28  1   
 22  11  29  1   
 23  11  30  1   
 24  12  14  1   
 25  12  31  1   
 26  12  32  1   
 27  13  14  1   
 28  13  33  1   
 29  13  34  1   
 30  14  15  am  
 31  15  16  2   
 32  15  17  am  
 33  17  18  1   
 34  17  35  1   
 35  18  19  1   
 36  18  36  1   
 37  18  37  1   
 38  19  20  1   
 39  19  38  1   
 40  19  39  1   
 41  20  40  1   
 42  20  41  1   
 43  20  42  1   
@<TRIPOS>SUBSTRUCTURE
  1 ****  13 GROUP 4 **** **** 0

# MOE 2024.06 (io_trps.svl 2023.06)
