@<TRIPOS>MOLECULE
NONAME
50 51 1 0 0 
SMALL
USER_CHARGES


@<TRIPOS>ATOM
  1 O       -1.5760    -7.5830     1.1670 O.2   1 <1>  -0.5700 
  2 C       -1.8020    -6.7740     0.3060 C.2   1 <1>   0.6590 
  3 O       -3.0230    -6.5210    -0.1370 O.3   1 <1>  -0.4300 
  4 C       -0.6830    -5.9760    -0.3420 C.3   1 <1>  -0.0190 
  5 C       -4.1520    -7.1840     0.3860 C.3   1 <1>   0.1200 
  6 C        0.6650    -6.6760    -0.0800 C.3   1 <1>   0.3430 
  7 C       -0.6720    -4.5100     0.1330 C.3   1 <1>  -0.1600 
  8 C       -5.3870    -6.6540    -0.3360 C.3   1 <1>  -0.2400 
  9 N        1.8160    -5.7140     0.0610 N.4   1 <1>  -0.9590 
 10 C        0.4770    -3.7210    -0.5250 C.3   1 <1>  -0.1600 
 11 C        1.6990    -4.5740    -0.8940 C.3   1 <1>   0.3430 
 12 C        3.1180    -6.4510    -0.0580 C.3   1 <1>   0.3430 
 13 C        4.3220    -5.6160     0.3870 C.3   1 <1>   0.1200 
 14 O        5.4650    -6.4110     0.2080 O.3   1 <1>  -0.3630 
 15 C        6.7190    -5.9300     0.4260 C.ar  1 <1>   0.0830 
 16 C        7.8040    -6.7270     0.0560 C.ar  1 <1>  -0.1430 
 17 C        6.9390    -4.6770     0.9960 C.ar  1 <1>  -0.1500 
 18 C        9.1000    -6.2490     0.2390 C.ar  1 <1>  -0.1430 
 19 C        7.5810    -8.1110    -0.5560 C.3   1 <1>  -0.0970 
 20 C        8.2270    -4.2170     1.1820 C.ar  1 <1>  -0.1500 
 21 C        9.3000    -4.9990     0.8030 C.ar  1 <1>  -0.1500 
 22 C       10.3260    -7.0580    -0.1650 C.3   1 <1>  -0.0970 
 23 H       -0.8650    -5.9920    -1.4020 H     1 <1>   0.0800 
 24 H       -4.2080    -6.9850     1.4430 H     1 <1>   0.0800 
 25 H       -4.0350    -8.2420     0.2230 H     1 <1>   0.0800 
 26 H        0.8550    -7.3630    -0.8890 H     1 <1>   0.0800 
 27 H        0.5990    -7.2590     0.8250 H     1 <1>   0.0800 
 28 H       -0.5550    -4.4900     1.2050 H     1 <1>   0.0800 
 29 H       -1.6150    -4.0370    -0.0930 H     1 <1>   0.0800 
 30 H       -5.4890    -5.5960    -0.1720 H     1 <1>   0.0800 
 31 H       -6.2650    -7.1440     0.0440 H     1 <1>   0.0800 
 32 H       -5.3160    -6.8510    -1.3900 H     1 <1>   0.0800 
 33 H        1.7510    -5.3200     1.0100 H     1 <1>   0.4500 
 34 H        0.7810    -2.9240     0.1310 H     1 <1>   0.0800 
 35 H        0.1180    -3.2550    -1.4280 H     1 <1>   0.0800 
 36 H        1.5810    -4.9580    -1.8950 H     1 <1>   0.0800 
 37 H        2.5840    -3.9590    -0.8730 H     1 <1>   0.0800 
 38 H        3.2680    -6.7580    -1.0810 H     1 <1>   0.0800 
 39 H        3.0840    -7.3360     0.5570 H     1 <1>   0.0800 
 40 H        4.2510    -5.3640     1.4310 H     1 <1>   0.0800 
 41 H        4.4360    -4.7350    -0.2190 H     1 <1>   0.0800 
 42 H        6.1340    -4.0420     1.3050 H     1 <1>   0.1500 
 43 H        6.6000    -8.4920    -0.3420 H     1 <1>   0.0800 
 44 H        8.2850    -8.8190    -0.1590 H     1 <1>   0.0800 
 45 H        7.7030    -8.0590    -1.6220 H     1 <1>   0.0800 
 46 H        8.4000    -3.2500     1.6230 H     1 <1>   0.1500 
 47 H       10.2980    -4.6240     0.9520 H     1 <1>   0.1500 
 48 H       10.4370    -7.9050     0.4870 H     1 <1>   0.0800 
 49 H       11.2200    -6.4640    -0.1030 H     1 <1>   0.0800 
 50 H       10.2270    -7.4030    -1.1790 H     1 <1>   0.0800 
@<TRIPOS>BOND
  1   1   2  2   
  2   2   3  1   
  3   2   4  1   
  4   3   5  1   
  5   4   6  1   
  6   4   7  1   
  7   4  23  1   
  8   5   8  1   
  9   5  24  1   
 10   5  25  1   
 11   6   9  1   
 12   6  26  1   
 13   6  27  1   
 14   7  10  1   
 15   7  28  1   
 16   7  29  1   
 17   8  30  1   
 18   8  31  1   
 19   8  32  1   
 20   9  11  1   
 21   9  12  1   
 22   9  33  1   
 23  10  11  1   
 24  10  34  1   
 25  10  35  1   
 26  11  36  1   
 27  11  37  1   
 28  12  13  1   
 29  12  38  1   
 30  12  39  1   
 31  13  14  1   
 32  13  40  1   
 33  13  41  1   
 34  14  15  1   
 35  15  16  ar  
 36  15  17  ar  
 37  16  18  ar  
 38  16  19  1   
 39  17  20  ar  
 40  17  42  1   
 41  18  21  ar  
 42  18  22  1   
 43  19  43  1   
 44  19  44  1   
 45  19  45  1   
 46  20  21  ar  
 47  20  46  1   
 48  21  47  1   
 49  22  48  1   
 50  22  49  1   
 51  22  50  1   
@<TRIPOS>SUBSTRUCTURE
  1 ****  12 GROUP 4 **** **** 0

# MOE 2024.06 (io_trps.svl 2023.06)
