@<TRIPOS>MOLECULE
NONAME
54 55 1 0 0 
SMALL
USER_CHARGES


@<TRIPOS>ATOM
  1 O        1.7130    -1.1420     2.1450 O.2   1 <1>  -0.5700 
  2 C        2.0910    -1.3090     1.0110 C.2   1 <1>   0.5690 
  3 N        1.7120    -2.4160     0.2820 N.am  1 <1>  -0.6600 
  4 C        3.0370    -0.2350     0.4900 C.3   1 <1>  -0.0190 
  5 C        2.1970    -2.8210    -1.0690 C.3   1 <1>   0.1400 
  6 C        0.6490    -3.3110     0.8320 C.3   1 <1>   0.1400 
  7 C        4.4280    -0.8310     0.2950 C.3   1 <1>   0.3430 
  8 C        2.5260     0.5480    -0.7430 C.3   1 <1>  -0.1600 
  9 C        3.2010    -3.9670    -0.9430 C.3   1 <1>  -0.2400 
 10 C       -0.7210    -2.8100     0.3820 C.3   1 <1>  -0.2400 
 11 N        5.4440     0.2220    -0.0560 N.4   1 <1>  -0.9590 
 12 C        3.6810     0.9870    -1.6610 C.3   1 <1>  -0.1600 
 13 C        4.9210     1.3810    -0.8530 C.3   1 <1>   0.3430 
 14 C        6.1630     0.6850     1.1530 C.3   1 <1>   0.4810 
 15 C        7.5440     1.1160     0.7040 C.2   1 <1>  -0.2760 
 16 C        8.5320     0.2180     0.5260 C.2   1 <1>  -0.1780 
 17 C        7.7070     2.6250     0.5230 C.3   1 <1>  -0.1020 
 18 C        9.8890     0.4380     0.0860 C.ar  1 <1>   0.0280 
 19 C       10.9540    -0.0790     0.8170 C.ar  1 <1>  -0.1500 
 20 C       10.1780     1.1440    -1.0780 C.ar  1 <1>  -0.1500 
 21 C       12.2620     0.1080     0.4060 C.ar  1 <1>  -0.1500 
 22 C       11.4840     1.3360    -1.4940 C.ar  1 <1>  -0.1500 
 23 C       12.5290     0.8180    -0.7500 C.ar  1 <1>  -0.1500 
 24 H        3.1350     0.4810     1.2880 H     1 <1>   0.0800 
 25 H        1.3610    -3.1360    -1.6710 H     1 <1>   0.0800 
 26 H        2.6630    -1.9990    -1.5760 H     1 <1>   0.0800 
 27 H        0.7970    -4.3220     0.4950 H     1 <1>   0.0800 
 28 H        0.6920    -3.3200     1.9090 H     1 <1>   0.0800 
 29 H        4.3800    -1.5490    -0.5060 H     1 <1>   0.0800 
 30 H        4.7240    -1.3580     1.1880 H     1 <1>   0.0800 
 31 H        1.8140    -0.0260    -1.3100 H     1 <1>   0.0800 
 32 H        1.9970     1.4180    -0.3900 H     1 <1>   0.0800 
 33 H        2.7210    -4.8500    -0.5610 H     1 <1>   0.0800 
 34 H        4.0130    -3.7030    -0.2910 H     1 <1>   0.0800 
 35 H        3.6010    -4.2040    -1.9120 H     1 <1>   0.0800 
 36 H       -0.8010    -2.8200    -0.6890 H     1 <1>   0.0800 
 37 H       -0.8870    -1.8110     0.7460 H     1 <1>   0.0800 
 38 H       -1.4870    -3.4460     0.7870 H     1 <1>   0.0800 
 39 H        6.1800    -0.2250    -0.6210 H     1 <1>   0.4500 
 40 H        3.3610     1.8270    -2.2540 H     1 <1>   0.0800 
 41 H        3.9400     0.1960    -2.3440 H     1 <1>   0.0800 
 42 H        4.6490     2.1840    -0.1870 H     1 <1>   0.0800 
 43 H        5.6910     1.7440    -1.5150 H     1 <1>   0.0800 
 44 H        5.6370     1.4870     1.6450 H     1 <1>   0.0800 
 45 H        6.2680    -0.1330     1.8480 H     1 <1>   0.0800 
 46 H        8.3520    -0.8250     0.7290 H     1 <1>   0.1500 
 47 H        7.3470     3.1460     1.3930 H     1 <1>   0.0800 
 48 H        7.1730     2.9780    -0.3390 H     1 <1>   0.0800 
 49 H        8.7420     2.8910     0.4040 H     1 <1>   0.0800 
 50 H       10.7600    -0.6310     1.7190 H     1 <1>   0.1500 
 51 H        9.3760     1.5450    -1.6690 H     1 <1>   0.1500 
 52 H       13.0730    -0.2970     0.9860 H     1 <1>   0.1500 
 53 H       11.6900     1.8860    -2.3960 H     1 <1>   0.1500 
 54 H       13.5460     0.9650    -1.0710 H     1 <1>   0.1500 
@<TRIPOS>BOND
  1   1   2  2   
  2   2   3  am  
  3   2   4  1   
  4   3   5  1   
  5   3   6  1   
  6   4   7  1   
  7   4   8  1   
  8   4  24  1   
  9   5   9  1   
 10   5  25  1   
 11   5  26  1   
 12   6  10  1   
 13   6  27  1   
 14   6  28  1   
 15   7  11  1   
 16   7  29  1   
 17   7  30  1   
 18   8  12  1   
 19   8  31  1   
 20   8  32  1   
 21   9  33  1   
 22   9  34  1   
 23   9  35  1   
 24  10  36  1   
 25  10  37  1   
 26  10  38  1   
 27  11  13  1   
 28  11  14  1   
 29  11  39  1   
 30  12  13  1   
 31  12  40  1   
 32  12  41  1   
 33  13  42  1   
 34  13  43  1   
 35  14  15  1   
 36  14  44  1   
 37  14  45  1   
 38  15  16  2   
 39  15  17  1   
 40  16  18  1   
 41  16  46  1   
 42  17  47  1   
 43  17  48  1   
 44  17  49  1   
 45  18  19  ar  
 46  18  20  ar  
 47  19  21  ar  
 48  19  50  1   
 49  20  22  ar  
 50  20  51  1   
 51  21  23  ar  
 52  21  52  1   
 53  22  23  ar  
 54  22  53  1   
 55  23  54  1   
@<TRIPOS>SUBSTRUCTURE
  1 ****  11 GROUP 4 **** **** 0

# MOE 2024.06 (io_trps.svl 2023.06)
