@<TRIPOS>MOLECULE
NONAME
48 51 1 0 0 
SMALL
USER_CHARGES


@<TRIPOS>ATOM
  1 O       -0.2590    -0.8830     0.2400 O.2   1 <1>  -0.5700 
  2 C       -0.6730    -1.9570     0.5940 C.2   1 <1>   0.5690 
  3 N        0.0920    -3.0030     1.0000 N.am  1 <1>  -0.4200 
  4 C       -2.1460    -2.3190     0.6360 C.3   1 <1>  -0.0190 
  5 C       -0.6660    -4.0900     1.2980 C.2   1 <1>   0.5690 
  6 C        1.5680    -2.9650     1.1020 C.3   1 <1>   0.1400 
  7 C       -2.1310    -3.8010     1.0760 C.3   1 <1>  -0.0990 
  8 C       -2.8360    -2.0820    -0.7180 C.3   1 <1>  -0.0160 
  9 O       -0.2510    -5.1550     1.6720 O.2   1 <1>  -0.5700 
 10 C        2.2040    -3.4050    -0.2170 C.3   1 <1>  -0.0170 
 11 C       -4.2970    -2.5040    -0.6780 C.ar  1 <1>  -0.1440 
 12 C        3.7180    -3.3720    -0.1000 C.ar  1 <1>  -0.1430 
 13 C       -5.2220    -1.7430     0.0180 C.ar  1 <1>  -0.1500 
 14 C       -4.7220    -3.6500    -1.3350 C.ar  1 <1>  -0.1500 
 15 C        4.4150    -2.2180    -0.4410 C.ar  1 <1>  -0.1500 
 16 C        4.4060    -4.4960     0.3560 C.ar  1 <1>  -0.1500 
 17 C       -6.5550    -2.1150     0.0730 C.ar  1 <1>   0.0830 
 18 C       -6.0520    -4.0310    -1.2870 C.ar  1 <1>  -0.1500 
 19 C        5.7900    -2.2270    -0.3150 C.ar  1 <1>   0.0830 
 20 C        5.7900    -4.4850     0.4770 C.ar  1 <1>  -0.1500 
 21 O       -7.3860    -1.3090     0.7810 O.3   1 <1>  -0.3630 
 22 C       -6.9700    -3.2690    -0.5850 C.ar  1 <1>  -0.1500 
 23 O        6.6540    -1.2410    -0.5820 O.3   1 <1>  -0.3630 
 24 C        6.4590    -3.3290     0.1320 C.ar  1 <1>   0.0830 
 25 C       -8.7700    -1.5680     0.8550 C.3   1 <1>   0.0400 
 26 C        7.9540    -1.7470    -0.2880 C.3   1 <1>   0.4000 
 27 O        7.7740    -3.0870     0.1660 O.3   1 <1>  -0.3630 
 28 H       -2.6160    -1.7190     1.3940 H     1 <1>   0.0800 
 29 H        1.8880    -3.6200     1.8950 H     1 <1>   0.0800 
 30 H        1.8850    -1.9640     1.3430 H     1 <1>   0.0800 
 31 H       -2.5100    -4.4620     0.3190 H     1 <1>   0.0800 
 32 H       -2.6800    -3.9450     1.9890 H     1 <1>   0.0800 
 33 H       -2.3170    -2.6190    -1.4920 H     1 <1>   0.0800 
 34 H       -2.7820    -1.0350    -0.9650 H     1 <1>   0.0800 
 35 H        1.8900    -2.7450    -1.0070 H     1 <1>   0.0800 
 36 H        1.8840    -4.4030    -0.4590 H     1 <1>   0.0800 
 37 H       -4.9210    -0.8460     0.5290 H     1 <1>   0.1500 
 38 H       -4.0230    -4.2530    -1.8870 H     1 <1>   0.1500 
 39 H        3.9170    -1.3330    -0.7950 H     1 <1>   0.1500 
 40 H        3.8640    -5.3890     0.6210 H     1 <1>   0.1500 
 41 H       -6.3730    -4.9220    -1.7980 H     1 <1>   0.1500 
 42 H        6.3340    -5.3440     0.8260 H     1 <1>   0.1500 
 43 H       -7.9940    -3.5870    -0.5630 H     1 <1>   0.1500 
 44 H       -9.2240    -0.7930     1.4460 H     1 <1>   0.0800 
 45 H       -8.9220    -2.5230     1.3260 H     1 <1>   0.0800 
 46 H       -9.1820    -1.5580    -0.1390 H     1 <1>   0.0800 
 47 H        8.4020    -1.1590     0.4930 H     1 <1>   0.0800 
 48 H        8.5520    -1.7470    -1.1820 H     1 <1>   0.0800 
@<TRIPOS>BOND
  1   1   2  2   
  2   2   3  am  
  3   2   4  1   
  4   3   5  am  
  5   3   6  1   
  6   4   7  1   
  7   4   8  1   
  8   4  28  1   
  9   5   7  1   
 10   5   9  2   
 11   6  10  1   
 12   6  29  1   
 13   6  30  1   
 14   7  31  1   
 15   7  32  1   
 16   8  11  1   
 17   8  33  1   
 18   8  34  1   
 19  10  12  1   
 20  10  35  1   
 21  10  36  1   
 22  11  13  ar  
 23  11  14  ar  
 24  12  15  ar  
 25  12  16  ar  
 26  13  17  ar  
 27  13  37  1   
 28  14  18  ar  
 29  14  38  1   
 30  15  19  ar  
 31  15  39  1   
 32  16  20  ar  
 33  16  40  1   
 34  17  21  1   
 35  17  22  ar  
 36  18  22  ar  
 37  18  41  1   
 38  19  23  1   
 39  19  24  ar  
 40  20  24  ar  
 41  20  42  1   
 42  21  25  1   
 43  22  43  1   
 44  23  26  1   
 45  24  27  1   
 46  25  44  1   
 47  25  45  1   
 48  25  46  1   
 49  26  27  1   
 50  26  47  1   
 51  26  48  1   
@<TRIPOS>SUBSTRUCTURE
  1 ****   3 GROUP 4 **** **** 0

# MOE 2024.06 (io_trps.svl 2023.06)
