@<TRIPOS>MOLECULE
NONAME
40 41 1 0 0 
SMALL
USER_CHARGES


@<TRIPOS>ATOM
  1 BR      -1.8010     1.5180    -2.4510 Br    1 <1>  -0.1110 
  2 C       -0.9630     2.7320    -1.2110 C.ar  1 <1>   0.1110 
  3 C       -1.3480     2.7280     0.1220 C.ar  1 <1>  -0.1440 
  4 C        0.0080     3.5850    -1.7010 C.ar  1 <1>  -0.1500 
  5 C       -0.7200     3.6150     0.9850 C.ar  1 <1>  -0.1500 
  6 C       -2.4210     1.7820     0.6250 C.3   1 <1>   0.4870 
  7 C        0.6190     4.4660    -0.8270 C.ar  1 <1>  -0.1500 
  8 C        0.2560     4.4780     0.5100 C.ar  1 <1>  -0.1500 
  9 N       -3.7460     2.2160     0.1010 N.4   1 <1>  -0.9590 
 10 C       -4.1180     3.5830     0.5690 C.3   1 <1>   0.3430 
 11 C       -4.8000     1.2050     0.3870 C.3   1 <1>   0.3430 
 12 C       -5.4050     4.0290    -0.1240 C.3   1 <1>  -0.1600 
 13 C       -6.0940     1.6070    -0.3150 C.3   1 <1>  -0.1600 
 14 C       -6.5520     3.0250     0.0870 C.3   1 <1>  -0.0190 
 15 C       -7.8000     3.4660    -0.6760 C.2   1 <1>   0.6590 
 16 O       -8.0070     3.1150    -1.8080 O.2   1 <1>  -0.5700 
 17 O       -8.6200     4.2680    -0.0150 O.3   1 <1>  -0.4300 
 18 C       -9.8030     4.7580    -0.6050 C.3   1 <1>   0.1200 
 19 C      -10.5060     5.6490     0.4130 C.3   1 <1>  -0.2400 
 20 H        0.2830     3.5600    -2.7420 H     1 <1>   0.1500 
 21 H       -0.9720     3.6470     2.0320 H     1 <1>   0.1500 
 22 H       -2.4300     1.7780     1.7020 H     1 <1>   0.0800 
 23 H       -2.1970     0.7850     0.2820 H     1 <1>   0.0800 
 24 H        1.3800     5.1400    -1.1850 H     1 <1>   0.1500 
 25 H        0.7430     5.1650     1.1840 H     1 <1>   0.1500 
 26 H       -3.6380     2.2710    -0.9230 H     1 <1>   0.4500 
 27 H       -3.3300     4.2830     0.3380 H     1 <1>   0.0800 
 28 H       -4.2650     3.5780     1.6380 H     1 <1>   0.0800 
 29 H       -4.9690     1.1410     1.4510 H     1 <1>   0.0800 
 30 H       -4.4890     0.2340     0.0320 H     1 <1>   0.0800 
 31 H       -5.2160     4.1550    -1.1760 H     1 <1>   0.0800 
 32 H       -5.6960     4.9900     0.2660 H     1 <1>   0.0800 
 33 H       -6.8660     0.9000    -0.0640 H     1 <1>   0.0800 
 34 H       -5.9470     1.5520    -1.3800 H     1 <1>   0.0800 
 35 H       -6.8090     3.0110     1.1320 H     1 <1>   0.0800 
 36 H      -10.4220     3.9190    -0.8780 H     1 <1>   0.0800 
 37 H       -9.5400     5.3130    -1.4900 H     1 <1>   0.0800 
 38 H      -10.7550     5.0850     1.2930 H     1 <1>   0.0800 
 39 H      -11.4140     6.0360    -0.0130 H     1 <1>   0.0800 
 40 H       -9.8750     6.4780     0.6810 H     1 <1>   0.0800 
@<TRIPOS>BOND
  1   1   2  1   
  2   2   3  ar  
  3   2   4  ar  
  4   3   5  ar  
  5   3   6  1   
  6   4   7  ar  
  7   4  20  1   
  8   5   8  ar  
  9   5  21  1   
 10   6   9  1   
 11   6  22  1   
 12   6  23  1   
 13   7   8  ar  
 14   7  24  1   
 15   8  25  1   
 16   9  10  1   
 17   9  11  1   
 18   9  26  1   
 19  10  12  1   
 20  10  27  1   
 21  10  28  1   
 22  11  13  1   
 23  11  29  1   
 24  11  30  1   
 25  12  14  1   
 26  12  31  1   
 27  12  32  1   
 28  13  14  1   
 29  13  33  1   
 30  13  34  1   
 31  14  15  1   
 32  14  35  1   
 33  15  16  2   
 34  15  17  1   
 35  17  18  1   
 36  18  19  1   
 37  18  36  1   
 38  18  37  1   
 39  19  38  1   
 40  19  39  1   
 41  19  40  1   
@<TRIPOS>SUBSTRUCTURE
  1 ****  10 GROUP 4 **** **** 0

# MOE 2024.06 (io_trps.svl 2023.06)
