@<TRIPOS>MOLECULE
NONAME
44 47 1 0 0 
SMALL
USER_CHARGES


@<TRIPOS>ATOM
  1 S       -0.3920     0.2710     2.8130 S.3   1 <1>  -0.0800 
  2 C       -1.7110     0.9990     1.8970 C.2   1 <1>   0.4420 
  3 C        0.7580     0.9520     1.6840 C.ar  1 <1>   0.0400 
  4 N       -1.3330     1.6490     0.8670 N.2   1 <1>  -0.5650 
  5 N       -2.9780     0.7710     2.3770 N.am  1 <1>  -0.4940 
  6 C        0.0490     1.6580     0.7300 C.ar  1 <1>   0.2270 
  7 C        2.1350     0.8450     1.6950 C.ar  1 <1>  -0.1500 
  8 C       -4.2150     1.2370     2.0360 C.2   1 <1>   0.5690 
  9 C        0.7620     2.3120    -0.2730 C.ar  1 <1>  -0.1440 
 10 C        2.8310     1.4930     0.6880 C.ar  1 <1>  -0.1500 
 11 O       -5.1530     0.7180     2.5890 O.2   1 <1>  -0.5700 
 12 C       -4.4680     2.3670     0.9990 C.3   1 <1>   0.3410 
 13 C        2.1470     2.2200    -0.2840 C.ar  1 <1>  -0.1500 
 14 C        0.0210     3.1200    -1.3280 C.3   1 <1>  -0.0960 
 15 O       -3.5910     3.4790     1.1720 O.3   1 <1>  -0.4300 
 16 C       -5.8520     3.0820     1.0110 C.3   1 <1>   0.0000 
 17 C       -4.3230     1.9570    -0.4910 C.3   1 <1>  -0.1600 
 18 C       -4.0940     4.5120     0.5220 C.2   1 <1>   0.6590 
 19 C       -5.4140     4.0610    -0.0960 C.3   1 <1>   0.0610 
 20 C       -6.1940     3.7740     2.3620 C.3   1 <1>  -0.2400 
 21 C       -7.0950     2.2210     0.6460 C.3   1 <1>  -0.2400 
 22 C       -4.9860     3.1290    -1.2500 C.3   1 <1>  -0.1600 
 23 O       -3.5790     5.5960     0.4520 O.2   1 <1>  -0.5700 
 24 C       -6.3950     5.1720    -0.5100 C.3   1 <1>  -0.2400 
 25 H       -3.0290     0.1050     3.1440 H     1 <1>   0.3700 
 26 H        2.6400     0.2820     2.4590 H     1 <1>   0.1500 
 27 H        3.9050     1.4370     0.6550 H     1 <1>   0.1500 
 28 H        2.7120     2.7180    -1.0530 H     1 <1>   0.1500 
 29 H       -0.5980     3.8600    -0.8510 H     1 <1>   0.0800 
 30 H       -0.6080     2.4700    -1.9090 H     1 <1>   0.0800 
 31 H        0.7070     3.6200    -1.9870 H     1 <1>   0.0800 
 32 H       -4.8380     1.0330    -0.6830 H     1 <1>   0.0800 
 33 H       -3.2930     1.8370    -0.7750 H     1 <1>   0.0800 
 34 H       -5.4040     4.4020     2.7320 H     1 <1>   0.0800 
 35 H       -6.3930     3.0330     3.1160 H     1 <1>   0.0800 
 36 H       -7.0760     4.3800     2.2600 H     1 <1>   0.0800 
 37 H       -6.9840     1.6520    -0.2560 H     1 <1>   0.0800 
 38 H       -7.9590     2.8510     0.5300 H     1 <1>   0.0800 
 39 H       -7.3090     1.5240     1.4370 H     1 <1>   0.0800 
 40 H       -5.8300     2.7970    -1.8300 H     1 <1>   0.0800 
 41 H       -4.2850     3.6210    -1.9050 H     1 <1>   0.0800 
 42 H       -5.9500     5.7850    -1.2730 H     1 <1>   0.0800 
 43 H       -6.6260     5.8020     0.3310 H     1 <1>   0.0800 
 44 H       -7.3070     4.7530    -0.8930 H     1 <1>   0.0800 
@<TRIPOS>BOND
  1   1   2  1   
  2   1   3  1   
  3   2   4  2   
  4   2   5  1   
  5   3   6  ar  
  6   3   7  ar  
  7   4   6  1   
  8   5   8  am  
  9   5  25  1   
 10   6   9  ar  
 11   7  10  ar  
 12   7  26  1   
 13   8  11  2   
 14   8  12  1   
 15   9  13  ar  
 16   9  14  1   
 17  10  13  ar  
 18  10  27  1   
 19  12  15  1   
 20  12  16  1   
 21  12  17  1   
 22  13  28  1   
 23  14  29  1   
 24  14  30  1   
 25  14  31  1   
 26  15  18  1   
 27  16  19  1   
 28  16  20  1   
 29  16  21  1   
 30  17  22  1   
 31  17  32  1   
 32  17  33  1   
 33  18  19  1   
 34  18  23  2   
 35  19  22  1   
 36  19  24  1   
 37  20  34  1   
 38  20  35  1   
 39  20  36  1   
 40  21  37  1   
 41  21  38  1   
 42  21  39  1   
 43  22  40  1   
 44  22  41  1   
 45  24  42  1   
 46  24  43  1   
 47  24  44  1   
@<TRIPOS>SUBSTRUCTURE
  1 ****  15 GROUP 4 **** **** 0

# MOE 2024.06 (io_trps.svl 2023.06)
