@<TRIPOS>MOLECULE
NONAME
37 39 1 0 0 
SMALL
USER_CHARGES


@<TRIPOS>ATOM
  1 S       -0.3690    -0.4430     0.3200 S.3   1 <1>  -0.3710 
  2 C        0.3020     1.1850     0.5940 C.2   1 <1>   0.7710 
  3 C        1.0550    -1.5740     0.6430 C.3   1 <1>  -0.0100 
  4 O        1.4650     1.2530     0.9140 O.2   1 <1>  -0.5700 
  5 N       -0.4700     2.2860     0.4470 N.am  1 <1>  -0.7300 
  6 C       -1.8790     2.4970     0.0760 C.3   1 <1>   0.3000 
  7 C       -2.1170     4.0200     0.0970 C.3   1 <1>  -0.1600 
  8 C       -2.1710     1.9780    -1.3450 C.3   1 <1>  -0.1600 
  9 C       -2.8330     1.8400     1.0920 C.3   1 <1>  -0.1600 
 10 C       -3.5760     4.3560    -0.2800 C.3   1 <1>   0.0000 
 11 C       -3.6330     2.2790    -1.7250 C.3   1 <1>  -0.0800 
 12 C       -4.2950     2.1420     0.7120 C.3   1 <1>  -0.0800 
 13 C       -3.8620     3.8010    -1.6910 C.3   1 <1>  -0.1600 
 14 C       -4.5190     3.6650     0.7270 C.3   1 <1>  -0.1600 
 15 C       -3.7950     5.8730    -0.2540 C.3   1 <1>  -0.2400 
 16 C       -4.5710     1.6040    -0.7060 C.3   1 <1>  -0.1600 
 17 H        0.7170    -2.5840     0.4940 H     1 <1>   0.0800 
 18 H        1.3760    -1.4180     1.6570 H     1 <1>   0.0800 
 19 H        1.8390    -1.3220    -0.0490 H     1 <1>   0.0800 
 20 H        0.0280     3.1530     0.6310 H     1 <1>   0.3700 
 21 H       -1.4530     4.4980    -0.6000 H     1 <1>   0.0800 
 22 H       -1.9090     4.4040     1.0800 H     1 <1>   0.0800 
 23 H       -2.0170     0.9170    -1.3990 H     1 <1>   0.0800 
 24 H       -1.5090     2.4480    -2.0500 H     1 <1>   0.0800 
 25 H       -2.6310     2.2150     2.0800 H     1 <1>   0.0800 
 26 H       -2.6970     0.7760     1.1040 H     1 <1>   0.0800 
 27 H       -3.8370     1.9030    -2.7130 H     1 <1>   0.0800 
 28 H       -4.9590     1.6690     1.4160 H     1 <1>   0.0800 
 29 H       -4.8790     4.0170    -1.9700 H     1 <1>   0.0800 
 30 H       -3.2200     4.2780    -2.4110 H     1 <1>   0.0800 
 31 H       -5.5430     3.8790     0.4760 H     1 <1>   0.0800 
 32 H       -4.3410     4.0450     1.7180 H     1 <1>   0.0800 
 33 H       -3.1410     6.3610    -0.9540 H     1 <1>   0.0800 
 34 H       -3.5980     6.2660     0.7280 H     1 <1>   0.0800 
 35 H       -4.8110     6.1100    -0.5170 H     1 <1>   0.0800 
 36 H       -4.4230     0.5370    -0.7260 H     1 <1>   0.0800 
 37 H       -5.5960     1.7940    -0.9730 H     1 <1>   0.0800 
@<TRIPOS>BOND
  1   1   2  1   
  2   1   3  1   
  3   2   4  2   
  4   2   5  am  
  5   3  17  1   
  6   3  18  1   
  7   3  19  1   
  8   5   6  1   
  9   5  20  1   
 10   6   7  1   
 11   6   8  1   
 12   6   9  1   
 13   7  10  1   
 14   7  21  1   
 15   7  22  1   
 16   8  11  1   
 17   8  23  1   
 18   8  24  1   
 19   9  12  1   
 20   9  25  1   
 21   9  26  1   
 22  10  13  1   
 23  10  14  1   
 24  10  15  1   
 25  11  13  1   
 26  11  16  1   
 27  11  27  1   
 28  12  14  1   
 29  12  16  1   
 30  12  28  1   
 31  13  29  1   
 32  13  30  1   
 33  14  31  1   
 34  14  32  1   
 35  15  33  1   
 36  15  34  1   
 37  15  35  1   
 38  16  36  1   
 39  16  37  1   
@<TRIPOS>SUBSTRUCTURE
  1 ****   6 GROUP 4 **** **** 0

# MOE 2024.06 (io_trps.svl 2023.06)
