@<TRIPOS>MOLECULE
NONAME
39 40 1 0 0 
SMALL
USER_CHARGES


@<TRIPOS>ATOM
  1 O       -1.8330     3.9160    -1.9810 O.2   1 <1>  -0.5700 
  2 C       -1.7990     3.4040    -0.8760 C.2   1 <1>   0.5440 
  3 N       -2.9820     2.9950    -0.2860 N.am  1 <1>  -0.6600 
  4 C       -0.5290     3.2940    -0.1930 C.ar  1 <1>   0.0860 
  5 C       -4.2770     3.1000    -1.0240 C.3   1 <1>   0.1400 
  6 C       -3.0680     2.5710     1.1380 C.3   1 <1>   0.1400 
  7 C        0.2600     2.1410    -0.2740 C.ar  1 <1>   0.0830 
  8 C       -0.0610     4.3630     0.5710 C.ar  1 <1>  -0.1500 
  9 C       -4.5020     1.8760    -1.9210 C.3   1 <1>  -0.1600 
 10 C       -2.7360     1.0830     1.3440 C.3   1 <1>  -0.1600 
 11 O       -0.2030     1.1130    -1.0260 O.3   1 <1>  -0.3620 
 12 C        1.4730     2.0750     0.4090 C.ar  1 <1>  -0.1500 
 13 C        1.1420     4.2930     1.2470 C.ar  1 <1>  -0.1500 
 14 C       -5.2740     0.7010    -1.2830 C.3   1 <1>  -0.1600 
 15 C       -3.3510     0.1000     0.3310 C.3   1 <1>  -0.1600 
 16 C        0.5240    -0.0770    -1.2270 C.3   1 <1>   0.0400 
 17 C        1.9100     3.1450     1.1660 C.ar  1 <1>  -0.1500 
 18 C       -4.8670     0.2840     0.1420 C.3   1 <1>  -0.1600 
 19 H       -4.2440     3.9790    -1.6450 H     1 <1>   0.0800 
 20 H       -5.0990     3.2230    -0.3420 H     1 <1>   0.0800 
 21 H       -4.0580     2.7700     1.5060 H     1 <1>   0.0800 
 22 H       -2.3940     3.1650     1.7300 H     1 <1>   0.0800 
 23 H       -0.6560     5.2570     0.6250 H     1 <1>   0.1500 
 24 H       -3.5520     1.5410    -2.3000 H     1 <1>   0.0800 
 25 H       -5.0670     2.2000    -2.7760 H     1 <1>   0.0800 
 26 H       -3.0600     0.8080     2.3320 H     1 <1>   0.0800 
 27 H       -1.6680     0.9630     1.3290 H     1 <1>   0.0800 
 28 H        2.0910     1.1980     0.3610 H     1 <1>   0.1500 
 29 H        1.4840     5.1300     1.8320 H     1 <1>   0.1500 
 30 H       -5.1670    -0.1520    -1.9310 H     1 <1>   0.0800 
 31 H       -6.3210     0.9510    -1.2660 H     1 <1>   0.0800 
 32 H       -3.1620    -0.9010     0.6770 H     1 <1>   0.0800 
 33 H       -2.8340     0.1960    -0.6070 H     1 <1>   0.0800 
 34 H       -0.0510    -0.7120    -1.8770 H     1 <1>   0.0800 
 35 H        0.6710    -0.5620    -0.2790 H     1 <1>   0.0800 
 36 H        1.4640     0.1630    -1.6910 H     1 <1>   0.0800 
 37 H        2.8480     3.0890     1.6920 H     1 <1>   0.1500 
 38 H       -5.3540    -0.6500     0.3640 H     1 <1>   0.0800 
 39 H       -5.2570     0.9980     0.8440 H     1 <1>   0.0800 
@<TRIPOS>BOND
  1   1   2  2   
  2   2   3  am  
  3   2   4  1   
  4   3   5  1   
  5   3   6  1   
  6   4   7  ar  
  7   4   8  ar  
  8   5   9  1   
  9   5  19  1   
 10   5  20  1   
 11   6  10  1   
 12   6  21  1   
 13   6  22  1   
 14   7  11  1   
 15   7  12  ar  
 16   8  13  ar  
 17   8  23  1   
 18   9  14  1   
 19   9  24  1   
 20   9  25  1   
 21  10  15  1   
 22  10  26  1   
 23  10  27  1   
 24  11  16  1   
 25  12  17  ar  
 26  12  28  1   
 27  13  17  ar  
 28  13  29  1   
 29  14  18  1   
 30  14  30  1   
 31  14  31  1   
 32  15  18  1   
 33  15  32  1   
 34  15  33  1   
 35  16  34  1   
 36  16  35  1   
 37  16  36  1   
 38  17  37  1   
 39  18  38  1   
 40  18  39  1   
@<TRIPOS>SUBSTRUCTURE
  1 ****   2 GROUP 4 **** **** 0

# MOE 2024.06 (io_trps.svl 2023.06)
