@<TRIPOS>MOLECULE
NONAME
34 34 1 0 0 
SMALL
USER_CHARGES


@<TRIPOS>ATOM
  1 CL       0.3100     0.3840     1.1690 Cl    1 <1>  -0.1770 
  2 C        1.6260    -0.5090     0.4500 C.ar  1 <1>   0.1770 
  3 C        1.5840    -1.8880     0.4460 C.ar  1 <1>  -0.1500 
  4 C        2.6870     0.1810    -0.1000 C.ar  1 <1>  -0.1500 
  5 C        2.6240    -2.6170    -0.1150 C.ar  1 <1>   0.1990 
  6 C        3.7320    -0.5280    -0.6680 C.ar  1 <1>  -0.1500 
  7 N        2.5380    -4.0160    -0.0990 N.am  1 <1>  -0.6930 
  8 C        3.7070    -1.9210    -0.6810 C.ar  1 <1>   0.0830 
  9 S        3.7050    -5.0230     0.7020 S.o2  1 <1>   1.3330 
 10 C        1.4780    -4.6430    -0.9540 C.3   1 <1>   0.3370 
 11 O        4.7130    -2.6550    -1.2340 O.3   1 <1>  -0.3630 
 12 O        2.9510    -6.0040     1.4490 O.2   1 <1>  -0.6500 
 13 O        4.6870    -5.4630    -0.2560 O.2   1 <1>  -0.6500 
 14 C        4.4780    -3.9400     1.8870 C.3   1 <1>  -0.1350 
 15 C        0.2000    -5.0380    -0.1790 C.2   1 <1>   0.5690 
 16 C        2.0260    -5.7980    -1.8020 C.3   1 <1>  -0.2400 
 17 C        5.7190    -2.0680    -2.0290 C.3   1 <1>   0.0400 
 18 O       -0.8620    -4.5800    -0.5210 O.2   1 <1>  -0.5700 
 19 N        0.2440    -5.8780     0.8760 N.am  1 <1>  -0.8000 
 20 H        0.7400    -2.3920     0.8820 H     1 <1>   0.1500 
 21 H        2.6920     1.2570    -0.0820 H     1 <1>   0.1500 
 22 H        4.5510     0.0230    -1.0910 H     1 <1>   0.1500 
 23 H        1.1630    -3.8890    -1.6560 H     1 <1>   0.0800 
 24 H        3.7370    -3.4890     2.5180 H     1 <1>   0.0800 
 25 H        5.0300    -3.1700     1.3880 H     1 <1>   0.0800 
 26 H        5.1570    -4.4990     2.5000 H     1 <1>   0.0800 
 27 H        2.2690    -6.6490    -1.1920 H     1 <1>   0.0800 
 28 H        2.9000    -5.4790    -2.3430 H     1 <1>   0.0800 
 29 H        1.2800    -6.1030    -2.5130 H     1 <1>   0.0800 
 30 H        6.3330    -2.8600    -2.4220 H     1 <1>   0.0800 
 31 H        6.3160    -1.4160    -1.4170 H     1 <1>   0.0800 
 32 H        5.2580    -1.5300    -2.8380 H     1 <1>   0.0800 
 33 H       -0.6040    -6.1200     1.3880 H     1 <1>   0.3700 
 34 H        1.1380    -6.2200     1.2620 H     1 <1>   0.3700 
@<TRIPOS>BOND
  1   1   2  1   
  2   2   3  ar  
  3   2   4  ar  
  4   3   5  ar  
  5   3  20  1   
  6   4   6  ar  
  7   4  21  1   
  8   5   7  1   
  9   5   8  ar  
 10   6   8  ar  
 11   6  22  1   
 12   7   9  am  
 13   7  10  1   
 14   8  11  1   
 15   9  12  2   
 16   9  13  2   
 17   9  14  1   
 18  10  15  1   
 19  10  16  1   
 20  10  23  1   
 21  11  17  1   
 22  14  24  1   
 23  14  25  1   
 24  14  26  1   
 25  15  18  2   
 26  15  19  am  
 27  16  27  1   
 28  16  28  1   
 29  16  29  1   
 30  17  30  1   
 31  17  31  1   
 32  17  32  1   
 33  19  33  1   
 34  19  34  1   
@<TRIPOS>SUBSTRUCTURE
  1 ****   5 GROUP 4 **** **** 0

# MOE 2024.06 (io_trps.svl 2023.06)
