@<TRIPOS>MOLECULE
NONAME
36 38 1 0 0 
SMALL
USER_CHARGES


@<TRIPOS>ATOM
  1 N        0.2880     1.1080     1.9080 N.2   1 <1>  -0.5030 
  2 N        1.4230     1.1870     2.6970 N.pl3 1 <1>  -0.5690 
  3 C       -0.1580     2.1620     1.3180 C.2   1 <1>   0.4140 
  4 N        0.6060     3.3350     1.3920 N.pl3 1 <1>  -0.8190 
  5 C       -1.3860     2.1760     0.5400 C.ar  1 <1>   0.0860 
  6 C        0.5760     4.2270     0.2210 C.3   1 <1>   0.3690 
  7 C       -1.7700     3.3180    -0.1740 C.ar  1 <1>  -0.1430 
  8 C       -2.2190     1.0580     0.4550 C.ar  1 <1>  -0.1500 
  9 C       -0.8940     4.5630    -0.0950 C.3   1 <1>  -0.0170 
 10 C        1.2750     3.5370    -0.9720 C.3   1 <1>  -0.1600 
 11 C        1.3500     5.5050     0.5930 C.3   1 <1>  -0.1600 
 12 C       -2.9270     3.3320    -0.9330 C.ar  1 <1>  -0.1500 
 13 C       -3.3750     1.0700    -0.3020 C.ar  1 <1>  -0.1500 
 14 C        2.7700     3.2660    -0.7240 C.3   1 <1>  -0.1600 
 15 C        2.8500     5.2580     0.8460 C.3   1 <1>  -0.1600 
 16 C       -3.7320     2.2090    -1.0000 C.ar  1 <1>  -0.1500 
 17 C        3.5090     4.5570    -0.3490 C.3   1 <1>  -0.1600 
 18 H        1.4720     2.0300     3.2840 H     1 <1>   0.3110 
 19 H        1.6230     0.3420     3.2470 H     1 <1>   0.3110 
 20 H        1.5650     3.0160     1.5380 H     1 <1>   0.4000 
 21 H       -1.9500     0.1660     0.9940 H     1 <1>   0.1500 
 22 H       -1.2830     5.1960     0.6830 H     1 <1>   0.0800 
 23 H       -0.9470     5.1110    -1.0180 H     1 <1>   0.0800 
 24 H        0.7820     2.6120    -1.2140 H     1 <1>   0.0800 
 25 H        1.1870     4.1720    -1.8350 H     1 <1>   0.0800 
 26 H        1.2540     6.2140    -0.2100 H     1 <1>   0.0800 
 27 H        0.9090     5.9480     1.4690 H     1 <1>   0.0800 
 28 H       -3.2130     4.2170    -1.4750 H     1 <1>   0.1500 
 29 H       -3.9970     0.1930    -0.3490 H     1 <1>   0.1500 
 30 H        2.8820     2.5400     0.0640 H     1 <1>   0.0800 
 31 H        3.2090     2.8470    -1.6120 H     1 <1>   0.0800 
 32 H        3.3420     6.1980     1.0260 H     1 <1>   0.0800 
 33 H        2.9740     4.6550     1.7290 H     1 <1>   0.0800 
 34 H       -4.6310     2.2210    -1.5900 H     1 <1>   0.1500 
 35 H        3.5100     5.2230    -1.1950 H     1 <1>   0.0800 
 36 H        4.5340     4.3280    -0.1110 H     1 <1>   0.0800 
@<TRIPOS>BOND
  1   1   2  1   
  2   1   3  2   
  3   2  18  1   
  4   2  19  1   
  5   3   4  1   
  6   3   5  1   
  7   4   6  1   
  8   4  20  1   
  9   5   7  ar  
 10   5   8  ar  
 11   6   9  1   
 12   6  10  1   
 13   6  11  1   
 14   7   9  1   
 15   7  12  ar  
 16   8  13  ar  
 17   8  21  1   
 18   9  22  1   
 19   9  23  1   
 20  10  14  1   
 21  10  24  1   
 22  10  25  1   
 23  11  15  1   
 24  11  26  1   
 25  11  27  1   
 26  12  16  ar  
 27  12  28  1   
 28  13  16  ar  
 29  13  29  1   
 30  14  17  1   
 31  14  30  1   
 32  14  31  1   
 33  15  17  1   
 34  15  32  1   
 35  15  33  1   
 36  16  34  1   
 37  17  35  1   
 38  17  36  1   
@<TRIPOS>SUBSTRUCTURE
  1 ****   4 GROUP 4 **** **** 0

# MOE 2024.06 (io_trps.svl 2023.06)
