@<TRIPOS>MOLECULE
NONAME
38 40 1 0 0 
SMALL
USER_CHARGES


@<TRIPOS>ATOM
  1 S       -0.4380     1.0750     0.7340 S.3   1 <1>  -0.3710 
  2 C       -1.0990    -0.0060    -0.4700 C.2   1 <1>   0.6410 
  3 C        1.2570     0.8340     0.1020 C.3   1 <1>   0.2910 
  4 N       -0.2750    -0.5300    -1.2800 N.2   1 <1>  -0.6610 
  5 N       -2.4160    -0.1920    -0.4420 N.pl3 1 <1>  -0.8500 
  6 C        1.0140    -0.1430    -1.0550 C.2   1 <1>   0.7200 
  7 C        2.1110     0.2610     1.2390 C.3   1 <1>   0.1200 
  8 C        1.8000     2.1990    -0.3320 C.3   1 <1>   0.1200 
  9 O        1.9160    -0.5550    -1.7390 O.2   1 <1>  -0.5700 
 10 O        3.4660     0.4030     0.9390 O.3   1 <1>  -0.5600 
 11 O        3.1870     2.1420    -0.4700 O.3   1 <1>  -0.5600 
 12 C        3.8800     1.7110     0.6660 C.3   1 <1>   0.6240 
 13 C        5.3740     1.7140     0.3730 C.ar  1 <1>  -0.1430 
 14 C        6.2390     2.4960     1.1220 C.ar  1 <1>  -0.1500 
 15 C        5.8900     0.9350    -0.6500 C.ar  1 <1>  -0.1500 
 16 C        7.6000     2.5130     0.8650 C.ar  1 <1>   0.0820 
 17 C        7.2480     0.9300    -0.9150 C.ar  1 <1>  -0.1500 
 18 O        8.3210     3.3430     1.6730 O.3   1 <1>  -0.3630 
 19 C        8.1240     1.7080    -0.1610 C.ar  1 <1>   0.0820 
 20 C        9.4750     4.0000     1.1980 C.3   1 <1>   0.0400 
 21 O        9.4700     1.6830    -0.3920 O.3   1 <1>  -0.3630 
 22 C       10.0600     0.7440    -1.2630 C.3   1 <1>   0.0400 
 23 H       -2.8630    -0.8110    -1.1190 H     1 <1>   0.4000 
 24 H       -3.0230     0.2630     0.2390 H     1 <1>   0.4000 
 25 H        1.9100    -0.7870     1.3760 H     1 <1>   0.0800 
 26 H        1.9200     0.7820     2.1610 H     1 <1>   0.0800 
 27 H        1.5720     2.9530     0.4010 H     1 <1>   0.0800 
 28 H        1.3850     2.4910    -1.2810 H     1 <1>   0.0800 
 29 H        3.6440     2.3480     1.5010 H     1 <1>   0.0800 
 30 H        5.8650     3.1110     1.9200 H     1 <1>   0.1500 
 31 H        5.2210     0.3290    -1.2390 H     1 <1>   0.1500 
 32 H        7.5940     0.3080    -1.7170 H     1 <1>   0.1500 
 33 H        9.3040     4.3230     0.1860 H     1 <1>   0.0800 
 34 H        9.6620     4.8480     1.8300 H     1 <1>   0.0800 
 35 H       10.3050     3.3200     1.2470 H     1 <1>   0.0800 
 36 H        9.7890    -0.2470    -0.9440 H     1 <1>   0.0800 
 37 H        9.7200     0.9350    -2.2650 H     1 <1>   0.0800 
 38 H       11.1270     0.8650    -1.2110 H     1 <1>   0.0800 
@<TRIPOS>BOND
  1   1   2  1   
  2   1   3  1   
  3   2   4  2   
  4   2   5  1   
  5   3   6  1   
  6   3   7  1   
  7   3   8  1   
  8   4   6  1   
  9   5  23  1   
 10   5  24  1   
 11   6   9  2   
 12   7  10  1   
 13   7  25  1   
 14   7  26  1   
 15   8  11  1   
 16   8  27  1   
 17   8  28  1   
 18  10  12  1   
 19  11  12  1   
 20  12  13  1   
 21  12  29  1   
 22  13  14  ar  
 23  13  15  ar  
 24  14  16  ar  
 25  14  30  1   
 26  15  17  ar  
 27  15  31  1   
 28  16  18  1   
 29  16  19  ar  
 30  17  19  ar  
 31  17  32  1   
 32  18  20  1   
 33  19  21  1   
 34  20  33  1   
 35  20  34  1   
 36  20  35  1   
 37  21  22  1   
 38  22  36  1   
 39  22  37  1   
 40  22  38  1   
@<TRIPOS>SUBSTRUCTURE
  1 ****  12 GROUP 4 **** **** 0

# MOE 2024.06 (io_trps.svl 2023.06)
