@<TRIPOS>MOLECULE
NONAME
37 38 1 0 0 
SMALL
USER_CHARGES


@<TRIPOS>ATOM
  1 O        0.7910     2.0220     2.0780 O.2   1 <1>  -0.5700 
  2 C        1.0070     2.1960     0.8930 C.2   1 <1>   0.7160 
  3 N        2.2050     1.7700     0.3530 N.am  1 <1>  -0.6600 
  4 C        0.0100     2.8540     0.0870 C.2   1 <1>  -0.0860 
  5 C        3.0270     0.7540     1.0870 C.3   1 <1>   0.1400 
  6 C        2.7540     2.4140    -0.8820 C.3   1 <1>   0.1400 
  7 C       -0.5550     2.5260    -1.0940 C.2   1 <1>  -0.0400 
  8 C       -0.6290     4.0520     0.3650 C.2   1 <1>   0.1080 
  9 C        3.5520    -0.3790     0.1960 C.3   1 <1>  -0.1600 
 10 C        4.2200     2.8480    -0.7320 C.3   1 <1>  -0.1600 
 11 O       -1.4140     3.4280    -1.5020 O.3   1 <1>  -0.0190 
 12 C       -0.3460     1.2990    -1.9610 C.3   1 <1>  -0.0600 
 13 N       -1.4390     4.3600    -0.5760 N.2   1 <1>  -0.4100 
 14 C       -0.4130     4.8970     1.6030 C.3   1 <1>  -0.0590 
 15 C        4.9700    -0.1710    -0.3750 C.3   1 <1>  -0.1600 
 16 C        5.1960     2.0850    -1.6420 C.3   1 <1>  -0.1600 
 17 C        5.0210     0.5590    -1.7250 C.3   1 <1>  -0.1600 
 18 H        2.4110     0.2980     1.8440 H     1 <1>   0.0800 
 19 H        3.8360     1.2360     1.6060 H     1 <1>   0.0800 
 20 H        2.1810     3.2960    -1.1110 H     1 <1>   0.0800 
 21 H        2.6320     1.7440    -1.7140 H     1 <1>   0.0800 
 22 H        2.8420    -0.6120    -0.5780 H     1 <1>   0.0800 
 23 H        3.6080    -1.2490     0.8270 H     1 <1>   0.0800 
 24 H        4.5430     2.7850     0.2900 H     1 <1>   0.0800 
 25 H        4.2840     3.8890    -0.9980 H     1 <1>   0.0800 
 26 H        0.3290     0.6090    -1.4890 H     1 <1>   0.0800 
 27 H        0.0570     1.5900    -2.9140 H     1 <1>   0.0800 
 28 H       -1.2880     0.8050    -2.1180 H     1 <1>   0.0800 
 29 H       -0.9780     5.8080     1.5320 H     1 <1>   0.0800 
 30 H       -0.7370     4.3540     2.4720 H     1 <1>   0.0800 
 31 H        0.6280     5.1370     1.7070 H     1 <1>   0.0800 
 32 H        5.3840    -1.1510    -0.5370 H     1 <1>   0.0800 
 33 H        5.6070     0.3150     0.3440 H     1 <1>   0.0800 
 34 H        6.1980     2.3000    -1.3110 H     1 <1>   0.0800 
 35 H        5.1090     2.4780    -2.6410 H     1 <1>   0.0800 
 36 H        4.1550     0.3070    -2.3120 H     1 <1>   0.0800 
 37 H        5.8680     0.1790    -2.2710 H     1 <1>   0.0800 
@<TRIPOS>BOND
  1   1   2  2   
  2   2   3  am  
  3   2   4  1   
  4   3   5  1   
  5   3   6  1   
  6   4   7  2   
  7   4   8  1   
  8   5   9  1   
  9   5  18  1   
 10   5  19  1   
 11   6  10  1   
 12   6  20  1   
 13   6  21  1   
 14   7  11  1   
 15   7  12  1   
 16   8  13  2   
 17   8  14  1   
 18   9  15  1   
 19   9  22  1   
 20   9  23  1   
 21  10  16  1   
 22  10  24  1   
 23  10  25  1   
 24  11  13  1   
 25  12  26  1   
 26  12  27  1   
 27  12  28  1   
 28  14  29  1   
 29  14  30  1   
 30  14  31  1   
 31  15  17  1   
 32  15  32  1   
 33  15  33  1   
 34  16  17  1   
 35  16  34  1   
 36  16  35  1   
 37  17  36  1   
 38  17  37  1   
@<TRIPOS>SUBSTRUCTURE
  1 ****   3 GROUP 4 **** **** 0

# MOE 2024.06 (io_trps.svl 2023.06)
