@<TRIPOS>MOLECULE
NONAME
42 44 1 0 0 
SMALL
USER_CHARGES


@<TRIPOS>ATOM
  1 CL       0.6970    -0.6470     0.6350 Cl    1 <1>  -0.1770 
  2 C        1.8650     0.6100     0.3030 C.ar  1 <1>   0.1770 
  3 C        2.7870     0.4280    -0.7110 C.ar  1 <1>  -0.1500 
  4 C        1.8510     1.7670     1.0590 C.ar  1 <1>  -0.1500 
  5 C        3.7100     1.4260    -0.9710 C.ar  1 <1>  -0.1500 
  6 C        2.7790     2.7580     0.7910 C.ar  1 <1>  -0.1500 
  7 C        3.7160     2.6030    -0.2280 C.ar  1 <1>   0.1000 
  8 N        4.6750     3.5800    -0.5140 N.pl3 1 <1>  -0.6000 
  9 C        4.6340     4.9440    -0.4650 C.ar  1 <1>   0.7200 
 10 N        3.4950     5.5440    -0.2550 N.ar  1 <1>  -0.6200 
 11 N        5.7870     5.5180    -0.6610 N.ar  1 <1>  -0.6200 
 12 C        3.5730     6.8500    -0.2460 C.ar  1 <1>   0.7200 
 13 C        5.7220     6.8210    -0.6220 C.ar  1 <1>   0.7200 
 14 N        4.6670     7.5480    -0.4190 N.ar  1 <1>  -0.6200 
 15 N        2.4090     7.5440    -0.0260 N.pl3 1 <1>  -0.8380 
 16 N        6.8640     7.5250    -0.7940 N.pl3 1 <1>  -0.8690 
 17 C        1.0840     6.8920     0.0500 C.3   1 <1>   0.2090 
 18 C        2.2770     9.0050    -0.2120 C.3   1 <1>   0.2090 
 19 C        8.2380     6.9780    -0.6810 C.3   1 <1>   0.2090 
 20 C        0.0960     8.0430     0.1890 C.3   1 <1>  -0.1600 
 21 C        0.7920     9.2300    -0.4730 C.3   1 <1>  -0.1600 
 22 C        8.6130     6.7780     0.7910 C.3   1 <1>   0.1200 
 23 O        9.8820     6.2190     0.8810 O.3   1 <1>  -0.6800 
 24 H        2.7770    -0.4810    -1.2840 H     1 <1>   0.1500 
 25 H        1.1270     1.8860     1.8430 H     1 <1>   0.1500 
 26 H        4.4270     1.2930    -1.7600 H     1 <1>   0.1500 
 27 H        2.7780     3.6580     1.3800 H     1 <1>   0.1500 
 28 H        5.5640     3.2590    -0.8840 H     1 <1>   0.4000 
 29 H        6.7460     8.5240    -0.6290 H     1 <1>   0.4000 
 30 H        1.0340     6.2200     0.8910 H     1 <1>   0.0800 
 31 H        0.9050     6.3450    -0.8610 H     1 <1>   0.0800 
 32 H        2.8760     9.3520    -1.0380 H     1 <1>   0.0800 
 33 H        2.5840     9.5020     0.6930 H     1 <1>   0.0800 
 34 H        8.9280     7.6640    -1.1400 H     1 <1>   0.0800 
 35 H        8.2890     6.0370    -1.2020 H     1 <1>   0.0800 
 36 H       -0.0550     8.2450     1.2350 H     1 <1>   0.0800 
 37 H       -0.8500     7.8130    -0.2660 H     1 <1>   0.0800 
 38 H        0.6200     9.2070    -1.5350 H     1 <1>   0.0800 
 39 H        0.4570    10.1740    -0.0830 H     1 <1>   0.0800 
 40 H        7.9180     6.1160     1.2780 H     1 <1>   0.0800 
 41 H        8.6330     7.7240     1.3020 H     1 <1>   0.0800 
 42 H        9.8670     5.2810     0.6060 H     1 <1>   0.4000 
@<TRIPOS>BOND
  1   1   2  1   
  2   2   3  ar  
  3   2   4  ar  
  4   3   5  ar  
  5   3  24  1   
  6   4   6  ar  
  7   4  25  1   
  8   5   7  ar  
  9   5  26  1   
 10   6   7  ar  
 11   6  27  1   
 12   7   8  1   
 13   8   9  1   
 14   8  28  1   
 15   9  10  ar  
 16   9  11  ar  
 17  10  12  ar  
 18  11  13  ar  
 19  12  14  ar  
 20  12  15  1   
 21  13  14  ar  
 22  13  16  1   
 23  15  17  1   
 24  15  18  1   
 25  16  19  1   
 26  16  29  1   
 27  17  20  1   
 28  17  30  1   
 29  17  31  1   
 30  18  21  1   
 31  18  32  1   
 32  18  33  1   
 33  19  22  1   
 34  19  34  1   
 35  19  35  1   
 36  20  21  1   
 37  20  36  1   
 38  20  37  1   
 39  21  38  1   
 40  21  39  1   
 41  22  23  1   
 42  22  40  1   
 43  22  41  1   
 44  23  42  1   
@<TRIPOS>SUBSTRUCTURE
  1 ****  10 GROUP 4 **** **** 0

# MOE 2024.06 (io_trps.svl 2023.06)
