@<TRIPOS>MOLECULE
NONAME
32 32 1 0 0 
SMALL
USER_CHARGES


@<TRIPOS>ATOM
  1 CL      -0.1590    -0.9650     0.1030 Cl    1 <1>  -0.1770 
  2 C        1.5520    -1.3180     0.1960 C.ar  1 <1>   0.1770 
  3 C        2.1790    -2.0170    -0.8270 C.ar  1 <1>  -0.1440 
  4 C        2.2500    -0.8840     1.3080 C.ar  1 <1>  -0.1500 
  5 C        3.5360    -2.2760    -0.7110 C.ar  1 <1>  -0.1500 
  6 C        1.4050    -2.4930    -2.0470 C.3   1 <1>  -0.0960 
  7 C        3.6040    -1.1470     1.4130 C.ar  1 <1>  -0.1500 
  8 C        4.2530    -1.8470     0.3970 C.ar  1 <1>   0.0830 
  9 O        5.5760    -2.1480     0.4180 O.3   1 <1>  -0.3630 
 10 C        6.4030    -1.7560     1.5080 C.3   1 <1>   0.1810 
 11 C        7.8470    -2.2020     1.3120 C.2   1 <1>   0.5690 
 12 O        8.6520    -1.9300     2.1700 O.2   1 <1>  -0.5700 
 13 N        8.1920    -2.8880     0.1900 N.am  1 <1>  -0.7300 
 14 C        9.5290    -3.3840    -0.1440 C.3   1 <1>   0.2200 
 15 C        9.9680    -2.7290    -1.4490 C.3   1 <1>  -0.2400 
 16 C        9.4550    -4.9000    -0.2800 C.3   1 <1>  -0.2400 
 17 H        1.7310    -0.3450     2.0800 H     1 <1>   0.1500 
 18 H        4.0560    -2.8140    -1.4830 H     1 <1>   0.1500 
 19 H        0.9710    -1.6510    -2.5570 H     1 <1>   0.0800 
 20 H        0.6160    -3.1580    -1.7450 H     1 <1>   0.0800 
 21 H        2.0470    -3.0140    -2.7330 H     1 <1>   0.0800 
 22 H        4.1270    -0.8000     2.2840 H     1 <1>   0.1500 
 23 H        6.0180    -2.2030     2.4050 H     1 <1>   0.0800 
 24 H        6.3760    -0.6850     1.5870 H     1 <1>   0.0800 
 25 H        7.4570    -3.0830    -0.4930 H     1 <1>   0.3700 
 26 H       10.2220    -3.1240     0.6420 H     1 <1>   0.0800 
 27 H        9.2920    -2.9750    -2.2480 H     1 <1>   0.0800 
 28 H       10.9520    -3.0700    -1.7150 H     1 <1>   0.0800 
 29 H       10.0040    -1.6610    -1.3270 H     1 <1>   0.0800 
 30 H        8.7700    -5.1820    -1.0590 H     1 <1>   0.0800 
 31 H        9.1360    -5.3340     0.6510 H     1 <1>   0.0800 
 32 H       10.4270    -5.2930    -0.5180 H     1 <1>   0.0800 
@<TRIPOS>BOND
  1   1   2  1   
  2   2   3  ar  
  3   2   4  ar  
  4   3   5  ar  
  5   3   6  1   
  6   4   7  ar  
  7   4  17  1   
  8   5   8  ar  
  9   5  18  1   
 10   6  19  1   
 11   6  20  1   
 12   6  21  1   
 13   7   8  ar  
 14   7  22  1   
 15   8   9  1   
 16   9  10  1   
 17  10  11  1   
 18  10  23  1   
 19  10  24  1   
 20  11  12  2   
 21  11  13  am  
 22  13  14  1   
 23  13  25  1   
 24  14  15  1   
 25  14  16  1   
 26  14  26  1   
 27  15  27  1   
 28  15  28  1   
 29  15  29  1   
 30  16  30  1   
 31  16  31  1   
 32  16  32  1   
@<TRIPOS>SUBSTRUCTURE
  1 ****   9 GROUP 4 **** **** 0

# MOE 2024.06 (io_trps.svl 2023.06)
