@<TRIPOS>MOLECULE
NONAME
53 55 1 0 0 
SMALL
USER_CHARGES


@<TRIPOS>ATOM
  1 S       -0.1320    -0.9590    -1.8790 S.3   1 <1>  -0.0800 
  2 C       -0.5930     0.3300    -0.7770 C.2   1 <1>   0.1040 
  3 C        1.5000    -1.0270    -1.2260 C.2   1 <1>  -0.1400 
  4 N       -1.8760     0.8530    -0.7790 N.am  1 <1>  -0.4940 
  5 C        0.4620     0.6810     0.0130 C.2   1 <1>  -0.0860 
  6 C        1.6360    -0.1110    -0.2500 C.2   1 <1>  -0.1500 
  7 C        2.4410    -2.0560    -1.8360 C.3   1 <1>   0.1000 
  8 C       -2.9790     0.6440    -1.5650 C.2   1 <1>   0.5690 
  9 C        0.4110     1.7150     1.0100 C.2   1 <1>   0.7160 
 10 C        2.0320    -3.4680    -1.4040 C.3   1 <1>  -0.2400 
 11 C        3.8940    -1.7850    -1.4330 C.3   1 <1>  -0.2400 
 12 O       -3.0030    -0.0940    -2.5190 O.2   1 <1>  -0.5700 
 13 C       -4.2520     1.3910    -1.2040 C.3   1 <1>   0.0450 
 14 O       -0.5800     1.8200     1.7150 O.2   1 <1>  -0.5700 
 15 N        1.4370     2.6190     1.1840 N.am  1 <1>  -0.6600 
 16 C       -3.9690     2.6740    -0.4290 C.ar  1 <1>  -0.1430 
 17 C        1.5050     3.5010     2.3850 C.3   1 <1>   0.1400 
 18 C        2.3520     3.0540     0.0880 C.3   1 <1>   0.1400 
 19 C       -3.7070     3.8540    -1.1090 C.ar  1 <1>  -0.1500 
 20 C       -3.9420     2.6660     0.9570 C.ar  1 <1>  -0.1500 
 21 C        2.9670     3.7330     2.8030 C.3   1 <1>   0.1200 
 22 C        3.7680     3.2930     0.6370 C.3   1 <1>   0.1200 
 23 C       -3.4180     5.0180    -0.4180 C.ar  1 <1>  -0.1430 
 24 C       -3.6490     3.8250     1.6520 C.ar  1 <1>  -0.1500 
 25 O        3.7310     4.1810     1.7180 O.3   1 <1>  -0.5600 
 26 C       -3.3880     4.9980     0.9670 C.ar  1 <1>  -0.1500 
 27 C       -3.1270     6.3050    -1.1690 C.3   1 <1>  -0.0970 
 28 H       -2.0380     1.5470    -0.0380 H     1 <1>   0.3700 
 29 H        2.5310     0.0500     0.3250 H     1 <1>   0.1500 
 30 H        2.3680    -1.9850    -2.9090 H     1 <1>   0.0800 
 31 H        2.0660    -3.5550    -0.3330 H     1 <1>   0.0800 
 32 H        2.6920    -4.1990    -1.8350 H     1 <1>   0.0800 
 33 H        1.0300    -3.6810    -1.7320 H     1 <1>   0.0800 
 34 H        4.0130    -1.8740    -0.3680 H     1 <1>   0.0800 
 35 H        4.1810    -0.7940    -1.7340 H     1 <1>   0.0800 
 36 H        4.5500    -2.4900    -1.9120 H     1 <1>   0.0800 
 37 H       -4.8750     0.7380    -0.6220 H     1 <1>   0.0800 
 38 H       -4.7820     1.6240    -2.1090 H     1 <1>   0.0800 
 39 H        0.9670     3.0550     3.2050 H     1 <1>   0.0800 
 40 H        1.0430     4.4460     2.1580 H     1 <1>   0.0800 
 41 H        1.9830     3.9740    -0.3310 H     1 <1>   0.0800 
 42 H        2.3890     2.3280    -0.7030 H     1 <1>   0.0800 
 43 H       -3.7220     3.8660    -2.1860 H     1 <1>   0.1500 
 44 H       -4.1390     1.7610     1.5060 H     1 <1>   0.1500 
 45 H        3.4010     2.8220     3.1780 H     1 <1>   0.0800 
 46 H        3.0180     4.4820     3.5730 H     1 <1>   0.0800 
 47 H        4.3920     3.7280    -0.1230 H     1 <1>   0.0800 
 48 H        4.2110     2.3680     0.9630 H     1 <1>   0.0800 
 49 H       -3.6200     3.8130     2.7270 H     1 <1>   0.1500 
 50 H       -3.1590     5.8940     1.5170 H     1 <1>   0.1500 
 51 H       -2.0700     6.3910    -1.3460 H     1 <1>   0.0800 
 52 H       -3.4550     7.1550    -0.5990 H     1 <1>   0.0800 
 53 H       -3.6390     6.3130    -2.1140 H     1 <1>   0.0800 
@<TRIPOS>BOND
  1   1   2  1   
  2   1   3  1   
  3   2   4  1   
  4   2   5  2   
  5   3   6  2   
  6   3   7  1   
  7   4   8  am  
  8   4  28  1   
  9   5   6  1   
 10   5   9  1   
 11   6  29  1   
 12   7  10  1   
 13   7  11  1   
 14   7  30  1   
 15   8  12  2   
 16   8  13  1   
 17   9  14  2   
 18   9  15  am  
 19  10  31  1   
 20  10  32  1   
 21  10  33  1   
 22  11  34  1   
 23  11  35  1   
 24  11  36  1   
 25  13  16  1   
 26  13  37  1   
 27  13  38  1   
 28  15  17  1   
 29  15  18  1   
 30  16  19  ar  
 31  16  20  ar  
 32  17  21  1   
 33  17  39  1   
 34  17  40  1   
 35  18  22  1   
 36  18  41  1   
 37  18  42  1   
 38  19  23  ar  
 39  19  43  1   
 40  20  24  ar  
 41  20  44  1   
 42  21  25  1   
 43  21  45  1   
 44  21  46  1   
 45  22  25  1   
 46  22  47  1   
 47  22  48  1   
 48  23  26  ar  
 49  23  27  1   
 50  24  26  ar  
 51  24  49  1   
 52  26  50  1   
 53  27  51  1   
 54  27  52  1   
 55  27  53  1   
@<TRIPOS>SUBSTRUCTURE
  1 ****   9 GROUP 4 **** **** 0

# MOE 2024.06 (io_trps.svl 2023.06)
