@<TRIPOS>MOLECULE
NONAME
40 41 1 0 0 
SMALL
USER_CHARGES


@<TRIPOS>ATOM
  1 CL      -2.0020     1.0370     1.9360 Cl    1 <1>  -0.1770 
  2 C       -1.0470     2.1280     0.9630 C.ar  1 <1>   0.1770 
  3 C       -1.4790     2.4560    -0.3110 C.ar  1 <1>  -0.1440 
  4 C        0.1190     2.6540     1.4930 C.ar  1 <1>  -0.1500 
  5 C       -0.7090     3.3430    -1.0450 C.ar  1 <1>   0.1770 
  6 C       -2.7470     1.8560    -0.8810 C.3   1 <1>   0.4870 
  7 C        0.8760     3.5350     0.7390 C.ar  1 <1>  -0.1500 
  8 CL      -1.2260     3.8130    -2.6450 Cl    1 <1>  -0.1770 
  9 C        0.4600     3.8820    -0.5360 C.ar  1 <1>  -0.1500 
 10 N       -3.9310     2.4820    -0.2320 N.4   1 <1>  -0.9590 
 11 C       -5.1770     1.7220    -0.5700 C.3   1 <1>   0.3430 
 12 C       -4.0480     3.9320    -0.5760 C.3   1 <1>   0.3430 
 13 C       -6.3990     2.2970     0.1550 C.3   1 <1>  -0.0190 
 14 C       -5.2300     4.5470     0.1750 C.3   1 <1>  -0.1600 
 15 C       -7.6300     1.5260    -0.2860 C.2   1 <1>   0.6590 
 16 C       -6.5440     3.8070    -0.1200 C.3   1 <1>  -0.1600 
 17 O       -7.5930     0.7790    -1.2280 O.2   1 <1>  -0.5700 
 18 O       -8.7250     1.7270     0.4280 O.3   1 <1>  -0.4300 
 19 C       -9.9370     1.0750     0.1210 C.3   1 <1>   0.1200 
 20 C      -10.9880     1.5340     1.1260 C.3   1 <1>  -0.2400 
 21 H        0.4310     2.3770     2.4860 H     1 <1>   0.1500 
 22 H       -2.7440     0.7940    -0.6900 H     1 <1>   0.0800 
 23 H       -2.7870     2.0010    -1.9490 H     1 <1>   0.0800 
 24 H        1.7870     3.9480     1.1420 H     1 <1>   0.1500 
 25 H        1.0400     4.5670    -1.1320 H     1 <1>   0.1500 
 26 H       -3.7790     2.4110     0.7850 H     1 <1>   0.4500 
 27 H       -5.0640     0.6840    -0.2990 H     1 <1>   0.0800 
 28 H       -5.3520     1.7670    -1.6340 H     1 <1>   0.0800 
 29 H       -4.1980     4.0450    -1.6390 H     1 <1>   0.0800 
 30 H       -3.1430     4.4540    -0.3070 H     1 <1>   0.0800 
 31 H       -6.2810     2.1340     1.2110 H     1 <1>   0.0800 
 32 H       -5.3320     5.5780    -0.1190 H     1 <1>   0.0800 
 33 H       -5.0280     4.5360     1.2320 H     1 <1>   0.0800 
 34 H       -7.3350     4.2140     0.4890 H     1 <1>   0.0800 
 35 H       -6.8160     3.9600    -1.1520 H     1 <1>   0.0800 
 36 H       -9.7800     0.0110     0.1840 H     1 <1>   0.0800 
 37 H      -10.2240     1.3380    -0.8840 H     1 <1>   0.0800 
 38 H      -10.6870     1.2730     2.1250 H     1 <1>   0.0800 
 39 H      -11.9250     1.0510     0.9160 H     1 <1>   0.0800 
 40 H      -11.1300     2.5980     1.0580 H     1 <1>   0.0800 
@<TRIPOS>BOND
  1   1   2  1   
  2   2   3  ar  
  3   2   4  ar  
  4   3   5  ar  
  5   3   6  1   
  6   4   7  ar  
  7   4  21  1   
  8   5   8  1   
  9   5   9  ar  
 10   6  10  1   
 11   6  22  1   
 12   6  23  1   
 13   7   9  ar  
 14   7  24  1   
 15   9  25  1   
 16  10  11  1   
 17  10  12  1   
 18  10  26  1   
 19  11  13  1   
 20  11  27  1   
 21  11  28  1   
 22  12  14  1   
 23  12  29  1   
 24  12  30  1   
 25  13  15  1   
 26  13  16  1   
 27  13  31  1   
 28  14  16  1   
 29  14  32  1   
 30  14  33  1   
 31  15  17  2   
 32  15  18  1   
 33  16  34  1   
 34  16  35  1   
 35  18  19  1   
 36  19  20  1   
 37  19  36  1   
 38  19  37  1   
 39  20  38  1   
 40  20  39  1   
 41  20  40  1   
@<TRIPOS>SUBSTRUCTURE
  1 ****  10 GROUP 4 **** **** 0

# MOE 2024.06 (io_trps.svl 2023.06)
