@<TRIPOS>MOLECULE
NONAME
26 27 1 0 0 
SMALL
USER_CHARGES


@<TRIPOS>ATOM
  1 O       -0.2910    -0.0590     0.0800 O.3   1 <1>  -0.6800 
  2 C       -1.4360     0.7210    -0.0190 C.3   1 <1>   0.1200 
  3 C       -2.6520    -0.0710     0.5010 C.3   1 <1>  -0.0800 
  4 C       -2.6290    -1.6110     0.3560 C.3   1 <1>   0.5670 
  5 C       -3.9860     0.4020    -0.1140 C.3   1 <1>  -0.0170 
  6 N       -1.9590    -2.0330    -0.8720 N.4   1 <1>  -0.8530 
  7 C       -4.0790    -1.9670     0.1850 C.ar  1 <1>  -0.1440 
  8 C       -4.8290    -0.8500    -0.0940 C.ar  1 <1>  -0.1440 
  9 C       -4.6740    -3.2160     0.2680 C.ar  1 <1>  -0.1500 
 10 C       -6.1900    -0.9480    -0.3100 C.ar  1 <1>  -0.1500 
 11 C       -6.0390    -3.3210     0.0530 C.ar  1 <1>  -0.1500 
 12 C       -6.7920    -2.1930    -0.2370 C.ar  1 <1>  -0.1500 
 13 H        0.5120     0.5130     0.0860 H     1 <1>   0.4000 
 14 H       -1.2950     1.6170     0.5640 H     1 <1>   0.0800 
 15 H       -1.5540     0.9970    -1.0550 H     1 <1>   0.0800 
 16 H       -2.7270     0.1190     1.5580 H     1 <1>   0.0800 
 17 H       -2.1880    -2.0760     1.2230 H     1 <1>   0.0800 
 18 H       -3.8700     0.7350    -1.1310 H     1 <1>   0.0800 
 19 H       -4.4360     1.1860     0.4710 H     1 <1>   0.0800 
 20 H       -2.5300    -1.7460    -1.6690 H     1 <1>   0.4500 
 21 H       -1.8320    -3.0460    -0.8880 H     1 <1>   0.4500 
 22 H       -1.0480    -1.5470    -0.8820 H     1 <1>   0.4500 
 23 H       -4.1050    -4.1000     0.4990 H     1 <1>   0.1500 
 24 H       -6.7810    -0.0740    -0.5290 H     1 <1>   0.1500 
 25 H       -6.5230    -4.2820     0.1130 H     1 <1>   0.1500 
 26 H       -7.8530    -2.2860    -0.4020 H     1 <1>   0.1500 
@<TRIPOS>BOND
  1   1   2  1   
  2   1  13  1   
  3   2   3  1   
  4   2  14  1   
  5   2  15  1   
  6   3   4  1   
  7   3   5  1   
  8   3  16  1   
  9   4   6  1   
 10   4   7  1   
 11   4  17  1   
 12   5   8  1   
 13   5  18  1   
 14   5  19  1   
 15   6  20  1   
 16   6  21  1   
 17   6  22  1   
 18   7   8  ar  
 19   7   9  ar  
 20   8  10  ar  
 21   9  11  ar  
 22   9  23  1   
 23  10  12  ar  
 24  10  24  1   
 25  11  12  ar  
 26  11  25  1   
 27  12  26  1   
@<TRIPOS>SUBSTRUCTURE
  1 ****   7 GROUP 4 **** **** 0

# MOE 2024.06 (io_trps.svl 2023.06)
