@<TRIPOS>MOLECULE
NONAME
50 52 1 0 0 
SMALL
USER_CHARGES


@<TRIPOS>ATOM
  1 O       -0.7440    -0.1930     1.3930 O.2   1 <1>  -0.5700 
  2 C       -1.0230    -1.3550     1.1570 C.2   1 <1>   0.5440 
  3 N       -2.3420    -1.7000     1.2140 N.am  1 <1>  -0.7300 
  4 C        0.0240    -2.3180     0.8290 C.ar  1 <1>   0.0860 
  5 C       -3.4970    -0.7960     1.4410 C.3   1 <1>   0.1400 
  6 C       -0.2060    -3.6370     0.3790 C.ar  1 <1>   0.0830 
  7 C        1.3600    -1.9250     0.9660 C.ar  1 <1>  -0.1500 
  8 C       -4.3670    -0.6410     0.1700 C.3   1 <1>   0.1440 
  9 O       -1.4860    -4.0670     0.2270 O.3   1 <1>  -0.3620 
 10 C        0.8610    -4.4870     0.0910 C.ar  1 <1>  -0.1500 
 11 C        2.4120    -2.7710     0.6810 C.ar  1 <1>  -0.1500 
 12 C       -4.8260    -2.0330    -0.3110 C.ar  1 <1>  -0.1430 
 13 C       -5.5570     0.2870     0.4690 C.3   1 <1>  -0.1600 
 14 C       -3.6250     0.1740    -0.9050 C.3   1 <1>  -0.1600 
 15 C       -1.8420    -5.4020    -0.0610 C.3   1 <1>   0.0400 
 16 C        2.1730    -4.0590     0.2410 C.ar  1 <1>   0.0830 
 17 C       -4.1790    -2.6960    -1.3490 C.ar  1 <1>  -0.1500 
 18 C       -5.8950    -2.6720     0.3080 C.ar  1 <1>  -0.1500 
 19 C       -5.0350     1.7230     0.3480 C.3   1 <1>  -0.1600 
 20 C       -3.7620     1.6420    -0.4980 C.3   1 <1>  -0.1600 
 21 O        3.2570    -4.8260    -0.0170 O.3   1 <1>  -0.3630 
 22 C       -4.6030    -3.9430    -1.7730 C.ar  1 <1>  -0.1500 
 23 C       -6.3180    -3.9220    -0.1100 C.ar  1 <1>  -0.1500 
 24 C        3.1440    -6.1570    -0.4680 C.3   1 <1>   0.0400 
 25 C       -5.6740    -4.5590    -1.1550 C.ar  1 <1>  -0.1500 
 26 H       -2.5880    -2.6390     0.8750 H     1 <1>   0.3700 
 27 H       -3.1440     0.1660     1.7710 H     1 <1>   0.0800 
 28 H       -4.0970    -1.2110     2.2310 H     1 <1>   0.0800 
 29 H        1.5800    -0.9280     1.3060 H     1 <1>   0.1500 
 30 H        0.6770    -5.4820    -0.2550 H     1 <1>   0.1500 
 31 H        3.4280    -2.4370     0.7970 H     1 <1>   0.1500 
 32 H       -5.9910     0.1060     1.4360 H     1 <1>   0.0800 
 33 H       -6.3130     0.1330    -0.2820 H     1 <1>   0.0800 
 34 H       -4.1160     0.0390    -1.8530 H     1 <1>   0.0800 
 35 H       -2.5920    -0.1110    -1.0040 H     1 <1>   0.0800 
 36 H       -1.4160    -6.0470     0.6860 H     1 <1>   0.0800 
 37 H       -1.4860    -5.6550    -1.0430 H     1 <1>   0.0800 
 38 H       -2.9150    -5.4730    -0.0320 H     1 <1>   0.0800 
 39 H       -3.3320    -2.2510    -1.8400 H     1 <1>   0.1500 
 40 H       -6.4110    -2.2030     1.1250 H     1 <1>   0.1500 
 41 H       -4.7980     2.1170     1.3220 H     1 <1>   0.0800 
 42 H       -5.7720     2.3580    -0.1140 H     1 <1>   0.0800 
 43 H       -3.8160     2.2810    -1.3630 H     1 <1>   0.0800 
 44 H       -2.9110     1.9330     0.0960 H     1 <1>   0.0800 
 45 H       -4.0950    -4.4330    -2.5860 H     1 <1>   0.1500 
 46 H       -7.1500    -4.3980     0.3780 H     1 <1>   0.1500 
 47 H        4.1360    -6.5500    -0.5970 H     1 <1>   0.0800 
 48 H        2.6230    -6.1640    -1.4080 H     1 <1>   0.0800 
 49 H        2.6170    -6.7330     0.2720 H     1 <1>   0.0800 
 50 H       -6.0070    -5.5270    -1.4840 H     1 <1>   0.1500 
@<TRIPOS>BOND
  1   1   2  2   
  2   2   3  am  
  3   2   4  1   
  4   3   5  1   
  5   3  26  1   
  6   4   6  ar  
  7   4   7  ar  
  8   5   8  1   
  9   5  27  1   
 10   5  28  1   
 11   6   9  1   
 12   6  10  ar  
 13   7  11  ar  
 14   7  29  1   
 15   8  12  1   
 16   8  13  1   
 17   8  14  1   
 18   9  15  1   
 19  10  16  ar  
 20  10  30  1   
 21  11  16  ar  
 22  11  31  1   
 23  12  17  ar  
 24  12  18  ar  
 25  13  19  1   
 26  13  32  1   
 27  13  33  1   
 28  14  20  1   
 29  14  34  1   
 30  14  35  1   
 31  15  36  1   
 32  15  37  1   
 33  15  38  1   
 34  16  21  1   
 35  17  22  ar  
 36  17  39  1   
 37  18  23  ar  
 38  18  40  1   
 39  19  20  1   
 40  19  41  1   
 41  19  42  1   
 42  20  43  1   
 43  20  44  1   
 44  21  24  1   
 45  22  25  ar  
 46  22  45  1   
 47  23  25  ar  
 48  23  46  1   
 49  24  47  1   
 50  24  48  1   
 51  24  49  1   
 52  25  50  1   
@<TRIPOS>SUBSTRUCTURE
  1 ****   3 GROUP 4 **** **** 0

# MOE 2024.06 (io_trps.svl 2023.06)
