@<TRIPOS>MOLECULE
NONAME
41 42 1 0 0 
SMALL
USER_CHARGES


@<TRIPOS>ATOM
  1 S        1.3950    -0.8400    -0.2810 S.o2  1 <1>   1.4470 
  2 O        1.4010     0.6020    -0.1410 O.2   1 <1>  -0.6500 
  3 O        2.1240    -1.4510    -1.3650 O.2   1 <1>  -0.6500 
  4 N        2.2130    -1.4380     1.0570 N.am  1 <1>  -0.9140 
  5 C       -0.2850    -1.5050    -0.1330 C.ar  1 <1>  -0.0090 
  6 C        3.2050    -0.5180     1.6260 C.3   1 <1>   0.3370 
  7 C       -1.1910    -1.3110    -1.1710 C.ar  1 <1>   0.0830 
  8 C       -0.7150    -2.2010     0.9940 C.ar  1 <1>  -0.1500 
  9 C        4.3790    -0.1580     0.6740 C.2   1 <1>   0.5690 
 10 C        3.6810    -1.1610     2.9310 C.3   1 <1>  -0.2400 
 11 O       -0.7560    -0.6190    -2.2530 O.3   1 <1>  -0.3630 
 12 C       -2.4870    -1.8150    -1.0790 C.ar  1 <1>  -0.1500 
 13 C       -2.0020    -2.7020     1.0930 C.ar  1 <1>  -0.1440 
 14 O        5.4070    -0.7980     0.7230 O.2   1 <1>  -0.5700 
 15 N        4.2140     0.8690    -0.2050 N.am  1 <1>  -0.5790 
 16 C       -1.5660    -0.4030    -3.3870 C.3   1 <1>   0.0400 
 17 C       -2.8870    -2.5070     0.0480 C.ar  1 <1>  -0.1500 
 18 C       -2.4300    -3.4590     2.3380 C.3   1 <1>  -0.0970 
 19 C        5.1690     1.2770    -1.2400 C.3   1 <1>   0.0490 
 20 C        5.0130     2.6330    -1.8420 C.3   1 <1>  -0.2000 
 21 C        4.6540     1.4120    -2.6340 C.3   1 <1>  -0.2000 
 22 H        2.7510    -2.2090     0.6590 H     1 <1>   0.4200 
 23 H        2.7120     0.4010     1.8960 H     1 <1>   0.0800 
 24 H       -0.0360    -2.3570     1.8140 H     1 <1>   0.1500 
 25 H        4.1720    -2.0970     2.7340 H     1 <1>   0.0800 
 26 H        2.8490    -1.3250     3.5920 H     1 <1>   0.0800 
 27 H        4.3820    -0.5100     3.4200 H     1 <1>   0.0800 
 28 H       -3.1990    -1.6770    -1.8700 H     1 <1>   0.1500 
 29 H        3.2660     1.2550    -0.3230 H     1 <1>   0.3700 
 30 H       -0.9890     0.1470    -4.1080 H     1 <1>   0.0800 
 31 H       -2.4300     0.1690    -3.0970 H     1 <1>   0.0800 
 32 H       -1.8520    -1.3550    -3.7990 H     1 <1>   0.0800 
 33 H       -3.8900    -2.8920     0.1080 H     1 <1>   0.1500 
 34 H       -2.0600    -2.9660     3.2190 H     1 <1>   0.0800 
 35 H       -2.0380    -4.4590     2.3080 H     1 <1>   0.0800 
 36 H       -3.5030    -3.5100     2.4040 H     1 <1>   0.0800 
 37 H        6.1600     0.8750    -1.0940 H     1 <1>   0.1000 
 38 H        5.8960     3.1790    -2.1220 H     1 <1>   0.1000 
 39 H        4.2240     3.2730    -1.4870 H     1 <1>   0.1000 
 40 H        3.6200     1.1780    -2.8180 H     1 <1>   0.1000 
 41 H        5.2960     1.1210    -3.4470 H     1 <1>   0.1000 
@<TRIPOS>BOND
  1   1   2  2   
  2   1   3  2   
  3   1   4  am  
  4   1   5  1   
  5   4   6  1   
  6   4  22  1   
  7   5   7  ar  
  8   5   8  ar  
  9   6   9  1   
 10   6  10  1   
 11   6  23  1   
 12   7  11  1   
 13   7  12  ar  
 14   8  13  ar  
 15   8  24  1   
 16   9  14  2   
 17   9  15  am  
 18  10  25  1   
 19  10  26  1   
 20  10  27  1   
 21  11  16  1   
 22  12  17  ar  
 23  12  28  1   
 24  13  17  ar  
 25  13  18  1   
 26  15  19  1   
 27  15  29  1   
 28  16  30  1   
 29  16  31  1   
 30  16  32  1   
 31  17  33  1   
 32  18  34  1   
 33  18  35  1   
 34  18  36  1   
 35  19  20  1   
 36  19  21  1   
 37  19  37  1   
 38  20  21  1   
 39  20  38  1   
 40  20  39  1   
 41  21  40  1   
 42  21  41  1   
@<TRIPOS>SUBSTRUCTURE
  1 ****   1 GROUP 4 **** **** 0

# MOE 2024.06 (io_trps.svl 2023.06)
