@<TRIPOS>MOLECULE
NONAME
49 51 1 0 0 
SMALL
USER_CHARGES


@<TRIPOS>ATOM
  1 S       -0.0430     0.0940     1.2640 S.3   1 <1>  -0.0800 
  2 C        0.0560    -1.5120     0.5310 C.2   1 <1>   0.1040 
  3 C        1.6650     0.3390     1.0000 C.2   1 <1>  -0.1400 
  4 N       -1.0720    -2.3120     0.4220 N.am  1 <1>  -0.4940 
  5 C        1.3380    -1.7960     0.1250 C.2   1 <1>  -0.0860 
  6 C        2.2300    -0.7030     0.4150 C.2   1 <1>  -0.1810 
  7 C        2.5430     1.5030     1.3240 C.3   1 <1>   0.0200 
  8 C       -2.3830    -2.1430     0.7850 C.2   1 <1>   0.5690 
  9 C        1.7360    -3.0240    -0.5050 C.2   1 <1>   0.8060 
 10 C        3.7020    -0.4420     0.2090 C.3   1 <1>   0.0210 
 11 C        3.9050     0.9840     0.7960 C.3   1 <1>  -0.1600 
 12 O       -2.8140    -1.1480     1.3130 O.2   1 <1>  -0.5700 
 13 C       -3.3360    -3.3000     0.4810 C.3   1 <1>  -0.0190 
 14 O        0.9530    -3.9310    -0.7390 O.2   1 <1>  -0.5700 
 15 O        3.0190    -3.1810    -0.8500 O.3   1 <1>  -0.4300 
 16 C       -4.0070    -3.1130    -0.8920 C.3   1 <1>  -0.1600 
 17 C       -4.4120    -3.4820     1.5710 C.3   1 <1>  -0.1600 
 18 C        3.4830    -4.3590    -1.4690 C.3   1 <1>   0.1200 
 19 C       -4.9750    -4.2570    -1.2100 C.3   1 <1>   0.1400 
 20 C       -5.3690    -4.6270     1.2310 C.3   1 <1>   0.1400 
 21 C        4.9790    -4.1990    -1.7220 C.3   1 <1>  -0.2400 
 22 N       -5.9710    -4.3910    -0.1110 N.am  1 <1>  -0.6600 
 23 C       -7.3150    -4.2790    -0.3630 C.2   1 <1>   0.5690 
 24 O       -7.7540    -4.1310    -1.4780 O.2   1 <1>  -0.5700 
 25 C       -8.3190    -4.3400     0.7650 C.3   1 <1>  -0.1790 
 26 H       -0.8730    -3.2110    -0.0280 H     1 <1>   0.3700 
 27 H        2.5640     1.6800     2.3840 H     1 <1>   0.0800 
 28 H        2.2170     2.3830     0.7980 H     1 <1>   0.0800 
 29 H        3.9460    -0.4700    -0.8390 H     1 <1>   0.0800 
 30 H        4.2910    -1.1690     0.7400 H     1 <1>   0.0800 
 31 H        4.6200     0.9510     1.5990 H     1 <1>   0.0800 
 32 H        4.2770     1.6450     0.0330 H     1 <1>   0.0800 
 33 H       -2.7550    -4.2050     0.4480 H     1 <1>   0.0800 
 34 H       -3.2580    -3.0620    -1.6620 H     1 <1>   0.0800 
 35 H       -4.5520    -2.1850    -0.9050 H     1 <1>   0.0800 
 36 H       -4.9820    -2.5750     1.6770 H     1 <1>   0.0800 
 37 H       -3.9380    -3.6800     2.5160 H     1 <1>   0.0800 
 38 H        2.9480    -4.4940    -2.3940 H     1 <1>   0.0800 
 39 H        3.2900    -5.1910    -0.8120 H     1 <1>   0.0800 
 40 H       -4.4370    -5.1830    -1.3100 H     1 <1>   0.0800 
 41 H       -5.4670    -4.0570    -2.1480 H     1 <1>   0.0800 
 42 H       -6.1230    -4.6990     1.9940 H     1 <1>   0.0800 
 43 H       -4.8310    -5.5590     1.2110 H     1 <1>   0.0800 
 44 H        5.1590    -3.3600    -2.3700 H     1 <1>   0.0800 
 45 H        5.3640    -5.0840    -2.1950 H     1 <1>   0.0800 
 46 H        5.5000    -4.0550    -0.7920 H     1 <1>   0.0800 
 47 H       -8.2730    -5.3000     1.2430 H     1 <1>   0.0800 
 48 H       -9.3100    -4.1970     0.3740 H     1 <1>   0.0800 
 49 H       -8.1160    -3.5630     1.4760 H     1 <1>   0.0800 
@<TRIPOS>BOND
  1   1   2  1   
  2   1   3  1   
  3   2   4  1   
  4   2   5  2   
  5   3   6  2   
  6   3   7  1   
  7   4   8  am  
  8   4  26  1   
  9   5   6  1   
 10   5   9  1   
 11   6  10  1   
 12   7  11  1   
 13   7  27  1   
 14   7  28  1   
 15   8  12  2   
 16   8  13  1   
 17   9  14  2   
 18   9  15  1   
 19  10  11  1   
 20  10  29  1   
 21  10  30  1   
 22  11  31  1   
 23  11  32  1   
 24  13  16  1   
 25  13  17  1   
 26  13  33  1   
 27  15  18  1   
 28  16  19  1   
 29  16  34  1   
 30  16  35  1   
 31  17  20  1   
 32  17  36  1   
 33  17  37  1   
 34  18  21  1   
 35  18  38  1   
 36  18  39  1   
 37  19  22  1   
 38  19  40  1   
 39  19  41  1   
 40  20  22  1   
 41  20  42  1   
 42  20  43  1   
 43  21  44  1   
 44  21  45  1   
 45  21  46  1   
 46  22  23  am  
 47  23  24  2   
 48  23  25  1   
 49  25  47  1   
 50  25  48  1   
 51  25  49  1   
@<TRIPOS>SUBSTRUCTURE
  1 ****   4 GROUP 4 **** **** 0

# MOE 2024.06 (io_trps.svl 2023.06)
