@<TRIPOS>MOLECULE
NONAME
39 41 1 0 0 
SMALL
USER_CHARGES


@<TRIPOS>ATOM
  1 S        0.0820     0.2940    -0.9110 S.3   1 <1>  -0.0800 
  2 C       -1.0700     1.4850    -0.2940 C.2   1 <1>  -0.0450 
  3 C        1.4530     1.1840    -0.2870 C.2   1 <1>  -0.1100 
  4 C       -2.4790     1.2800    -0.5190 C.2   1 <1>   0.7150 
  5 C       -0.3740     2.4700     0.3360 C.2   1 <1>  -0.1500 
  6 C        1.0410     2.3010     0.3400 C.2   1 <1>  -0.1500 
  7 O       -2.8980     0.3170    -1.1310 O.2   1 <1>  -0.5700 
  8 N       -3.3520     2.2200    -0.0360 N.am  1 <1>  -0.5470 
  9 C       -4.7510     2.3240    -0.0430 C.ar  1 <1>   0.1170 
 10 C       -5.3390     3.5960    -0.0210 C.ar  1 <1>  -0.1430 
 11 C       -5.5580     1.1900    -0.0300 C.ar  1 <1>  -0.1500 
 12 C       -6.7270     3.6990     0.0330 C.ar  1 <1>  -0.1500 
 13 C       -4.4370     4.8400    -0.0810 C.3   1 <1>   0.3440 
 14 C       -6.9330     1.3050     0.0130 C.ar  1 <1>   0.0830 
 15 C       -7.5200     2.5670     0.0570 C.ar  1 <1>   0.0830 
 16 O       -3.6290     4.8350     1.0450 O.3   1 <1>  -0.6800 
 17 C       -5.1540     6.2000    -0.1470 C.3   1 <1>  -0.1600 
 18 O       -7.6910     0.1780     0.0130 O.3   1 <1>  -0.3620 
 19 O       -8.8700     2.7170     0.1240 O.3   1 <1>  -0.3630 
 20 C       -4.1910     7.3940    -0.2610 C.3   1 <1>  -0.2400 
 21 C       -9.0670     0.3350    -0.2730 C.3   1 <1>   0.1200 
 22 C       -9.6220     1.5650     0.4590 C.3   1 <1>   0.1200 
 23 H        2.4330     0.7740    -0.4570 H     1 <1>   0.1500 
 24 H       -0.8130     3.3310     0.8110 H     1 <1>   0.1500 
 25 H        1.6870     3.0220     0.8110 H     1 <1>   0.1500 
 26 H       -2.9020     3.0390     0.3830 H     1 <1>   0.3700 
 27 H       -5.1230     0.2090    -0.0500 H     1 <1>   0.1500 
 28 H       -7.2310     4.6460     0.0560 H     1 <1>   0.1500 
 29 H       -3.7900     4.7540    -0.9380 H     1 <1>   0.0800 
 30 H       -4.2030     4.9080     1.8320 H     1 <1>   0.4000 
 31 H       -5.7770     6.3270     0.7210 H     1 <1>   0.0800 
 32 H       -5.7920     6.2040    -1.0130 H     1 <1>   0.0800 
 33 H       -3.5620     7.4620     0.6090 H     1 <1>   0.0800 
 34 H       -4.7490     8.3100    -0.3480 H     1 <1>   0.0800 
 35 H       -3.5660     7.2910    -1.1300 H     1 <1>   0.0800 
 36 H       -9.5740    -0.5590     0.0400 H     1 <1>   0.0800 
 37 H       -9.1760     0.4510    -1.3370 H     1 <1>   0.0800 
 38 H      -10.6450     1.7450     0.1830 H     1 <1>   0.0800 
 39 H       -9.5620     1.4230     1.5240 H     1 <1>   0.0800 
@<TRIPOS>BOND
  1   1   2  1   
  2   1   3  1   
  3   2   4  1   
  4   2   5  2   
  5   3   6  2   
  6   3  23  1   
  7   4   7  2   
  8   4   8  am  
  9   5   6  1   
 10   5  24  1   
 11   6  25  1   
 12   8   9  1   
 13   8  26  1   
 14   9  10  ar  
 15   9  11  ar  
 16  10  12  ar  
 17  10  13  1   
 18  11  14  ar  
 19  11  27  1   
 20  12  15  ar  
 21  12  28  1   
 22  13  16  1   
 23  13  17  1   
 24  13  29  1   
 25  14  15  ar  
 26  14  18  1   
 27  15  19  1   
 28  16  30  1   
 29  17  20  1   
 30  17  31  1   
 31  17  32  1   
 32  18  21  1   
 33  19  22  1   
 34  20  33  1   
 35  20  34  1   
 36  20  35  1   
 37  21  22  1   
 38  21  36  1   
 39  21  37  1   
 40  22  38  1   
 41  22  39  1   
@<TRIPOS>SUBSTRUCTURE
  1 ****   9 GROUP 4 **** **** 0

# MOE 2024.06 (io_trps.svl 2023.06)
