@<TRIPOS>MOLECULE
NONAME
46 46 1 0 0 
SMALL
USER_CHARGES


@<TRIPOS>ATOM
  1 O        0.4430    -0.5700    -0.8280 O.3   1 <1>  -0.3630 
  2 C       -0.7650    -1.0040    -0.4050 C.ar  1 <1>   0.0830 
  3 C        1.5230    -0.8860     0.0100 C.3   1 <1>   0.1200 
  4 C       -1.2190    -2.2630    -0.7920 C.ar  1 <1>  -0.1440 
  5 C       -1.5440    -0.1880     0.4100 C.ar  1 <1>  -0.1440 
  6 C        2.7820    -0.3130    -0.6370 C.3   1 <1>  -0.1600 
  7 C       -2.4400    -2.7130    -0.3190 C.ar  1 <1>  -0.1500 
  8 C       -0.4120    -3.1520    -1.7270 C.3   1 <1>  -0.0960 
  9 C       -2.7620    -0.6610     0.8700 C.ar  1 <1>  -0.1500 
 10 C       -1.0980     1.2140     0.8020 C.3   1 <1>  -0.0970 
 11 C        4.0070    -0.6150     0.2160 C.3   1 <1>   0.3430 
 12 C       -3.2120    -1.9220     0.5160 C.ar  1 <1>  -0.1440 
 13 N        5.2060    -0.0410    -0.4500 N.4   1 <1>  -0.9060 
 14 C       -4.5480    -2.4280     1.0270 C.3   1 <1>  -0.0970 
 15 C        6.4940    -0.2280     0.2220 C.3   1 <1>   0.5030 
 16 C        7.5380     0.4470    -0.6600 C.3   1 <1>  -0.2400 
 17 C        6.8010    -1.7200     0.3430 C.3   1 <1>  -0.2400 
 18 C        6.4620     0.4410     1.5950 C.3   1 <1>  -0.2400 
 19 H        1.5740    -1.9570     0.1010 H     1 <1>   0.0800 
 20 H        1.3370    -0.4480     0.9760 H     1 <1>   0.0800 
 21 H        2.6580     0.7510    -0.7370 H     1 <1>   0.0800 
 22 H        2.8950    -0.7570    -1.6110 H     1 <1>   0.0800 
 23 H       -2.7980    -3.6860    -0.6040 H     1 <1>   0.1500 
 24 H        0.0540    -2.5600    -2.4940 H     1 <1>   0.0800 
 25 H       -1.0490    -3.8730    -2.2070 H     1 <1>   0.0800 
 26 H        0.3460    -3.6760    -1.1750 H     1 <1>   0.0800 
 27 H       -3.3700    -0.0430     1.5060 H     1 <1>   0.1500 
 28 H       -0.6140     1.6950    -0.0290 H     1 <1>   0.0800 
 29 H       -0.4140     1.1640     1.6290 H     1 <1>   0.0800 
 30 H       -1.9420     1.8140     1.0880 H     1 <1>   0.0800 
 31 H        4.1180    -1.6820     0.3250 H     1 <1>   0.0800 
 32 H        3.8820    -0.1810     1.1950 H     1 <1>   0.0800 
 33 H        5.0690     0.9670    -0.5750 H     1 <1>   0.4500 
 34 H        5.2900    -0.4390    -1.3900 H     1 <1>   0.4500 
 35 H       -4.5330    -3.4990     1.1240 H     1 <1>   0.0800 
 36 H       -5.3270    -2.1510     0.3400 H     1 <1>   0.0800 
 37 H       -4.7670    -2.0040     1.9910 H     1 <1>   0.0800 
 38 H        7.5760    -0.0050    -1.6360 H     1 <1>   0.0800 
 39 H        8.5140     0.3430    -0.2170 H     1 <1>   0.0800 
 40 H        7.3400     1.5000    -0.7640 H     1 <1>   0.0800 
 41 H        6.7750    -2.2010    -0.6190 H     1 <1>   0.0800 
 42 H        6.1170    -2.2150     1.0080 H     1 <1>   0.0800 
 43 H        7.7900    -1.8530     0.7480 H     1 <1>   0.0800 
 44 H        6.1980     1.4800     1.5160 H     1 <1>   0.0800 
 45 H        7.4380     0.3860     2.0460 H     1 <1>   0.0800 
 46 H        5.7780    -0.0520     2.2620 H     1 <1>   0.0800 
@<TRIPOS>BOND
  1   1   2  1   
  2   1   3  1   
  3   2   4  ar  
  4   2   5  ar  
  5   3   6  1   
  6   3  19  1   
  7   3  20  1   
  8   4   7  ar  
  9   4   8  1   
 10   5   9  ar  
 11   5  10  1   
 12   6  11  1   
 13   6  21  1   
 14   6  22  1   
 15   7  12  ar  
 16   7  23  1   
 17   8  24  1   
 18   8  25  1   
 19   8  26  1   
 20   9  12  ar  
 21   9  27  1   
 22  10  28  1   
 23  10  29  1   
 24  10  30  1   
 25  11  13  1   
 26  11  31  1   
 27  11  32  1   
 28  12  14  1   
 29  13  15  1   
 30  13  33  1   
 31  13  34  1   
 32  14  35  1   
 33  14  36  1   
 34  14  37  1   
 35  15  16  1   
 36  15  17  1   
 37  15  18  1   
 38  16  38  1   
 39  16  39  1   
 40  16  40  1   
 41  17  41  1   
 42  17  42  1   
 43  17  43  1   
 44  18  44  1   
 45  18  45  1   
 46  18  46  1   
@<TRIPOS>SUBSTRUCTURE
  1 ****   3 GROUP 4 **** **** 0

# MOE 2024.06 (io_trps.svl 2023.06)
