@<TRIPOS>MOLECULE
NONAME
28 28 1 0 0 
SMALL
USER_CHARGES


@<TRIPOS>ATOM
  1 I        0.2750     0.2130     0.6960 I     1 <1>  -0.0810 
  2 C        0.1850    -1.8340     0.0730 C.ar  1 <1>   0.0810 
  3 C        1.3620    -2.5600    -0.1270 C.ar  1 <1>   0.1170 
  4 C       -1.0770    -2.3680    -0.1120 C.ar  1 <1>  -0.1500 
  5 N        2.6230    -1.9640     0.0830 N.am  1 <1>  -0.5470 
  6 C        1.2120    -3.8860    -0.5240 C.ar  1 <1>  -0.1500 
  7 C       -1.1880    -3.6880    -0.5120 C.ar  1 <1>  -0.1500 
  8 C        3.8920    -2.3140    -0.2970 C.2   1 <1>   0.5690 
  9 C       -0.0440    -4.4420    -0.7160 C.ar  1 <1>  -0.1500 
 10 O        4.1260    -3.3070    -0.9460 O.2   1 <1>  -0.5700 
 11 C        5.0750    -1.3990     0.1150 C.3   1 <1>   0.0610 
 12 C        6.0430    -2.1820     1.0210 C.3   1 <1>  -0.2400 
 13 C        5.8410    -0.9380    -1.1390 C.3   1 <1>  -0.2400 
 14 C        4.6290    -0.1330     0.8830 C.3   1 <1>  -0.2400 
 15 H       -1.9570    -1.7720     0.0510 H     1 <1>   0.1500 
 16 H        2.5780    -1.0700     0.5690 H     1 <1>   0.3700 
 17 H        2.0760    -4.5030    -0.6860 H     1 <1>   0.1500 
 18 H       -2.1590    -4.1280    -0.6640 H     1 <1>   0.1500 
 19 H       -0.1280    -5.4690    -1.0260 H     1 <1>   0.1500 
 20 H        5.5380    -2.5140     1.9110 H     1 <1>   0.0800 
 21 H        6.8820    -1.5720     1.3080 H     1 <1>   0.0800 
 22 H        6.4160    -3.0500     0.5050 H     1 <1>   0.0800 
 23 H        6.2170    -1.7900    -1.6800 H     1 <1>   0.0800 
 24 H        6.6740    -0.3110    -0.8740 H     1 <1>   0.0800 
 25 H        5.1900    -0.3890    -1.7950 H     1 <1>   0.0800 
 26 H        5.4840     0.4670     1.1430 H     1 <1>   0.0800 
 27 H        3.9750     0.4690     0.2780 H     1 <1>   0.0800 
 28 H        4.1230    -0.3970     1.7950 H     1 <1>   0.0800 
@<TRIPOS>BOND
  1   1   2  1   
  2   2   3  ar  
  3   2   4  ar  
  4   3   5  1   
  5   3   6  ar  
  6   4   7  ar  
  7   4  15  1   
  8   5   8  am  
  9   5  16  1   
 10   6   9  ar  
 11   6  17  1   
 12   7   9  ar  
 13   7  18  1   
 14   8  10  2   
 15   8  11  1   
 16   9  19  1   
 17  11  12  1   
 18  11  13  1   
 19  11  14  1   
 20  12  20  1   
 21  12  21  1   
 22  12  22  1   
 23  13  23  1   
 24  13  24  1   
 25  13  25  1   
 26  14  26  1   
 27  14  27  1   
 28  14  28  1   
@<TRIPOS>SUBSTRUCTURE
  1 ****   5 GROUP 4 **** **** 0

# MOE 2024.06 (io_trps.svl 2023.06)
