@<TRIPOS>MOLECULE
NONAME
43 46 1 0 0 
SMALL
USER_CHARGES


@<TRIPOS>ATOM
  1 F       -0.3890    -0.3760    -1.0050 F     1 <1>  -0.3400 
  2 C       -1.1200    -1.4560    -1.2570 C.3   1 <1>   1.1640 
  3 F       -0.3480    -2.4970    -0.9610 F     1 <1>  -0.3400 
  4 F       -1.2980    -1.4900    -2.5710 F     1 <1>  -0.3400 
  5 C       -2.4530    -1.4620    -0.4930 C.ar  1 <1>  -0.1440 
  6 C       -3.1730    -0.2830    -0.3320 C.ar  1 <1>  -0.1500 
  7 C       -2.9720    -2.6370     0.0450 C.ar  1 <1>  -0.1500 
  8 C       -4.3870    -0.2560     0.3480 C.ar  1 <1>   0.1170 
  9 C       -4.1740    -2.6250     0.7290 C.ar  1 <1>  -0.1500 
 10 N       -5.1410     0.9100     0.5380 N.am  1 <1>  -0.5470 
 11 C       -4.8730    -1.4430     0.8790 C.ar  1 <1>  -0.1500 
 12 C       -5.1310     2.1260    -0.0960 C.2   1 <1>   0.5690 
 13 O       -4.3950     2.3880    -1.0150 O.2   1 <1>  -0.5700 
 14 C       -6.0890     3.2100     0.3930 C.3   1 <1>   0.2010 
 15 N       -7.5290     2.8570     0.2240 N.am  1 <1>  -0.4200 
 16 C       -8.1480     1.7930     0.8480 C.2   1 <1>   0.5690 
 17 C       -8.4040     3.5880    -0.5580 C.2   1 <1>   0.5690 
 18 O       -7.6780     1.1090     1.7230 O.2   1 <1>  -0.5700 
 19 C       -9.4820     1.5860     0.1770 C.3   1 <1>  -0.0190 
 20 O       -8.1230     4.4760    -1.3180 O.2   1 <1>  -0.5700 
 21 C       -9.8030     3.1440    -0.2070 C.3   1 <1>  -0.0190 
 22 C      -10.9130     0.8010     0.3540 C.3   1 <1>  -0.0800 
 23 C      -11.3570     3.2270    -0.7320 C.3   1 <1>  -0.0800 
 24 C      -11.1710     2.0060    -0.1930 C.3   1 <1>  -0.1600 
 25 C      -12.5110     0.8970    -0.0320 C.3   1 <1>  -0.1600 
 26 C      -12.7920     2.4180    -0.6990 C.3   1 <1>  -0.1600 
 27 H       -2.7820     0.6300    -0.7430 H     1 <1>   0.1500 
 28 H       -2.4450    -3.5710    -0.0630 H     1 <1>   0.1500 
 29 H       -4.5660    -3.5380     1.1440 H     1 <1>   0.1500 
 30 H       -5.9030     0.8030     1.2220 H     1 <1>   0.3700 
 31 H       -5.8080    -1.4430     1.4120 H     1 <1>   0.1500 
 32 H       -5.8800     4.1160    -0.1490 H     1 <1>   0.0800 
 33 H       -5.8960     3.3970     1.4330 H     1 <1>   0.0800 
 34 H       -9.0800     1.1130    -0.7180 H     1 <1>   0.0800 
 35 H       -9.8580     3.7000     0.7280 H     1 <1>   0.0800 
 36 H      -10.6790    -0.0930    -0.2050 H     1 <1>   0.0800 
 37 H      -11.6680     4.1040    -0.1840 H     1 <1>   0.0800 
 38 H      -10.9660     1.6190    -1.2900 H     1 <1>   0.0800 
 39 H      -11.4020     2.3870     0.9010 H     1 <1>   0.0800 
 40 H      -13.1200     0.7510     0.8480 H     1 <1>   0.0800 
 41 H      -12.7850     0.1300    -0.7420 H     1 <1>   0.0800 
 42 H      -13.1930     2.3260    -1.6970 H     1 <1>   0.0800 
 43 H      -13.5230     2.9490    -0.1070 H     1 <1>   0.0800 
@<TRIPOS>BOND
  1   1   2  1   
  2   2   3  1   
  3   2   4  1   
  4   2   5  1   
  5   5   6  ar  
  6   5   7  ar  
  7   6   8  ar  
  8   6  27  1   
  9   7   9  ar  
 10   7  28  1   
 11   8  10  1   
 12   8  11  ar  
 13   9  11  ar  
 14   9  29  1   
 15  10  12  am  
 16  10  30  1   
 17  11  31  1   
 18  12  13  2   
 19  12  14  1   
 20  14  15  1   
 21  14  32  1   
 22  14  33  1   
 23  15  16  am  
 24  15  17  am  
 25  16  18  2   
 26  16  19  1   
 27  17  20  2   
 28  17  21  1   
 29  19  21  1   
 30  19  22  1   
 31  19  34  1   
 32  21  23  1   
 33  21  35  1   
 34  22  24  1   
 35  22  25  1   
 36  22  36  1   
 37  23  24  1   
 38  23  26  1   
 39  23  37  1   
 40  24  38  1   
 41  24  39  1   
 42  25  26  1   
 43  25  40  1   
 44  25  41  1   
 45  26  42  1   
 46  26  43  1   
@<TRIPOS>SUBSTRUCTURE
  1 ****  10 GROUP 4 **** **** 0

# MOE 2024.06 (io_trps.svl 2023.06)
