@<TRIPOS>MOLECULE
NONAME
44 45 1 0 0 
SMALL
USER_CHARGES


@<TRIPOS>ATOM
  1 O        0.6150    -2.9740    -0.9270 O.co2 1 <1>  -0.9000 
  2 C        0.5010    -3.1830     0.2860 C.2   1 <1>   0.9060 
  3 O        1.4630    -3.6350     0.9270 O.co2 1 <1>  -0.9000 
  4 C       -0.8360    -3.0380     0.9910 C.3   1 <1>  -0.1860 
  5 C       -1.9060    -4.0260     0.4580 C.3   1 <1>  -0.0190 
  6 C       -1.3900    -1.5920     1.0600 C.3   1 <1>   0.0580 
  7 C       -1.5440    -5.5120     0.6420 C.2   1 <1>   0.5690 
  8 C       -2.4870    -3.6280    -0.9130 C.3   1 <1>  -0.0220 
  9 C       -2.3700    -1.2700    -0.0610 C.2   1 <1>  -0.2880 
 10 C       -0.2880    -0.5260     1.1140 C.3   1 <1>  -0.2400 
 11 O       -2.2120    -6.1050     1.4600 O.2   1 <1>  -0.5700 
 12 N       -0.5090    -6.1930     0.0310 N.am  1 <1>  -0.6600 
 13 C       -2.8580    -2.1530    -0.9380 C.2   1 <1>  -0.2760 
 14 C        0.1260    -5.9460    -1.3050 C.3   1 <1>   0.1400 
 15 C        0.2410    -7.1980     0.8290 C.3   1 <1>   0.1400 
 16 C       -3.8080    -1.7700    -2.0590 C.3   1 <1>  -0.1020 
 17 C        1.6530    -5.6970    -1.2450 C.3   1 <1>   0.3430 
 18 C        1.6770    -6.6980     1.0350 C.3   1 <1>   0.3430 
 19 N        2.4260    -6.5410    -0.2610 N.4   1 <1>  -0.9590 
 20 C        3.6820    -5.7940     0.0340 C.3   1 <1>   0.2630 
 21 H       -0.6350    -3.3240     2.0070 H     1 <1>   0.0800 
 22 H       -2.7380    -3.8800     1.1250 H     1 <1>   0.0800 
 23 H       -1.9490    -1.5140     1.9770 H     1 <1>   0.0800 
 24 H       -3.3580    -4.2290    -1.1010 H     1 <1>   0.0800 
 25 H       -1.7920    -3.7840    -1.7100 H     1 <1>   0.0800 
 26 H       -2.6410    -0.2300    -0.0830 H     1 <1>   0.1500 
 27 H        0.2320    -0.4810     0.1730 H     1 <1>   0.0800 
 28 H        0.4200    -0.7590     1.8900 H     1 <1>   0.0800 
 29 H       -0.7140     0.4400     1.3140 H     1 <1>   0.0800 
 30 H       -0.3210    -5.1130    -1.8000 H     1 <1>   0.0800 
 31 H       -0.0550    -6.8060    -1.9250 H     1 <1>   0.0800 
 32 H        0.2350    -8.1470     0.3260 H     1 <1>   0.0800 
 33 H       -0.2150    -7.3310     1.7950 H     1 <1>   0.0800 
 34 H       -4.7360    -2.3040    -1.9580 H     1 <1>   0.0800 
 35 H       -3.3660    -2.0070    -3.0100 H     1 <1>   0.0800 
 36 H       -4.0150    -0.7150    -2.0330 H     1 <1>   0.0800 
 37 H        1.8250    -4.6680    -1.0020 H     1 <1>   0.0800 
 38 H        2.0590    -5.8290    -2.2330 H     1 <1>   0.0800 
 39 H        2.2030    -7.3830     1.6770 H     1 <1>   0.0800 
 40 H        1.6270    -5.7470     1.5410 H     1 <1>   0.0800 
 41 H        2.6140    -7.4600    -0.6710 H     1 <1>   0.4500 
 42 H        3.4370    -4.8250     0.4460 H     1 <1>   0.0800 
 43 H        4.2520    -5.6450    -0.8680 H     1 <1>   0.0800 
 44 H        4.2840    -6.3300     0.7480 H     1 <1>   0.0800 
@<TRIPOS>BOND
  1   1   2  ar  
  2   2   3  ar  
  3   2   4  1   
  4   4   5  1   
  5   4   6  1   
  6   4  21  1   
  7   5   7  1   
  8   5   8  1   
  9   5  22  1   
 10   6   9  1   
 11   6  10  1   
 12   6  23  1   
 13   7  11  2   
 14   7  12  am  
 15   8  13  1   
 16   8  24  1   
 17   8  25  1   
 18   9  13  2   
 19   9  26  1   
 20  10  27  1   
 21  10  28  1   
 22  10  29  1   
 23  12  14  1   
 24  12  15  1   
 25  13  16  1   
 26  14  17  1   
 27  14  30  1   
 28  14  31  1   
 29  15  18  1   
 30  15  32  1   
 31  15  33  1   
 32  16  34  1   
 33  16  35  1   
 34  16  36  1   
 35  17  19  1   
 36  17  37  1   
 37  17  38  1   
 38  18  19  1   
 39  18  39  1   
 40  18  40  1   
 41  19  20  1   
 42  19  41  1   
 43  20  42  1   
 44  20  43  1   
 45  20  44  1   
@<TRIPOS>SUBSTRUCTURE
  1 ****   2 GROUP 4 **** **** 0

# MOE 2024.06 (io_trps.svl 2023.06)
