@<TRIPOS>MOLECULE
NONAME
43 45 1 0 0 
SMALL
USER_CHARGES


@<TRIPOS>ATOM
  1 O       -0.8300     0.2500     0.7750 O.3   1 <1>  -0.3630 
  2 C       -1.2850     1.4060     0.2130 C.ar  1 <1>   0.0830 
  3 C        0.4120    -0.3080     0.4130 C.3   1 <1>   0.1200 
  4 C       -0.4850     2.4630    -0.2510 C.ar  1 <1>   0.0830 
  5 C       -2.6610     1.4990     0.1240 C.ar  1 <1>  -0.1500 
  6 C        0.4000    -1.7830     0.8040 C.3   1 <1>  -0.2400 
  7 O        0.8700     2.4000    -0.1260 O.3   1 <1>  -0.3620 
  8 C       -1.1100     3.5700    -0.8200 C.ar  1 <1>  -0.1500 
  9 C       -3.2920     2.6140    -0.4180 C.ar  1 <1>   0.0280 
 10 C        1.7130     3.4910    -0.4160 C.3   1 <1>   0.1200 
 11 C       -2.4880     3.6410    -0.9040 C.ar  1 <1>  -0.1500 
 12 C       -4.7290     2.6810    -0.4650 C.2   1 <1>  -0.0410 
 13 C        3.1400     3.0840    -0.0640 C.3   1 <1>  -0.2400 
 14 N       -5.4110     3.6240     0.2910 N.2   1 <1>   1.5890 
 15 C       -5.4800     1.8270    -1.2230 C.2   1 <1>  -0.0500 
 16 O       -4.7720     4.4740     1.0060 O.2   1 <1>  -0.5640 
 17 C       -6.7830     3.6970     0.2870 C.2   1 <1>  -0.1510 
 18 N       -6.8360     1.9190    -1.2200 N.pl3 1 <1>  -0.5080 
 19 C       -7.4810     2.8490    -0.4650 C.2   1 <1>  -0.0380 
 20 C       -7.6800     4.6490     1.0510 C.3   1 <1>  -0.0220 
 21 O       -7.4980     1.1300    -1.9280 O.3   1 <1>  -0.6920 
 22 C       -8.9670     3.0430    -0.3730 C.3   1 <1>  -0.0220 
 23 C       -9.1030     4.2300     0.6080 C.3   1 <1>  -0.1600 
 24 H        1.1880     0.2170     0.9440 H     1 <1>   0.0800 
 25 H        0.5460    -0.1940    -0.6490 H     1 <1>   0.0800 
 26 H       -3.2500     0.6730     0.4860 H     1 <1>   0.1500 
 27 H        0.2530    -1.8820     1.8650 H     1 <1>   0.0800 
 28 H        1.3390    -2.2350     0.5440 H     1 <1>   0.0800 
 29 H       -0.3870    -2.2960     0.2820 H     1 <1>   0.0800 
 30 H       -0.5380     4.3930    -1.2070 H     1 <1>   0.1500 
 31 H        1.4010     4.3330     0.1770 H     1 <1>   0.0800 
 32 H        1.6320     3.7170    -1.4650 H     1 <1>   0.0800 
 33 H       -2.9330     4.5100    -1.3580 H     1 <1>   0.1500 
 34 H        3.2090     2.8430     0.9820 H     1 <1>   0.0800 
 35 H        3.8110     3.8970    -0.2730 H     1 <1>   0.0800 
 36 H        3.4380     2.2340    -0.6500 H     1 <1>   0.0800 
 37 H       -5.0560     1.0540    -1.8460 H     1 <1>   0.1500 
 38 H       -7.4820     5.6720     0.7790 H     1 <1>   0.0800 
 39 H       -7.5600     4.5250     2.1140 H     1 <1>   0.0800 
 40 H       -9.4280     2.1470     0.0040 H     1 <1>   0.0800 
 41 H       -9.3670     3.2690    -1.3460 H     1 <1>   0.0800 
 42 H       -9.5980     5.0500     0.1180 H     1 <1>   0.0800 
 43 H       -9.6910     3.9350     1.4600 H     1 <1>   0.0800 
@<TRIPOS>BOND
  1   1   2  1   
  2   1   3  1   
  3   2   4  ar  
  4   2   5  ar  
  5   3   6  1   
  6   3  24  1   
  7   3  25  1   
  8   4   7  1   
  9   4   8  ar  
 10   5   9  ar  
 11   5  26  1   
 12   6  27  1   
 13   6  28  1   
 14   6  29  1   
 15   7  10  1   
 16   8  11  ar  
 17   8  30  1   
 18   9  11  ar  
 19   9  12  1   
 20  10  13  1   
 21  10  31  1   
 22  10  32  1   
 23  11  33  1   
 24  12  14  1   
 25  12  15  2   
 26  13  34  1   
 27  13  35  1   
 28  13  36  1   
 29  14  16  2   
 30  14  17  1   
 31  15  18  1   
 32  15  37  1   
 33  17  19  2   
 34  17  20  1   
 35  18  19  1   
 36  18  21  1   
 37  19  22  1   
 38  20  23  1   
 39  20  38  1   
 40  20  39  1   
 41  22  23  1   
 42  22  40  1   
 43  22  41  1   
 44  23  42  1   
 45  23  43  1   
@<TRIPOS>SUBSTRUCTURE
  1 ****   9 GROUP 4 **** **** 0

# MOE 2024.06 (io_trps.svl 2023.06)
