@<TRIPOS>MOLECULE
NONAME
48 51 1 0 0 
SMALL
USER_CHARGES


@<TRIPOS>ATOM
  1 S        1.2770     0.8970     2.8240 S.2   1 <1>  -0.3800 
  2 C        2.3970     1.3540     1.7570 C.2   1 <1>   0.5000 
  3 N        3.6940     1.0340     1.9510 N.am  1 <1>  -0.5390 
  4 N        2.0520     2.0530     0.6580 N.am  1 <1>  -0.4900 
  5 C        4.6740     1.4270     1.0670 C.2   1 <1>   0.2090 
  6 C        2.9700     2.4540    -0.2760 C.2   1 <1>   0.6160 
  7 N        5.9660     1.0480     1.3210 N.pl3 1 <1>  -0.6000 
  8 C        4.3330     2.1580    -0.0300 C.2   1 <1>  -0.1240 
  9 O        2.5440     3.0040    -1.2760 O.2   1 <1>  -0.5700 
 10 C        6.9870     1.3410     0.4430 C.2   1 <1>  -0.0380 
 11 C        5.4030     2.6650    -0.9930 C.3   1 <1>   0.3400 
 12 C        6.7870     2.0790    -0.6820 C.2   1 <1>  -0.1240 
 13 C        8.3620     0.7910     0.8050 C.3   1 <1>  -0.0220 
 14 C        5.4440     4.2020    -0.9950 C.ar  1 <1>  -0.1430 
 15 C        7.8180     2.3550    -1.6240 C.2   1 <1>   0.4950 
 16 C        9.3060     0.6880    -0.4140 C.3   1 <1>   0.0000 
 17 C        5.7330     4.9490     0.1490 C.ar  1 <1>   0.0830 
 18 C        5.1820     4.8710    -2.1830 C.ar  1 <1>  -0.1500 
 19 O        7.6390     2.8330    -2.7200 O.2   1 <1>  -0.5700 
 20 C        9.2410     1.9900    -1.2400 C.3   1 <1>  -0.0990 
 21 C       10.7480     0.4600     0.0660 C.3   1 <1>  -0.2400 
 22 C        8.8980    -0.5100    -1.2930 C.3   1 <1>  -0.2400 
 23 O        5.9880     4.2830     1.3050 O.3   1 <1>  -0.3620 
 24 C        5.7520     6.3410     0.0810 C.ar  1 <1>  -0.1500 
 25 C        5.2020     6.2520    -2.2450 C.ar  1 <1>  -0.1500 
 26 C        6.1550     4.9490     2.5350 C.3   1 <1>   0.0400 
 27 C        5.4870     6.9880    -1.1110 C.ar  1 <1>  -0.1500 
 28 H        3.9290     0.4980     2.7850 H     1 <1>   0.3700 
 29 H        1.0830     2.2940     0.4760 H     1 <1>   0.3700 
 30 H        6.1710     0.5270     2.1760 H     1 <1>   0.4000 
 31 H        5.1270     2.3210    -1.9740 H     1 <1>   0.0800 
 32 H        8.2580    -0.1800     1.2550 H     1 <1>   0.0800 
 33 H        8.7900     1.4480     1.5420 H     1 <1>   0.0800 
 34 H        4.9600     4.3160    -3.0790 H     1 <1>   0.1500 
 35 H        9.6430     2.8080    -0.6720 H     1 <1>   0.0800 
 36 H        9.8310     1.8910    -2.1340 H     1 <1>   0.0800 
 37 H       11.0810     1.2800     0.6780 H     1 <1>   0.0800 
 38 H       11.4170     0.3740    -0.7730 H     1 <1>   0.0800 
 39 H       10.8170    -0.4440     0.6460 H     1 <1>   0.0800 
 40 H        7.8820    -0.4190    -1.6350 H     1 <1>   0.0800 
 41 H        8.9810    -1.4300    -0.7420 H     1 <1>   0.0800 
 42 H        9.5360    -0.5790    -2.1580 H     1 <1>   0.0800 
 43 H        5.9730     6.9400     0.9430 H     1 <1>   0.1500 
 44 H        4.9970     6.7500    -3.1760 H     1 <1>   0.1500 
 45 H        6.2840     4.2050     3.3000 H     1 <1>   0.0800 
 46 H        5.2740     5.5320     2.7370 H     1 <1>   0.0800 
 47 H        7.0290     5.5720     2.4790 H     1 <1>   0.0800 
 48 H        5.5040     8.0630    -1.1590 H     1 <1>   0.1500 
@<TRIPOS>BOND
  1   1   2  2   
  2   2   3  am  
  3   2   4  am  
  4   3   5  1   
  5   3  28  1   
  6   4   6  am  
  7   4  29  1   
  8   5   7  1   
  9   5   8  2   
 10   6   8  1   
 11   6   9  2   
 12   7  10  1   
 13   7  30  1   
 14   8  11  1   
 15  10  12  2   
 16  10  13  1   
 17  11  12  1   
 18  11  14  1   
 19  11  31  1   
 20  12  15  1   
 21  13  16  1   
 22  13  32  1   
 23  13  33  1   
 24  14  17  ar  
 25  14  18  ar  
 26  15  19  2   
 27  15  20  1   
 28  16  20  1   
 29  16  21  1   
 30  16  22  1   
 31  17  23  1   
 32  17  24  ar  
 33  18  25  ar  
 34  18  34  1   
 35  20  35  1   
 36  20  36  1   
 37  21  37  1   
 38  21  38  1   
 39  21  39  1   
 40  22  40  1   
 41  22  41  1   
 42  22  42  1   
 43  23  26  1   
 44  24  27  ar  
 45  24  43  1   
 46  25  27  ar  
 47  25  44  1   
 48  26  45  1   
 49  26  46  1   
 50  26  47  1   
 51  27  48  1   
@<TRIPOS>SUBSTRUCTURE
  1 ****  11 GROUP 4 **** **** 0

# MOE 2024.06 (io_trps.svl 2023.06)
