@<TRIPOS>MOLECULE
NONAME
40 40 1 0 0 
SMALL
USER_CHARGES


@<TRIPOS>ATOM
  1 O       -0.8870    -0.5480    -2.0760 O.2   1 <1>  -0.5700 
  2 C       -0.1120    -0.5500    -1.1510 C.2   1 <1>   0.5690 
  3 N       -0.4870    -0.6680     0.1530 N.am  1 <1>  -0.7300 
  4 C        1.3700    -0.4230    -1.4640 C.3   1 <1>   0.0440 
  5 C       -1.8230    -0.8460     0.7800 C.3   1 <1>   0.2200 
  6 C        2.2650    -0.8340    -0.2910 C.ar  1 <1>  -0.1440 
  7 C       -2.1830    -2.3570     0.9610 C.3   1 <1>   0.0000 
  8 C       -2.8750     0.0130     0.0650 C.3   1 <1>  -0.2400 
  9 C        2.5730    -2.1660    -0.0270 C.ar  1 <1>  -0.1440 
 10 C        2.7600     0.1590     0.5430 C.ar  1 <1>  -0.1500 
 11 C       -2.3370    -3.0990    -0.3800 C.3   1 <1>  -0.2400 
 12 C       -3.5030    -2.5070     1.7400 C.3   1 <1>  -0.2400 
 13 C       -1.0860    -3.0650     1.7810 C.3   1 <1>  -0.2400 
 14 C        3.3700    -2.4790     1.0640 C.ar  1 <1>  -0.1500 
 15 C        2.0610    -3.3000    -0.9060 C.3   1 <1>  -0.0970 
 16 C        3.5530    -0.1620     1.6290 C.ar  1 <1>  -0.1500 
 17 C        3.8580    -1.4840     1.8900 C.ar  1 <1>  -0.1500 
 18 H        0.2850    -0.7840     0.8160 H     1 <1>   0.3700 
 19 H        1.5630     0.5990    -1.7320 H     1 <1>   0.0800 
 20 H        1.5930    -1.0190    -2.3280 H     1 <1>   0.0800 
 21 H       -1.7390    -0.4320     1.7710 H     1 <1>   0.0800 
 22 H       -3.1220    -0.3900    -0.8990 H     1 <1>   0.0800 
 23 H       -2.5040     1.0130    -0.0630 H     1 <1>   0.0800 
 24 H       -3.7750     0.0670     0.6480 H     1 <1>   0.0800 
 25 H        2.5300     1.1930     0.3530 H     1 <1>   0.1500 
 26 H       -1.4310    -3.0450    -0.9530 H     1 <1>   0.0800 
 27 H       -3.1280    -2.6720    -0.9690 H     1 <1>   0.0800 
 28 H       -2.5670    -4.1370    -0.2150 H     1 <1>   0.0800 
 29 H       -4.3310    -2.1220     1.1720 H     1 <1>   0.0800 
 30 H       -3.4540    -1.9790     2.6750 H     1 <1>   0.0800 
 31 H       -3.7050    -3.5430     1.9470 H     1 <1>   0.0800 
 32 H       -1.3520    -4.0900     1.9660 H     1 <1>   0.0800 
 33 H       -0.1480    -3.0600     1.2560 H     1 <1>   0.0800 
 34 H       -0.9460    -2.5760     2.7280 H     1 <1>   0.0800 
 35 H        3.6180    -3.5040     1.2780 H     1 <1>   0.1500 
 36 H        2.5400    -3.2630    -1.8670 H     1 <1>   0.0800 
 37 H        0.9980    -3.2230    -1.0410 H     1 <1>   0.0800 
 38 H        2.2690    -4.2570    -0.4610 H     1 <1>   0.0800 
 39 H        3.9330     0.6160     2.2690 H     1 <1>   0.1500 
 40 H        4.4760    -1.7380     2.7340 H     1 <1>   0.1500 
@<TRIPOS>BOND
  1   1   2  2   
  2   2   3  am  
  3   2   4  1   
  4   3   5  1   
  5   3  18  1   
  6   4   6  1   
  7   4  19  1   
  8   4  20  1   
  9   5   7  1   
 10   5   8  1   
 11   5  21  1   
 12   6   9  ar  
 13   6  10  ar  
 14   7  11  1   
 15   7  12  1   
 16   7  13  1   
 17   8  22  1   
 18   8  23  1   
 19   8  24  1   
 20   9  14  ar  
 21   9  15  1   
 22  10  16  ar  
 23  10  25  1   
 24  11  26  1   
 25  11  27  1   
 26  11  28  1   
 27  12  29  1   
 28  12  30  1   
 29  12  31  1   
 30  13  32  1   
 31  13  33  1   
 32  13  34  1   
 33  14  17  ar  
 34  14  35  1   
 35  15  36  1   
 36  15  37  1   
 37  15  38  1   
 38  16  17  ar  
 39  16  39  1   
 40  17  40  1   
@<TRIPOS>SUBSTRUCTURE
  1 ****   3 GROUP 4 **** **** 0

# MOE 2024.06 (io_trps.svl 2023.06)
