@<TRIPOS>MOLECULE
NONAME
48 49 1 0 0 
SMALL
USER_CHARGES


@<TRIPOS>ATOM
  1 O      -15.1740     4.7410    -0.4490 O.3   1 <1>  -0.5600 
  2 C      -15.1060     3.9360     0.6910 C.3   1 <1>   0.1200 
  3 C      -14.0120     5.4660    -0.7290 C.3   1 <1>   0.1200 
  4 C      -13.9720     2.9030     0.5460 C.3   1 <1>   0.3430 
  5 C      -12.8230     4.5070    -0.9390 C.3   1 <1>   0.3430 
  6 N      -12.6560     3.5620     0.2250 N.4   1 <1>  -0.9590 
  7 C      -11.5950     2.5440    -0.0120 C.3   1 <1>   0.3430 
  8 C      -10.2170     3.2010    -0.0120 C.3   1 <1>  -0.1600 
  9 C       -9.1150     2.1520    -0.1560 C.3   1 <1>   0.1200 
 10 O       -7.8910     2.8390    -0.1570 O.3   1 <1>  -0.3630 
 11 C       -6.7110     2.1800    -0.2760 C.ar  1 <1>   0.0820 
 12 C       -5.5620     2.9530    -0.2630 C.ar  1 <1>  -0.1500 
 13 C       -6.6050     0.8000    -0.4070 C.ar  1 <1>  -0.1500 
 14 C       -4.2950     2.3910    -0.3780 C.ar  1 <1>  -0.1440 
 15 C       -5.3560     0.2220    -0.5230 C.ar  1 <1>  -0.1500 
 16 C       -4.2150     1.0060    -0.5080 C.ar  1 <1>  -0.1500 
 17 C       -3.0530     3.3090    -0.3560 C.3   1 <1>   0.1430 
 18 C       -3.0070     4.0790     0.9720 C.3   1 <1>  -0.2400 
 19 C       -3.1310     4.3060    -1.5220 C.3   1 <1>  -0.2400 
 20 C       -1.7280     2.5390    -0.4910 C.3   1 <1>  -0.2400 
 21 H      -16.0530     3.4350     0.7930 H     1 <1>   0.0800 
 22 H      -14.9570     4.5640     1.5530 H     1 <1>   0.0800 
 23 H      -13.8240     6.1500     0.0810 H     1 <1>   0.0800 
 24 H      -14.1910     6.0360    -1.6240 H     1 <1>   0.0800 
 25 H      -14.2390     2.2190    -0.2430 H     1 <1>   0.0800 
 26 H      -13.8890     2.3370     1.4600 H     1 <1>   0.0800 
 27 H      -11.9260     5.0860    -1.0790 H     1 <1>   0.0800 
 28 H      -12.9990     3.9460    -1.8420 H     1 <1>   0.0800 
 29 H      -12.3860     4.1250     1.0430 H     1 <1>   0.4500 
 30 H      -11.7660     2.0440    -0.9530 H     1 <1>   0.0800 
 31 H      -11.6260     1.8030     0.7720 H     1 <1>   0.0800 
 32 H      -10.0640     3.7260     0.9150 H     1 <1>   0.0800 
 33 H      -10.1300     3.8870    -0.8350 H     1 <1>   0.0800 
 34 H       -9.2010     1.6180    -1.0880 H     1 <1>   0.0800 
 35 H       -9.1140     1.4650     0.6740 H     1 <1>   0.0800 
 36 H       -5.6780     4.0150    -0.1600 H     1 <1>   0.1500 
 37 H       -7.4670     0.1630    -0.4220 H     1 <1>   0.1500 
 38 H       -5.2660    -0.8460    -0.6250 H     1 <1>   0.1500 
 39 H       -3.2700     0.5060    -0.6010 H     1 <1>   0.1500 
 40 H       -3.8690     4.7110     1.0840 H     1 <1>   0.0800 
 41 H       -2.1300     4.6990     1.0230 H     1 <1>   0.0800 
 42 H       -2.9880     3.3890     1.7970 H     1 <1>   0.0800 
 43 H       -3.1980     3.7750    -2.4540 H     1 <1>   0.0800 
 44 H       -2.2580     4.9320    -1.5460 H     1 <1>   0.0800 
 45 H       -3.9930     4.9400    -1.4330 H     1 <1>   0.0800 
 46 H       -1.6970     2.0020    -1.4220 H     1 <1>   0.0800 
 47 H       -1.6110     1.8430     0.3200 H     1 <1>   0.0800 
 48 H       -0.8930     3.2170    -0.4710 H     1 <1>   0.0800 
@<TRIPOS>BOND
  1   1   2  1   
  2   1   3  1   
  3   2   4  1   
  4   2  21  1   
  5   2  22  1   
  6   3   5  1   
  7   3  23  1   
  8   3  24  1   
  9   4   6  1   
 10   4  25  1   
 11   4  26  1   
 12   5   6  1   
 13   5  27  1   
 14   5  28  1   
 15   6   7  1   
 16   6  29  1   
 17   7   8  1   
 18   7  30  1   
 19   7  31  1   
 20   8   9  1   
 21   8  32  1   
 22   8  33  1   
 23   9  10  1   
 24   9  34  1   
 25   9  35  1   
 26  10  11  1   
 27  11  12  ar  
 28  11  13  ar  
 29  12  14  ar  
 30  12  36  1   
 31  13  15  ar  
 32  13  37  1   
 33  14  16  ar  
 34  14  17  1   
 35  15  16  ar  
 36  15  38  1   
 37  16  39  1   
 38  17  18  1   
 39  17  19  1   
 40  17  20  1   
 41  18  40  1   
 42  18  41  1   
 43  18  42  1   
 44  19  43  1   
 45  19  44  1   
 46  19  45  1   
 47  20  46  1   
 48  20  47  1   
 49  20  48  1   
@<TRIPOS>SUBSTRUCTURE
  1 ****  10 GROUP 4 **** **** 0

# MOE 2024.06 (io_trps.svl 2023.06)
