@<TRIPOS>MOLECULE
NONAME
50 53 1 0 0 
SMALL
USER_CHARGES


@<TRIPOS>ATOM
  1 S       -0.8070     1.0480    -1.8760 S.3   1 <1>  -0.0800 
  2 C       -1.3960     2.3400    -0.8400 C.2   1 <1>   0.1660 
  3 C       -1.9980    -0.0590    -1.2100 C.2   1 <1>  -0.1400 
  4 N       -0.8580     3.5780    -0.8650 N.2   1 <1>  -0.5760 
  5 C       -2.4230     1.9200    -0.0530 C.2   1 <1>  -0.0860 
  6 C       -2.7490     0.5370    -0.2770 C.2   1 <1>  -0.1810 
  7 C       -2.1090    -1.4960    -1.6720 C.3   1 <1>   0.3000 
  8 C       -1.4050     4.4140    -0.0500 C.2   1 <1>   0.6510 
  9 C       -2.9880     2.8830     0.8300 C.2   1 <1>   0.7160 
 10 C       -3.8340    -0.2680     0.4150 C.3   1 <1>   0.0210 
 11 O       -3.2830    -2.0680    -1.1410 O.3   1 <1>  -0.5600 
 12 S       -0.7220     6.0630    -0.0490 S.3   1 <1>  -0.3710 
 13 N       -2.4490     4.1570     0.8160 N.am  1 <1>  -0.4200 
 14 O       -3.9150     2.6090     1.5810 O.2   1 <1>  -0.5700 
 15 C       -3.6220    -1.7930     0.1970 C.3   1 <1>   0.2800 
 16 C        0.5590     6.0370    -1.3970 C.3   1 <1>   0.1310 
 17 C       -3.0250     5.1980     1.7190 C.3   1 <1>   0.1400 
 18 C       -2.5300    -2.3630     1.1150 C.3   1 <1>  -0.2400 
 19 C       -4.9280    -2.5490     0.4490 C.3   1 <1>  -0.2400 
 20 C        1.4010     7.3010    -1.3410 C.2   1 <1>   0.4230 
 21 C       -4.1280     5.9690     0.9920 C.3   1 <1>  -0.2400 
 22 O        1.2600     8.0860    -2.2440 O.2   1 <1>  -0.5700 
 23 C        2.3350     7.5130    -0.2490 C.ar  1 <1>   0.0860 
 24 C        3.0430     8.7150    -0.1610 C.ar  1 <1>  -0.1500 
 25 C        2.5850     6.5640     0.7500 C.ar  1 <1>  -0.1500 
 26 C        3.9440     8.9620     0.8580 C.ar  1 <1>  -0.1500 
 27 C        3.4850     6.8040     1.7720 C.ar  1 <1>  -0.1500 
 28 C        4.1670     8.0050     1.8290 C.ar  1 <1>  -0.1500 
 29 H       -1.2630    -2.0720    -1.3430 H     1 <1>   0.0800 
 30 H       -2.1780    -1.5450    -2.7440 H     1 <1>   0.0800 
 31 H       -4.7870     0.0310     0.0180 H     1 <1>   0.0800 
 32 H       -3.8390    -0.0570     1.4680 H     1 <1>   0.0800 
 33 H        0.0300     5.9740    -2.3310 H     1 <1>   0.0800 
 34 H        1.1670     5.1610    -1.2700 H     1 <1>   0.0800 
 35 H       -2.2590     5.8730     2.0580 H     1 <1>   0.0800 
 36 H       -3.4370     4.7330     2.5990 H     1 <1>   0.0800 
 37 H       -1.6130    -1.8110     1.0220 H     1 <1>   0.0800 
 38 H       -2.3490    -3.3970     0.8820 H     1 <1>   0.0800 
 39 H       -2.8440    -2.2980     2.1410 H     1 <1>   0.0800 
 40 H       -5.6910    -2.2060    -0.2260 H     1 <1>   0.0800 
 41 H       -5.2650    -2.3890     1.4570 H     1 <1>   0.0800 
 42 H       -4.7820    -3.6040     0.3000 H     1 <1>   0.0800 
 43 H       -4.5400     6.7130     1.6500 H     1 <1>   0.0800 
 44 H       -3.7360     6.4670     0.1230 H     1 <1>   0.0800 
 45 H       -4.9190     5.3020     0.6990 H     1 <1>   0.0800 
 46 H        2.8800     9.4720    -0.9100 H     1 <1>   0.1500 
 47 H        2.0760     5.6190     0.7450 H     1 <1>   0.1500 
 48 H        4.4710     9.9000     0.8950 H     1 <1>   0.1500 
 49 H        3.6560     6.0560     2.5280 H     1 <1>   0.1500 
 50 H        4.8680     8.1940     2.6250 H     1 <1>   0.1500 
@<TRIPOS>BOND
  1   1   2  1   
  2   1   3  1   
  3   2   4  1   
  4   2   5  2   
  5   3   6  2   
  6   3   7  1   
  7   4   8  2   
  8   5   6  1   
  9   5   9  1   
 10   6  10  1   
 11   7  11  1   
 12   7  29  1   
 13   7  30  1   
 14   8  12  1   
 15   8  13  1   
 16   9  13  am  
 17   9  14  2   
 18  10  15  1   
 19  10  31  1   
 20  10  32  1   
 21  11  15  1   
 22  12  16  1   
 23  13  17  1   
 24  15  18  1   
 25  15  19  1   
 26  16  20  1   
 27  16  33  1   
 28  16  34  1   
 29  17  21  1   
 30  17  35  1   
 31  17  36  1   
 32  18  37  1   
 33  18  38  1   
 34  18  39  1   
 35  19  40  1   
 36  19  41  1   
 37  19  42  1   
 38  20  22  2   
 39  20  23  1   
 40  21  43  1   
 41  21  44  1   
 42  21  45  1   
 43  23  24  ar  
 44  23  25  ar  
 45  24  26  ar  
 46  24  46  1   
 47  25  27  ar  
 48  25  47  1   
 49  26  28  ar  
 50  26  48  1   
 51  27  28  ar  
 52  27  49  1   
 53  28  50  1   
@<TRIPOS>SUBSTRUCTURE
  1 ****   4 GROUP 4 **** **** 0

# MOE 2024.06 (io_trps.svl 2023.06)
