@<TRIPOS>MOLECULE
NONAME
48 49 1 0 0 
SMALL
USER_CHARGES


@<TRIPOS>ATOM
  1 O       -1.3860    -1.4430    -2.2330 O.2   1 <1>  -0.5700 
  2 C       -1.4850    -2.4380    -1.5400 C.2   1 <1>   0.7800 
  3 O       -0.3860    -3.0350    -1.0750 O.3   1 <1>  -0.4300 
  4 N       -2.6900    -2.9890    -1.2050 N.am  1 <1>  -0.6600 
  5 C        0.8930    -2.5270    -1.3750 C.3   1 <1>   0.1200 
  6 C       -2.7800    -4.1890    -0.3190 C.3   1 <1>   0.1400 
  7 C       -3.9800    -2.3770    -1.6380 C.3   1 <1>   0.1400 
  8 C        1.9280    -3.4230    -0.7030 C.3   1 <1>  -0.2400 
  9 C       -4.2260    -4.6720    -0.1190 C.3   1 <1>   0.1400 
 10 C       -4.9760    -2.2740    -0.4700 C.3   1 <1>   0.1400 
 11 N       -5.1200    -3.5500     0.3120 N.am  1 <1>  -0.6600 
 12 C       -6.0020    -3.7190     1.3590 C.2   1 <1>   0.5690 
 13 O       -6.1430    -4.8070     1.8720 O.2   1 <1>  -0.5700 
 14 C       -6.8430    -2.5750     1.9710 C.3   1 <1>   0.2610 
 15 O       -7.4790    -1.7530     1.0030 O.3   1 <1>  -0.3630 
 16 C       -6.0190    -1.6560     2.8810 C.3   1 <1>  -0.2400 
 17 C       -8.4710    -2.2190     0.1980 C.ar  1 <1>   0.0820 
 18 C       -8.9920    -3.5090     0.2610 C.ar  1 <1>  -0.1500 
 19 C       -8.9700    -1.3290    -0.7400 C.ar  1 <1>  -0.1500 
 20 C       -9.9960    -3.8970    -0.6110 C.ar  1 <1>  -0.1500 
 21 C       -9.9730    -1.7170    -1.6090 C.ar  1 <1>  -0.1500 
 22 C      -10.4920    -3.0000    -1.5530 C.ar  1 <1>   0.0820 
 23 O      -11.4740    -3.3010    -2.4430 O.3   1 <1>  -0.3630 
 24 C      -12.0780    -4.5750    -2.4550 C.3   1 <1>   0.0400 
 25 H        0.9540    -1.5170    -1.0030 H     1 <1>   0.0800 
 26 H        1.0170    -2.5260    -2.4450 H     1 <1>   0.0800 
 27 H       -2.3590    -3.9450     0.6410 H     1 <1>   0.0800 
 28 H       -2.1950    -4.9860    -0.7430 H     1 <1>   0.0800 
 29 H       -4.4090    -2.9810    -2.4180 H     1 <1>   0.0800 
 30 H       -3.8130    -1.3940    -2.0430 H     1 <1>   0.0800 
 31 H        1.7830    -3.4210     0.3630 H     1 <1>   0.0800 
 32 H        2.9160    -3.0570    -0.9160 H     1 <1>   0.0800 
 33 H        1.8470    -4.4270    -1.0770 H     1 <1>   0.0800 
 34 H       -4.2260    -5.4600     0.6140 H     1 <1>   0.0800 
 35 H       -4.5980    -5.0850    -1.0400 H     1 <1>   0.0800 
 36 H       -5.9310    -1.9940    -0.8760 H     1 <1>   0.0800 
 37 H       -4.6480    -1.4900     0.1870 H     1 <1>   0.0800 
 38 H       -7.6210    -3.0130     2.5700 H     1 <1>   0.0800 
 39 H       -5.2410    -1.1660     2.3270 H     1 <1>   0.0800 
 40 H       -5.5650    -2.2380     3.6620 H     1 <1>   0.0800 
 41 H       -6.6570    -0.9180     3.3320 H     1 <1>   0.0800 
 42 H       -8.6360    -4.2290     0.9740 H     1 <1>   0.1500 
 43 H       -8.5710    -0.3320    -0.7840 H     1 <1>   0.1500 
 44 H      -10.3770    -4.8980    -0.5400 H     1 <1>   0.1500 
 45 H      -10.3610    -1.0270    -2.3370 H     1 <1>   0.1500 
 46 H      -12.8220    -4.5840    -3.2310 H     1 <1>   0.0800 
 47 H      -12.5430    -4.7500    -1.5010 H     1 <1>   0.0800 
 48 H      -11.3260    -5.3160    -2.6610 H     1 <1>   0.0800 
@<TRIPOS>BOND
  1   1   2  2   
  2   2   3  1   
  3   2   4  am  
  4   3   5  1   
  5   4   6  1   
  6   4   7  1   
  7   5   8  1   
  8   5  25  1   
  9   5  26  1   
 10   6   9  1   
 11   6  27  1   
 12   6  28  1   
 13   7  10  1   
 14   7  29  1   
 15   7  30  1   
 16   8  31  1   
 17   8  32  1   
 18   8  33  1   
 19   9  11  1   
 20   9  34  1   
 21   9  35  1   
 22  10  11  1   
 23  10  36  1   
 24  10  37  1   
 25  11  12  am  
 26  12  13  2   
 27  12  14  1   
 28  14  15  1   
 29  14  16  1   
 30  14  38  1   
 31  15  17  1   
 32  16  39  1   
 33  16  40  1   
 34  16  41  1   
 35  17  18  ar  
 36  17  19  ar  
 37  18  20  ar  
 38  18  42  1   
 39  19  21  ar  
 40  19  43  1   
 41  20  22  ar  
 42  20  44  1   
 43  21  22  ar  
 44  21  45  1   
 45  22  23  1   
 46  23  24  1   
 47  24  46  1   
 48  24  47  1   
 49  24  48  1   
@<TRIPOS>SUBSTRUCTURE
  1 ****  10 GROUP 4 **** **** 0

# MOE 2024.06 (io_trps.svl 2023.06)
