@<TRIPOS>MOLECULE
NONAME
34 35 1 0 0 
SMALL
USER_CHARGES


@<TRIPOS>ATOM
  1 BR       0.5560    -0.3360    -1.6680 Br    1 <1>  -0.1110 
  2 C        0.2640    -1.9080    -0.5880 C.ar  1 <1>   0.1110 
  3 C        1.3530    -2.5670    -0.0240 C.ar  1 <1>   0.0830 
  4 C       -1.0380    -2.3330    -0.4090 C.ar  1 <1>  -0.1500 
  5 O        2.5960    -2.0700    -0.2600 O.3   1 <1>  -0.3630 
  6 C        1.1110    -3.7010     0.7510 C.ar  1 <1>  -0.1500 
  7 C       -1.2460    -3.4590     0.3640 C.ar  1 <1>   0.1770 
  8 C        3.7550    -2.7150     0.2190 C.3   1 <1>   0.1200 
  9 C       -0.1900    -4.1440     0.9430 C.ar  1 <1>  -0.1500 
 10 CL      -2.8750    -4.0320     0.6170 Cl    1 <1>  -0.1770 
 11 C        4.9640    -1.8840    -0.2170 C.3   1 <1>   0.1100 
 12 N        6.2380    -2.4980     0.2180 N.3   1 <1>  -0.8100 
 13 C        6.6290    -3.6390    -0.6400 C.3   1 <1>   0.1100 
 14 C        7.3080    -1.4810     0.2840 C.3   1 <1>   0.1100 
 15 C        7.9480    -4.2790    -0.1590 C.3   1 <1>   0.3430 
 16 C        8.6340    -2.0890     0.7820 C.3   1 <1>   0.3430 
 17 N        9.0480    -3.2640    -0.0560 N.4   1 <1>  -0.9060 
 18 H       -1.8610    -1.8070    -0.8540 H     1 <1>   0.1500 
 19 H        1.9120    -4.2470     1.2130 H     1 <1>   0.1500 
 20 H        3.7840    -3.7010    -0.2060 H     1 <1>   0.0800 
 21 H        3.7020    -2.7590     1.2920 H     1 <1>   0.0800 
 22 H       -0.3910    -5.0160     1.5390 H     1 <1>   0.1500 
 23 H        4.8610    -0.9110     0.2350 H     1 <1>   0.0800 
 24 H        4.9550    -1.7620    -1.2880 H     1 <1>   0.0800 
 25 H        6.7340    -3.3140    -1.6620 H     1 <1>   0.0800 
 26 H        5.8580    -4.3900    -0.6130 H     1 <1>   0.0800 
 27 H        7.0120    -0.7020     0.9670 H     1 <1>   0.0800 
 28 H        7.4510    -1.0320    -0.6850 H     1 <1>   0.0800 
 29 H        8.2320    -5.0650    -0.8390 H     1 <1>   0.0800 
 30 H        7.7730    -4.7220     0.8080 H     1 <1>   0.0800 
 31 H        8.4980    -2.4030     1.8040 H     1 <1>   0.0800 
 32 H        9.4020    -1.3330     0.7660 H     1 <1>   0.0800 
 33 H        9.2820    -2.9320    -0.9980 H     1 <1>   0.4500 
 34 H        9.8910    -3.6980     0.3410 H     1 <1>   0.4500 
@<TRIPOS>BOND
  1   1   2  1   
  2   2   3  ar  
  3   2   4  ar  
  4   3   5  1   
  5   3   6  ar  
  6   4   7  ar  
  7   4  18  1   
  8   5   8  1   
  9   6   9  ar  
 10   6  19  1   
 11   7   9  ar  
 12   7  10  1   
 13   8  11  1   
 14   8  20  1   
 15   8  21  1   
 16   9  22  1   
 17  11  12  1   
 18  11  23  1   
 19  11  24  1   
 20  12  13  1   
 21  12  14  1   
 22  13  15  1   
 23  13  25  1   
 24  13  26  1   
 25  14  16  1   
 26  14  27  1   
 27  14  28  1   
 28  15  17  1   
 29  15  29  1   
 30  15  30  1   
 31  16  17  1   
 32  16  31  1   
 33  16  32  1   
 34  17  33  1   
 35  17  34  1   
@<TRIPOS>SUBSTRUCTURE
  1 ****   8 GROUP 4 **** **** 0

# MOE 2024.06 (io_trps.svl 2023.06)
