@<TRIPOS>MOLECULE
NONAME
42 42 1 0 0 
SMALL
USER_CHARGES


@<TRIPOS>ATOM
  1 S        0.6880    -0.3490     1.8040 S.o2  1 <1>   1.2040 
  2 O        0.0490    -1.2330     2.7570 O.2   1 <1>  -0.6500 
  3 O        1.3220     0.8590     2.2920 O.2   1 <1>  -0.6500 
  4 C        1.9380    -1.3020     0.9000 C.ar  1 <1>  -0.0090 
  5 C       -0.5440     0.1120     0.5210 C.3   1 <1>   0.1050 
  6 C        2.9880    -0.6670     0.2490 C.ar  1 <1>  -0.1500 
  7 C        1.8730    -2.6870     0.8210 C.ar  1 <1>  -0.1500 
  8 C       -1.6950     0.9280     1.1470 C.3   1 <1>  -0.2400 
  9 C        0.0680     0.9810    -0.6000 C.3   1 <1>  -0.2400 
 10 C       -1.1780    -1.1260    -0.1500 C.3   1 <1>  -0.2400 
 11 C        3.9560    -1.3600    -0.4690 C.ar  1 <1>  -0.0090 
 12 C        2.8180    -3.4050     0.1120 C.ar  1 <1>  -0.1500 
 13 S        5.3200    -0.4830    -1.2820 S.o2  1 <1>   1.2040 
 14 C        3.8490    -2.7430    -0.5270 C.ar  1 <1>  -0.1500 
 15 O        5.8500    -1.3410    -2.3210 O.2   1 <1>  -0.6500 
 16 O        4.8420     0.8360    -1.6440 O.2   1 <1>  -0.6500 
 17 C        6.5910    -0.3070     0.0330 C.3   1 <1>   0.1050 
 18 C        6.0840     0.5150     1.2390 C.3   1 <1>  -0.2400 
 19 C        7.8380     0.4180    -0.5150 C.3   1 <1>  -0.2400 
 20 C        7.0630    -1.6750     0.5740 C.3   1 <1>  -0.2400 
 21 H        3.0550     0.4090     0.3020 H     1 <1>   0.1500 
 22 H        1.0750    -3.2110     1.3220 H     1 <1>   0.1500 
 23 H       -2.4270     1.2050     0.4090 H     1 <1>   0.0800 
 24 H       -2.1840     0.3540     1.9150 H     1 <1>   0.0800 
 25 H       -1.3100     1.8260     1.5990 H     1 <1>   0.0800 
 26 H        0.5270     1.8610    -0.1820 H     1 <1>   0.0800 
 27 H       -0.6870     1.2950    -1.2990 H     1 <1>   0.0800 
 28 H        0.8180     0.4360    -1.1450 H     1 <1>   0.0800 
 29 H       -1.6370    -1.7570     0.5920 H     1 <1>   0.0800 
 30 H       -0.4340    -1.7020    -0.6710 H     1 <1>   0.0800 
 31 H       -1.9330    -0.8340    -0.8590 H     1 <1>   0.0800 
 32 H        2.7510    -4.4790     0.0590 H     1 <1>   0.1500 
 33 H        4.5790    -3.3090    -1.0830 H     1 <1>   0.1500 
 34 H        5.7400     1.4820     0.9130 H     1 <1>   0.0800 
 35 H        6.8680     0.6620     1.9600 H     1 <1>   0.0800 
 36 H        5.2690     0.0150     1.7320 H     1 <1>   0.0800 
 37 H        7.5690     1.3970    -0.8740 H     1 <1>   0.0800 
 38 H        8.2560    -0.1340    -1.3400 H     1 <1>   0.0800 
 39 H        8.5940     0.5270     0.2420 H     1 <1>   0.0800 
 40 H        6.2510    -2.2030     1.0400 H     1 <1>   0.0800 
 41 H        7.8440    -1.5500     1.3040 H     1 <1>   0.0800 
 42 H        7.4440    -2.2810    -0.2300 H     1 <1>   0.0800 
@<TRIPOS>BOND
  1   1   2  2   
  2   1   3  2   
  3   1   4  1   
  4   1   5  1   
  5   4   6  ar  
  6   4   7  ar  
  7   5   8  1   
  8   5   9  1   
  9   5  10  1   
 10   6  11  ar  
 11   6  21  1   
 12   7  12  ar  
 13   7  22  1   
 14   8  23  1   
 15   8  24  1   
 16   8  25  1   
 17   9  26  1   
 18   9  27  1   
 19   9  28  1   
 20  10  29  1   
 21  10  30  1   
 22  10  31  1   
 23  11  13  1   
 24  11  14  ar  
 25  12  14  ar  
 26  12  32  1   
 27  13  15  2   
 28  13  16  2   
 29  13  17  1   
 30  14  33  1   
 31  17  18  1   
 32  17  19  1   
 33  17  20  1   
 34  18  34  1   
 35  18  35  1   
 36  18  36  1   
 37  19  37  1   
 38  19  38  1   
 39  19  39  1   
 40  20  40  1   
 41  20  41  1   
 42  20  42  1   
@<TRIPOS>SUBSTRUCTURE
  1 ****   6 GROUP 4 **** **** 0

# MOE 2024.06 (io_trps.svl 2023.06)
