@<TRIPOS>MOLECULE
NONAME
45 46 1 0 0 
SMALL
USER_CHARGES


@<TRIPOS>ATOM
  1 O       -9.5270     1.6130    -0.3400 O.3   1 <1>  -0.3630 
  2 C       -8.2400     1.8700    -0.0080 C.ar  1 <1>   0.0830 
  3 C      -10.4020     1.1680     0.6750 C.3   1 <1>   0.2640 
  4 C       -7.6570     3.1320    -0.2000 C.ar  1 <1>   0.0830 
  5 C       -7.4760     0.8330     0.5130 C.ar  1 <1>  -0.1500 
  6 C      -11.7550     1.8270     0.4630 C.ar  1 <1>  -0.1440 
  7 O       -8.2630     4.2470    -0.6990 O.3   1 <1>  -0.3630 
  8 C       -6.3270     3.3130     0.1390 C.ar  1 <1>  -0.1500 
  9 C       -6.1480     1.0330     0.8450 C.ar  1 <1>  -0.1500 
 10 C      -12.4560     1.6220    -0.7150 C.ar  1 <1>  -0.1500 
 11 C      -12.3000     2.6480     1.4390 C.ar  1 <1>  -0.1500 
 12 C       -9.6520     4.3360    -0.9280 C.3   1 <1>   0.1200 
 13 C       -5.5640     2.2760     0.6530 C.ar  1 <1>  -0.1430 
 14 C      -13.6850     2.2260    -0.9140 C.ar  1 <1>  -0.1500 
 15 C      -13.5290     3.2520     1.2390 C.ar  1 <1>  -0.1500 
 16 C       -9.9720     5.7620    -1.3630 C.3   1 <1>  -0.2400 
 17 C       -4.1070     2.5060     0.9790 C.3   1 <1>   0.4860 
 18 C      -14.2290     3.0440     0.0620 C.ar  1 <1>  -0.1430 
 19 N       -3.3720     2.3830    -0.2990 N.4   1 <1>  -0.9060 
 20 C      -15.5760     3.7080    -0.1580 C.3   1 <1>  -0.0970 
 21 C       -1.9050     2.6190    -0.1740 C.3   1 <1>   0.2630 
 22 H       -9.9950     1.4390     1.6340 H     1 <1>   0.0800 
 23 H      -10.4840     0.0980     0.6040 H     1 <1>   0.0800 
 24 H       -7.9200    -0.1370     0.6500 H     1 <1>   0.1500 
 25 H       -5.9080     4.2940    -0.0100 H     1 <1>   0.1500 
 26 H       -5.5850     0.2070     1.2480 H     1 <1>   0.1500 
 27 H      -12.0420     0.9930    -1.4840 H     1 <1>   0.1500 
 28 H      -11.7720     2.8250     2.3600 H     1 <1>   0.1500 
 29 H      -10.1670     4.0960    -0.0140 H     1 <1>   0.0800 
 30 H       -9.9200     3.6360    -1.7000 H     1 <1>   0.0800 
 31 H      -14.2140     2.0580    -1.8360 H     1 <1>   0.1500 
 32 H      -13.9380     3.8880     2.0040 H     1 <1>   0.1500 
 33 H       -9.6910     6.4560    -0.5920 H     1 <1>   0.0800 
 34 H      -11.0280     5.8540    -1.5390 H     1 <1>   0.0800 
 35 H       -9.4500     5.9980    -2.2720 H     1 <1>   0.0800 
 36 H       -3.7630     1.7720     1.6890 H     1 <1>   0.0800 
 37 H       -3.9760     3.4910     1.3990 H     1 <1>   0.0800 
 38 H       -3.7980     3.0440    -0.9630 H     1 <1>   0.4500 
 39 H       -3.5680     1.4490    -0.6830 H     1 <1>   0.4500 
 40 H      -16.1970     3.0990    -0.7900 H     1 <1>   0.0800 
 41 H      -15.4370     4.6660    -0.6250 H     1 <1>   0.0800 
 42 H      -16.0830     3.8490     0.7800 H     1 <1>   0.0800 
 43 H       -1.7140     3.6120     0.2000 H     1 <1>   0.0800 
 44 H       -1.4280     2.5180    -1.1360 H     1 <1>   0.0800 
 45 H       -1.4650     1.9040     0.5030 H     1 <1>   0.0800 
@<TRIPOS>BOND
  1   1   2  1   
  2   1   3  1   
  3   2   4  ar  
  4   2   5  ar  
  5   3   6  1   
  6   3  22  1   
  7   3  23  1   
  8   4   7  1   
  9   4   8  ar  
 10   5   9  ar  
 11   5  24  1   
 12   6  10  ar  
 13   6  11  ar  
 14   7  12  1   
 15   8  13  ar  
 16   8  25  1   
 17   9  13  ar  
 18   9  26  1   
 19  10  14  ar  
 20  10  27  1   
 21  11  15  ar  
 22  11  28  1   
 23  12  16  1   
 24  12  29  1   
 25  12  30  1   
 26  13  17  1   
 27  14  18  ar  
 28  14  31  1   
 29  15  18  ar  
 30  15  32  1   
 31  16  33  1   
 32  16  34  1   
 33  16  35  1   
 34  17  19  1   
 35  17  36  1   
 36  17  37  1   
 37  18  20  1   
 38  19  21  1   
 39  19  38  1   
 40  19  39  1   
 41  20  40  1   
 42  20  41  1   
 43  20  42  1   
 44  21  43  1   
 45  21  44  1   
 46  21  45  1   
@<TRIPOS>SUBSTRUCTURE
  1 ****   1 GROUP 4 **** **** 0

# MOE 2024.06 (io_trps.svl 2023.06)
