@<TRIPOS>MOLECULE
NONAME
54 57 1 0 0 
SMALL
USER_CHARGES


@<TRIPOS>ATOM
  1 O        3.2470    -5.6930     1.2040 O.co2 1 <1>  -0.9000 
  2 C        2.2300    -5.0000     1.3120 C.2   1 <1>   0.9060 
  3 O        1.1180    -5.5140     1.1420 O.co2 1 <1>  -0.9000 
  4 C        2.3520    -3.4990     1.5420 C.3   1 <1>  -0.1860 
  5 C        1.8140    -2.5420     0.2620 C.3   1 <1>  -0.0190 
  6 C        3.8940    -3.0310     1.8810 C.3   1 <1>  -0.0800 
  7 C        0.8320    -3.1210    -0.7800 C.2   1 <1>   0.5690 
  8 C        3.1020    -1.7050    -0.3070 C.3   1 <1>  -0.0800 
  9 C        3.4970    -2.3470     0.8060 C.3   1 <1>  -0.1600 
 10 C        5.1610    -2.1370     1.3470 C.3   1 <1>  -0.1600 
 11 O       -0.2770    -2.6350    -0.7580 O.2   1 <1>  -0.5700 
 12 N        1.1070    -4.0970    -1.7210 N.am  1 <1>  -0.6600 
 13 C        4.6250    -1.2230     0.0480 C.3   1 <1>  -0.1600 
 14 C        2.3880    -4.8320    -1.9430 C.3   1 <1>   0.1400 
 15 C       -0.0340    -4.8300    -2.3290 C.3   1 <1>   0.1400 
 16 C        2.3170    -6.3370    -1.5730 C.3   1 <1>   0.3430 
 17 C       -0.1890    -6.1480    -1.5670 C.3   1 <1>   0.3430 
 18 N        0.9970    -7.0610    -1.7450 N.4   1 <1>  -0.9590 
 19 C        0.9030    -8.0730    -0.6440 C.3   1 <1>   0.3430 
 20 C        1.9630    -9.1740    -0.7470 C.3   1 <1>  -0.0170 
 21 C        1.7410   -10.1760     0.3700 C.ar  1 <1>  -0.1440 
 22 C        1.9750    -9.7910     1.6820 C.ar  1 <1>  -0.1500 
 23 C        1.3040   -11.4640     0.1030 C.ar  1 <1>  -0.1500 
 24 C        1.7710   -10.6860     2.7170 C.ar  1 <1>  -0.1500 
 25 C        1.1000   -12.3590     1.1400 C.ar  1 <1>  -0.1500 
 26 C        1.3320   -11.9700     2.4470 C.ar  1 <1>  -0.1500 
 27 H        1.7240    -3.3030     2.3940 H     1 <1>   0.0800 
 28 H        1.1930    -1.7950     0.7440 H     1 <1>   0.0800 
 29 H        3.7750    -2.6440     2.8840 H     1 <1>   0.0800 
 30 H        3.2380    -2.1370    -1.2870 H     1 <1>   0.0800 
 31 H        3.8730    -3.2330     0.1380 H     1 <1>   0.0800 
 32 H        3.1320    -1.4730     1.5010 H     1 <1>   0.0800 
 33 H        5.9630    -2.7910     1.0390 H     1 <1>   0.0800 
 34 H        5.5430    -1.4990     2.1290 H     1 <1>   0.0800 
 35 H        4.6310    -0.1740     0.3060 H     1 <1>   0.0800 
 36 H        5.2790    -1.3530    -0.7990 H     1 <1>   0.0800 
 37 H        3.1850    -4.3940    -1.3820 H     1 <1>   0.0800 
 38 H        2.6510    -4.7450    -2.9810 H     1 <1>   0.0800 
 39 H        0.1490    -5.0090    -3.3730 H     1 <1>   0.0800 
 40 H       -0.9480    -4.2680    -2.2490 H     1 <1>   0.0800 
 41 H        2.5920    -6.4320    -0.5490 H     1 <1>   0.0800 
 42 H        3.0850    -6.8560    -2.1180 H     1 <1>   0.0800 
 43 H       -1.0850    -6.6480    -1.8920 H     1 <1>   0.0800 
 44 H       -0.3080    -5.9070    -0.5220 H     1 <1>   0.0800 
 45 H        0.9580    -7.5070    -2.6630 H     1 <1>   0.4500 
 46 H       -0.0710    -8.5330    -0.6560 H     1 <1>   0.0800 
 47 H        1.0140    -7.5770     0.3090 H     1 <1>   0.0800 
 48 H        2.9490    -8.7600    -0.6290 H     1 <1>   0.0800 
 49 H        1.8970    -9.6650    -1.7000 H     1 <1>   0.0800 
 50 H        2.3190    -8.7920     1.9080 H     1 <1>   0.1500 
 51 H        1.1200   -11.7850    -0.9070 H     1 <1>   0.1500 
 52 H        1.9540   -10.3790     3.7320 H     1 <1>   0.1500 
 53 H        0.7610   -13.3590     0.9300 H     1 <1>   0.1500 
 54 H        1.1740   -12.6650     3.2540 H     1 <1>   0.1500 
@<TRIPOS>BOND
  1   1   2  ar  
  2   2   3  ar  
  3   2   4  1   
  4   4   5  1   
  5   4   6  1   
  6   4  27  1   
  7   5   7  1   
  8   5   8  1   
  9   5  28  1   
 10   6   9  1   
 11   6  10  1   
 12   6  29  1   
 13   7  11  2   
 14   7  12  am  
 15   8   9  1   
 16   8  13  1   
 17   8  30  1   
 18   9  31  1   
 19   9  32  1   
 20  10  13  1   
 21  10  33  1   
 22  10  34  1   
 23  12  14  1   
 24  12  15  1   
 25  13  35  1   
 26  13  36  1   
 27  14  16  1   
 28  14  37  1   
 29  14  38  1   
 30  15  17  1   
 31  15  39  1   
 32  15  40  1   
 33  16  18  1   
 34  16  41  1   
 35  16  42  1   
 36  17  18  1   
 37  17  43  1   
 38  17  44  1   
 39  18  19  1   
 40  18  45  1   
 41  19  20  1   
 42  19  46  1   
 43  19  47  1   
 44  20  21  1   
 45  20  48  1   
 46  20  49  1   
 47  21  22  ar  
 48  21  23  ar  
 49  22  24  ar  
 50  22  50  1   
 51  23  25  ar  
 52  23  51  1   
 53  24  26  ar  
 54  24  52  1   
 55  25  26  ar  
 56  25  53  1   
 57  26  54  1   
@<TRIPOS>SUBSTRUCTURE
  1 ****   3 GROUP 4 **** **** 0

# MOE 2024.06 (io_trps.svl 2023.06)
