@<TRIPOS>MOLECULE
NONAME
44 46 1 0 0 
SMALL
USER_CHARGES


@<TRIPOS>ATOM
  1 O       -0.5570    -1.5040    -1.3850 O.2   1 <1>  -0.5700 
  2 C       -0.2340    -2.1130    -0.3950 C.2   1 <1>   0.5690 
  3 N       -1.0040    -2.1380     0.7200 N.am  1 <1>  -0.7300 
  4 C        1.0760    -2.8670    -0.3900 C.3   1 <1>  -0.0990 
  5 C       -2.2920    -1.4030     0.8750 C.3   1 <1>   0.1400 
  6 C        2.2600    -1.9060    -0.1830 C.3   1 <1>  -0.0160 
  7 C       -3.4090    -2.0000     0.0060 C.3   1 <1>   0.2000 
  8 C        3.6340    -2.5770    -0.1210 C.ar  1 <1>   0.1660 
  9 O       -4.6240    -1.4260     0.3630 O.3   1 <1>  -0.5600 
 10 C       -3.6460    -3.4950     0.1890 C.3   1 <1>  -0.1600 
 11 N        3.6960    -3.8760    -0.1170 N.ar  1 <1>  -0.6200 
 12 C        4.7880    -1.7390    -0.0620 C.ar  1 <1>   0.3930 
 13 C       -5.6710    -2.2270    -0.0810 C.3   1 <1>   0.1200 
 14 C       -5.1240    -3.6520    -0.1300 C.3   1 <1>  -0.1600 
 15 C        4.9560    -4.3810    -0.0630 C.ar  1 <1>   0.3100 
 16 O        4.5900    -0.4020    -0.0600 O.3   1 <1>  -0.3630 
 17 N        6.0090    -2.1910    -0.0070 N.ar  1 <1>  -0.6200 
 18 C        6.0980    -3.5440    -0.0090 C.ar  1 <1>   0.3100 
 19 C        5.1370    -5.7720    -0.0610 C.ar  1 <1>  -0.1500 
 20 C        5.6740     0.5060    -0.0160 C.3   1 <1>   0.0400 
 21 C        7.3670    -4.1430     0.0460 C.ar  1 <1>  -0.1500 
 22 C        6.3890    -6.3300    -0.0070 C.ar  1 <1>  -0.1500 
 23 C        7.5150    -5.5060     0.0480 C.ar  1 <1>  -0.1500 
 24 H       -0.7040    -2.6820     1.5300 H     1 <1>   0.3700 
 25 H        1.1860    -3.3730    -1.3320 H     1 <1>   0.0800 
 26 H        1.0620    -3.6080     0.3880 H     1 <1>   0.0800 
 27 H       -2.1450    -0.3760     0.5880 H     1 <1>   0.0800 
 28 H       -2.5910    -1.4340     1.9070 H     1 <1>   0.0800 
 29 H        2.1110    -1.3600     0.7320 H     1 <1>   0.0800 
 30 H        2.2620    -1.1940    -0.9900 H     1 <1>   0.0800 
 31 H       -3.2340    -1.7680    -1.0320 H     1 <1>   0.0800 
 32 H       -3.4540    -3.7720     1.2100 H     1 <1>   0.0800 
 33 H       -3.0160    -4.0740    -0.4630 H     1 <1>   0.0800 
 34 H       -5.9610    -1.8850    -1.0600 H     1 <1>   0.0800 
 35 H       -6.4950    -2.1270     0.6050 H     1 <1>   0.0800 
 36 H       -5.6180    -4.2800     0.5910 H     1 <1>   0.0800 
 37 H       -5.2700    -4.0630    -1.1130 H     1 <1>   0.0800 
 38 H        4.2580    -6.3900    -0.1040 H     1 <1>   0.1500 
 39 H        5.2790     1.5060    -0.0270 H     1 <1>   0.0800 
 40 H        6.2980     0.3440    -0.8770 H     1 <1>   0.0800 
 41 H        6.2320     0.3370     0.8890 H     1 <1>   0.0800 
 42 H        8.2230    -3.4940     0.0870 H     1 <1>   0.1500 
 43 H        6.5170    -7.3990    -0.0060 H     1 <1>   0.1500 
 44 H        8.4940    -5.9530     0.0900 H     1 <1>   0.1500 
@<TRIPOS>BOND
  1   1   2  2   
  2   2   3  am  
  3   2   4  1   
  4   3   5  1   
  5   3  24  1   
  6   4   6  1   
  7   4  25  1   
  8   4  26  1   
  9   5   7  1   
 10   5  27  1   
 11   5  28  1   
 12   6   8  1   
 13   6  29  1   
 14   6  30  1   
 15   7   9  1   
 16   7  10  1   
 17   7  31  1   
 18   8  11  ar  
 19   8  12  ar  
 20   9  13  1   
 21  10  14  1   
 22  10  32  1   
 23  10  33  1   
 24  11  15  ar  
 25  12  16  1   
 26  12  17  ar  
 27  13  14  1   
 28  13  34  1   
 29  13  35  1   
 30  14  36  1   
 31  14  37  1   
 32  15  18  ar  
 33  15  19  ar  
 34  16  20  1   
 35  17  18  ar  
 36  18  21  ar  
 37  19  22  ar  
 38  19  38  1   
 39  20  39  1   
 40  20  40  1   
 41  20  41  1   
 42  21  23  ar  
 43  21  42  1   
 44  22  23  ar  
 45  22  43  1   
 46  23  44  1   
@<TRIPOS>SUBSTRUCTURE
  1 ****   4 GROUP 4 **** **** 0

# MOE 2024.06 (io_trps.svl 2023.06)
