@<TRIPOS>MOLECULE
NONAME
43 45 1 0 0 
SMALL
USER_CHARGES


@<TRIPOS>ATOM
  1 F        0.6450    -0.6670    -0.5950 F     1 <1>  -0.1900 
  2 C        1.7380    -1.2780    -0.2150 C.ar  1 <1>   0.1900 
  3 C        2.9340    -0.9380    -0.8170 C.ar  1 <1>  -0.1500 
  4 C        1.6560    -2.2400     0.7730 C.ar  1 <1>  -0.1500 
  5 C        4.0870    -1.5890    -0.4140 C.ar  1 <1>  -0.1500 
  6 C        2.8180    -2.8810     1.1660 C.ar  1 <1>  -0.1500 
  7 C        4.0420    -2.5670     0.5800 C.ar  1 <1>   0.1000 
  8 N        5.1890    -3.2410     0.9940 N.pl3 1 <1>  -0.8380 
  9 C        5.3150    -4.6960     0.6820 C.3   1 <1>   0.2090 
 10 C        6.4520    -2.4960     1.2880 C.3   1 <1>   0.2090 
 11 C        6.4360    -4.9550    -0.3480 C.3   1 <1>   0.3430 
 12 C        7.5540    -2.8150     0.2540 C.3   1 <1>   0.3430 
 13 N        7.7360    -4.2980     0.0360 N.4   1 <1>  -0.9590 
 14 C        8.8220    -4.5870    -0.9390 C.3   1 <1>   0.4860 
 15 C       10.1260    -4.0630    -0.3660 C.ar  1 <1>  -0.1430 
 16 C       10.8000    -4.7260     0.6580 C.ar  1 <1>  -0.1430 
 17 C       10.6450    -2.8820    -0.8810 C.ar  1 <1>  -0.1500 
 18 C       11.9690    -4.1770     1.1620 C.ar  1 <1>  -0.1500 
 19 C       10.3160    -6.0440     1.2510 C.3   1 <1>  -0.0970 
 20 C       11.8130    -2.3480    -0.3720 C.ar  1 <1>  -0.1500 
 21 C       12.4740    -2.9950     0.6540 C.ar  1 <1>  -0.1500 
 22 H        2.9520    -0.1820    -1.5820 H     1 <1>   0.1500 
 23 H        0.7070    -2.4740     1.2200 H     1 <1>   0.1500 
 24 H        5.0200    -1.3360    -0.8770 H     1 <1>   0.1500 
 25 H        2.7830    -3.6260     1.9400 H     1 <1>   0.1500 
 26 H        4.3820    -5.0640     0.2880 H     1 <1>   0.0800 
 27 H        5.5210    -5.2340     1.5900 H     1 <1>   0.0800 
 28 H        6.7940    -2.7640     2.2720 H     1 <1>   0.0800 
 29 H        6.2580    -1.4370     1.2940 H     1 <1>   0.0800 
 30 H        6.1060    -4.5710    -1.3000 H     1 <1>   0.0800 
 31 H        6.5750    -6.0180    -0.4510 H     1 <1>   0.0800 
 32 H        8.4800    -2.3770     0.5910 H     1 <1>   0.0800 
 33 H        7.2870    -2.3450    -0.6770 H     1 <1>   0.0800 
 34 H        8.0500    -4.6830     0.9340 H     1 <1>   0.4500 
 35 H        8.6150    -4.1090    -1.8820 H     1 <1>   0.0800 
 36 H        8.9060    -5.6480    -1.1050 H     1 <1>   0.0800 
 37 H       10.1530    -2.3620    -1.6850 H     1 <1>   0.1500 
 38 H       12.5060    -4.6690     1.9570 H     1 <1>   0.1500 
 39 H        9.9780    -6.7150     0.4820 H     1 <1>   0.0800 
 40 H        9.5230    -5.8720     1.9560 H     1 <1>   0.0800 
 41 H       11.1190    -6.5370     1.7710 H     1 <1>   0.0800 
 42 H       12.2150    -1.4320    -0.7720 H     1 <1>   0.1500 
 43 H       13.3850    -2.5820     1.0540 H     1 <1>   0.1500 
@<TRIPOS>BOND
  1   1   2  1   
  2   2   3  ar  
  3   2   4  ar  
  4   3   5  ar  
  5   3  22  1   
  6   4   6  ar  
  7   4  23  1   
  8   5   7  ar  
  9   5  24  1   
 10   6   7  ar  
 11   6  25  1   
 12   7   8  1   
 13   8   9  1   
 14   8  10  1   
 15   9  11  1   
 16   9  26  1   
 17   9  27  1   
 18  10  12  1   
 19  10  28  1   
 20  10  29  1   
 21  11  13  1   
 22  11  30  1   
 23  11  31  1   
 24  12  13  1   
 25  12  32  1   
 26  12  33  1   
 27  13  14  1   
 28  13  34  1   
 29  14  15  1   
 30  14  35  1   
 31  14  36  1   
 32  15  16  ar  
 33  15  17  ar  
 34  16  18  ar  
 35  16  19  1   
 36  17  20  ar  
 37  17  37  1   
 38  18  21  ar  
 39  18  38  1   
 40  19  39  1   
 41  19  40  1   
 42  19  41  1   
 43  20  21  ar  
 44  20  42  1   
 45  21  43  1   
@<TRIPOS>SUBSTRUCTURE
  1 ****  12 GROUP 4 **** **** 0

# MOE 2024.06 (io_trps.svl 2023.06)
