@<TRIPOS>MOLECULE
NONAME
55 57 1 0 0 
SMALL
USER_CHARGES


@<TRIPOS>ATOM
  1 O        0.7770     0.1010     0.2770 O.2   1 <1>  -0.5700 
  2 C        1.2920     1.1830     0.4130 C.2   1 <1>   0.6900 
  3 N        0.9250     2.2050    -0.3980 N.am  1 <1>  -0.5390 
  4 N        2.2300     1.4020     1.3440 N.am  1 <1>  -0.7300 
  5 C        1.4370     3.4930    -0.3050 C.2   1 <1>  -0.0290 
  6 C        3.0630     2.6180     1.3860 C.3   1 <1>   0.5020 
  7 C        2.4410     3.7670     0.5800 C.2   1 <1>  -0.1240 
  8 C        0.7670     4.5080    -1.2340 C.3   1 <1>   0.4810 
  9 C        4.4430     2.2760     0.8320 C.ar  1 <1>  -0.1440 
 10 C        3.0430     5.0290     0.8920 C.2   1 <1>   0.7060 
 11 N       -0.5730     4.8580    -0.6860 N.4   1 <1>  -0.9590 
 12 C        4.5890     1.7450    -0.4430 C.ar  1 <1>  -0.1500 
 13 C        5.5800     2.5110     1.5930 C.ar  1 <1>  -0.1500 
 14 O        3.8210     5.1940     1.8080 O.2   1 <1>  -0.5700 
 15 O        2.6820     6.0980     0.1750 O.3   1 <1>  -0.4300 
 16 C       -1.4230     5.5170    -1.7170 C.3   1 <1>   0.3430 
 17 C       -0.4480     5.6900     0.5480 C.3   1 <1>   0.3430 
 18 C        5.8400     1.4550    -0.9580 C.ar  1 <1>   0.0830 
 19 C        6.8350     2.2180     1.0890 C.ar  1 <1>  -0.1500 
 20 C        3.2630     7.3660     0.4000 C.3   1 <1>   0.1200 
 21 C       -2.8270     5.7490    -1.1560 C.3   1 <1>  -0.1600 
 22 C       -1.8320     5.9310     1.1520 C.3   1 <1>  -0.1600 
 23 O        5.8750     0.9490    -2.2150 O.3   1 <1>  -0.3630 
 24 C        6.9710     1.6920    -0.1830 C.ar  1 <1>  -0.1500 
 25 C        2.6160     8.3600    -0.5590 C.3   1 <1>  -0.2400 
 26 C       -2.7920     6.5680     0.1400 C.3   1 <1>  -0.1600 
 27 C        7.0940     0.5750    -2.8190 C.3   1 <1>   0.0400 
 28 H        0.2720     1.8880    -1.1170 H     1 <1>   0.3700 
 29 H        2.6320     0.5730     1.7810 H     1 <1>   0.3700 
 30 H        3.1500     2.9080     2.4200 H     1 <1>   0.0800 
 31 H        0.6590     4.0570    -2.2070 H     1 <1>   0.0800 
 32 H        1.3620     5.3950    -1.3560 H     1 <1>   0.0800 
 33 H       -1.0250     3.9780    -0.4050 H     1 <1>   0.4500 
 34 H        3.7330     1.5440    -1.0600 H     1 <1>   0.1500 
 35 H        5.4990     2.9310     2.5820 H     1 <1>   0.1500 
 36 H       -1.4890     4.8970    -2.5980 H     1 <1>   0.0800 
 37 H       -0.9900     6.4630    -1.9980 H     1 <1>   0.0800 
 38 H        0.0110     6.6360     0.3060 H     1 <1>   0.0800 
 39 H        0.1730     5.1900     1.2730 H     1 <1>   0.0800 
 40 H        7.7090     2.4040     1.6890 H     1 <1>   0.1500 
 41 H        4.3240     7.2930     0.2230 H     1 <1>   0.0800 
 42 H        3.0910     7.6510     1.4260 H     1 <1>   0.0800 
 43 H       -3.3040     4.8000    -0.9780 H     1 <1>   0.0800 
 44 H       -3.4180     6.2710    -1.8900 H     1 <1>   0.0800 
 45 H       -1.7350     6.5780     2.0060 H     1 <1>   0.0800 
 46 H       -2.2350     4.9970     1.5030 H     1 <1>   0.0800 
 47 H        7.9560     1.4770    -0.5500 H     1 <1>   0.1500 
 48 H        2.7920     8.0650    -1.5780 H     1 <1>   0.0800 
 49 H        3.0540     9.3320    -0.4130 H     1 <1>   0.0800 
 50 H        1.5610     8.4350    -0.3740 H     1 <1>   0.0800 
 51 H       -3.7820     6.6280     0.5620 H     1 <1>   0.0800 
 52 H       -2.4700     7.5730    -0.0780 H     1 <1>   0.0800 
 53 H        6.8760     0.1870    -3.7980 H     1 <1>   0.0800 
 54 H        7.5600    -0.1870    -2.2200 H     1 <1>   0.0800 
 55 H        7.7240     1.4420    -2.9010 H     1 <1>   0.0800 
@<TRIPOS>BOND
  1   1   2  2   
  2   2   3  am  
  3   2   4  am  
  4   3   5  1   
  5   3  28  1   
  6   4   6  1   
  7   4  29  1   
  8   5   7  2   
  9   5   8  1   
 10   6   7  1   
 11   6   9  1   
 12   6  30  1   
 13   7  10  1   
 14   8  11  1   
 15   8  31  1   
 16   8  32  1   
 17   9  12  ar  
 18   9  13  ar  
 19  10  14  2   
 20  10  15  1   
 21  11  16  1   
 22  11  17  1   
 23  11  33  1   
 24  12  18  ar  
 25  12  34  1   
 26  13  19  ar  
 27  13  35  1   
 28  15  20  1   
 29  16  21  1   
 30  16  36  1   
 31  16  37  1   
 32  17  22  1   
 33  17  38  1   
 34  17  39  1   
 35  18  23  1   
 36  18  24  ar  
 37  19  24  ar  
 38  19  40  1   
 39  20  25  1   
 40  20  41  1   
 41  20  42  1   
 42  21  26  1   
 43  21  43  1   
 44  21  44  1   
 45  22  26  1   
 46  22  45  1   
 47  22  46  1   
 48  23  27  1   
 49  24  47  1   
 50  25  48  1   
 51  25  49  1   
 52  25  50  1   
 53  26  51  1   
 54  26  52  1   
 55  27  53  1   
 56  27  54  1   
 57  27  55  1   
@<TRIPOS>SUBSTRUCTURE
  1 ****   7 GROUP 4 **** **** 0

# MOE 2024.06 (io_trps.svl 2023.06)
