@<TRIPOS>MOLECULE
NONAME
34 36 1 0 0 
SMALL
USER_CHARGES


@<TRIPOS>ATOM
  1 S        0.0430     0.1160    -0.8880 S.3   1 <1>  -0.2420 
  2 C        1.3250     1.3350    -0.9920 C.2   1 <1>   0.6970 
  3 C       -1.3160     0.9150    -0.0600 C.ar  1 <1>   0.1020 
  4 O        2.3670     0.9130    -1.4540 O.2   1 <1>  -0.5700 
  5 C        1.0550     2.6490    -0.5680 C.2   1 <1>   0.2190 
  6 C       -1.2540     2.2640     0.3020 C.ar  1 <1>   0.0280 
  7 C       -2.4090     0.1110     0.2100 C.ar  1 <1>  -0.1500 
  8 N        2.1300     3.5040    -0.7860 N.pl3 1 <1>   0.8360 
  9 C       -0.1190     3.1190    -0.0100 C.2   1 <1>   0.0720 
 10 C       -2.3700     2.7460     1.0000 C.ar  1 <1>  -0.1500 
 11 C       -3.4960     0.6320     0.8830 C.ar  1 <1>  -0.1500 
 12 O        2.9940     3.6580     0.1020 O.2   1 <1>  -0.5200 
 13 O        2.2510     4.1040    -1.8730 O.2   1 <1>  -0.5200 
 14 N       -0.2620     4.4650     0.2510 N.pl3 1 <1>  -0.8380 
 15 C       -3.4690     1.9560     1.2820 C.ar  1 <1>  -0.1500 
 16 C        0.3410     5.1260     1.4480 C.3   1 <1>   0.2090 
 17 C       -1.0920     5.3430    -0.6230 C.3   1 <1>   0.2090 
 18 C        1.1220     6.3780     1.0320 C.3   1 <1>  -0.1600 
 19 C       -0.2780     6.5660    -1.0520 C.3   1 <1>  -0.1600 
 20 C        0.2830     7.3220     0.1600 C.3   1 <1>  -0.1600 
 21 H       -2.4090    -0.9200    -0.1000 H     1 <1>   0.1500 
 22 H       -2.3900     3.7660     1.3390 H     1 <1>   0.1500 
 23 H       -4.3520     0.0160     1.0980 H     1 <1>   0.1500 
 24 H       -4.3080     2.3690     1.8160 H     1 <1>   0.1500 
 25 H        0.9960     4.4400     1.9580 H     1 <1>   0.0800 
 26 H       -0.4480     5.4040     2.1260 H     1 <1>   0.0800 
 27 H       -1.9650     5.6620    -0.0800 H     1 <1>   0.0800 
 28 H       -1.4140     4.7960    -1.4920 H     1 <1>   0.0800 
 29 H        2.0020     6.0820     0.4900 H     1 <1>   0.0800 
 30 H        1.4490     6.8980     1.9140 H     1 <1>   0.0800 
 31 H       -0.9040     7.2230    -1.6290 H     1 <1>   0.0800 
 32 H        0.5290     6.2440    -1.6860 H     1 <1>   0.0800 
 33 H        0.8940     8.1430    -0.1760 H     1 <1>   0.0800 
 34 H       -0.5280     7.7250     0.7410 H     1 <1>   0.0800 
@<TRIPOS>BOND
  1   1   2  1   
  2   1   3  1   
  3   2   4  2   
  4   2   5  1   
  5   3   6  ar  
  6   3   7  ar  
  7   5   8  1   
  8   5   9  2   
  9   6   9  1   
 10   6  10  ar  
 11   7  11  ar  
 12   7  21  1   
 13   8  12  2   
 14   8  13  2   
 15   9  14  1   
 16  10  15  ar  
 17  10  22  1   
 18  11  15  ar  
 19  11  23  1   
 20  14  16  1   
 21  14  17  1   
 22  15  24  1   
 23  16  18  1   
 24  16  25  1   
 25  16  26  1   
 26  17  19  1   
 27  17  27  1   
 28  17  28  1   
 29  18  20  1   
 30  18  29  1   
 31  18  30  1   
 32  19  20  1   
 33  19  31  1   
 34  19  32  1   
 35  20  33  1   
 36  20  34  1   
@<TRIPOS>SUBSTRUCTURE
  1 ****   9 GROUP 4 **** **** 0

# MOE 2024.06 (io_trps.svl 2023.06)
