@<TRIPOS>MOLECULE
NONAME
50 51 1 0 0 
SMALL
USER_CHARGES


@<TRIPOS>ATOM
  1 O        0.2090     0.5390    -1.0230 O.3   1 <1>  -0.5600 
  2 C       -0.0880     1.6070    -0.1650 C.3   1 <1>   0.2000 
  3 C        1.1500    -0.4060    -0.5840 C.3   1 <1>   0.2000 
  4 C        1.1930     2.4270     0.1450 C.3   1 <1>   0.3430 
  5 C       -0.7990     1.0800     1.0880 C.3   1 <1>  -0.2400 
  6 C        2.3300     0.2630     0.1680 C.3   1 <1>   0.3430 
  7 C        1.6240    -1.1400    -1.8370 C.3   1 <1>  -0.2400 
  8 N        2.4700     1.7080    -0.2210 N.4   1 <1>  -0.9590 
  9 C        3.7100     2.3760     0.2740 C.3   1 <1>   0.4230 
 10 C        3.7570     3.8310    -0.2190 C.3   1 <1>  -0.1600 
 11 C        4.9530     1.6220    -0.2230 C.3   1 <1>  -0.1600 
 12 C        5.0600     4.5360     0.1840 C.3   1 <1>  -0.1600 
 13 C        6.2570     2.3280     0.1780 C.3   1 <1>  -0.1600 
 14 C        6.3130     3.7890    -0.3250 C.3   1 <1>  -0.0800 
 15 C        7.6610     4.5190    -0.0040 C.3   1 <1>   0.0000 
 16 C        7.9250     4.6580     1.5070 C.3   1 <1>  -0.2400 
 17 C        8.8500     3.7590    -0.6220 C.3   1 <1>  -0.2400 
 18 C        7.6730     5.9310    -0.6180 C.3   1 <1>  -0.2400 
 19 H       -0.7780     2.2420    -0.6950 H     1 <1>   0.0800 
 20 H        0.6500    -1.1060     0.0650 H     1 <1>   0.0800 
 21 H        1.1970     2.6730     1.1940 H     1 <1>   0.0800 
 22 H        1.1360     3.3560    -0.3990 H     1 <1>   0.0800 
 23 H       -0.1470     0.4970     1.7110 H     1 <1>   0.0800 
 24 H       -1.6460     0.4810     0.7990 H     1 <1>   0.0800 
 25 H       -1.1660     1.9060     1.6710 H     1 <1>   0.0800 
 26 H        3.2280    -0.2870    -0.0550 H     1 <1>   0.0800 
 27 H        2.1570     0.1890     1.2280 H     1 <1>   0.0800 
 28 H        2.1010    -0.4610    -2.5220 H     1 <1>   0.0800 
 29 H        0.7840    -1.5980    -2.3290 H     1 <1>   0.0800 
 30 H        2.3210    -1.9160    -1.5770 H     1 <1>   0.0800 
 31 H        2.4980     1.7070    -1.2500 H     1 <1>   0.4500 
 32 H        3.7150     2.3770     1.3530 H     1 <1>   0.0800 
 33 H        2.9470     4.3990     0.2000 H     1 <1>   0.0800 
 34 H        3.6740     3.8540    -1.2920 H     1 <1>   0.0800 
 35 H        4.9250     1.5400    -1.2960 H     1 <1>   0.0800 
 36 H        4.9900     0.6340     0.1970 H     1 <1>   0.0800 
 37 H        5.0950     4.6210     1.2560 H     1 <1>   0.0800 
 38 H        5.0300     5.5320    -0.2210 H     1 <1>   0.0800 
 39 H        7.0740     1.7620    -0.2320 H     1 <1>   0.0800 
 40 H        6.3510     2.3070     1.2500 H     1 <1>   0.0800 
 41 H        6.2390     3.7520    -1.4000 H     1 <1>   0.0800 
 42 H        8.8600     5.1650     1.6730 H     1 <1>   0.0800 
 43 H        7.9880     3.6980     1.9840 H     1 <1>   0.0800 
 44 H        7.1560     5.2340     1.9870 H     1 <1>   0.0800 
 45 H        9.0120     2.8150    -0.1360 H     1 <1>   0.0800 
 46 H        9.7580     4.3270    -0.5190 H     1 <1>   0.0800 
 47 H        8.6850     3.5840    -1.6710 H     1 <1>   0.0800 
 48 H        6.9710     6.5810    -0.1280 H     1 <1>   0.0800 
 49 H        7.4340     5.8920    -1.6660 H     1 <1>   0.0800 
 50 H        8.6440     6.3820    -0.5140 H     1 <1>   0.0800 
@<TRIPOS>BOND
  1   1   2  1   
  2   1   3  1   
  3   2   4  1   
  4   2   5  1   
  5   2  19  1   
  6   3   6  1   
  7   3   7  1   
  8   3  20  1   
  9   4   8  1   
 10   4  21  1   
 11   4  22  1   
 12   5  23  1   
 13   5  24  1   
 14   5  25  1   
 15   6   8  1   
 16   6  26  1   
 17   6  27  1   
 18   7  28  1   
 19   7  29  1   
 20   7  30  1   
 21   8   9  1   
 22   8  31  1   
 23   9  10  1   
 24   9  11  1   
 25   9  32  1   
 26  10  12  1   
 27  10  33  1   
 28  10  34  1   
 29  11  13  1   
 30  11  35  1   
 31  11  36  1   
 32  12  14  1   
 33  12  37  1   
 34  12  38  1   
 35  13  14  1   
 36  13  39  1   
 37  13  40  1   
 38  14  15  1   
 39  14  41  1   
 40  15  16  1   
 41  15  17  1   
 42  15  18  1   
 43  16  42  1   
 44  16  43  1   
 45  16  44  1   
 46  17  45  1   
 47  17  46  1   
 48  17  47  1   
 49  18  48  1   
 50  18  49  1   
 51  18  50  1   
@<TRIPOS>SUBSTRUCTURE
  1 ****   9 GROUP 4 **** **** 0

# MOE 2024.06 (io_trps.svl 2023.06)
