@<TRIPOS>MOLECULE
NONAME
55 59 1 0 0 
SMALL
USER_CHARGES


@<TRIPOS>ATOM
  1 O       -1.6740    -2.2620    -2.5110 O.2   1 <1>  -0.5700 
  2 C       -1.3980    -2.5410    -1.3590 C.2   1 <1>   0.5440 
  3 N       -2.1450    -2.0160    -0.3510 N.am  1 <1>  -0.7300 
  4 C       -0.2850    -3.4180    -1.0440 C.ar  1 <1>   0.0860 
  5 C       -2.6540    -0.6020    -0.3120 C.3   1 <1>   0.1140 
  6 C        0.4170    -3.3120     0.1590 C.ar  1 <1>  -0.1500 
  7 C        0.1380    -4.4030    -1.9370 C.ar  1 <1>  -0.1500 
  8 C       -1.9700     0.1250     0.8700 C.2   1 <1>   0.9060 
  9 C       -4.2120    -0.5720    -0.2610 C.3   1 <1>   0.0000 
 10 C        1.4720    -4.1530     0.4550 C.ar  1 <1>  -0.1500 
 11 C        1.1950    -5.2430    -1.6420 C.ar  1 <1>  -0.1500 
 12 O       -1.8090     1.3520     0.8480 O.co2 1 <1>  -0.9000 
 13 O       -1.5350    -0.5740     1.8060 O.co2 1 <1>  -0.9000 
 14 C       -4.8030    -1.2990    -1.4970 C.3   1 <1>  -0.1600 
 15 C       -4.7310     0.8890    -0.2840 C.3   1 <1>  -0.1600 
 16 C       -4.7650    -1.2570     1.0140 C.3   1 <1>  -0.1600 
 17 C        1.8830    -5.1370    -0.4380 C.ar  1 <1>   0.0000 
 18 C       -6.3430    -1.2650    -1.4850 C.3   1 <1>  -0.0800 
 19 C       -6.2700     0.9380    -0.2670 C.3   1 <1>  -0.0800 
 20 C       -6.3060    -1.2200     1.0370 C.3   1 <1>  -0.0800 
 21 C        2.9900    -6.0130    -0.1270 C.ar  1 <1>   0.0000 
 22 C       -6.8160     0.2000    -1.5020 C.3   1 <1>  -0.1600 
 23 C       -6.8500    -1.9520    -0.2040 C.3   1 <1>  -0.1600 
 24 C       -6.7790     0.2450     1.0100 C.3   1 <1>  -0.1600 
 25 C        4.2430    -5.4980     0.1920 C.ar  1 <1>  -0.1500 
 26 C        2.8370    -7.3970    -0.1380 C.ar  1 <1>  -0.1500 
 27 C        5.3060    -6.3310     0.4900 C.ar  1 <1>  -0.1500 
 28 C        3.8960    -8.2370     0.1590 C.ar  1 <1>  -0.1500 
 29 C        5.1330    -7.7040     0.4730 C.ar  1 <1>  -0.1500 
 30 H       -1.8470    -2.2300     0.6120 H     1 <1>   0.3700 
 31 H       -2.3340    -0.0980    -1.2050 H     1 <1>   0.0800 
 32 H        0.1370    -2.5500     0.8710 H     1 <1>   0.1500 
 33 H       -0.3790    -4.4980    -2.8770 H     1 <1>   0.1500 
 34 H        1.9860    -4.0460     1.3940 H     1 <1>   0.1500 
 35 H        1.4980    -5.9890    -2.3550 H     1 <1>   0.1500 
 36 H       -4.4780    -2.3240    -1.5110 H     1 <1>   0.0800 
 37 H       -4.4340    -0.8380    -2.3970 H     1 <1>   0.0800 
 38 H       -4.3590     1.3910    -1.1600 H     1 <1>   0.0800 
 39 H       -4.3600     1.4250     0.5720 H     1 <1>   0.0800 
 40 H       -4.3820    -0.7610     1.8900 H     1 <1>   0.0800 
 41 H       -4.4330    -2.2790     1.0530 H     1 <1>   0.0800 
 42 H       -6.7210    -1.7800    -2.3510 H     1 <1>   0.0800 
 43 H       -6.5970     1.9630    -0.2800 H     1 <1>   0.0800 
 44 H       -6.6640    -1.7020     1.9310 H     1 <1>   0.0800 
 45 H       -7.8910     0.2370    -1.5040 H     1 <1>   0.0800 
 46 H       -6.4660     0.6830    -2.3970 H     1 <1>   0.0800 
 47 H       -6.5260    -2.9770    -0.1910 H     1 <1>   0.0800 
 48 H       -7.9260    -1.9460    -0.1880 H     1 <1>   0.0800 
 49 H       -6.4020     0.7620     1.8760 H     1 <1>   0.0800 
 50 H       -7.8530     0.2840     1.0450 H     1 <1>   0.0800 
 51 H        4.3830    -4.4310     0.2020 H     1 <1>   0.1500 
 52 H        1.8760    -7.8160    -0.3770 H     1 <1>   0.1500 
 53 H        6.2680    -5.9150     0.7330 H     1 <1>   0.1500 
 54 H        3.7580    -9.3040     0.1460 H     1 <1>   0.1500 
 55 H        5.9580    -8.3550     0.7040 H     1 <1>   0.1500 
@<TRIPOS>BOND
  1   1   2  2   
  2   2   3  am  
  3   2   4  1   
  4   3   5  1   
  5   3  30  1   
  6   4   6  ar  
  7   4   7  ar  
  8   5   8  1   
  9   5   9  1   
 10   5  31  1   
 11   6  10  ar  
 12   6  32  1   
 13   7  11  ar  
 14   7  33  1   
 15   8  12  ar  
 16   8  13  ar  
 17   9  14  1   
 18   9  15  1   
 19   9  16  1   
 20  10  17  ar  
 21  10  34  1   
 22  11  17  ar  
 23  11  35  1   
 24  14  18  1   
 25  14  36  1   
 26  14  37  1   
 27  15  19  1   
 28  15  38  1   
 29  15  39  1   
 30  16  20  1   
 31  16  40  1   
 32  16  41  1   
 33  17  21  1   
 34  18  22  1   
 35  18  23  1   
 36  18  42  1   
 37  19  22  1   
 38  19  24  1   
 39  19  43  1   
 40  20  23  1   
 41  20  24  1   
 42  20  44  1   
 43  21  25  ar  
 44  21  26  ar  
 45  22  45  1   
 46  22  46  1   
 47  23  47  1   
 48  23  48  1   
 49  24  49  1   
 50  24  50  1   
 51  25  27  ar  
 52  25  51  1   
 53  26  28  ar  
 54  26  52  1   
 55  27  29  ar  
 56  27  53  1   
 57  28  29  ar  
 58  28  54  1   
 59  29  55  1   
@<TRIPOS>SUBSTRUCTURE
  1 ****   3 GROUP 4 **** **** 0

# MOE 2024.06 (io_trps.svl 2023.06)
