@<TRIPOS>MOLECULE
NONAME
50 52 1 0 0 
SMALL
USER_CHARGES


@<TRIPOS>ATOM
  1 O       -0.0240    -0.5960    -1.6390 O.2   1 <1>  -0.5700 
  2 C        0.0330    -1.6530    -1.0610 C.2   1 <1>   0.4950 
  3 C        1.2310    -2.2010    -0.5160 C.2   1 <1>  -0.1240 
  4 C       -1.2510    -2.4540    -0.9510 C.3   1 <1>  -0.0990 
  5 C        1.2850    -3.4160     0.0870 C.2   1 <1>  -0.0380 
  6 C        2.4990    -1.3370    -0.6330 C.3   1 <1>   0.2570 
  7 C       -1.2270    -3.3960     0.2630 C.3   1 <1>   0.0640 
  8 N        2.4630    -3.9510     0.5470 N.pl3 1 <1>  -0.6000 
  9 C        0.0390    -4.2670     0.2790 C.3   1 <1>  -0.0220 
 10 C        3.7710    -2.0730    -0.1780 C.2   1 <1>  -0.1240 
 11 C        2.3180    -0.0500     0.1740 C.2   1 <1>   0.6590 
 12 C       -2.4890    -4.2520     0.3310 C.ar  1 <1>  -0.1440 
 13 C        3.6680    -3.3020     0.3870 C.2   1 <1>  -0.0500 
 14 C        5.0010    -1.3770    -0.3870 C.2   1 <1>   0.7060 
 15 O        2.1400    -0.0660     1.3680 O.2   1 <1>  -0.5700 
 16 O        2.3550     1.0870    -0.5140 O.3   1 <1>  -0.4300 
 17 C       -2.8100    -5.1450    -0.6830 C.ar  1 <1>  -0.1500 
 18 C       -3.3370    -4.1440     1.4230 C.ar  1 <1>  -0.1500 
 19 O        5.0830    -0.3220    -0.9850 O.2   1 <1>  -0.5700 
 20 O        6.1190    -1.9330     0.0900 O.3   1 <1>  -0.4300 
 21 C        2.1330     2.3490     0.0700 C.3   1 <1>   0.1200 
 22 C       -3.9570    -5.9150    -0.6060 C.ar  1 <1>  -0.1500 
 23 C       -4.4850    -4.9130     1.5020 C.ar  1 <1>  -0.1500 
 24 C        7.3740    -1.3100    -0.0670 C.3   1 <1>   0.1200 
 25 C        0.6280     2.6060     0.1150 C.3   1 <1>  -0.2400 
 26 C       -4.7960    -5.8000     0.4880 C.ar  1 <1>  -0.1500 
 27 C        8.4280    -2.1960     0.5900 C.3   1 <1>  -0.2400 
 28 H       -1.3750    -3.0120    -1.8600 H     1 <1>   0.0800 
 29 H       -2.0810    -1.7770    -0.8600 H     1 <1>   0.0800 
 30 H        2.6200    -1.0680    -1.6680 H     1 <1>   0.0800 
 31 H       -1.1890    -2.7730     1.1420 H     1 <1>   0.0800 
 32 H        2.4520    -4.8680     1.0130 H     1 <1>   0.4000 
 33 H        0.0870    -4.7790     1.2250 H     1 <1>   0.0800 
 34 H        0.0020    -5.0070    -0.5000 H     1 <1>   0.0800 
 35 H        4.5420    -3.8320     0.7350 H     1 <1>   0.1500 
 36 H       -2.1730    -5.2500    -1.5430 H     1 <1>   0.1500 
 37 H       -3.1140    -3.4590     2.2230 H     1 <1>   0.1500 
 38 H        2.6230     3.0820    -0.5460 H     1 <1>   0.0800 
 39 H        2.5690     2.3670     1.0550 H     1 <1>   0.0800 
 40 H       -4.1980    -6.6040    -1.3970 H     1 <1>   0.1500 
 41 H       -5.1360    -4.8220     2.3540 H     1 <1>   0.1500 
 42 H        7.3360    -0.3410     0.4020 H     1 <1>   0.0800 
 43 H        7.5690    -1.1940    -1.1210 H     1 <1>   0.0800 
 44 H        0.2130     2.5460    -0.8760 H     1 <1>   0.0800 
 45 H        0.4380     3.5870     0.5110 H     1 <1>   0.0800 
 46 H        0.1450     1.8830     0.7490 H     1 <1>   0.0800 
 47 H       -5.6880    -6.3980     0.5490 H     1 <1>   0.1500 
 48 H        8.2140    -2.3100     1.6380 H     1 <1>   0.0800 
 49 H        9.3970    -1.7440     0.4860 H     1 <1>   0.0800 
 50 H        8.4470    -3.1620     0.1180 H     1 <1>   0.0800 
@<TRIPOS>BOND
  1   1   2  2   
  2   2   3  1   
  3   2   4  1   
  4   3   5  2   
  5   3   6  1   
  6   4   7  1   
  7   4  28  1   
  8   4  29  1   
  9   5   8  1   
 10   5   9  1   
 11   6  10  1   
 12   6  11  1   
 13   6  30  1   
 14   7   9  1   
 15   7  12  1   
 16   7  31  1   
 17   8  13  1   
 18   8  32  1   
 19   9  33  1   
 20   9  34  1   
 21  10  13  2   
 22  10  14  1   
 23  11  15  2   
 24  11  16  1   
 25  12  17  ar  
 26  12  18  ar  
 27  13  35  1   
 28  14  19  2   
 29  14  20  1   
 30  16  21  1   
 31  17  22  ar  
 32  17  36  1   
 33  18  23  ar  
 34  18  37  1   
 35  20  24  1   
 36  21  25  1   
 37  21  38  1   
 38  21  39  1   
 39  22  26  ar  
 40  22  40  1   
 41  23  26  ar  
 42  23  41  1   
 43  24  27  1   
 44  24  42  1   
 45  24  43  1   
 46  25  44  1   
 47  25  45  1   
 48  25  46  1   
 49  26  47  1   
 50  27  48  1   
 51  27  49  1   
 52  27  50  1   
@<TRIPOS>SUBSTRUCTURE
  1 ****   3 GROUP 4 **** **** 0

# MOE 2024.06 (io_trps.svl 2023.06)
