@<TRIPOS>MOLECULE
NONAME
34 34 1 0 0 
SMALL
USER_CHARGES


@<TRIPOS>ATOM
  1 CL      -0.1140     0.0530     1.3820 Cl    1 <1>  -0.1770 
  2 C        0.7190     1.4400     0.7270 C.ar  1 <1>   0.1770 
  3 C        0.0950     2.6720     0.7430 C.ar  1 <1>  -0.1500 
  4 C        1.9850     1.2840     0.2040 C.ar  1 <1>  -0.1500 
  5 C        0.7380     3.7970     0.2330 C.ar  1 <1>  -0.0090 
  6 C        2.6350     2.3870    -0.3180 C.ar  1 <1>  -0.1500 
  7 S       -0.0490     5.4320     0.2300 S.o2  1 <1>   1.4470 
  8 C        2.0130     3.6370    -0.3080 C.ar  1 <1>   0.0830 
  9 O        0.7650     6.4060     0.9200 O.2   1 <1>  -0.6500 
 10 O       -0.5830     5.7080    -1.0840 O.2   1 <1>  -0.6500 
 11 N       -1.3440     5.2450     1.2890 N.am  1 <1>  -0.9140 
 12 O        2.6090     4.7410    -0.8230 O.3   1 <1>  -0.3620 
 13 C       -2.5310     6.0840     1.1180 C.3   1 <1>   0.2760 
 14 C        3.9010     4.7170    -1.3870 C.3   1 <1>   0.0400 
 15 C       -3.3660     5.7160    -0.1230 C.3   1 <1>   0.1200 
 16 C       -2.1710     7.5700     1.1770 C.3   1 <1>  -0.2400 
 17 O       -4.6520     6.2440     0.0160 O.3   1 <1>  -0.5600 
 18 C       -5.4720     6.0110    -1.0840 C.3   1 <1>   0.0400 
 19 H       -0.8960     2.7400     1.1550 H     1 <1>   0.1500 
 20 H        2.4490     0.3140     0.2040 H     1 <1>   0.1500 
 21 H        3.6190     2.2540    -0.7280 H     1 <1>   0.1500 
 22 H       -0.9310     5.5400     2.1720 H     1 <1>   0.4200 
 23 H       -3.1640     5.8760     1.9650 H     1 <1>   0.0800 
 24 H        4.1400     5.7140    -1.7120 H     1 <1>   0.0800 
 25 H        3.9040     4.0490    -2.2300 H     1 <1>   0.0800 
 26 H        4.6050     4.4000    -0.6380 H     1 <1>   0.0800 
 27 H       -3.4480     4.6470    -0.2080 H     1 <1>   0.0800 
 28 H       -2.9310     6.1280    -1.0160 H     1 <1>   0.0800 
 29 H       -1.6220     7.8720     0.3030 H     1 <1>   0.0800 
 30 H       -1.5960     7.7910     2.0570 H     1 <1>   0.0800 
 31 H       -3.0750     8.1520     1.2100 H     1 <1>   0.0800 
 32 H       -6.4340     6.4470    -0.8830 H     1 <1>   0.0800 
 33 H       -5.5760     4.9500    -1.2310 H     1 <1>   0.0800 
 34 H       -5.0380     6.4740    -1.9540 H     1 <1>   0.0800 
@<TRIPOS>BOND
  1   1   2  1   
  2   2   3  ar  
  3   2   4  ar  
  4   3   5  ar  
  5   3  19  1   
  6   4   6  ar  
  7   4  20  1   
  8   5   7  1   
  9   5   8  ar  
 10   6   8  ar  
 11   6  21  1   
 12   7   9  2   
 13   7  10  2   
 14   7  11  am  
 15   8  12  1   
 16  11  13  1   
 17  11  22  1   
 18  12  14  1   
 19  13  15  1   
 20  13  16  1   
 21  13  23  1   
 22  14  24  1   
 23  14  25  1   
 24  14  26  1   
 25  15  17  1   
 26  15  27  1   
 27  15  28  1   
 28  16  29  1   
 29  16  30  1   
 30  16  31  1   
 31  17  18  1   
 32  18  32  1   
 33  18  33  1   
 34  18  34  1   
@<TRIPOS>SUBSTRUCTURE
  1 ****   7 GROUP 4 **** **** 0

# MOE 2024.06 (io_trps.svl 2023.06)
