@<TRIPOS>MOLECULE
NONAME
49 51 1 0 0 
SMALL
USER_CHARGES


@<TRIPOS>ATOM
  1 S       -0.6990     0.1060     2.5690 S.3   1 <1>  -0.4600 
  2 C       -0.9530    -1.6650     2.2480 C.3   1 <1>   0.5940 
  3 C        1.0340     0.1960     2.0650 C.3   1 <1>   0.0700 
  4 N        0.4400    -2.1420     2.1230 N.am  1 <1>  -0.6600 
  5 C       -1.7270    -1.9260     0.9480 C.ar  1 <1>  -0.1440 
  6 C        1.2490    -1.1350     1.3510 C.3   1 <1>   0.2810 
  7 C        0.8370    -3.1590     2.9410 C.2   1 <1>   0.5690 
  8 C       -1.8310    -3.2410     0.5100 C.ar  1 <1>  -0.1500 
  9 C       -2.3300    -0.9280     0.1850 C.ar  1 <1>  -0.1500 
 10 C        2.7110    -1.4750     1.0420 C.2   1 <1>   0.5690 
 11 O        0.0300    -3.9370     3.3860 O.2   1 <1>  -0.5700 
 12 C        2.2750    -3.3610     3.3620 C.3   1 <1>  -0.1790 
 13 C       -2.4990    -3.5520    -0.6600 C.ar  1 <1>  -0.1500 
 14 C       -3.0000    -1.2360    -0.9870 C.ar  1 <1>  -0.1500 
 15 O        3.5890    -0.8050     1.5310 O.2   1 <1>  -0.5700 
 16 N        2.9400    -2.5360     0.2020 N.am  1 <1>  -0.5470 
 17 C       -3.0860    -2.5560    -1.4190 C.ar  1 <1>   0.0830 
 18 C        4.1300    -3.1210    -0.2640 C.ar  1 <1>   0.1170 
 19 O       -3.7190    -2.9420    -2.5540 O.3   1 <1>  -0.3630 
 20 C        4.0580    -3.9800    -1.3550 C.ar  1 <1>  -0.1500 
 21 C        5.3750    -2.9000     0.3190 C.ar  1 <1>  -0.1500 
 22 C       -4.4200    -2.0160    -3.3540 C.3   1 <1>   0.0400 
 23 C        5.1900    -4.6000    -1.8560 C.ar  1 <1>  -0.1500 
 24 C        6.5090    -3.5160    -0.1780 C.ar  1 <1>  -0.1500 
 25 C        6.4280    -4.3690    -1.2660 C.ar  1 <1>   0.0830 
 26 O        7.5900    -4.9330    -1.6900 O.3   1 <1>  -0.3620 
 27 C        7.6170    -5.7880    -2.8110 C.3   1 <1>   0.0400 
 28 H       -1.4590    -2.0830     3.1030 H     1 <1>   0.0800 
 29 H        1.6360     0.2790     2.9540 H     1 <1>   0.0800 
 30 H        1.1760     1.0460     1.4230 H     1 <1>   0.0800 
 31 H        0.7800    -1.0350     0.3880 H     1 <1>   0.0800 
 32 H       -1.3880    -4.0370     1.0870 H     1 <1>   0.1500 
 33 H       -2.2950     0.1040     0.4850 H     1 <1>   0.1500 
 34 H        2.8250    -3.8570     2.5860 H     1 <1>   0.0800 
 35 H        2.3050    -3.9790     4.2410 H     1 <1>   0.0800 
 36 H        2.7360    -2.4210     3.6020 H     1 <1>   0.0800 
 37 H       -2.5730    -4.5730    -0.9900 H     1 <1>   0.1500 
 38 H       -3.4490    -0.4390    -1.5470 H     1 <1>   0.1500 
 39 H        2.0950    -2.9990    -0.1350 H     1 <1>   0.3700 
 40 H        3.1100    -4.1680    -1.8240 H     1 <1>   0.1500 
 41 H        5.4730    -2.2480     1.1670 H     1 <1>   0.1500 
 42 H       -4.8620    -2.5510    -4.1750 H     1 <1>   0.0800 
 43 H       -3.7290    -1.2810    -3.7260 H     1 <1>   0.0800 
 44 H       -5.1910    -1.5560    -2.7610 H     1 <1>   0.0800 
 45 H        5.0900    -5.2560    -2.7010 H     1 <1>   0.1500 
 46 H        7.4670    -3.3390     0.2770 H     1 <1>   0.1500 
 47 H        8.6340    -6.1000    -2.9670 H     1 <1>   0.0800 
 48 H        7.2640    -5.2480    -3.6710 H     1 <1>   0.0800 
 49 H        6.9990    -6.6460    -2.6110 H     1 <1>   0.0800 
@<TRIPOS>BOND
  1   1   2  1   
  2   1   3  1   
  3   2   4  1   
  4   2   5  1   
  5   2  28  1   
  6   3   6  1   
  7   3  29  1   
  8   3  30  1   
  9   4   6  1   
 10   4   7  am  
 11   5   8  ar  
 12   5   9  ar  
 13   6  10  1   
 14   6  31  1   
 15   7  11  2   
 16   7  12  1   
 17   8  13  ar  
 18   8  32  1   
 19   9  14  ar  
 20   9  33  1   
 21  10  15  2   
 22  10  16  am  
 23  12  34  1   
 24  12  35  1   
 25  12  36  1   
 26  13  17  ar  
 27  13  37  1   
 28  14  17  ar  
 29  14  38  1   
 30  16  18  1   
 31  16  39  1   
 32  17  19  1   
 33  18  20  ar  
 34  18  21  ar  
 35  19  22  1   
 36  20  23  ar  
 37  20  40  1   
 38  21  24  ar  
 39  21  41  1   
 40  22  42  1   
 41  22  43  1   
 42  22  44  1   
 43  23  25  ar  
 44  23  45  1   
 45  24  25  ar  
 46  24  46  1   
 47  25  26  1   
 48  26  27  1   
 49  27  47  1   
 50  27  48  1   
 51  27  49  1   
@<TRIPOS>SUBSTRUCTURE
  1 ****  16 GROUP 4 **** **** 0

# MOE 2024.06 (io_trps.svl 2023.06)
