@<TRIPOS>MOLECULE
ka-06863
38 38 1 0 0 
SMALL
USER_CHARGES


@<TRIPOS>ATOM
  1 O       -0.4310    -0.8430     0.0870 O.3   1 <1>  -0.5600 
  2 C       -1.5950    -1.2490    -0.5670 C.3   1 <1>   0.2640 
  3 C        0.6350    -1.7360     0.0030 C.3   1 <1>   0.1200 
  4 C       -2.6210    -0.1350    -0.4470 C.ar  1 <1>  -0.1440 
  5 C        1.8220    -1.1240     0.7610 C.3   1 <1>   0.2000 
  6 C       -3.0010     0.5990    -1.5610 C.ar  1 <1>  -0.1500 
  7 C       -3.1920     0.1550     0.7830 C.ar  1 <1>  -0.1500 
  8 O        1.9400     0.2150     0.3870 O.3   1 <1>  -0.6800 
  9 C        3.1620    -1.8330     0.4830 C.3   1 <1>   0.3430 
 10 C       -3.9420     1.6070    -1.4470 C.ar  1 <1>  -0.1500 
 11 C       -4.1330     1.1640     0.8990 C.ar  1 <1>  -0.1500 
 12 N        4.2880    -0.8900     0.7540 N.4   1 <1>  -0.9060 
 13 C       -4.5090     1.8900    -0.2170 C.ar  1 <1>  -0.1500 
 14 C        5.5540    -1.1710     0.0710 C.3   1 <1>   0.4230 
 15 C        6.6150    -0.2790     0.7000 C.3   1 <1>  -0.2400 
 16 C        5.4030    -0.8640    -1.4160 C.3   1 <1>  -0.2400 
 17 H       -1.9640    -2.1460    -0.1000 H     1 <1>   0.0800 
 18 H       -1.3670    -1.4430    -1.6010 H     1 <1>   0.0800 
 19 H        0.8800    -1.8810    -1.0360 H     1 <1>   0.0800 
 20 H        0.3420    -2.6750     0.4420 H     1 <1>   0.0800 
 21 H        1.6100    -1.1470     1.8170 H     1 <1>   0.0800 
 22 H       -2.5680     0.3920    -2.5240 H     1 <1>   0.1500 
 23 H       -2.9010    -0.4020     1.6570 H     1 <1>   0.1500 
 24 H        1.0170     0.5660     0.2970 H     1 <1>   0.4000 
 25 H        3.1770    -2.1240    -0.5540 H     1 <1>   0.0800 
 26 H        3.2510    -2.7240     1.0830 H     1 <1>   0.0800 
 27 H       -4.2330     2.1730    -2.3150 H     1 <1>   0.1500 
 28 H       -4.5720     1.3840     1.8560 H     1 <1>   0.1500 
 29 H        4.4400    -0.7900     1.7620 H     1 <1>   0.4500 
 30 H        3.9210     0.0300     0.4460 H     1 <1>   0.4500 
 31 H       -5.2400     2.6740    -0.1280 H     1 <1>   0.1500 
 32 H        5.8300    -2.2050     0.2090 H     1 <1>   0.0800 
 33 H        6.3690     0.7630     0.5830 H     1 <1>   0.0800 
 34 H        7.5620    -0.4520     0.2200 H     1 <1>   0.0800 
 35 H        6.7330    -0.5050     1.7450 H     1 <1>   0.0800 
 36 H        5.0920     0.1540    -1.5730 H     1 <1>   0.0800 
 37 H        4.7000    -1.5280    -1.8840 H     1 <1>   0.0800 
 38 H        6.3500    -1.0020    -1.9090 H     1 <1>   0.0800 
@<TRIPOS>BOND
  1   1   2  1   
  2   1   3  1   
  3   2   4  1   
  4   2  17  1   
  5   2  18  1   
  6   3   5  1   
  7   3  19  1   
  8   3  20  1   
  9   4   6  ar  
 10   4   7  ar  
 11   5   8  1   
 12   5   9  1   
 13   5  21  1   
 14   6  10  ar  
 15   6  22  1   
 16   7  11  ar  
 17   7  23  1   
 18   8  24  1   
 19   9  12  1   
 20   9  25  1   
 21   9  26  1   
 22  10  13  ar  
 23  10  27  1   
 24  11  13  ar  
 25  11  28  1   
 26  12  14  1   
 27  12  29  1   
 28  12  30  1   
 29  13  31  1   
 30  14  15  1   
 31  14  16  1   
 32  14  32  1   
 33  15  33  1   
 34  15  34  1   
 35  15  35  1   
 36  16  36  1   
 37  16  37  1   
 38  16  38  1   
@<TRIPOS>SUBSTRUCTURE
  1 ****   1 GROUP 4 **** **** 0

# MOE 2024.06 (io_trps.svl 2023.06)
