@<TRIPOS>MOLECULE
NONAME
47 50 1 0 0 
SMALL
USER_CHARGES


@<TRIPOS>ATOM
  1 F        0.1780    -1.5410    -2.2130 F     1 <1>  -0.1900 
  2 C        1.2210    -1.2730    -1.4760 C.ar  1 <1>   0.1900 
  3 C        1.3010    -1.7440    -0.1700 C.ar  1 <1>  -0.1440 
  4 C        2.2120    -0.5010    -2.0530 C.ar  1 <1>  -0.1500 
  5 C        2.4320    -1.4020     0.5620 C.ar  1 <1>  -0.1500 
  6 C        0.2290    -2.6140     0.4990 C.3   1 <1>   0.3640 
  7 C        3.3300    -0.1770    -1.3060 C.ar  1 <1>  -0.1500 
  8 C        3.4360    -0.6270     0.0000 C.ar  1 <1>  -0.1500 
  9 N       -0.2740    -3.7280    -0.3460 N.am  1 <1>  -0.2980 
 10 C       -1.0550    -1.8760     0.9020 C.3   1 <1>  -0.0190 
 11 N       -1.6310    -3.5970    -0.5540 N.2   1 <1>  -0.5120 
 12 C        0.5130    -4.7670    -0.8340 C.2   1 <1>   0.5690 
 13 C       -2.0870    -2.5800     0.0590 C.2   1 <1>   0.3030 
 14 C       -1.1630    -0.3550     0.6980 C.3   1 <1>  -0.1600 
 15 O        0.0550    -5.6780    -1.4850 O.2   1 <1>  -0.5700 
 16 C        2.0190    -4.7900    -0.5480 C.3   1 <1>  -0.0990 
 17 C       -3.4190    -2.0340     0.0300 C.ar  1 <1>   0.0860 
 18 C       -2.5640     0.1150     1.1200 C.3   1 <1>  -0.0170 
 19 C        2.7030    -6.1470    -0.7920 C.3   1 <1>  -0.2400 
 20 C       -3.6800    -0.7480     0.5270 C.ar  1 <1>  -0.1430 
 21 C       -4.4840    -2.7580    -0.5070 C.ar  1 <1>  -0.1500 
 22 C       -4.9650    -0.2370     0.4900 C.ar  1 <1>  -0.1500 
 23 C       -5.7650    -2.2430    -0.5430 C.ar  1 <1>  -0.1500 
 24 C       -6.0140    -0.9710    -0.0390 C.ar  1 <1>   0.0830 
 25 O       -7.2360    -0.3870    -0.0310 O.3   1 <1>  -0.3630 
 26 C       -8.3660    -1.0410    -0.5640 C.3   1 <1>   0.0400 
 27 H        2.1050    -0.1630    -3.0680 H     1 <1>   0.1500 
 28 H        2.5480    -1.7350     1.5800 H     1 <1>   0.1500 
 29 H        0.6450    -3.0520     1.3890 H     1 <1>   0.0800 
 30 H        4.1130     0.4230    -1.7370 H     1 <1>   0.1500 
 31 H        4.3060    -0.3720     0.5810 H     1 <1>   0.1500 
 32 H       -1.2580    -2.1020     1.9330 H     1 <1>   0.0800 
 33 H       -1.0220    -0.1120    -0.3400 H     1 <1>   0.0800 
 34 H       -0.4130     0.1600     1.2730 H     1 <1>   0.0800 
 35 H        2.1890    -4.5170     0.4750 H     1 <1>   0.0800 
 36 H        2.4870    -4.0560    -1.1770 H     1 <1>   0.0800 
 37 H       -2.6980     1.1390     0.8140 H     1 <1>   0.0800 
 38 H       -2.6440     0.0820     2.1920 H     1 <1>   0.0800 
 39 H        2.2480    -6.9070    -0.1810 H     1 <1>   0.0800 
 40 H        3.7500    -6.0880    -0.5540 H     1 <1>   0.0800 
 41 H        2.5990    -6.4340    -1.8240 H     1 <1>   0.0800 
 42 H       -4.2910    -3.7420    -0.9030 H     1 <1>   0.1500 
 43 H       -5.1760     0.7460     0.8720 H     1 <1>   0.1500 
 44 H       -6.5500    -2.8410    -0.9660 H     1 <1>   0.1500 
 45 H       -9.2130    -0.3880    -0.4540 H     1 <1>   0.0800 
 46 H       -8.5330    -1.9520    -0.0170 H     1 <1>   0.0800 
 47 H       -8.1930    -1.2430    -1.6060 H     1 <1>   0.0800 
@<TRIPOS>BOND
  1   1   2  1   
  2   2   3  ar  
  3   2   4  ar  
  4   3   5  ar  
  5   3   6  1   
  6   4   7  ar  
  7   4  27  1   
  8   5   8  ar  
  9   5  28  1   
 10   6   9  1   
 11   6  10  1   
 12   6  29  1   
 13   7   8  ar  
 14   7  30  1   
 15   8  31  1   
 16   9  11  1   
 17   9  12  am  
 18  10  13  1   
 19  10  14  1   
 20  10  32  1   
 21  11  13  2   
 22  12  15  2   
 23  12  16  1   
 24  13  17  1   
 25  14  18  1   
 26  14  33  1   
 27  14  34  1   
 28  16  19  1   
 29  16  35  1   
 30  16  36  1   
 31  17  20  ar  
 32  17  21  ar  
 33  18  20  1   
 34  18  37  1   
 35  18  38  1   
 36  19  39  1   
 37  19  40  1   
 38  19  41  1   
 39  20  22  ar  
 40  21  23  ar  
 41  21  42  1   
 42  22  24  ar  
 43  22  43  1   
 44  23  24  ar  
 45  23  44  1   
 46  24  25  1   
 47  25  26  1   
 48  26  45  1   
 49  26  46  1   
 50  26  47  1   
@<TRIPOS>SUBSTRUCTURE
  1 ****  13 GROUP 4 **** **** 0

# MOE 2024.06 (io_trps.svl 2023.06)
