@<TRIPOS>MOLECULE
NONAME
41 42 1 0 0 
SMALL
USER_CHARGES


@<TRIPOS>ATOM
  1 O       -1.4360     2.0520    -1.0240 O.2   1 <1>  -0.5700 
  2 C       -2.3940     1.5900    -1.5890 C.2   1 <1>   0.5690 
  3 N       -2.7240     2.0220    -2.8230 N.am  1 <1>  -0.8000 
  4 C       -3.2470     0.5290    -0.8810 C.3   1 <1>   0.1710 
  5 N       -4.4440     1.0710    -0.1690 N.3   1 <1>  -0.8100 
  6 C       -5.2520    -0.0180     0.4310 C.3   1 <1>   0.1100 
  7 C       -4.0420     2.0540     0.8740 C.3   1 <1>   0.1100 
  8 C       -6.4960     0.5150     1.1850 C.3   1 <1>   0.3430 
  9 C       -5.2440     2.5890     1.6900 C.3   1 <1>   0.3430 
 10 N       -6.5300     2.0160     1.1810 N.4   1 <1>  -0.9590 
 11 C       -7.7520     2.5980     1.7920 C.3   1 <1>   0.4860 
 12 C       -8.9600     2.0570     1.0540 C.ar  1 <1>  -0.1440 
 13 C       -9.1670     2.3880    -0.2770 C.ar  1 <1>  -0.1500 
 14 C       -9.8600     1.2150     1.6930 C.ar  1 <1>  -0.1500 
 15 C      -10.2470     1.8760    -0.9750 C.ar  1 <1>   0.0820 
 16 C      -10.9460     0.7050     1.0020 C.ar  1 <1>  -0.1500 
 17 O      -10.3540     2.2460    -2.2740 O.3   1 <1>  -0.3620 
 18 C      -11.1420     1.0300    -0.3290 C.ar  1 <1>  -0.1500 
 19 C      -11.4460     1.8320    -3.0660 C.3   1 <1>   0.0400 
 20 H       -2.1450     2.7300    -3.2770 H     1 <1>   0.3700 
 21 H       -3.5550     1.7190    -3.3290 H     1 <1>   0.3700 
 22 H       -2.6150     0.0100    -0.1820 H     1 <1>   0.0800 
 23 H       -3.5680    -0.1820    -1.6210 H     1 <1>   0.0800 
 24 H       -4.6460    -0.5890     1.1140 H     1 <1>   0.0800 
 25 H       -5.5820    -0.6890    -0.3450 H     1 <1>   0.0800 
 26 H       -3.5520     2.8930     0.4090 H     1 <1>   0.0800 
 27 H       -3.3300     1.6060     1.5480 H     1 <1>   0.0800 
 28 H       -6.4840     0.1460     2.1970 H     1 <1>   0.0800 
 29 H       -7.3810     0.1290     0.7060 H     1 <1>   0.0800 
 30 H       -5.2620     3.6640     1.6160 H     1 <1>   0.0800 
 31 H       -5.1090     2.3320     2.7280 H     1 <1>   0.0800 
 32 H       -6.5310     2.2430     0.1750 H     1 <1>   0.4500 
 33 H       -7.7340     3.6720     1.7060 H     1 <1>   0.0800 
 34 H       -7.8090     2.3360     2.8350 H     1 <1>   0.0800 
 35 H       -8.5000     3.0480    -0.8030 H     1 <1>   0.1500 
 36 H       -9.7320     0.9480     2.7280 H     1 <1>   0.1500 
 37 H      -11.6450     0.0540     1.5000 H     1 <1>   0.1500 
 38 H      -11.9920     0.6190    -0.8420 H     1 <1>   0.1500 
 39 H      -11.3310     2.2630    -4.0450 H     1 <1>   0.0800 
 40 H      -12.3580     2.1860    -2.6170 H     1 <1>   0.0800 
 41 H      -11.4410     0.7590    -3.1370 H     1 <1>   0.0800 
@<TRIPOS>BOND
  1   1   2  2   
  2   2   3  am  
  3   2   4  1   
  4   3  20  1   
  5   3  21  1   
  6   4   5  1   
  7   4  22  1   
  8   4  23  1   
  9   5   6  1   
 10   5   7  1   
 11   6   8  1   
 12   6  24  1   
 13   6  25  1   
 14   7   9  1   
 15   7  26  1   
 16   7  27  1   
 17   8  10  1   
 18   8  28  1   
 19   8  29  1   
 20   9  10  1   
 21   9  30  1   
 22   9  31  1   
 23  10  11  1   
 24  10  32  1   
 25  11  12  1   
 26  11  33  1   
 27  11  34  1   
 28  12  13  ar  
 29  12  14  ar  
 30  13  15  ar  
 31  13  35  1   
 32  14  16  ar  
 33  14  36  1   
 34  15  17  1   
 35  15  18  ar  
 36  16  18  ar  
 37  16  37  1   
 38  17  19  1   
 39  18  38  1   
 40  19  39  1   
 41  19  40  1   
 42  19  41  1   
@<TRIPOS>SUBSTRUCTURE
  1 ****  10 GROUP 4 **** **** 0

# MOE 2024.06 (io_trps.svl 2023.06)
