@<TRIPOS>MOLECULE
NONAME
45 47 1 0 0 
SMALL
USER_CHARGES


@<TRIPOS>ATOM
  1 CL      -5.2430     4.0430    -2.3360 Cl    1 <1>  -0.1770 
  2 C       -3.5340     3.8720    -2.0150 C.ar  1 <1>   0.1770 
  3 C       -3.0700     2.8240    -1.2230 C.ar  1 <1>  -0.1440 
  4 C       -2.6750     4.8100    -2.5560 C.ar  1 <1>  -0.1500 
  5 C       -1.7050     2.7240    -0.9710 C.ar  1 <1>  -0.1500 
  6 C       -4.0230     1.7920    -0.6410 C.3   1 <1>   0.4870 
  7 C       -1.3290     4.6800    -2.2830 C.ar  1 <1>   0.1900 
  8 C       -0.8270     3.6560    -1.5010 C.ar  1 <1>  -0.1500 
  9 N       -4.9760     2.4370     0.2990 N.4   1 <1>  -0.9590 
 10 F       -0.5000     5.5570    -2.7790 F     1 <1>  -0.1900 
 11 C       -4.3900     3.3660     1.3250 C.3   1 <1>   0.3430 
 12 C       -5.9420     1.4810     0.9260 C.3   1 <1>   0.3430 
 13 C       -5.5110     4.1150     2.0970 C.3   1 <1>   0.1100 
 14 C       -7.0270     2.2460     1.7270 C.3   1 <1>   0.1100 
 15 N       -6.8650     3.7250     1.6300 N.3   1 <1>  -0.8100 
 16 C       -7.9710     4.4590     2.3350 C.3   1 <1>   0.1710 
 17 C       -9.2930     4.3690     1.5670 C.2   1 <1>   0.5690 
 18 O      -10.3430     4.3460     2.1570 O.2   1 <1>  -0.5700 
 19 N       -9.1570     4.2320     0.2170 N.am  1 <1>  -0.4940 
 20 C      -10.0390     3.7530    -0.7460 C.2   1 <1>   0.1040 
 21 S      -11.6930     4.3430    -0.8040 S.3   1 <1>  -0.0800 
 22 C       -9.8210     2.8430    -1.7300 C.2   1 <1>   0.0190 
 23 C      -12.0510     3.3390    -2.2030 C.2   1 <1>  -0.1100 
 24 C       -8.5770     2.1540    -1.8820 C.1   1 <1>   0.5380 
 25 C      -10.9700     2.6210    -2.5590 C.2   1 <1>  -0.1500 
 26 N       -7.5520     1.6480    -1.8660 N.1   1 <1>  -0.5570 
 27 H       -3.0370     5.6150    -3.1680 H     1 <1>   0.1500 
 28 H       -1.3080     1.9230    -0.3680 H     1 <1>   0.1500 
 29 H       -3.4580     1.0330    -0.1250 H     1 <1>   0.0800 
 30 H       -4.5700     1.3200    -1.4430 H     1 <1>   0.0800 
 31 H        0.2320     3.5940    -1.3190 H     1 <1>   0.1500 
 32 H       -5.5770     3.0460    -0.2790 H     1 <1>   0.4500 
 33 H       -3.7560     4.0940     0.8460 H     1 <1>   0.0800 
 34 H       -3.7840     2.8130     2.0230 H     1 <1>   0.0800 
 35 H       -5.4230     0.8060     1.5860 H     1 <1>   0.0800 
 36 H       -6.4230     0.8880     0.1640 H     1 <1>   0.0800 
 37 H       -5.3760     5.1750     1.9590 H     1 <1>   0.0800 
 38 H       -5.4130     3.9120     3.1510 H     1 <1>   0.0800 
 39 H       -6.9820     1.9410     2.7600 H     1 <1>   0.0800 
 40 H       -7.9940     1.9540     1.3530 H     1 <1>   0.0800 
 41 H       -7.7190     5.5010     2.4220 H     1 <1>   0.0800 
 42 H       -8.1110     4.0650     3.3270 H     1 <1>   0.0800 
 43 H       -8.1650     4.2140    -0.0310 H     1 <1>   0.3700 
 44 H      -13.0460     3.3990    -2.6090 H     1 <1>   0.1500 
 45 H      -10.9340     1.9300    -3.3850 H     1 <1>   0.1500 
@<TRIPOS>BOND
  1   1   2  1   
  2   2   3  ar  
  3   2   4  ar  
  4   3   5  ar  
  5   3   6  1   
  6   4   7  ar  
  7   4  27  1   
  8   5   8  ar  
  9   5  28  1   
 10   6   9  1   
 11   6  29  1   
 12   6  30  1   
 13   7   8  ar  
 14   7  10  1   
 15   8  31  1   
 16   9  11  1   
 17   9  12  1   
 18   9  32  1   
 19  11  13  1   
 20  11  33  1   
 21  11  34  1   
 22  12  14  1   
 23  12  35  1   
 24  12  36  1   
 25  13  15  1   
 26  13  37  1   
 27  13  38  1   
 28  14  15  1   
 29  14  39  1   
 30  14  40  1   
 31  15  16  1   
 32  16  17  1   
 33  16  41  1   
 34  16  42  1   
 35  17  18  2   
 36  17  19  am  
 37  19  20  1   
 38  19  43  1   
 39  20  21  1   
 40  20  22  2   
 41  21  23  1   
 42  22  24  1   
 43  22  25  1   
 44  23  25  2   
 45  23  44  1   
 46  24  26  3   
 47  25  45  1   
@<TRIPOS>SUBSTRUCTURE
  1 ****   9 GROUP 4 **** **** 0

# MOE 2024.06 (io_trps.svl 2023.06)
