@<TRIPOS>MOLECULE
NONAME
41 42 1 0 0 
SMALL
USER_CHARGES


@<TRIPOS>ATOM
  1 O        3.8530    -6.4360    -0.0320 O.3   1 <1>  -0.3630 
  2 C        5.0610    -7.0510    -0.1210 C.ar  1 <1>   0.0830 
  3 C        2.6430    -7.1540    -0.0160 C.3   1 <1>   0.1200 
  4 C        6.2080    -6.2140    -0.1280 C.ar  1 <1>   0.0000 
  5 C        5.1950    -8.4190    -0.2020 C.ar  1 <1>  -0.1500 
  6 C        1.5050    -6.1370     0.0920 C.3   1 <1>  -0.1600 
  7 C        7.4850    -6.8130    -0.2200 C.ar  1 <1>   0.0000 
  8 C        6.1440    -4.8050    -0.0490 C.ar  1 <1>  -0.1500 
  9 C        6.4610    -9.0030    -0.2920 C.ar  1 <1>  -0.1500 
 10 C        0.1280    -6.8190     0.1200 C.3   1 <1>  -0.1600 
 11 C        7.5780    -8.2160    -0.3000 C.ar  1 <1>  -0.1500 
 12 C        8.6300    -5.9900    -0.2270 C.ar  1 <1>  -0.1500 
 13 C        7.2710    -4.0300    -0.0580 C.ar  1 <1>  -0.1500 
 14 C       -0.9860    -5.7780     0.2270 C.3   1 <1>   0.3430 
 15 C        8.5300    -4.6300    -0.1490 C.ar  1 <1>  -0.1500 
 16 N       -2.2950    -6.4700     0.2520 N.4   1 <1>  -0.9060 
 17 C       -3.4390    -5.5500     0.3380 C.3   1 <1>   0.4810 
 18 C       -4.6660    -6.4190     0.2360 C.2   1 <1>  -0.2880 
 19 C       -5.4820    -6.4800    -0.8220 C.2   1 <1>  -0.3000 
 20 H        2.6550    -7.8140     0.8340 H     1 <1>   0.0800 
 21 H        2.5740    -7.7180    -0.9300 H     1 <1>   0.0800 
 22 H        4.3500    -9.0800    -0.1990 H     1 <1>   0.1500 
 23 H        1.5650    -5.4700    -0.7520 H     1 <1>   0.0800 
 24 H        1.6460    -5.5630     0.9920 H     1 <1>   0.0800 
 25 H        5.1780    -4.3390     0.0210 H     1 <1>   0.1500 
 26 H        6.5430   -10.0740    -0.3540 H     1 <1>   0.1500 
 27 H        0.0880    -7.4850     0.9650 H     1 <1>   0.0800 
 28 H        0.0060    -7.3920    -0.7840 H     1 <1>   0.0800 
 29 H        8.5540    -8.6610    -0.3690 H     1 <1>   0.1500 
 30 H        9.5950    -6.4580    -0.2970 H     1 <1>   0.1500 
 31 H        7.2040    -2.9570     0.0030 H     1 <1>   0.1500 
 32 H       -0.9360    -5.1090    -0.6180 H     1 <1>   0.0800 
 33 H       -0.8540    -5.2000     1.1290 H     1 <1>   0.0800 
 34 H        9.4080    -4.0070    -0.1550 H     1 <1>   0.1500 
 35 H       -2.3420    -7.1250     1.0390 H     1 <1>   0.4500 
 36 H       -2.4230    -7.0300    -0.5990 H     1 <1>   0.4500 
 37 H       -3.4180    -4.8500    -0.4830 H     1 <1>   0.0800 
 38 H       -3.4350    -5.0040     1.2690 H     1 <1>   0.0800 
 39 H       -4.8420    -7.0060     1.1240 H     1 <1>   0.1500 
 40 H       -6.3580    -7.1090    -0.8650 H     1 <1>   0.1500 
 41 H       -5.3660    -5.9160    -1.7330 H     1 <1>   0.1500 
@<TRIPOS>BOND
  1   1   2  1   
  2   1   3  1   
  3   2   4  ar  
  4   2   5  ar  
  5   3   6  1   
  6   3  20  1   
  7   3  21  1   
  8   4   7  ar  
  9   4   8  ar  
 10   5   9  ar  
 11   5  22  1   
 12   6  10  1   
 13   6  23  1   
 14   6  24  1   
 15   7  11  ar  
 16   7  12  ar  
 17   8  13  ar  
 18   8  25  1   
 19   9  11  ar  
 20   9  26  1   
 21  10  14  1   
 22  10  27  1   
 23  10  28  1   
 24  11  29  1   
 25  12  15  ar  
 26  12  30  1   
 27  13  15  ar  
 28  13  31  1   
 29  14  16  1   
 30  14  32  1   
 31  14  33  1   
 32  15  34  1   
 33  16  17  1   
 34  16  35  1   
 35  16  36  1   
 36  17  18  1   
 37  17  37  1   
 38  17  38  1   
 39  18  19  2   
 40  18  39  1   
 41  19  40  1   
 42  19  41  1   
@<TRIPOS>SUBSTRUCTURE
  1 ****   1 GROUP 4 **** **** 0

# MOE 2024.06 (io_trps.svl 2023.06)
