@<TRIPOS>MOLECULE
NONAME
36 37 1 0 0 
SMALL
USER_CHARGES


@<TRIPOS>ATOM
  1 O       -1.2150     0.7560     0.4700 O.2   1 <1>  -0.5700 
  2 C       -1.2620     1.6730    -0.3320 C.2   1 <1>   0.7150 
  3 N       -2.3770     1.7320    -1.1430 N.am  1 <1>  -0.6600 
  4 C       -0.2490     2.7030    -0.3870 C.2   1 <1>   0.0550 
  5 C       -3.1720     0.4900    -1.3710 C.3   1 <1>   0.1400 
  6 C       -3.2180     2.9620    -1.1120 C.3   1 <1>   0.1400 
  7 O        0.4460     3.0370     0.6950 O.3   1 <1>  -0.2800 
  8 C        0.1630     3.4910    -1.4200 C.2   1 <1>  -0.1500 
  9 C       -4.2210     0.3360    -0.2540 C.3   1 <1>   0.3430 
 10 C       -4.2940     2.8300    -0.0110 C.3   1 <1>   0.3430 
 11 C        1.2830     4.0000     0.3860 C.2   1 <1>  -0.0400 
 12 C        1.1570     4.3300    -0.9160 C.2   1 <1>  -0.1500 
 13 N       -5.1000     1.5570    -0.1340 N.4   1 <1>  -0.9590 
 14 C        2.1970     4.5440     1.4620 C.3   1 <1>  -0.0600 
 15 C       -6.0550     1.4020     0.9840 C.3   1 <1>   0.4810 
 16 C       -7.1660     2.4010     0.7600 C.2   1 <1>  -0.2880 
 17 C       -8.3880     2.1040     0.3030 C.2   1 <1>  -0.3000 
 18 H       -2.5180    -0.3670    -1.3680 H     1 <1>   0.0800 
 19 H       -3.6510     0.5340    -2.3330 H     1 <1>   0.0800 
 20 H       -3.6840     3.1060    -2.0720 H     1 <1>   0.0800 
 21 H       -2.6100     3.8280    -0.9100 H     1 <1>   0.0800 
 22 H       -0.1850     3.4840    -2.4370 H     1 <1>   0.1500 
 23 H       -3.6960     0.1730     0.6740 H     1 <1>   0.0800 
 24 H       -4.8230    -0.5360    -0.4510 H     1 <1>   0.0800 
 25 H       -4.9490     3.6840    -0.0570 H     1 <1>   0.0800 
 26 H       -3.7970     2.8470     0.9450 H     1 <1>   0.0800 
 27 H        1.6980     5.0740    -1.4740 H     1 <1>   0.1500 
 28 H       -5.6760     1.6290    -0.9830 H     1 <1>   0.4500 
 29 H        2.8150     3.7520     1.8450 H     1 <1>   0.0800 
 30 H        1.6120     4.9500     2.2670 H     1 <1>   0.0800 
 31 H        2.8260     5.3170     1.0610 H     1 <1>   0.0800 
 32 H       -5.5730     1.5630     1.9360 H     1 <1>   0.0800 
 33 H       -6.4710     0.4070     0.9720 H     1 <1>   0.0800 
 34 H       -6.8870     3.4090     1.0160 H     1 <1>   0.1500 
 35 H       -9.1670     2.8360     0.1590 H     1 <1>   0.1500 
 36 H       -8.7300     1.1160     0.0380 H     1 <1>   0.1500 
@<TRIPOS>BOND
  1   1   2  2   
  2   2   3  am  
  3   2   4  1   
  4   3   5  1   
  5   3   6  1   
  6   4   7  1   
  7   4   8  2   
  8   5   9  1   
  9   5  18  1   
 10   5  19  1   
 11   6  10  1   
 12   6  20  1   
 13   6  21  1   
 14   7  11  1   
 15   8  12  1   
 16   8  22  1   
 17   9  13  1   
 18   9  23  1   
 19   9  24  1   
 20  10  13  1   
 21  10  25  1   
 22  10  26  1   
 23  11  12  2   
 24  11  14  1   
 25  12  27  1   
 26  13  15  1   
 27  13  28  1   
 28  14  29  1   
 29  14  30  1   
 30  14  31  1   
 31  15  16  1   
 32  15  32  1   
 33  15  33  1   
 34  16  17  2   
 35  16  34  1   
 36  17  35  1   
 37  17  36  1   
@<TRIPOS>SUBSTRUCTURE
  1 ****   3 GROUP 4 **** **** 0

# MOE 2024.06 (io_trps.svl 2023.06)
