@<TRIPOS>MOLECULE
NONAME
36 37 1 0 0 
SMALL
USER_CHARGES


@<TRIPOS>ATOM
  1 O       -0.7360    -0.9370    -2.4590 O.2   1 <1>  -0.5700 
  2 C       -1.4740    -1.4600    -1.6500 C.2   1 <1>   0.6340 
  3 O       -2.7680    -1.1320    -1.7290 O.3   1 <1>  -0.4300 
  4 C       -1.0130    -2.5150    -0.7670 C.ar  1 <1>   0.0860 
  5 C       -3.7740    -1.6090    -0.8540 C.3   1 <1>   0.1200 
  6 C       -0.6590    -2.3310     0.5840 C.ar  1 <1>  -0.1790 
  7 C       -0.9000    -3.7950    -1.3120 C.ar  1 <1>  -0.1500 
  8 C       -4.6230    -0.4220    -0.3990 C.3   1 <1>   0.1100 
  9 C       -0.7600    -1.0450     1.2440 C.2   1 <1>   0.9790 
 10 C       -0.2020    -3.4320     1.3100 C.ar  1 <1>  -0.1500 
 11 C       -0.4560    -4.8730    -0.5730 C.ar  1 <1>  -0.1500 
 12 N       -5.9530    -0.8700     0.0700 N.3   1 <1>  -0.8100 
 13 O       -1.6980    -0.2730     0.9930 O.co2 1 <1>  -0.9000 
 14 O        0.0550    -0.7260     2.1260 O.co2 1 <1>  -0.9000 
 15 C       -0.1020    -4.6890     0.7480 C.ar  1 <1>  -0.1500 
 16 C       -6.4930     0.0840     1.0540 C.3   1 <1>   0.1100 
 17 C       -6.9070    -1.0190    -1.0440 C.3   1 <1>   0.1100 
 18 C       -7.8990    -0.3390     1.5160 C.3   1 <1>   0.1200 
 19 C       -8.3000    -1.4160    -0.5210 C.3   1 <1>   0.1200 
 20 O       -8.7590    -0.4850     0.4190 O.3   1 <1>  -0.5600 
 21 H       -3.3390    -2.0760     0.0090 H     1 <1>   0.0800 
 22 H       -4.3630    -2.3220    -1.3990 H     1 <1>   0.0800 
 23 H       -1.1630    -3.9370    -2.3460 H     1 <1>   0.1500 
 24 H       -4.7340     0.2840    -1.2040 H     1 <1>   0.0800 
 25 H       -4.0940     0.0630     0.4040 H     1 <1>   0.0800 
 26 H        0.0810    -3.2820     2.3400 H     1 <1>   0.1500 
 27 H       -0.3790    -5.8480    -1.0220 H     1 <1>   0.1500 
 28 H        0.2530    -5.5160     1.3380 H     1 <1>   0.1500 
 29 H       -6.5430     1.0700     0.6240 H     1 <1>   0.0800 
 30 H       -5.8380     0.1230     1.9070 H     1 <1>   0.0800 
 31 H       -6.5560    -1.7770    -1.7220 H     1 <1>   0.0800 
 32 H       -6.9890    -0.0930    -1.5870 H     1 <1>   0.0800 
 33 H       -8.3170     0.4080     2.1660 H     1 <1>   0.0800 
 34 H       -7.8510    -1.2750     2.0440 H     1 <1>   0.0800 
 35 H       -8.2620    -2.3850    -0.0560 H     1 <1>   0.0800 
 36 H       -9.0090    -1.4430    -1.3290 H     1 <1>   0.0800 
@<TRIPOS>BOND
  1   1   2  2   
  2   2   3  1   
  3   2   4  1   
  4   3   5  1   
  5   4   6  ar  
  6   4   7  ar  
  7   5   8  1   
  8   5  21  1   
  9   5  22  1   
 10   6   9  1   
 11   6  10  ar  
 12   7  11  ar  
 13   7  23  1   
 14   8  12  1   
 15   8  24  1   
 16   8  25  1   
 17   9  13  ar  
 18   9  14  ar  
 19  10  15  ar  
 20  10  26  1   
 21  11  15  ar  
 22  11  27  1   
 23  12  16  1   
 24  12  17  1   
 25  15  28  1   
 26  16  18  1   
 27  16  29  1   
 28  16  30  1   
 29  17  19  1   
 30  17  31  1   
 31  17  32  1   
 32  18  20  1   
 33  18  33  1   
 34  18  34  1   
 35  19  20  1   
 36  19  35  1   
 37  19  36  1   
@<TRIPOS>SUBSTRUCTURE
  1 ****   5 GROUP 4 **** **** 0

# MOE 2024.06 (io_trps.svl 2023.06)
