@<TRIPOS>MOLECULE
NONAME
38 38 1 0 0 
SMALL
USER_CHARGES


@<TRIPOS>ATOM
  1 O        0.4020    -0.4480     0.3670 O.2   1 <1>  -0.5200 
  2 N        1.2680    -0.9650    -0.3620 N.pl3 1 <1>   0.8360 
  3 O        2.1480    -0.2350    -0.8710 O.2   1 <1>  -0.5200 
  4 C        1.3690    -2.3610    -0.4590 C.2   1 <1>   0.2190 
  5 C        2.4130    -3.0350     0.1340 C.2   1 <1>  -0.0380 
  6 C        0.3470    -2.9920    -1.2130 C.2   1 <1>   0.4950 
  7 N        3.4030    -2.4080     0.8520 N.pl3 1 <1>  -0.8690 
  8 C        2.4580    -4.5590     0.0360 C.3   1 <1>  -0.0220 
  9 O       -0.5130    -2.4120    -1.8350 O.2   1 <1>  -0.5700 
 10 C        0.3300    -4.5090    -1.3060 C.3   1 <1>  -0.0990 
 11 C        4.8970    -2.4680     0.8190 C.3   1 <1>   0.2890 
 12 C        1.0590    -5.1890    -0.1320 C.3   1 <1>   0.0000 
 13 C        5.4230    -1.1500     0.2000 C.3   1 <1>   0.1200 
 14 C        5.4620    -3.6970     0.0880 C.3   1 <1>  -0.1600 
 15 C        0.2410    -5.0310     1.1650 C.3   1 <1>  -0.2400 
 16 C        1.2030    -6.6910    -0.4240 C.3   1 <1>  -0.2400 
 17 O        4.6520    -0.0460     0.5710 O.3   1 <1>  -0.6800 
 18 C        6.9980    -3.7510     0.0750 C.3   1 <1>  -0.2400 
 19 H        3.1960    -1.4710     1.2420 H     1 <1>   0.4000 
 20 H        2.9050    -4.9580     0.9300 H     1 <1>   0.0800 
 21 H        3.0740    -4.8360    -0.7990 H     1 <1>   0.0800 
 22 H        0.7960    -4.7820    -2.2350 H     1 <1>   0.0800 
 23 H       -0.6920    -4.8450    -1.3470 H     1 <1>   0.0800 
 24 H        5.2400    -2.5050     1.8400 H     1 <1>   0.0800 
 25 H        5.4130    -1.2090    -0.8750 H     1 <1>   0.0800 
 26 H        6.4330    -0.9700     0.5240 H     1 <1>   0.0800 
 27 H        5.1090    -3.7040    -0.9280 H     1 <1>   0.0800 
 28 H        5.1190    -4.5830     0.5880 H     1 <1>   0.0800 
 29 H        0.1080    -3.9980     1.4340 H     1 <1>   0.0800 
 30 H        0.7370    -5.5210     1.9840 H     1 <1>   0.0800 
 31 H       -0.7340    -5.4740     1.0550 H     1 <1>   0.0800 
 32 H        1.7680    -6.8560    -1.3250 H     1 <1>   0.0800 
 33 H        0.2360    -7.1480    -0.5460 H     1 <1>   0.0800 
 34 H        1.7090    -7.1880     0.3860 H     1 <1>   0.0800 
 35 H        3.8560     0.0250    -0.0110 H     1 <1>   0.4000 
 36 H        7.4140    -2.9430    -0.5000 H     1 <1>   0.0800 
 37 H        7.3260    -4.6760    -0.3680 H     1 <1>   0.0800 
 38 H        7.3870    -3.7020     1.0780 H     1 <1>   0.0800 
@<TRIPOS>BOND
  1   1   2  2   
  2   2   3  2   
  3   2   4  1   
  4   4   5  2   
  5   4   6  1   
  6   5   7  1   
  7   5   8  1   
  8   6   9  2   
  9   6  10  1   
 10   7  11  1   
 11   7  19  1   
 12   8  12  1   
 13   8  20  1   
 14   8  21  1   
 15  10  12  1   
 16  10  22  1   
 17  10  23  1   
 18  11  13  1   
 19  11  14  1   
 20  11  24  1   
 21  12  15  1   
 22  12  16  1   
 23  13  17  1   
 24  13  25  1   
 25  13  26  1   
 26  14  18  1   
 27  14  27  1   
 28  14  28  1   
 29  15  29  1   
 30  15  30  1   
 31  15  31  1   
 32  16  32  1   
 33  16  33  1   
 34  16  34  1   
 35  17  35  1   
 36  18  36  1   
 37  18  37  1   
 38  18  38  1   
@<TRIPOS>SUBSTRUCTURE
  1 ****   5 GROUP 4 **** **** 0

# MOE 2024.06 (io_trps.svl 2023.06)
