@<TRIPOS>MOLECULE
NONAME
30 30 1 0 0 
SMALL
USER_CHARGES


@<TRIPOS>ATOM
  1 BR       0.2500     0.7250    -0.3580 Br    1 <1>  -0.1110 
  2 C       -1.5820     1.1920     0.0360 C.ar  1 <1>   0.1110 
  3 C       -2.1110     2.4090    -0.3720 C.ar  1 <1>   0.1660 
  4 C       -2.3440     0.2800     0.7310 C.ar  1 <1>  -0.1500 
  5 N       -3.3620     2.7690    -0.1230 N.ar  1 <1>  -0.6200 
  6 C       -1.2630     3.4070    -1.1380 C.3   1 <1>  -0.0960 
  7 C       -3.6420     0.6600     0.9870 C.ar  1 <1>  -0.1500 
  8 C       -4.1090     1.9010     0.5470 C.ar  1 <1>   0.4270 
  9 N       -5.3890     2.3660     0.7530 N.am  1 <1>  -0.5470 
 10 C       -6.4930     1.8320     1.3460 C.2   1 <1>   0.5690 
 11 O       -6.5170     0.7430     1.8610 O.2   1 <1>  -0.5700 
 12 C       -7.7570     2.6720     1.3590 C.3   1 <1>  -0.0990 
 13 C       -8.3430     2.9300    -0.0440 C.3   1 <1>  -0.0800 
 14 C       -9.5700     3.8440     0.0580 C.3   1 <1>  -0.2400 
 15 C       -8.7330     1.6180    -0.7380 C.3   1 <1>  -0.2400 
 16 H       -1.9430    -0.6660     1.0510 H     1 <1>   0.1500 
 17 H       -0.9220     2.9690    -2.0580 H     1 <1>   0.0800 
 18 H       -0.4140     3.6970    -0.5470 H     1 <1>   0.0800 
 19 H       -1.8350     4.2880    -1.3700 H     1 <1>   0.0800 
 20 H       -4.2880    -0.0060     1.5260 H     1 <1>   0.1500 
 21 H       -5.4990     3.2900     0.3460 H     1 <1>   0.3700 
 22 H       -7.5300     3.6080     1.8350 H     1 <1>   0.0800 
 23 H       -8.4900     2.1720     1.9660 H     1 <1>   0.0800 
 24 H       -7.6040     3.4280    -0.6500 H     1 <1>   0.0800 
 25 H      -10.3410     3.3800     0.6480 H     1 <1>   0.0800 
 26 H       -9.9650     4.0470    -0.9220 H     1 <1>   0.0800 
 27 H       -9.3050     4.7810     0.5140 H     1 <1>   0.0800 
 28 H       -9.4570     1.0790    -0.1520 H     1 <1>   0.0800 
 29 H       -7.8720     0.9880    -0.8760 H     1 <1>   0.0800 
 30 H       -9.1570     1.8180    -1.7060 H     1 <1>   0.0800 
@<TRIPOS>BOND
  1   1   2  1   
  2   2   3  ar  
  3   2   4  ar  
  4   3   5  ar  
  5   3   6  1   
  6   4   7  ar  
  7   4  16  1   
  8   5   8  ar  
  9   6  17  1   
 10   6  18  1   
 11   6  19  1   
 12   7   8  ar  
 13   7  20  1   
 14   8   9  1   
 15   9  10  am  
 16   9  21  1   
 17  10  11  2   
 18  10  12  1   
 19  12  13  1   
 20  12  22  1   
 21  12  23  1   
 22  13  14  1   
 23  13  15  1   
 24  13  24  1   
 25  14  25  1   
 26  14  26  1   
 27  14  27  1   
 28  15  28  1   
 29  15  29  1   
 30  15  30  1   
@<TRIPOS>SUBSTRUCTURE
  1 ****   8 GROUP 4 **** **** 0

# MOE 2024.06 (io_trps.svl 2023.06)
