@<TRIPOS>MOLECULE
NONAME
46 49 1 0 0 
SMALL
USER_CHARGES


@<TRIPOS>ATOM
  1 CL       0.4200    -0.7630    -1.0910 Cl    1 <1>  -0.1770 
  2 C        2.0580    -1.3110    -0.8140 C.ar  1 <1>   0.1770 
  3 C        2.3530    -2.6610    -0.7370 C.ar  1 <1>   0.1900 
  4 C        3.0660    -0.3770    -0.6700 C.ar  1 <1>  -0.1500 
  5 F        1.4010    -3.5500    -0.8740 F     1 <1>  -0.1900 
  6 C        3.6440    -3.1020    -0.5170 C.ar  1 <1>  -0.1500 
  7 C        4.3780    -0.7920    -0.4460 C.ar  1 <1>   0.1170 
  8 C        4.6500    -2.1600    -0.3720 C.ar  1 <1>  -0.1500 
  9 N        5.4200     0.1520    -0.2940 N.am  1 <1>  -0.2370 
 10 C        6.3550     0.1380     0.7050 C.2   1 <1>   0.5690 
 11 C        5.6340     1.2360    -1.0990 C.2   1 <1>   0.5690 
 12 O        6.3300    -0.5870     1.6720 O.2   1 <1>  -0.5700 
 13 C        7.4180     1.2290     0.4940 C.3   1 <1>   0.2510 
 14 O        4.9690     1.5550    -2.0510 O.2   1 <1>  -0.5700 
 15 C        6.8130     2.0580    -0.6480 C.3   1 <1>  -0.0990 
 16 N        8.7840     0.7730     0.0880 N.3   1 <1>  -0.8100 
 17 C        9.2500    -0.4040     0.8510 C.3   1 <1>   0.1100 
 18 C        9.7560     1.8810     0.1970 C.3   1 <1>   0.1100 
 19 C       10.5950    -0.8930     0.3090 C.3   1 <1>  -0.1600 
 20 C       11.1070     1.4600    -0.3840 C.3   1 <1>  -0.1600 
 21 C       11.6470     0.2210     0.3380 C.3   1 <1>   0.0630 
 22 C       12.9710    -0.2430    -0.2610 C.ar  1 <1>  -0.1430 
 23 C       14.1290    -0.2790     0.4910 C.ar  1 <1>  -0.1500 
 24 C       13.0940    -0.6510    -1.5760 C.ar  1 <1>  -0.1500 
 25 C       15.3130    -0.7060    -0.0880 C.ar  1 <1>   0.1600 
 26 C       14.3270    -1.0600    -2.0580 C.ar  1 <1>   0.1600 
 27 N       15.4410    -1.0970    -1.3450 N.ar  1 <1>  -0.6200 
 28 H        2.8270     0.6690    -0.7370 H     1 <1>   0.1500 
 29 H        3.8520    -4.1550    -0.4580 H     1 <1>   0.1500 
 30 H        5.6590    -2.4910    -0.1950 H     1 <1>   0.1500 
 31 H        7.4830     1.8120     1.3970 H     1 <1>   0.0800 
 32 H        6.4630     3.0080    -0.2900 H     1 <1>   0.0800 
 33 H        7.4880     2.1960    -1.4720 H     1 <1>   0.0800 
 34 H        8.5500    -1.2150     0.7520 H     1 <1>   0.0800 
 35 H        9.3360    -0.1560     1.8970 H     1 <1>   0.0800 
 36 H        9.8770     2.1610     1.2310 H     1 <1>   0.0800 
 37 H        9.4060     2.7420    -0.3460 H     1 <1>   0.0800 
 38 H       10.4500    -1.2410    -0.6980 H     1 <1>   0.0800 
 39 H       10.9370    -1.7240     0.8980 H     1 <1>   0.0800 
 40 H       11.8090     2.2680    -0.2840 H     1 <1>   0.0800 
 41 H       10.9820     1.2580    -1.4330 H     1 <1>   0.0800 
 42 H       11.8120     0.4880     1.3690 H     1 <1>   0.0800 
 43 H       14.1250     0.0200     1.5220 H     1 <1>   0.1500 
 44 H       12.2440    -0.6550    -2.2320 H     1 <1>   0.1500 
 45 H       16.2030    -0.7260     0.5170 H     1 <1>   0.1500 
 46 H       14.4000    -1.3730    -3.0850 H     1 <1>   0.1500 
@<TRIPOS>BOND
  1   1   2  1   
  2   2   3  ar  
  3   2   4  ar  
  4   3   5  1   
  5   3   6  ar  
  6   4   7  ar  
  7   4  28  1   
  8   6   8  ar  
  9   6  29  1   
 10   7   8  ar  
 11   7   9  1   
 12   8  30  1   
 13   9  10  am  
 14   9  11  am  
 15  10  12  2   
 16  10  13  1   
 17  11  14  2   
 18  11  15  1   
 19  13  15  1   
 20  13  16  1   
 21  13  31  1   
 22  15  32  1   
 23  15  33  1   
 24  16  17  1   
 25  16  18  1   
 26  17  19  1   
 27  17  34  1   
 28  17  35  1   
 29  18  20  1   
 30  18  36  1   
 31  18  37  1   
 32  19  21  1   
 33  19  38  1   
 34  19  39  1   
 35  20  21  1   
 36  20  40  1   
 37  20  41  1   
 38  21  22  1   
 39  21  42  1   
 40  22  23  ar  
 41  22  24  ar  
 42  23  25  ar  
 43  23  43  1   
 44  24  26  ar  
 45  24  44  1   
 46  25  27  ar  
 47  25  45  1   
 48  26  27  ar  
 49  26  46  1   
@<TRIPOS>SUBSTRUCTURE
  1 ****  16 GROUP 4 **** **** 0

# MOE 2024.06 (io_trps.svl 2023.06)
