@<TRIPOS>MOLECULE
NONAME
43 44 1 0 0 
SMALL
USER_CHARGES


@<TRIPOS>ATOM
  1 O       -0.6830    -0.5040     0.7780 O.2   1 <1>  -0.5700 
  2 C       -1.1900    -1.5830     0.5590 C.2   1 <1>   0.6340 
  3 O       -2.5370    -1.6220     0.5600 O.3   1 <1>  -0.0870 
  4 C       -0.4030    -2.7700     0.2770 C.ar  1 <1>   0.0860 
  5 N       -3.2640    -2.5880     0.0000 N.2   1 <1>  -0.5130 
  6 C        0.7290    -2.6830    -0.5350 C.ar  1 <1>  -0.1500 
  7 C       -0.7100    -4.0260     0.8080 C.ar  1 <1>  -0.1500 
  8 C       -4.4660    -2.3500    -0.2880 C.2   1 <1>   0.3280 
  9 C        1.5060    -3.7910    -0.8200 C.ar  1 <1>  -0.1500 
 10 C        0.0620    -5.1390     0.5280 C.ar  1 <1>  -0.1500 
 11 C       -5.3290    -3.4150    -0.9150 C.3   1 <1>  -0.0990 
 12 C       -5.1850    -1.0310    -0.0290 C.3   1 <1>  -0.0990 
 13 C        1.1720    -5.0240    -0.2890 C.ar  1 <1>  -0.1500 
 14 C       -6.5200    -3.7230     0.0020 C.3   1 <1>   0.5030 
 15 C       -6.7070    -1.1800     0.1700 C.3   1 <1>   0.5030 
 16 N       -7.0570    -2.5210     0.6660 N.4   1 <1>  -0.9060 
 17 C       -7.6570    -4.3760    -0.7810 C.3   1 <1>  -0.2400 
 18 C       -6.0910    -4.6570     1.1330 C.3   1 <1>  -0.2400 
 19 C       -7.4920    -0.8970    -1.1150 C.3   1 <1>  -0.2400 
 20 C       -7.1930    -0.2040     1.2410 C.3   1 <1>  -0.2400 
 21 H        1.0010    -1.7260    -0.9470 H     1 <1>   0.1500 
 22 H       -1.5660    -4.1310     1.4500 H     1 <1>   0.1500 
 23 H        2.3720    -3.6960    -1.4520 H     1 <1>   0.1500 
 24 H       -0.1960    -6.0970     0.9470 H     1 <1>   0.1500 
 25 H       -5.6500    -3.0890    -1.8860 H     1 <1>   0.0800 
 26 H       -4.7490    -4.3080    -1.0760 H     1 <1>   0.0800 
 27 H       -4.7550    -0.5700     0.8420 H     1 <1>   0.0800 
 28 H       -4.9880    -0.3630    -0.8480 H     1 <1>   0.0800 
 29 H        1.7750    -5.8880    -0.5080 H     1 <1>   0.1500 
 30 H       -6.7450    -2.5660     1.6400 H     1 <1>   0.4500 
 31 H       -8.0770    -2.6000     0.6910 H     1 <1>   0.4500 
 32 H       -7.3070    -5.2840    -1.2410 H     1 <1>   0.0800 
 33 H       -8.0160    -3.7340    -1.5650 H     1 <1>   0.0800 
 34 H       -8.4780    -4.6360    -0.1350 H     1 <1>   0.0800 
 35 H       -5.2880    -4.2300     1.7090 H     1 <1>   0.0800 
 36 H       -5.7330    -5.5870     0.7260 H     1 <1>   0.0800 
 37 H       -6.9140    -4.8870     1.7870 H     1 <1>   0.0800 
 38 H       -7.3440     0.1280    -1.4110 H     1 <1>   0.0800 
 39 H       -8.5470    -1.0390    -0.9650 H     1 <1>   0.0800 
 40 H       -7.1720    -1.5060    -1.9370 H     1 <1>   0.0800 
 41 H       -6.7040    -0.3800     2.1840 H     1 <1>   0.0800 
 42 H       -8.2580    -0.2730     1.3810 H     1 <1>   0.0800 
 43 H       -6.9690     0.8070     0.9440 H     1 <1>   0.0800 
@<TRIPOS>BOND
  1   1   2  2   
  2   2   3  1   
  3   2   4  1   
  4   3   5  1   
  5   4   6  ar  
  6   4   7  ar  
  7   5   8  2   
  8   6   9  ar  
  9   6  21  1   
 10   7  10  ar  
 11   7  22  1   
 12   8  11  1   
 13   8  12  1   
 14   9  13  ar  
 15   9  23  1   
 16  10  13  ar  
 17  10  24  1   
 18  11  14  1   
 19  11  25  1   
 20  11  26  1   
 21  12  15  1   
 22  12  27  1   
 23  12  28  1   
 24  13  29  1   
 25  14  16  1   
 26  14  17  1   
 27  14  18  1   
 28  15  16  1   
 29  15  19  1   
 30  15  20  1   
 31  16  30  1   
 32  16  31  1   
 33  17  32  1   
 34  17  33  1   
 35  17  34  1   
 36  18  35  1   
 37  18  36  1   
 38  18  37  1   
 39  19  38  1   
 40  19  39  1   
 41  19  40  1   
 42  20  41  1   
 43  20  42  1   
 44  20  43  1   
@<TRIPOS>SUBSTRUCTURE
  1 ****   5 GROUP 4 **** **** 0

# MOE 2024.06 (io_trps.svl 2023.06)
