@<TRIPOS>MOLECULE
NONAME
48 49 1 0 0 
SMALL
USER_CHARGES


@<TRIPOS>ATOM
  1 O       -1.7010     0.2690    -2.2200 O.2   1 <1>  -0.5700 
  2 C       -0.9400    -0.2760    -1.4560 C.2   1 <1>   0.5690 
  3 N       -1.1640    -0.3550    -0.1180 N.am  1 <1>  -0.7300 
  4 C        0.3390    -0.9260    -1.9980 C.3   1 <1>  -0.0190 
  5 C       -2.3060     0.0900     0.7030 C.3   1 <1>   0.3640 
  6 C        1.5900    -0.0960    -1.6480 C.3   1 <1>  -0.0160 
  7 C        0.2870    -1.1830    -3.5180 C.3   1 <1>  -0.2400 
  8 C       -3.3520    -1.0180     0.7820 C.ar  1 <1>  -0.1440 
  9 C       -2.8980     1.4200     0.2370 C.3   1 <1>  -0.2400 
 10 C        1.8140    -0.0100    -0.1440 C.ar  1 <1>  -0.1440 
 11 C       -3.6730    -1.5840     2.0090 C.ar  1 <1>  -0.1500 
 12 C       -3.9960    -1.4800    -0.3580 C.ar  1 <1>  -0.1500 
 13 C        2.2690    -1.1160     0.5590 C.ar  1 <1>  -0.1500 
 14 C        1.5490     1.1670     0.5400 C.ar  1 <1>  -0.1500 
 15 C       -4.6200    -2.5900     2.0900 C.ar  1 <1>  -0.1500 
 16 C       -4.9430    -2.4860    -0.2800 C.ar  1 <1>  -0.1500 
 17 C        2.4470    -1.0480     1.9300 C.ar  1 <1>  -0.1500 
 18 C        1.7270     1.2360     1.9100 C.ar  1 <1>  -0.1500 
 19 C       -5.2610    -3.0480     0.9520 C.ar  1 <1>   0.0820 
 20 C        2.1750     0.1280     2.6070 C.ar  1 <1>  -0.1500 
 21 O       -6.1760    -4.0360     1.1210 O.3   1 <1>  -0.3620 
 22 C       -6.8830    -4.5700     0.0270 C.3   1 <1>   0.1200 
 23 C       -7.8220    -5.6510     0.5540 C.3   1 <1>  -0.2400 
 24 H       -0.4040    -0.7420     0.4460 H     1 <1>   0.3700 
 25 H        0.4280    -1.8860    -1.5220 H     1 <1>   0.0800 
 26 H       -1.9220     0.2570     1.6950 H     1 <1>   0.0800 
 27 H        1.4880     0.8910    -2.0630 H     1 <1>   0.0800 
 28 H        2.4590    -0.5460    -2.0960 H     1 <1>   0.0800 
 29 H        0.2160    -0.2530    -4.0540 H     1 <1>   0.0800 
 30 H       -0.5770    -1.7780    -3.7590 H     1 <1>   0.0800 
 31 H        1.1660    -1.7090    -3.8470 H     1 <1>   0.0800 
 32 H       -3.4050     1.3090    -0.7030 H     1 <1>   0.0800 
 33 H       -2.1220     2.1570     0.1390 H     1 <1>   0.0800 
 34 H       -3.6150     1.7640     0.9590 H     1 <1>   0.0800 
 35 H       -3.1900    -1.2470     2.9080 H     1 <1>   0.1500 
 36 H       -3.7560    -1.0520    -1.3170 H     1 <1>   0.1500 
 37 H        2.4870    -2.0350     0.0430 H     1 <1>   0.1500 
 38 H        1.1960     2.0340     0.0080 H     1 <1>   0.1500 
 39 H       -4.8690    -3.0280     3.0400 H     1 <1>   0.1500 
 40 H       -5.4160    -2.8130    -1.1860 H     1 <1>   0.1500 
 41 H        2.8000    -1.9100     2.4700 H     1 <1>   0.1500 
 42 H        1.5190     2.1530     2.4340 H     1 <1>   0.1500 
 43 H        2.3150     0.1810     3.6730 H     1 <1>   0.1500 
 44 H       -6.1730    -4.9880    -0.6660 H     1 <1>   0.0800 
 45 H       -7.4390    -3.7760    -0.4400 H     1 <1>   0.0800 
 46 H       -7.2570    -6.4300     1.0330 H     1 <1>   0.0800 
 47 H       -8.3780    -6.0790    -0.2600 H     1 <1>   0.0800 
 48 H       -8.5150    -5.2250     1.2580 H     1 <1>   0.0800 
@<TRIPOS>BOND
  1   1   2  2   
  2   2   3  am  
  3   2   4  1   
  4   3   5  1   
  5   3  24  1   
  6   4   6  1   
  7   4   7  1   
  8   4  25  1   
  9   5   8  1   
 10   5   9  1   
 11   5  26  1   
 12   6  10  1   
 13   6  27  1   
 14   6  28  1   
 15   7  29  1   
 16   7  30  1   
 17   7  31  1   
 18   8  11  ar  
 19   8  12  ar  
 20   9  32  1   
 21   9  33  1   
 22   9  34  1   
 23  10  13  ar  
 24  10  14  ar  
 25  11  15  ar  
 26  11  35  1   
 27  12  16  ar  
 28  12  36  1   
 29  13  17  ar  
 30  13  37  1   
 31  14  18  ar  
 32  14  38  1   
 33  15  19  ar  
 34  15  39  1   
 35  16  19  ar  
 36  16  40  1   
 37  17  20  ar  
 38  17  41  1   
 39  18  20  ar  
 40  18  42  1   
 41  19  21  1   
 42  20  43  1   
 43  21  22  1   
 44  22  23  1   
 45  22  44  1   
 46  22  45  1   
 47  23  46  1   
 48  23  47  1   
 49  23  48  1   
@<TRIPOS>SUBSTRUCTURE
  1 ****   3 GROUP 4 **** **** 0

# MOE 2024.06 (io_trps.svl 2023.06)
