@<TRIPOS>MOLECULE
NONAME
37 37 1 0 0 
SMALL
USER_CHARGES


@<TRIPOS>ATOM
  1 I       -0.0630     0.7160     0.1810 I     1 <1>  -0.0810 
  2 C        1.9760     1.3270     0.2470 C.ar  1 <1>   0.0810 
  3 C        2.9450     0.4580    -0.2220 C.ar  1 <1>  -0.1500 
  4 C        2.2790     2.5750     0.7570 C.ar  1 <1>  -0.1500 
  5 C        4.2700     0.8570    -0.1780 C.ar  1 <1>  -0.1500 
  6 C        3.6070     2.9620     0.7960 C.ar  1 <1>  -0.1500 
  7 C        4.6050     2.1130     0.3320 C.ar  1 <1>   0.0830 
  8 O        5.8770     2.5790     0.4090 O.3   1 <1>  -0.3630 
  9 C        6.9680     1.8110    -0.0310 C.3   1 <1>   0.1200 
 10 C        8.2280     2.6430     0.2040 C.3   1 <1>  -0.1600 
 11 C        9.4730     1.8870    -0.2570 C.3   1 <1>   0.3430 
 12 N       10.7090     2.6540     0.0740 N.4   1 <1>  -0.9590 
 13 C       10.8490     3.8840    -0.7550 C.3   1 <1>   0.3430 
 14 C       11.9020     1.7710    -0.0370 C.3   1 <1>   0.3430 
 15 C       10.7860     5.0950     0.1650 C.3   1 <1>  -0.2400 
 16 C       13.0830     2.4000     0.6940 C.3   1 <1>  -0.2400 
 17 H        2.6700    -0.5060    -0.6120 H     1 <1>   0.1500 
 18 H        1.5010     3.2270     1.1140 H     1 <1>   0.1500 
 19 H        5.0170     0.1800    -0.5430 H     1 <1>   0.1500 
 20 H        3.8780     3.9270     1.1860 H     1 <1>   0.1500 
 21 H        6.8280     1.5980    -1.0770 H     1 <1>   0.0800 
 22 H        6.9880     0.8980     0.5410 H     1 <1>   0.0800 
 23 H        8.3020     2.8560     1.2560 H     1 <1>   0.0800 
 24 H        8.1260     3.5620    -0.3440 H     1 <1>   0.0800 
 25 H        9.4220     1.7060    -1.3190 H     1 <1>   0.0800 
 26 H        9.5000     0.9320     0.2440 H     1 <1>   0.0800 
 27 H       10.6400     2.9540     1.0560 H     1 <1>   0.4500 
 28 H       10.0570     3.9400    -1.4850 H     1 <1>   0.0800 
 29 H       11.7900     3.8780    -1.2820 H     1 <1>   0.0800 
 30 H       12.1510     1.6060    -1.0730 H     1 <1>   0.0800 
 31 H       11.6890     0.8140     0.4140 H     1 <1>   0.0800 
 32 H        9.8430     5.1430     0.6790 H     1 <1>   0.0800 
 33 H       11.5890     5.0780     0.8800 H     1 <1>   0.0800 
 34 H       10.8870     5.9900    -0.4230 H     1 <1>   0.0800 
 35 H       13.3940     3.3160     0.2270 H     1 <1>   0.0800 
 36 H       13.9170     1.7200     0.6640 H     1 <1>   0.0800 
 37 H       12.8430     2.5810     1.7270 H     1 <1>   0.0800 
@<TRIPOS>BOND
  1   1   2  1   
  2   2   3  ar  
  3   2   4  ar  
  4   3   5  ar  
  5   3  17  1   
  6   4   6  ar  
  7   4  18  1   
  8   5   7  ar  
  9   5  19  1   
 10   6   7  ar  
 11   6  20  1   
 12   7   8  1   
 13   8   9  1   
 14   9  10  1   
 15   9  21  1   
 16   9  22  1   
 17  10  11  1   
 18  10  23  1   
 19  10  24  1   
 20  11  12  1   
 21  11  25  1   
 22  11  26  1   
 23  12  13  1   
 24  12  14  1   
 25  12  27  1   
 26  13  15  1   
 27  13  28  1   
 28  13  29  1   
 29  14  16  1   
 30  14  30  1   
 31  14  31  1   
 32  15  32  1   
 33  15  33  1   
 34  15  34  1   
 35  16  35  1   
 36  16  36  1   
 37  16  37  1   
@<TRIPOS>SUBSTRUCTURE
  1 ****   9 GROUP 4 **** **** 0

# MOE 2024.06 (io_trps.svl 2023.06)
