@<TRIPOS>MOLECULE
NONAME
39 40 1 0 0 
SMALL
USER_CHARGES


@<TRIPOS>ATOM
  1 BR      -0.3590     0.5550    -1.7520 Br    1 <1>  -0.1110 
  2 C        0.6340     1.8520    -0.7210 C.ar  1 <1>   0.1110 
  3 C       -0.0360     2.9580    -0.2030 C.ar  1 <1>   0.1170 
  4 C        1.9850     1.6280    -0.5380 C.ar  1 <1>  -0.1500 
  5 N       -1.4170     3.1070    -0.4440 N.am  1 <1>  -0.5470 
  6 C        0.7290     3.8630     0.5270 C.ar  1 <1>  -0.1500 
  7 C        2.7230     2.5410     0.1960 C.ar  1 <1>  -0.1440 
  8 C       -2.3520     3.9760     0.0480 C.2   1 <1>   0.5690 
  9 C        2.0860     3.6560     0.7230 C.ar  1 <1>  -0.1500 
 10 C        4.2100     2.3330     0.4200 C.3   1 <1>  -0.0960 
 11 O       -2.1010     4.8390     0.8520 O.2   1 <1>  -0.5700 
 12 C       -3.7850     3.8100    -0.4620 C.3   1 <1>  -0.0190 
 13 C       -4.6150     5.1070    -0.3560 C.3   1 <1>  -0.1600 
 14 C       -4.5050     2.6680     0.2800 C.3   1 <1>  -0.1600 
 15 C       -6.0490     4.9040    -0.8490 C.3   1 <1>   0.1400 
 16 C       -5.9440     2.4880    -0.2130 C.3   1 <1>   0.1400 
 17 N       -6.6760     3.7800    -0.0990 N.am  1 <1>  -0.6600 
 18 C       -7.8110     3.8780     0.6670 C.2   1 <1>   0.5690 
 19 O       -8.2920     2.9260     1.2320 O.2   1 <1>  -0.5700 
 20 C       -8.5160     5.2040     0.8360 C.3   1 <1>  -0.1790 
 21 H        2.4470     0.7550    -0.9640 H     1 <1>   0.1500 
 22 H       -1.7870     2.3990    -1.0770 H     1 <1>   0.3700 
 23 H        0.2770     4.7400     0.9500 H     1 <1>   0.1500 
 24 H        2.6490     4.3750     1.2920 H     1 <1>   0.1500 
 25 H        4.4700     1.2960     0.3050 H     1 <1>   0.0800 
 26 H        4.4830     2.6430     1.4130 H     1 <1>   0.0800 
 27 H        4.7700     2.9120    -0.2910 H     1 <1>   0.0800 
 28 H       -3.7280     3.5500    -1.5040 H     1 <1>   0.0800 
 29 H       -4.1450     5.8840    -0.9340 H     1 <1>   0.0800 
 30 H       -4.6460     5.4390     0.6680 H     1 <1>   0.0800 
 31 H       -4.5270     2.8800     1.3360 H     1 <1>   0.0800 
 32 H       -3.9720     1.7440     0.1460 H     1 <1>   0.0800 
 33 H       -6.0450     4.6620    -1.8980 H     1 <1>   0.0800 
 34 H       -6.6020     5.8170    -0.7230 H     1 <1>   0.0800 
 35 H       -6.4280     1.7220     0.3690 H     1 <1>   0.0800 
 36 H       -5.9490     2.1740    -1.2420 H     1 <1>   0.0800 
 37 H       -8.8640     5.5560    -0.1160 H     1 <1>   0.0800 
 38 H       -7.8460     5.9200     1.2720 H     1 <1>   0.0800 
 39 H       -9.3610     5.0830     1.4880 H     1 <1>   0.0800 
@<TRIPOS>BOND
  1   1   2  1   
  2   2   3  ar  
  3   2   4  ar  
  4   3   5  1   
  5   3   6  ar  
  6   4   7  ar  
  7   4  21  1   
  8   5   8  am  
  9   5  22  1   
 10   6   9  ar  
 11   6  23  1   
 12   7   9  ar  
 13   7  10  1   
 14   8  11  2   
 15   8  12  1   
 16   9  24  1   
 17  10  25  1   
 18  10  26  1   
 19  10  27  1   
 20  12  13  1   
 21  12  14  1   
 22  12  28  1   
 23  13  15  1   
 24  13  29  1   
 25  13  30  1   
 26  14  16  1   
 27  14  31  1   
 28  14  32  1   
 29  15  17  1   
 30  15  33  1   
 31  15  34  1   
 32  16  17  1   
 33  16  35  1   
 34  16  36  1   
 35  17  18  am  
 36  18  19  2   
 37  18  20  1   
 38  20  37  1   
 39  20  38  1   
 40  20  39  1   
@<TRIPOS>SUBSTRUCTURE
  1 ****   8 GROUP 4 **** **** 0

# MOE 2024.06 (io_trps.svl 2023.06)
