@<TRIPOS>MOLECULE
NONAME
45 47 1 0 0 
SMALL
USER_CHARGES


@<TRIPOS>ATOM
  1 O       -2.1000     0.5270    -2.2410 O.2   1 <1>  -0.5700 
  2 C       -1.5900     1.0000    -1.2530 C.2   1 <1>   0.5690 
  3 N       -1.3680     0.3200    -0.0900 N.am  1 <1>  -0.5470 
  4 C       -1.1480     2.4650    -1.2700 C.3   1 <1>   0.1710 
  5 C       -1.5970    -1.0040     0.3170 C.ar  1 <1>   0.1170 
  6 N       -0.1130     2.7910    -0.2410 N.3   1 <1>  -0.8100 
  7 C       -2.3080    -1.9260    -0.4440 C.ar  1 <1>  -0.1500 
  8 C       -1.0900    -1.4130     1.5450 C.ar  1 <1>  -0.1500 
  9 C       -0.0180     4.2540    -0.0360 C.3   1 <1>   0.1100 
 10 C        1.2190     2.2750    -0.6480 C.3   1 <1>   0.1100 
 11 C       -2.5040    -3.2210     0.0020 C.ar  1 <1>  -0.1500 
 12 C       -1.2830    -2.7060     1.9970 C.ar  1 <1>  -0.1500 
 13 C        1.0260     4.6280     1.0340 C.3   1 <1>   0.2090 
 14 C        2.3110     2.5770     0.3960 C.3   1 <1>   0.2090 
 15 C       -1.9880    -3.6200     1.2320 C.ar  1 <1>   0.0820 
 16 N        2.3660     4.0380     0.7190 N.pl3 1 <1>  -0.8380 
 17 O       -2.1300    -4.8700     1.7470 O.3   1 <1>  -0.3620 
 18 C        3.5510     4.7130     0.9360 C.ar  1 <1>   0.7200 
 19 C       -2.8270    -5.8690     1.0370 C.3   1 <1>   0.0400 
 20 N        3.4670     5.9980     1.2820 N.ar  1 <1>  -0.6200 
 21 N        4.6820     4.0240     0.7840 N.ar  1 <1>  -0.6200 
 22 C        4.5980     6.6250     1.4870 C.ar  1 <1>   0.1600 
 23 C        5.7990     4.6760     0.9950 C.ar  1 <1>   0.1600 
 24 C        5.8130     6.0000     1.3540 C.ar  1 <1>  -0.1500 
 25 H       -0.8790     0.9180     0.5840 H     1 <1>   0.3700 
 26 H       -2.0270     3.0570    -1.0900 H     1 <1>   0.0800 
 27 H       -0.7820     2.7090    -2.2520 H     1 <1>   0.0800 
 28 H       -2.7170    -1.6380    -1.3950 H     1 <1>   0.1500 
 29 H       -0.5410    -0.7190     2.1530 H     1 <1>   0.1500 
 30 H       -0.9750     4.6350     0.2750 H     1 <1>   0.0800 
 31 H        0.2510     4.7380    -0.9600 H     1 <1>   0.0800 
 32 H        1.5130     2.7210    -1.5840 H     1 <1>   0.0800 
 33 H        1.1710     1.2100    -0.7920 H     1 <1>   0.0800 
 34 H       -3.0580    -3.8990    -0.6180 H     1 <1>   0.1500 
 35 H       -0.8870    -3.0180     2.9470 H     1 <1>   0.1500 
 36 H        0.6990     4.2600     1.9900 H     1 <1>   0.0800 
 37 H        1.0770     5.7000     1.0940 H     1 <1>   0.0800 
 38 H        3.2520     2.2310     0.0060 H     1 <1>   0.0800 
 39 H        2.1040     2.0270     1.2960 H     1 <1>   0.0800 
 40 H       -2.8110    -6.7690     1.6260 H     1 <1>   0.0800 
 41 H       -2.3320    -6.0390     0.0970 H     1 <1>   0.0800 
 42 H       -3.8420    -5.5480     0.8880 H     1 <1>   0.0800 
 43 H        4.5560     7.6640     1.7670 H     1 <1>   0.1500 
 44 H        6.7250     4.1410     0.8780 H     1 <1>   0.1500 
 45 H        6.7340     6.5250     1.5240 H     1 <1>   0.1500 
@<TRIPOS>BOND
  1   1   2  2   
  2   2   3  am  
  3   2   4  1   
  4   3   5  1   
  5   3  25  1   
  6   4   6  1   
  7   4  26  1   
  8   4  27  1   
  9   5   7  ar  
 10   5   8  ar  
 11   6   9  1   
 12   6  10  1   
 13   7  11  ar  
 14   7  28  1   
 15   8  12  ar  
 16   8  29  1   
 17   9  13  1   
 18   9  30  1   
 19   9  31  1   
 20  10  14  1   
 21  10  32  1   
 22  10  33  1   
 23  11  15  ar  
 24  11  34  1   
 25  12  15  ar  
 26  12  35  1   
 27  13  16  1   
 28  13  36  1   
 29  13  37  1   
 30  14  16  1   
 31  14  38  1   
 32  14  39  1   
 33  15  17  1   
 34  16  18  1   
 35  17  19  1   
 36  18  20  ar  
 37  18  21  ar  
 38  19  40  1   
 39  19  41  1   
 40  19  42  1   
 41  20  22  ar  
 42  21  23  ar  
 43  22  24  ar  
 44  22  43  1   
 45  23  24  ar  
 46  23  44  1   
 47  24  45  1   
@<TRIPOS>SUBSTRUCTURE
  1 ****  10 GROUP 4 **** **** 0

# MOE 2024.06 (io_trps.svl 2023.06)
