@<TRIPOS>MOLECULE
NONAME
31 31 1 0 0 
SMALL
USER_CHARGES


@<TRIPOS>ATOM
  1 O        0.4720    -1.8780    -1.9020 O.co2 1 <1>  -0.9000 
  2 C        0.1650    -2.2670    -0.7590 C.2   1 <1>   0.9790 
  3 O        1.0820    -2.3960     0.0760 O.co2 1 <1>  -0.9000 
  4 C       -1.2040    -2.6390    -0.4080 C.ar  1 <1>  -0.1790 
  5 C       -2.3130    -1.7730    -0.4410 C.ar  1 <1>  -0.1440 
  6 C       -1.4160    -3.9510     0.0130 C.ar  1 <1>  -0.1500 
  7 C       -3.5950    -2.2120    -0.0630 C.ar  1 <1>  -0.1790 
  8 C       -2.1110    -0.3130    -0.8530 C.3   1 <1>  -0.0160 
  9 C       -2.6630    -4.4080     0.3850 C.ar  1 <1>  -0.1440 
 10 C       -4.7960    -1.3820    -0.0420 C.2   1 <1>   0.9790 
 11 C       -3.7330    -3.5370     0.3470 C.ar  1 <1>  -0.1500 
 12 C       -1.7810     0.5410     0.3770 C.3   1 <1>  -0.1600 
 13 C       -2.8530    -5.8400     0.8430 C.3   1 <1>  -0.0970 
 14 O       -5.4360    -1.2330     1.0180 O.co2 1 <1>  -0.9000 
 15 O       -5.2540    -0.8560    -1.0740 O.co2 1 <1>  -0.9000 
 16 C       -1.5730     2.0130     0.0010 C.3   1 <1>  -0.1600 
 17 C       -1.2440     2.8560     1.2360 C.3   1 <1>  -0.2400 
 18 H       -0.5650    -4.6080     0.0490 H     1 <1>   0.1500 
 19 H       -2.9920     0.0690    -1.3340 H     1 <1>   0.0800 
 20 H       -1.3220    -0.2290    -1.5750 H     1 <1>   0.0800 
 21 H       -4.7110    -3.8680     0.6480 H     1 <1>   0.1500 
 22 H       -0.8900     0.1510     0.8370 H     1 <1>   0.0800 
 23 H       -2.5900     0.4540     1.0830 H     1 <1>   0.0800 
 24 H       -2.7090    -5.8980     1.9060 H     1 <1>   0.0800 
 25 H       -2.1420    -6.4830     0.3560 H     1 <1>   0.0800 
 26 H       -3.8440    -6.1790     0.6030 H     1 <1>   0.0800 
 27 H       -2.4690     2.3900    -0.4640 H     1 <1>   0.0800 
 28 H       -0.7670     2.0860    -0.7100 H     1 <1>   0.0800 
 29 H       -2.0490     2.7990     1.9470 H     1 <1>   0.0800 
 30 H       -1.1020     3.8840     0.9540 H     1 <1>   0.0800 
 31 H       -0.3440     2.4950     1.7010 H     1 <1>   0.0800 
@<TRIPOS>BOND
  1   1   2  ar  
  2   2   3  ar  
  3   2   4  1   
  4   4   5  ar  
  5   4   6  ar  
  6   5   7  ar  
  7   5   8  1   
  8   6   9  ar  
  9   6  18  1   
 10   7  10  1   
 11   7  11  ar  
 12   8  12  1   
 13   8  19  1   
 14   8  20  1   
 15   9  11  ar  
 16   9  13  1   
 17  10  14  ar  
 18  10  15  ar  
 19  11  21  1   
 20  12  16  1   
 21  12  22  1   
 22  12  23  1   
 23  13  24  1   
 24  13  25  1   
 25  13  26  1   
 26  16  17  1   
 27  16  27  1   
 28  16  28  1   
 29  17  29  1   
 30  17  30  1   
 31  17  31  1   
@<TRIPOS>SUBSTRUCTURE
  1 ****   5 GROUP 4 **** **** 0

# MOE 2024.06 (io_trps.svl 2023.06)
