@<TRIPOS>MOLECULE
NONAME
37 37 1 0 0 
SMALL
USER_CHARGES


@<TRIPOS>ATOM
  1 O       -3.7610     2.4290     0.2770 O.3   1 <1>  -0.3630 
  2 C       -4.9120     3.0350    -0.1360 C.ar  1 <1>   0.0820 
  3 C       -2.8260     3.0580     1.1270 C.3   1 <1>   0.0400 
  4 C       -5.8670     2.2970    -0.8550 C.ar  1 <1>   0.0820 
  5 C       -5.1720     4.3720     0.1570 C.ar  1 <1>  -0.1500 
  6 O       -5.7590     0.9890    -1.2270 O.3   1 <1>  -0.3630 
  7 C       -7.0520     2.9010    -1.2380 C.ar  1 <1>  -0.1500 
  8 C       -6.3640     4.9690    -0.2400 C.ar  1 <1>   0.0820 
  9 C       -4.5060     0.4080    -1.5160 C.3   1 <1>   0.0400 
 10 C       -7.3090     4.2280    -0.9380 C.ar  1 <1>  -0.1440 
 11 O       -6.6760     6.2690     0.0330 O.3   1 <1>  -0.3630 
 12 C       -8.6100     4.8610    -1.3740 C.3   1 <1>   0.4860 
 13 C       -5.6860     7.1700     0.4930 C.3   1 <1>   0.0400 
 14 N       -9.3370     5.2300    -0.1480 N.4   1 <1>  -0.9060 
 15 C      -10.5730     5.9830    -0.3710 C.3   1 <1>   0.4810 
 16 C      -11.1790     6.1980     0.9920 C.2   1 <1>  -0.2880 
 17 C      -12.3000     5.6230     1.4380 C.2   1 <1>  -0.3000 
 18 H       -2.0500     2.3480     1.3510 H     1 <1>   0.0800 
 19 H       -3.3200     3.3530     2.0360 H     1 <1>   0.0800 
 20 H       -2.4040     3.9060     0.6190 H     1 <1>   0.0800 
 21 H       -4.4490     4.9440     0.6990 H     1 <1>   0.1500 
 22 H       -7.7630     2.3030    -1.7810 H     1 <1>   0.1500 
 23 H       -4.6730    -0.4760    -2.1050 H     1 <1>   0.0800 
 24 H       -4.0250     0.1400    -0.5920 H     1 <1>   0.0800 
 25 H       -3.9070     1.1110    -2.0680 H     1 <1>   0.0800 
 26 H       -9.1860     4.1680    -1.9650 H     1 <1>   0.0800 
 27 H       -8.3970     5.7390    -1.9630 H     1 <1>   0.0800 
 28 H       -6.1150     8.1560     0.5290 H     1 <1>   0.0800 
 29 H       -4.8560     7.1620    -0.1920 H     1 <1>   0.0800 
 30 H       -5.3710     6.8770     1.4800 H     1 <1>   0.0800 
 31 H       -8.6750     5.7890     0.4100 H     1 <1>   0.4500 
 32 H       -9.5350     4.3920     0.4070 H     1 <1>   0.4500 
 33 H      -11.2510     5.4140    -0.9870 H     1 <1>   0.0800 
 34 H      -10.3700     6.9290    -0.8490 H     1 <1>   0.0800 
 35 H      -10.6120     6.8860     1.5990 H     1 <1>   0.1500 
 36 H      -12.7140     5.8000     2.4200 H     1 <1>   0.1500 
 37 H      -12.9120     4.9330     0.8790 H     1 <1>   0.1500 
@<TRIPOS>BOND
  1   1   2  1   
  2   1   3  1   
  3   2   4  ar  
  4   2   5  ar  
  5   3  18  1   
  6   3  19  1   
  7   3  20  1   
  8   4   6  1   
  9   4   7  ar  
 10   5   8  ar  
 11   5  21  1   
 12   6   9  1   
 13   7  10  ar  
 14   7  22  1   
 15   8  10  ar  
 16   8  11  1   
 17   9  23  1   
 18   9  24  1   
 19   9  25  1   
 20  10  12  1   
 21  11  13  1   
 22  12  14  1   
 23  12  26  1   
 24  12  27  1   
 25  13  28  1   
 26  13  29  1   
 27  13  30  1   
 28  14  15  1   
 29  14  31  1   
 30  14  32  1   
 31  15  16  1   
 32  15  33  1   
 33  15  34  1   
 34  16  17  2   
 35  16  35  1   
 36  17  36  1   
 37  17  37  1   
@<TRIPOS>SUBSTRUCTURE
  1 ****  10 GROUP 4 **** **** 0

# MOE 2024.06 (io_trps.svl 2023.06)
