@<TRIPOS>MOLECULE
NONAME
44 46 1 0 0 
SMALL
USER_CHARGES


@<TRIPOS>ATOM
  1 S        0.0720     0.4910     1.0760 S.3   1 <1>  -0.2860 
  2 C        0.9800    -1.0300     1.3810 C.2   1 <1>   0.2420 
  3 C       -1.3920     0.3550     2.2120 C.3   1 <1>   0.1310 
  4 N        0.5620    -1.9430     2.1670 N.2   1 <1>  -0.3380 
  5 N        2.1410    -1.3510     0.8310 N.pl3 1 <1>   0.3140 
  6 C       -2.4470     1.3920     1.8540 C.2   1 <1>   0.5690 
  7 N        1.5000    -2.8840     2.1110 N.2   1 <1>   0.0000 
  8 N        2.4520    -2.5420     1.3120 N.2   1 <1>  -0.4180 
  9 C        3.0240    -0.6410    -0.1330 C.3   1 <1>   0.1760 
 10 O       -2.6320     2.2810     2.6530 O.2   1 <1>  -0.5700 
 11 N       -3.1690     1.3100     0.6860 N.am  1 <1>  -0.6600 
 12 C        3.5590     0.6820     0.4470 C.3   1 <1>  -0.1600 
 13 C        2.3340    -0.4290    -1.4940 C.3   1 <1>  -0.1600 
 14 C       -3.0100     0.2040    -0.3110 C.3   1 <1>   0.1400 
 15 C       -4.1480     2.3880     0.3460 C.3   1 <1>   0.1400 
 16 C        4.4920     1.3820    -0.5510 C.3   1 <1>  -0.1600 
 17 C        3.2730     0.2760    -2.4830 C.3   1 <1>  -0.1600 
 18 C       -4.3060    -0.0040    -1.1000 C.3   1 <1>  -0.1600 
 19 C       -4.2710     2.5540    -1.1720 C.3   1 <1>  -0.1600 
 20 C        3.7980     1.5970    -1.9030 C.3   1 <1>  -0.1600 
 21 C       -4.7340     1.2610    -1.8660 C.3   1 <1>  -0.1600 
 22 H       -1.0290     0.5170     3.2090 H     1 <1>   0.0800 
 23 H       -1.7870    -0.6400     2.1320 H     1 <1>   0.0800 
 24 H        3.8710    -1.2830    -0.3010 H     1 <1>   0.0800 
 25 H        4.0990     0.4840     1.3570 H     1 <1>   0.0800 
 26 H        2.7430     1.3450     0.6730 H     1 <1>   0.0800 
 27 H        1.4520     0.1740    -1.3740 H     1 <1>   0.0800 
 28 H        2.0420    -1.3820    -1.9030 H     1 <1>   0.0800 
 29 H       -2.7550    -0.7140     0.1860 H     1 <1>   0.0800 
 30 H       -2.2130     0.4580    -0.9890 H     1 <1>   0.0800 
 31 H       -3.8300     3.3220     0.7800 H     1 <1>   0.0800 
 32 H       -5.1060     2.1340     0.7660 H     1 <1>   0.0800 
 33 H        5.3770     0.7850    -0.6960 H     1 <1>   0.0800 
 34 H        4.8010     2.3320    -0.1500 H     1 <1>   0.0800 
 35 H        2.7490     0.4710    -3.4030 H     1 <1>   0.0800 
 36 H        4.1060    -0.3680    -2.7110 H     1 <1>   0.0800 
 37 H       -5.0800    -0.2840    -0.4070 H     1 <1>   0.0800 
 38 H       -4.1830    -0.8180    -1.7920 H     1 <1>   0.0800 
 39 H       -3.3090     2.8460    -1.5550 H     1 <1>   0.0800 
 40 H       -4.9610     3.3490    -1.3940 H     1 <1>   0.0800 
 41 H        4.4910     2.0430    -2.5960 H     1 <1>   0.0800 
 42 H        2.9770     2.2820    -1.7770 H     1 <1>   0.0800 
 43 H       -5.8070     1.2620    -1.9560 H     1 <1>   0.0800 
 44 H       -4.3240     1.2390    -2.8610 H     1 <1>   0.0800 
@<TRIPOS>BOND
  1   1   2  1   
  2   1   3  1   
  3   2   4  2   
  4   2   5  1   
  5   3   6  1   
  6   3  22  1   
  7   3  23  1   
  8   4   7  1   
  9   5   8  1   
 10   5   9  1   
 11   6  10  2   
 12   6  11  am  
 13   7   8  2   
 14   9  12  1   
 15   9  13  1   
 16   9  24  1   
 17  11  14  1   
 18  11  15  1   
 19  12  16  1   
 20  12  25  1   
 21  12  26  1   
 22  13  17  1   
 23  13  27  1   
 24  13  28  1   
 25  14  18  1   
 26  14  29  1   
 27  14  30  1   
 28  15  19  1   
 29  15  31  1   
 30  15  32  1   
 31  16  20  1   
 32  16  33  1   
 33  16  34  1   
 34  17  20  1   
 35  17  35  1   
 36  17  36  1   
 37  18  21  1   
 38  18  37  1   
 39  18  38  1   
 40  19  21  1   
 41  19  39  1   
 42  19  40  1   
 43  20  41  1   
 44  20  42  1   
 45  21  43  1   
 46  21  44  1   
@<TRIPOS>SUBSTRUCTURE
  1 ****   1 GROUP 4 **** **** 0

# MOE 2024.06 (io_trps.svl 2023.06)
