@<TRIPOS>MOLECULE
NONAME
45 46 1 0 0 
SMALL
USER_CHARGES


@<TRIPOS>ATOM
  1 O        0.2610    -0.2030    -0.5820 O.3   1 <1>  -0.3630 
  2 C       -1.0010    -0.6130    -0.2630 C.ar  1 <1>   0.0830 
  3 C        1.4040    -0.9170    -0.1840 C.3   1 <1>   0.1200 
  4 C       -1.3910    -1.9220     0.0780 C.ar  1 <1>   0.0830 
  5 C       -1.9530     0.3930    -0.2940 C.ar  1 <1>  -0.1500 
  6 C        2.6120     0.0060    -0.3520 C.3   1 <1>  -0.1600 
  7 O       -0.4750    -2.9350     0.0790 O.3   1 <1>  -0.3630 
  8 C       -2.7270    -2.1640     0.3980 C.ar  1 <1>  -0.1500 
  9 C       -3.2750     0.1380     0.0190 C.ar  1 <1>  -0.1500 
 10 C        3.9150    -0.6970     0.0530 C.3   1 <1>  -0.1600 
 11 C       -0.8550    -4.2890     0.1630 C.3   1 <1>   0.1200 
 12 C       -3.6600    -1.1420     0.3690 C.ar  1 <1>  -0.1500 
 13 C        5.1050     0.2480    -0.1130 C.3   1 <1>   0.3430 
 14 C        0.3970    -5.1410    -0.0220 C.3   1 <1>  -0.2400 
 15 N        6.3570    -0.4110     0.3490 N.4   1 <1>  -0.9590 
 16 C        7.4980     0.5320     0.4410 C.3   1 <1>   0.3430 
 17 C        6.8210    -1.5190    -0.5240 C.3   1 <1>   0.3430 
 18 C        8.7280    -0.3650     0.4630 C.3   1 <1>  -0.1600 
 19 C        8.2920    -1.6890    -0.1720 C.3   1 <1>  -0.1600 
 20 H        1.4930    -1.7850    -0.8140 H     1 <1>   0.0800 
 21 H        1.2800    -1.2110     0.8440 H     1 <1>   0.0800 
 22 H       -1.6490     1.3880    -0.5650 H     1 <1>   0.1500 
 23 H        2.4610     0.8780     0.2610 H     1 <1>   0.0800 
 24 H        2.6660     0.3130    -1.3820 H     1 <1>   0.0800 
 25 H       -3.0690    -3.1410     0.6760 H     1 <1>   0.1500 
 26 H       -3.9990     0.9330    -0.0080 H     1 <1>   0.1500 
 27 H        4.0420    -1.5680    -0.5660 H     1 <1>   0.0800 
 28 H        3.8380    -1.0070     1.0810 H     1 <1>   0.0800 
 29 H       -1.5720    -4.4920    -0.6140 H     1 <1>   0.0800 
 30 H       -1.2910    -4.4620     1.1320 H     1 <1>   0.0800 
 31 H       -4.6880    -1.3440     0.6170 H     1 <1>   0.1500 
 32 H        4.9280     1.1370     0.4730 H     1 <1>   0.0800 
 33 H        5.2000     0.5410    -1.1460 H     1 <1>   0.0800 
 34 H        0.8340    -4.9490    -0.9850 H     1 <1>   0.0800 
 35 H        0.1380    -6.1830     0.0360 H     1 <1>   0.0800 
 36 H        1.1110    -4.9220     0.7510 H     1 <1>   0.0800 
 37 H        6.2030    -0.7980     1.2890 H     1 <1>   0.4500 
 38 H        7.4380     1.1510     1.3230 H     1 <1>   0.0800 
 39 H        7.5260     1.1580    -0.4360 H     1 <1>   0.0800 
 40 H        6.7290    -1.2310    -1.5590 H     1 <1>   0.0800 
 41 H        6.2610    -2.4250    -0.3530 H     1 <1>   0.0800 
 42 H        9.0460    -0.5220     1.4790 H     1 <1>   0.0800 
 43 H        9.5370     0.0930    -0.0800 H     1 <1>   0.0800 
 44 H        8.8650    -1.9170    -1.0550 H     1 <1>   0.0800 
 45 H        8.4090    -2.4980     0.5280 H     1 <1>   0.0800 
@<TRIPOS>BOND
  1   1   2  1   
  2   1   3  1   
  3   2   4  ar  
  4   2   5  ar  
  5   3   6  1   
  6   3  20  1   
  7   3  21  1   
  8   4   7  1   
  9   4   8  ar  
 10   5   9  ar  
 11   5  22  1   
 12   6  10  1   
 13   6  23  1   
 14   6  24  1   
 15   7  11  1   
 16   8  12  ar  
 17   8  25  1   
 18   9  12  ar  
 19   9  26  1   
 20  10  13  1   
 21  10  27  1   
 22  10  28  1   
 23  11  14  1   
 24  11  29  1   
 25  11  30  1   
 26  12  31  1   
 27  13  15  1   
 28  13  32  1   
 29  13  33  1   
 30  14  34  1   
 31  14  35  1   
 32  14  36  1   
 33  15  16  1   
 34  15  17  1   
 35  15  37  1   
 36  16  18  1   
 37  16  38  1   
 38  16  39  1   
 39  17  19  1   
 40  17  40  1   
 41  17  41  1   
 42  18  19  1   
 43  18  42  1   
 44  18  43  1   
 45  19  44  1   
 46  19  45  1   
@<TRIPOS>SUBSTRUCTURE
  1 ****   3 GROUP 4 **** **** 0

# MOE 2024.06 (io_trps.svl 2023.06)
