@<TRIPOS>MOLECULE
NONAME
43 45 1 0 0 
SMALL
USER_CHARGES


@<TRIPOS>ATOM
  1 S        0.5230    -0.5600    -0.4250 S.3   1 <1>  -0.2860 
  2 C       -0.7410     0.2190    -1.4380 C.2   1 <1>   0.2420 
  3 C        2.0840    -0.2460    -1.3840 C.3   1 <1>   0.1310 
  4 N       -0.4890     0.8600    -2.5100 N.2   1 <1>  -0.3380 
  5 N       -2.0390     0.2000    -1.1540 N.pl3 1 <1>   0.5930 
  6 C        3.2910    -0.8060    -0.6450 C.2   1 <1>   0.5690 
  7 N       -1.6800     1.2790    -2.9300 N.2   1 <1>   0.0000 
  8 N       -2.6130     0.8980    -2.1290 N.2   1 <1>  -0.4180 
  9 C       -2.7300    -0.3630    -0.0520 C.ar  1 <1>  -0.0230 
 10 O        3.7040    -1.8810    -1.0160 O.2   1 <1>  -0.5700 
 11 N        3.9000    -0.1080     0.3740 N.am  1 <1>  -0.6600 
 12 C       -2.8720    -1.7730     0.0600 C.ar  1 <1>   0.0000 
 13 C       -3.2620     0.4670     0.9070 C.ar  1 <1>  -0.1500 
 14 C        3.3620     1.1540     0.9570 C.3   1 <1>   0.1400 
 15 C        5.0740    -0.6960     1.0770 C.3   1 <1>   0.1400 
 16 C       -3.5470    -2.2940     1.1890 C.ar  1 <1>   0.0000 
 17 C       -2.3840    -2.6960    -0.8960 C.ar  1 <1>  -0.1500 
 18 C       -3.9340    -0.0540     2.0140 C.ar  1 <1>  -0.1500 
 19 C        4.0330     2.3620     0.3080 C.3   1 <1>  -0.2400 
 20 C        6.3530    -0.4120     0.2930 C.3   1 <1>  -0.2400 
 21 C       -4.0690    -1.4060     2.1500 C.ar  1 <1>  -0.1500 
 22 C       -3.6860    -3.6900     1.3260 C.ar  1 <1>  -0.1500 
 23 C       -2.5350    -4.0450    -0.7380 C.ar  1 <1>  -0.1500 
 24 C       -3.1930    -4.5500     0.3870 C.ar  1 <1>  -0.1500 
 25 H        1.9720    -0.7340    -2.3340 H     1 <1>   0.0800 
 26 H        2.1720     0.8130    -1.5310 H     1 <1>   0.0800 
 27 H       -3.1710     1.5370     0.8200 H     1 <1>   0.1500 
 28 H        3.5320     1.1670     2.0200 H     1 <1>   0.0800 
 29 H        2.2990     1.2100     0.8070 H     1 <1>   0.0800 
 30 H        4.9380    -1.7620     1.1640 H     1 <1>   0.0800 
 31 H        5.1550    -0.2940     2.0720 H     1 <1>   0.0800 
 32 H       -1.8790    -2.3390    -1.7750 H     1 <1>   0.1500 
 33 H       -4.3400     0.6190     2.7500 H     1 <1>   0.1500 
 34 H        5.0760     2.3930     0.5600 H     1 <1>   0.0800 
 35 H        3.5750     3.2650     0.6710 H     1 <1>   0.0800 
 36 H        3.9240     2.3290    -0.7600 H     1 <1>   0.0800 
 37 H        6.2820    -0.8330    -0.6940 H     1 <1>   0.0800 
 38 H        7.1890    -0.8650     0.7940 H     1 <1>   0.0800 
 39 H        6.5330     0.6440     0.2200 H     1 <1>   0.0800 
 40 H       -4.5830    -1.8160     3.0010 H     1 <1>   0.1500 
 41 H       -4.1960    -4.0720     2.1930 H     1 <1>   0.1500 
 42 H       -2.1540    -4.7350    -1.4720 H     1 <1>   0.1500 
 43 H       -3.3020    -5.6150     0.4980 H     1 <1>   0.1500 
@<TRIPOS>BOND
  1   1   2  1   
  2   1   3  1   
  3   2   4  2   
  4   2   5  1   
  5   3   6  1   
  6   3  25  1   
  7   3  26  1   
  8   4   7  1   
  9   5   8  1   
 10   5   9  1   
 11   6  10  2   
 12   6  11  am  
 13   7   8  2   
 14   9  12  ar  
 15   9  13  ar  
 16  11  14  1   
 17  11  15  1   
 18  12  16  ar  
 19  12  17  ar  
 20  13  18  ar  
 21  13  27  1   
 22  14  19  1   
 23  14  28  1   
 24  14  29  1   
 25  15  20  1   
 26  15  30  1   
 27  15  31  1   
 28  16  21  ar  
 29  16  22  ar  
 30  17  23  ar  
 31  17  32  1   
 32  18  21  ar  
 33  18  33  1   
 34  19  34  1   
 35  19  35  1   
 36  19  36  1   
 37  20  37  1   
 38  20  38  1   
 39  20  39  1   
 40  21  40  1   
 41  22  24  ar  
 42  22  41  1   
 43  23  24  ar  
 44  23  42  1   
 45  24  43  1   
@<TRIPOS>SUBSTRUCTURE
  1 ****   1 GROUP 4 **** **** 0

# MOE 2024.06 (io_trps.svl 2023.06)
