@<TRIPOS>MOLECULE
NONAME
45 46 1 0 0 
SMALL
USER_CHARGES


@<TRIPOS>ATOM
  1 O       -0.0650     0.2060     1.0410 O.2   1 <1>  -0.5700 
  2 C       -0.2430     1.3460     0.6690 C.2   1 <1>   0.5690 
  3 N        0.7010     1.9760    -0.1090 N.am  1 <1>  -0.6600 
  4 C       -1.5370     2.0320     1.1500 C.3   1 <1>   0.2610 
  5 C        1.9690     1.3160    -0.4860 C.3   1 <1>   0.1400 
  6 C        0.6280     3.3410    -0.6790 C.3   1 <1>   0.1400 
  7 O       -2.1800     2.7340     0.0930 O.3   1 <1>  -0.3630 
  8 C       -1.2830     3.0080     2.3100 C.3   1 <1>  -0.2400 
  9 C        2.8450     2.4400    -1.0240 C.3   1 <1>  -0.1600 
 10 C        1.8570     3.4630    -1.5740 C.3   1 <1>  -0.1600 
 11 C       -3.5030     3.0370     0.0930 C.ar  1 <1>   0.0820 
 12 C       -4.4020     2.6460     1.0790 C.ar  1 <1>  -0.1500 
 13 C       -3.9660     3.7860    -0.9730 C.ar  1 <1>  -0.1500 
 14 C       -5.7340     3.0090     0.9850 C.ar  1 <1>  -0.1500 
 15 C       -5.2990     4.1460    -1.0610 C.ar  1 <1>  -0.1500 
 16 C       -6.2120     3.7650    -0.0810 C.ar  1 <1>  -0.1440 
 17 C       -7.7090     4.1400    -0.1350 C.3   1 <1>   0.1430 
 18 C       -8.0780     4.9630     1.1080 C.3   1 <1>  -0.2400 
 19 C       -8.0810     4.9760    -1.3710 C.3   1 <1>  -0.2400 
 20 C       -8.5580     2.8590    -0.1690 C.3   1 <1>  -0.2400 
 21 H       -2.1950     1.2450     1.4670 H     1 <1>   0.0800 
 22 H        1.7680     0.5890    -1.2540 H     1 <1>   0.0800 
 23 H        2.4180     0.8290     0.3640 H     1 <1>   0.0800 
 24 H        0.6720     4.0650     0.1160 H     1 <1>   0.0800 
 25 H       -0.2730     3.4780    -1.2510 H     1 <1>   0.0800 
 26 H       -0.6340     3.8040     1.9970 H     1 <1>   0.0800 
 27 H       -0.8090     2.4820     3.1200 H     1 <1>   0.0800 
 28 H       -2.2050     3.4240     2.6710 H     1 <1>   0.0800 
 29 H        3.5330     2.0860    -1.7720 H     1 <1>   0.0800 
 30 H        3.4020     2.8680    -0.2090 H     1 <1>   0.0800 
 31 H        2.2550     4.4620    -1.5720 H     1 <1>   0.0800 
 32 H        1.5810     3.1980    -2.5800 H     1 <1>   0.0800 
 33 H       -4.0940     2.0620     1.9240 H     1 <1>   0.1500 
 34 H       -3.2740     4.0870    -1.7380 H     1 <1>   0.1500 
 35 H       -6.4030     2.6910     1.7640 H     1 <1>   0.1500 
 36 H       -5.5980     4.7280    -1.9120 H     1 <1>   0.1500 
 37 H       -7.9280     4.3970     2.0090 H     1 <1>   0.0800 
 38 H       -9.1090     5.2650     1.0720 H     1 <1>   0.0800 
 39 H       -7.4640     5.8450     1.1590 H     1 <1>   0.0800 
 40 H       -7.5320     5.9000    -1.3820 H     1 <1>   0.0800 
 41 H       -9.1300     5.2130    -1.3660 H     1 <1>   0.0800 
 42 H       -7.8690     4.4300    -2.2740 H     1 <1>   0.0800 
 43 H       -8.4130     2.2730     0.7190 H     1 <1>   0.0800 
 44 H       -8.2810     2.2590    -1.0180 H     1 <1>   0.0800 
 45 H       -9.6030     3.0980    -0.2440 H     1 <1>   0.0800 
@<TRIPOS>BOND
  1   1   2  2   
  2   2   3  am  
  3   2   4  1   
  4   3   5  1   
  5   3   6  1   
  6   4   7  1   
  7   4   8  1   
  8   4  21  1   
  9   5   9  1   
 10   5  22  1   
 11   5  23  1   
 12   6  10  1   
 13   6  24  1   
 14   6  25  1   
 15   7  11  1   
 16   8  26  1   
 17   8  27  1   
 18   8  28  1   
 19   9  10  1   
 20   9  29  1   
 21   9  30  1   
 22  10  31  1   
 23  10  32  1   
 24  11  12  ar  
 25  11  13  ar  
 26  12  14  ar  
 27  12  33  1   
 28  13  15  ar  
 29  13  34  1   
 30  14  16  ar  
 31  14  35  1   
 32  15  16  ar  
 33  15  36  1   
 34  16  17  1   
 35  17  18  1   
 36  17  19  1   
 37  17  20  1   
 38  18  37  1   
 39  18  38  1   
 40  18  39  1   
 41  19  40  1   
 42  19  41  1   
 43  19  42  1   
 44  20  43  1   
 45  20  44  1   
 46  20  45  1   
@<TRIPOS>SUBSTRUCTURE
  1 ****  11 GROUP 4 **** **** 0

# MOE 2024.06 (io_trps.svl 2023.06)
