@<TRIPOS>MOLECULE
NONAME
41 42 1 0 0 
SMALL
USER_CHARGES


@<TRIPOS>ATOM
  1 O       -1.1650     1.2200     1.0560 O.2   1 <1>  -0.5700 
  2 C       -1.1200     2.0640     0.1820 C.2   1 <1>   0.6900 
  3 N       -1.9560     1.9760    -0.8910 N.am  1 <1>  -0.6600 
  4 N       -0.2930     3.1210     0.2760 N.am  1 <1>  -0.7300 
  5 C       -2.4760     0.6280    -1.2600 C.3   1 <1>   0.1400 
  6 C       -2.9500     3.0640    -1.0940 C.3   1 <1>   0.1400 
  7 C        0.7830     3.2260     1.2730 C.3   1 <1>   0.2840 
  8 C       -3.7450     0.3180    -0.4440 C.3   1 <1>   0.3430 
  9 C       -4.2330     2.7550    -0.2930 C.3   1 <1>   0.3430 
 10 C        1.8720     4.0980     0.6770 C.ar  1 <1>  -0.1440 
 11 N       -4.8000     1.3880    -0.6080 N.4   1 <1>  -0.9590 
 12 C        1.9210     5.4550     0.9580 C.ar  1 <1>  -0.1500 
 13 C        2.8230     3.5420    -0.1660 C.ar  1 <1>  -0.1500 
 14 C       -5.9790     1.0560     0.2590 C.3   1 <1>   0.3430 
 15 C        2.9110     6.2480     0.4030 C.ar  1 <1>  -0.1500 
 16 C        3.8120     4.3350    -0.7220 C.ar  1 <1>  -0.1500 
 17 C       -7.1990     1.9460    -0.0210 C.3   1 <1>   0.1200 
 18 C        3.8560     5.6880    -0.4370 C.ar  1 <1>  -0.1500 
 19 O       -8.2320     1.5030     0.7830 O.3   1 <1>  -0.6800 
 20 H       -0.0870     3.6310    -0.5820 H     1 <1>   0.3700 
 21 H       -1.7260    -0.1170    -1.0520 H     1 <1>   0.0800 
 22 H       -2.6870     0.5950    -2.3150 H     1 <1>   0.0800 
 23 H       -3.1760     3.1560    -2.1420 H     1 <1>   0.0800 
 24 H       -2.5430     4.0040    -0.7610 H     1 <1>   0.0800 
 25 H        1.1720     2.2490     1.5060 H     1 <1>   0.0800 
 26 H        0.3960     3.6650     2.1770 H     1 <1>   0.0800 
 27 H       -3.4610     0.2430     0.5940 H     1 <1>   0.0800 
 28 H       -4.1370    -0.6380    -0.7490 H     1 <1>   0.0800 
 29 H       -4.9670     3.5160    -0.5010 H     1 <1>   0.0800 
 30 H       -3.9910     2.8080     0.7560 H     1 <1>   0.0800 
 31 H       -5.0970     1.3750    -1.5920 H     1 <1>   0.4500 
 32 H        1.1900     5.9020     1.6100 H     1 <1>   0.1500 
 33 H        2.7960     2.4910    -0.3940 H     1 <1>   0.1500 
 34 H       -5.7050     1.1580     1.2960 H     1 <1>   0.0800 
 35 H       -6.2700     0.0330     0.0880 H     1 <1>   0.0800 
 36 H        2.9460     7.3000     0.6260 H     1 <1>   0.1500 
 37 H        4.5480     3.8990    -1.3750 H     1 <1>   0.1500 
 38 H       -7.5170     1.8580    -1.0460 H     1 <1>   0.0800 
 39 H       -7.0050     2.9740     0.2280 H     1 <1>   0.0800 
 40 H        4.6260     6.3040    -0.8690 H     1 <1>   0.1500 
 41 H       -9.0510     2.0290     0.6530 H     1 <1>   0.4000 
@<TRIPOS>BOND
  1   1   2  2   
  2   2   3  am  
  3   2   4  am  
  4   3   5  1   
  5   3   6  1   
  6   4   7  1   
  7   4  20  1   
  8   5   8  1   
  9   5  21  1   
 10   5  22  1   
 11   6   9  1   
 12   6  23  1   
 13   6  24  1   
 14   7  10  1   
 15   7  25  1   
 16   7  26  1   
 17   8  11  1   
 18   8  27  1   
 19   8  28  1   
 20   9  11  1   
 21   9  29  1   
 22   9  30  1   
 23  10  12  ar  
 24  10  13  ar  
 25  11  14  1   
 26  11  31  1   
 27  12  15  ar  
 28  12  32  1   
 29  13  16  ar  
 30  13  33  1   
 31  14  17  1   
 32  14  34  1   
 33  14  35  1   
 34  15  18  ar  
 35  15  36  1   
 36  16  18  ar  
 37  16  37  1   
 38  17  19  1   
 39  17  38  1   
 40  17  39  1   
 41  18  40  1   
 42  19  41  1   
@<TRIPOS>SUBSTRUCTURE
  1 ****   2 GROUP 4 **** **** 0

# MOE 2024.06 (io_trps.svl 2023.06)
