@<TRIPOS>MOLECULE
NONAME
27 27 1 0 0 
SMALL
USER_CHARGES


@<TRIPOS>ATOM
  1 S        0.2440    -0.6620    -0.1280 S.o2  1 <1>   1.2570 
  2 O       -0.0340    -1.9990    -0.6010 O.2   1 <1>  -0.6500 
  3 O        1.1830     0.1480    -0.8720 O.2   1 <1>  -0.6500 
  4 C       -1.3100     0.2610    -0.0280 C.2   1 <1>  -0.0220 
  5 C        0.7820    -0.7900     1.5850 C.3   1 <1>  -0.0550 
  6 S       -2.8070    -0.6640    -0.0980 S.3   1 <1>  -0.0800 
  7 C       -1.5840     1.5790     0.1110 C.2   1 <1>  -0.0630 
  8 C        2.1170    -1.5310     1.7720 C.3   1 <1>  -0.2400 
  9 C       -3.7810     0.7790     0.0460 C.2   1 <1>  -0.1100 
 10 S       -0.3670     2.9100     0.2480 S.o2  1 <1>   1.2580 
 11 C       -2.9930     1.8620     0.1450 C.2   1 <1>  -0.1500 
 12 O        0.7200     2.4180     1.0640 O.2   1 <1>  -0.6500 
 13 O       -1.0650     4.1050     0.6660 O.2   1 <1>  -0.6500 
 14 C        0.1980     3.1740    -1.4420 C.3   1 <1>  -0.0550 
 15 C        1.2750     4.2640    -1.5810 C.3   1 <1>  -0.2400 
 16 H        0.0280    -1.3060     2.1490 H     1 <1>   0.0800 
 17 H        0.8840     0.1890     2.0090 H     1 <1>   0.0800 
 18 H        2.0440    -2.5340     1.3880 H     1 <1>   0.0800 
 19 H        2.3760    -1.5770     2.8150 H     1 <1>   0.0800 
 20 H        2.9020    -1.0170     1.2440 H     1 <1>   0.0800 
 21 H       -4.8520     0.6610     0.0420 H     1 <1>   0.1500 
 22 H       -3.3480     2.8750     0.2510 H     1 <1>   0.1500 
 23 H       -0.6420     3.4520    -2.0500 H     1 <1>   0.0800 
 24 H        0.5940     2.2640    -1.8440 H     1 <1>   0.0800 
 25 H        0.9020     5.2070    -1.2200 H     1 <1>   0.0800 
 26 H        1.5610     4.3750    -2.6120 H     1 <1>   0.0800 
 27 H        2.1470     3.9960    -1.0080 H     1 <1>   0.0800 
@<TRIPOS>BOND
  1   1   2  2   
  2   1   3  2   
  3   1   4  1   
  4   1   5  1   
  5   4   6  1   
  6   4   7  2   
  7   5   8  1   
  8   5  16  1   
  9   5  17  1   
 10   6   9  1   
 11   7  10  1   
 12   7  11  1   
 13   8  18  1   
 14   8  19  1   
 15   8  20  1   
 16   9  11  2   
 17   9  21  1   
 18  10  12  2   
 19  10  13  2   
 20  10  14  1   
 21  11  22  1   
 22  14  15  1   
 23  14  23  1   
 24  14  24  1   
 25  15  25  1   
 26  15  26  1   
 27  15  27  1   
@<TRIPOS>SUBSTRUCTURE
  1 ****   4 GROUP 4 **** **** 0

# MOE 2024.06 (io_trps.svl 2023.06)
