@<TRIPOS>MOLECULE
NONAME
53 57 1 0 0 
SMALL
USER_CHARGES


@<TRIPOS>ATOM
  1 O        0.9440    -0.7690    -0.0320 O.2   1 <1>  -0.5700 
  2 C       -0.1820    -1.0730     0.2800 C.2   1 <1>   0.5770 
  3 N       -0.9950    -0.1580     0.9130 N.am  1 <1>  -0.6600 
  4 C       -0.6910    -2.4760    -0.0560 C.3   1 <1>   0.0530 
  5 C       -0.4770     1.1900     1.2950 C.3   1 <1>   0.1400 
  6 C       -2.4530    -0.3330     1.1790 C.3   1 <1>   0.1400 
  7 C        0.3090    -3.4540    -0.7380 C.3   1 <1>   0.0000 
  8 C       -1.5250    -2.5540    -1.3640 C.3   1 <1>   0.0000 
  9 C       -1.2890     2.2950     0.6000 C.3   1 <1>   0.3430 
 10 C       -3.2630     0.7930     0.5030 C.3   1 <1>   0.3430 
 11 C       -0.8840    -3.9470    -1.5950 C.3   1 <1>   0.0000 
 12 N       -2.7760     2.1790     0.8700 N.4   1 <1>  -0.9590 
 13 C       -3.5870     3.2880     0.2620 C.3   1 <1>   0.5030 
 14 C       -3.0780     4.6520     0.7890 C.3   1 <1>  -0.1600 
 15 C       -5.0690     3.1370     0.6840 C.3   1 <1>  -0.1600 
 16 C       -3.5030     3.2850    -1.2810 C.3   1 <1>  -0.1600 
 17 C       -3.9180     5.8070     0.2140 C.3   1 <1>  -0.0800 
 18 C       -5.9200     4.2840     0.1080 C.3   1 <1>  -0.0800 
 19 C       -4.3480     4.4360    -1.8630 C.3   1 <1>  -0.0800 
 20 C       -5.3860     5.6260     0.6350 C.3   1 <1>  -0.1600 
 21 C       -3.8230     5.7790    -1.3230 C.3   1 <1>  -0.1600 
 22 C       -5.8150     4.2630    -1.4280 C.3   1 <1>  -0.1600 
 23 H       -1.1930    -2.9500     0.7720 H     1 <1>   0.0000 
 24 H        0.5590     1.2960     1.0210 H     1 <1>   0.0800 
 25 H       -0.5360     1.3050     2.3630 H     1 <1>   0.0800 
 26 H       -2.6240    -0.3150     2.2420 H     1 <1>   0.0800 
 27 H       -2.8040    -1.2800     0.8130 H     1 <1>   0.0800 
 28 H        0.7060    -4.2030    -0.0760 H     1 <1>   0.0000 
 29 H        1.0610    -2.9710    -1.3390 H     1 <1>   0.0000 
 30 H       -1.2210    -1.8310    -2.1020 H     1 <1>   0.0000 
 31 H       -2.5880    -2.5870    -1.2060 H     1 <1>   0.0000 
 32 H       -1.1040     2.2310    -0.4590 H     1 <1>   0.0800 
 33 H       -0.9210     3.2460     0.9430 H     1 <1>   0.0800 
 34 H       -4.2960     0.6770     0.7840 H     1 <1>   0.0800 
 35 H       -3.1970     0.6590    -0.5640 H     1 <1>   0.0800 
 36 H       -1.4360    -4.7420    -1.1230 H     1 <1>   0.0000 
 37 H       -0.6320    -4.1450    -2.6220 H     1 <1>   0.0000 
 38 H       -2.9000     2.2820     1.8820 H     1 <1>   0.4500 
 39 H       -2.0600     4.8280     0.4970 H     1 <1>   0.0800 
 40 H       -3.1350     4.6810     1.8630 H     1 <1>   0.0800 
 41 H       -5.1540     3.1450     1.7560 H     1 <1>   0.0800 
 42 H       -5.4880     2.2200     0.3160 H     1 <1>   0.0800 
 43 H       -2.4870     3.4140    -1.6090 H     1 <1>   0.0800 
 44 H       -3.8730     2.3590    -1.6820 H     1 <1>   0.0800 
 45 H       -3.5500     6.7510     0.5830 H     1 <1>   0.0800 
 46 H       -6.9500     4.1640     0.4030 H     1 <1>   0.0800 
 47 H       -4.2870     4.4300    -2.9390 H     1 <1>   0.0800 
 48 H       -5.4720     5.6650     1.7070 H     1 <1>   0.0800 
 49 H       -5.9790     6.4330     0.2370 H     1 <1>   0.0800 
 50 H       -2.8030     5.9290    -1.6340 H     1 <1>   0.0800 
 51 H       -4.4040     6.5870    -1.7360 H     1 <1>   0.0800 
 52 H       -6.4110     5.0600    -1.8420 H     1 <1>   0.0800 
 53 H       -6.2090     3.3380    -1.8140 H     1 <1>   0.0800 
@<TRIPOS>BOND
  1   1   2  2   
  2   2   3  am  
  3   2   4  1   
  4   3   5  1   
  5   3   6  1   
  6   4   7  1   
  7   4   8  1   
  8   4  23  1   
  9   5   9  1   
 10   5  24  1   
 11   5  25  1   
 12   6  10  1   
 13   6  26  1   
 14   6  27  1   
 15   7  11  1   
 16   7  28  1   
 17   7  29  1   
 18   8  11  1   
 19   8  30  1   
 20   8  31  1   
 21   9  12  1   
 22   9  32  1   
 23   9  33  1   
 24  10  12  1   
 25  10  34  1   
 26  10  35  1   
 27  11  36  1   
 28  11  37  1   
 29  12  13  1   
 30  12  38  1   
 31  13  14  1   
 32  13  15  1   
 33  13  16  1   
 34  14  17  1   
 35  14  39  1   
 36  14  40  1   
 37  15  18  1   
 38  15  41  1   
 39  15  42  1   
 40  16  19  1   
 41  16  43  1   
 42  16  44  1   
 43  17  20  1   
 44  17  21  1   
 45  17  45  1   
 46  18  20  1   
 47  18  22  1   
 48  18  46  1   
 49  19  21  1   
 50  19  22  1   
 51  19  47  1   
 52  20  48  1   
 53  20  49  1   
 54  21  50  1   
 55  21  51  1   
 56  22  52  1   
 57  22  53  1   
@<TRIPOS>SUBSTRUCTURE
  1 ****  12 GROUP 4 **** **** 0

# MOE 2024.06 (io_trps.svl 2023.06)
