@<TRIPOS>MOLECULE
NONAME
40 41 1 0 0 
SMALL
USER_CHARGES


@<TRIPOS>ATOM
  1 CL      -0.4530    -0.1470    -2.2470 Cl    1 <1>  -0.1770 
  2 C       -2.0590    -0.0200    -1.5750 C.ar  1 <1>   0.1770 
  3 C       -2.6820    -1.1520    -1.0860 C.ar  1 <1>  -0.1500 
  4 C       -2.6860     1.2110    -1.5420 C.ar  1 <1>  -0.1500 
  5 C       -3.9560    -1.0470    -0.5550 C.ar  1 <1>  -0.1500 
  6 C       -3.9600     1.3070    -1.0080 C.ar  1 <1>  -0.1500 
  7 C       -4.6130     0.1820    -0.5070 C.ar  1 <1>   0.1170 
  8 N       -5.9140     0.2920     0.0320 N.am  1 <1>  -0.2370 
  9 C       -6.3690    -0.2880     1.1960 C.2   1 <1>   0.6900 
 10 C       -6.9730     0.9540    -0.5420 C.2   1 <1>   0.5690 
 11 O       -5.7440    -1.0540     1.8920 O.2   1 <1>  -0.5700 
 12 N       -7.6390     0.0550     1.4650 N.am  1 <1>  -0.7300 
 13 O       -6.9800     1.4730    -1.6350 O.2   1 <1>  -0.5700 
 14 C       -8.1990     0.8650     0.3680 C.3   1 <1>   0.6610 
 15 N       -9.2720     0.0290    -0.2640 N.am  1 <1>  -0.7300 
 16 C       -8.5920     2.3460     0.7340 C.3   1 <1>   1.0200 
 17 C      -10.3200    -0.5370     0.3840 C.2   1 <1>   0.5690 
 18 F       -7.5460     3.0820     1.1080 F     1 <1>  -0.3400 
 19 F       -9.4630     2.4310     1.7350 F     1 <1>  -0.3400 
 20 F       -9.1530     2.9990    -0.2810 F     1 <1>  -0.3400 
 21 O      -10.3680    -0.5170     1.5900 O.2   1 <1>  -0.5700 
 22 C      -11.4600    -1.2130    -0.4180 C.3   1 <1>   0.0610 
 23 C      -11.5480    -2.7030    -0.0410 C.3   1 <1>  -0.2400 
 24 C      -12.8030    -0.5390    -0.0810 C.3   1 <1>  -0.2400 
 25 C      -11.2560    -1.1200    -1.9470 C.3   1 <1>  -0.2400 
 26 H       -2.1740    -2.0990    -1.1210 H     1 <1>   0.1500 
 27 H       -2.1810     2.0770    -1.9300 H     1 <1>   0.1500 
 28 H       -4.4400    -1.9300    -0.1710 H     1 <1>   0.1500 
 29 H       -4.4480     2.2660    -0.9850 H     1 <1>   0.1500 
 30 H       -8.2840    -0.5050     2.0350 H     1 <1>   0.3700 
 31 H       -9.2900     0.0730    -1.2850 H     1 <1>   0.3700 
 32 H      -10.6240    -3.2030    -0.2700 H     1 <1>   0.0800 
 33 H      -12.3440    -3.1890    -0.5770 H     1 <1>   0.0800 
 34 H      -11.7350    -2.8100     1.0140 H     1 <1>   0.0800 
 35 H      -13.0070    -0.6210     0.9730 H     1 <1>   0.0800 
 36 H      -13.6120    -1.0020    -0.6180 H     1 <1>   0.0800 
 37 H      -12.7750     0.5050    -0.3350 H     1 <1>   0.0800 
 38 H      -10.3440    -1.6110    -2.2410 H     1 <1>   0.0800 
 39 H      -11.2220    -0.0940    -2.2670 H     1 <1>   0.0800 
 40 H      -12.0690    -1.6000    -2.4620 H     1 <1>   0.0800 
@<TRIPOS>BOND
  1   1   2  1   
  2   2   3  ar  
  3   2   4  ar  
  4   3   5  ar  
  5   3  26  1   
  6   4   6  ar  
  7   4  27  1   
  8   5   7  ar  
  9   5  28  1   
 10   6   7  ar  
 11   6  29  1   
 12   7   8  1   
 13   8   9  am  
 14   8  10  am  
 15   9  11  2   
 16   9  12  am  
 17  10  13  2   
 18  10  14  1   
 19  12  14  1   
 20  12  30  1   
 21  14  15  1   
 22  14  16  1   
 23  15  17  am  
 24  15  31  1   
 25  16  18  1   
 26  16  19  1   
 27  16  20  1   
 28  17  21  2   
 29  17  22  1   
 30  22  23  1   
 31  22  24  1   
 32  22  25  1   
 33  23  32  1   
 34  23  33  1   
 35  23  34  1   
 36  24  35  1   
 37  24  36  1   
 38  24  37  1   
 39  25  38  1   
 40  25  39  1   
 41  25  40  1   
@<TRIPOS>SUBSTRUCTURE
  1 ****  10 GROUP 4 **** **** 0

# MOE 2024.06 (io_trps.svl 2023.06)
