@<TRIPOS>MOLECULE
NONAME
40 41 1 0 0 
SMALL
USER_CHARGES


@<TRIPOS>ATOM
  1 BR       1.2210     0.3620    -0.6860 Br    1 <1>  -0.1110 
  2 C        0.5490    -1.4330    -0.4620 C.ar  1 <1>   0.1110 
  3 C        1.2530    -2.3530     0.2960 C.ar  1 <1>   0.0830 
  4 C       -0.6470    -1.7530    -1.0750 C.ar  1 <1>  -0.1500 
  5 O        2.4160    -2.0290     0.8970 O.3   1 <1>  -0.5330 
  6 C        0.7480    -3.6420     0.4370 C.ar  1 <1>   0.0830 
  7 C       -1.1640    -3.0330    -0.9220 C.ar  1 <1>  -0.1430 
  8 O        1.4800    -4.5190     1.1820 O.3   1 <1>  -0.3630 
  9 C       -0.4600    -3.9740    -0.1750 C.ar  1 <1>  -0.1500 
 10 C       -2.4910    -3.3950    -1.5630 C.3   1 <1>   0.4860 
 11 C        1.2040    -5.9030     1.1820 C.3   1 <1>   0.0400 
 12 N       -3.5440    -3.3810    -0.5110 N.4   1 <1>  -0.9590 
 13 C       -4.8110    -3.9910    -1.0290 C.3   1 <1>   0.3430 
 14 C       -3.7670    -2.0050     0.0270 C.3   1 <1>   0.3430 
 15 C       -5.8970    -4.0590     0.0550 C.3   1 <1>  -0.0190 
 16 C       -4.8040    -2.0510     1.1520 C.3   1 <1>  -0.1600 
 17 C       -7.1670    -4.6080    -0.5730 C.2   1 <1>   0.5690 
 18 C       -6.1290    -2.6720     0.6850 C.3   1 <1>  -0.1600 
 19 O       -7.2660    -4.6350    -1.7720 O.2   1 <1>  -0.5700 
 20 N       -8.1670    -5.0630     0.2010 N.am  1 <1>  -0.8000 
 21 H       -1.1490    -0.9980    -1.6570 H     1 <1>   0.1500 
 22 H        2.7740    -2.8030     1.3780 H     1 <1>   0.4500 
 23 H       -0.8540    -4.9680    -0.0700 H     1 <1>   0.1500 
 24 H       -2.4170    -4.3770    -2.0010 H     1 <1>   0.0800 
 25 H       -2.7320    -2.6910    -2.3430 H     1 <1>   0.0800 
 26 H        1.9670    -6.3950     1.7590 H     1 <1>   0.0800 
 27 H        1.2240    -6.2660     0.1700 H     1 <1>   0.0800 
 28 H        0.2440    -6.0720     1.6370 H     1 <1>   0.0800 
 29 H       -3.1940    -3.9530     0.2670 H     1 <1>   0.4500 
 30 H       -4.6240    -4.9870    -1.3980 H     1 <1>   0.0800 
 31 H       -5.1860    -3.4030    -1.8520 H     1 <1>   0.0800 
 32 H       -4.1200    -1.3570    -0.7590 H     1 <1>   0.0800 
 33 H       -2.8430    -1.6010     0.4120 H     1 <1>   0.0800 
 34 H       -5.5800    -4.7510     0.8140 H     1 <1>   0.0800 
 35 H       -4.9860    -1.0470     1.4970 H     1 <1>   0.0800 
 36 H       -4.4060    -2.6060     1.9840 H     1 <1>   0.0800 
 37 H       -6.8060    -2.7540     1.5190 H     1 <1>   0.0800 
 38 H       -6.5900    -2.0230    -0.0430 H     1 <1>   0.0800 
 39 H       -9.0150    -5.4220    -0.2450 H     1 <1>   0.3700 
 40 H       -8.1770    -5.0580     1.2210 H     1 <1>   0.3700 
@<TRIPOS>BOND
  1   1   2  1   
  2   2   3  ar  
  3   2   4  ar  
  4   3   5  1   
  5   3   6  ar  
  6   4   7  ar  
  7   4  21  1   
  8   5  22  1   
  9   6   8  1   
 10   6   9  ar  
 11   7   9  ar  
 12   7  10  1   
 13   8  11  1   
 14   9  23  1   
 15  10  12  1   
 16  10  24  1   
 17  10  25  1   
 18  11  26  1   
 19  11  27  1   
 20  11  28  1   
 21  12  13  1   
 22  12  14  1   
 23  12  29  1   
 24  13  15  1   
 25  13  30  1   
 26  13  31  1   
 27  14  16  1   
 28  14  32  1   
 29  14  33  1   
 30  15  17  1   
 31  15  18  1   
 32  15  34  1   
 33  16  18  1   
 34  16  35  1   
 35  16  36  1   
 36  17  19  2   
 37  17  20  am  
 38  18  37  1   
 39  18  38  1   
 40  20  39  1   
 41  20  40  1   
@<TRIPOS>SUBSTRUCTURE
  1 ****  12 GROUP 4 **** **** 0

# MOE 2024.06 (io_trps.svl 2023.06)
