@<TRIPOS>MOLECULE
NONAME
53 54 1 0 0 
SMALL
USER_CHARGES


@<TRIPOS>ATOM
  1 O       -0.4570    -6.5800    -0.2630 O.3   1 <1>  -0.3630 
  2 C       -1.7230    -6.6610     0.2270 C.ar  1 <1>   0.0830 
  3 C        0.5780    -7.4050     0.2110 C.3   1 <1>   0.1200 
  4 C       -2.7010    -5.8580    -0.3550 C.ar  1 <1>  -0.1440 
  5 C       -2.0690    -7.5100     1.2760 C.ar  1 <1>  -0.1500 
  6 C        1.8350    -7.0750    -0.5960 C.3   1 <1>  -0.1600 
  7 C       -4.0060    -5.9250     0.1100 C.ar  1 <1>  -0.1500 
  8 C       -2.3780    -4.9040    -1.4990 C.3   1 <1>   0.1220 
  9 C       -3.3740    -7.5620     1.7320 C.ar  1 <1>  -0.1500 
 10 C        3.0350    -7.9280    -0.1590 C.3   1 <1>  -0.1600 
 11 C       -4.3500    -6.7730     1.1490 C.ar  1 <1>  -0.1440 
 12 C       -2.6460    -5.5720    -2.8370 C.2   1 <1>  -0.2880 
 13 C        4.2770    -7.5640    -0.9760 C.3   1 <1>   0.3430 
 14 C       -5.7840    -6.8300     1.6440 C.3   1 <1>  -0.0970 
 15 C       -3.4710    -5.1130    -3.7830 C.2   1 <1>  -0.3000 
 16 N        5.4670    -8.3000    -0.4770 N.4   1 <1>  -0.9590 
 17 C        6.7630    -7.7230    -0.9680 C.3   1 <1>   0.3430 
 18 C        5.4450    -9.7850    -0.7100 C.3   1 <1>   0.3430 
 19 C        7.9740    -8.4180    -0.2970 C.3   1 <1>   0.1100 
 20 C        6.6810   -10.4710    -0.0760 C.3   1 <1>   0.1100 
 21 N        7.5610    -9.5050     0.6210 N.3   1 <1>  -0.8100 
 22 C        8.7260   -10.1730     1.2180 C.3   1 <1>   0.0300 
 23 H        0.2830    -8.4310     0.0690 H     1 <1>   0.0800 
 24 H        0.7230    -7.1970     1.2570 H     1 <1>   0.0800 
 25 H       -1.3440    -8.1380     1.7530 H     1 <1>   0.1500 
 26 H        2.0620    -6.0310    -0.4600 H     1 <1>   0.0800 
 27 H        1.6260    -7.2480    -1.6380 H     1 <1>   0.0800 
 28 H       -4.7630    -5.3130    -0.3470 H     1 <1>   0.1500 
 29 H       -1.3500    -4.5920    -1.4540 H     1 <1>   0.0800 
 30 H       -2.9810    -4.0170    -1.4080 H     1 <1>   0.0800 
 31 H       -3.6280    -8.2210     2.5430 H     1 <1>   0.1500 
 32 H        2.7900    -8.9660    -0.2990 H     1 <1>   0.0800 
 33 H        3.2270    -7.7510     0.8850 H     1 <1>   0.0800 
 34 H       -2.0860    -6.4860    -2.9480 H     1 <1>   0.1500 
 35 H        4.4490    -6.5030    -0.8860 H     1 <1>   0.0800 
 36 H        4.1110    -7.7890    -2.0180 H     1 <1>   0.0800 
 37 H       -5.9490    -6.0550     2.3710 H     1 <1>   0.0800 
 38 H       -5.9900    -7.7820     2.0980 H     1 <1>   0.0800 
 39 H       -6.4670    -6.6900     0.8250 H     1 <1>   0.0800 
 40 H       -3.6410    -5.6120    -4.7210 H     1 <1>   0.1500 
 41 H       -4.0440    -4.2060    -3.7020 H     1 <1>   0.1500 
 42 H        5.5430    -8.2140     0.5490 H     1 <1>   0.4500 
 43 H        6.8030    -6.6690    -0.7480 H     1 <1>   0.0800 
 44 H        6.8370    -7.8380    -2.0360 H     1 <1>   0.0800 
 45 H        5.4270    -9.9940    -1.7660 H     1 <1>   0.0800 
 46 H        4.5570   -10.2130    -0.2760 H     1 <1>   0.0800 
 47 H        8.5350    -7.6830     0.2560 H     1 <1>   0.0800 
 48 H        8.6240    -8.8100    -1.0620 H     1 <1>   0.0800 
 49 H        7.2350   -10.9820    -0.8460 H     1 <1>   0.0800 
 50 H        6.3440   -11.2160     0.6250 H     1 <1>   0.0800 
 51 H        9.3260    -9.4580     1.7550 H     1 <1>   0.0800 
 52 H        9.3320   -10.6380     0.4580 H     1 <1>   0.0800 
 53 H        8.4010   -10.9280     1.9150 H     1 <1>   0.0800 
@<TRIPOS>BOND
  1   1   2  1   
  2   1   3  1   
  3   2   4  ar  
  4   2   5  ar  
  5   3   6  1   
  6   3  23  1   
  7   3  24  1   
  8   4   7  ar  
  9   4   8  1   
 10   5   9  ar  
 11   5  25  1   
 12   6  10  1   
 13   6  26  1   
 14   6  27  1   
 15   7  11  ar  
 16   7  28  1   
 17   8  12  1   
 18   8  29  1   
 19   8  30  1   
 20   9  11  ar  
 21   9  31  1   
 22  10  13  1   
 23  10  32  1   
 24  10  33  1   
 25  11  14  1   
 26  12  15  2   
 27  12  34  1   
 28  13  16  1   
 29  13  35  1   
 30  13  36  1   
 31  14  37  1   
 32  14  38  1   
 33  14  39  1   
 34  15  40  1   
 35  15  41  1   
 36  16  17  1   
 37  16  18  1   
 38  16  42  1   
 39  17  19  1   
 40  17  43  1   
 41  17  44  1   
 42  18  20  1   
 43  18  45  1   
 44  18  46  1   
 45  19  21  1   
 46  19  47  1   
 47  19  48  1   
 48  20  21  1   
 49  20  49  1   
 50  20  50  1   
 51  21  22  1   
 52  22  51  1   
 53  22  52  1   
 54  22  53  1   
@<TRIPOS>SUBSTRUCTURE
  1 ****   3 GROUP 4 **** **** 0

# MOE 2024.06 (io_trps.svl 2023.06)
