@<TRIPOS>MOLECULE
NONAME
40 40 1 0 0 
SMALL
USER_CHARGES


@<TRIPOS>ATOM
  1 S        0.0370    -0.3150    -0.1580 S.o2  1 <1>   1.3330 
  2 O        1.2260    -0.7530     0.5370 O.2   1 <1>  -0.6500 
  3 O       -1.1800    -1.0830    -0.0820 O.2   1 <1>  -0.6500 
  4 N       -0.3010     1.2920     0.3920 N.am  1 <1>  -0.6930 
  5 C        0.4460    -0.0370    -1.8680 C.3   1 <1>  -0.1350 
  6 C       -1.4180     2.0040    -0.0330 C.ar  1 <1>   0.1990 
  7 C        0.7580     1.9900     1.1890 C.3   1 <1>   0.2570 
  8 C       -2.7010     1.5480     0.2460 C.ar  1 <1>  -0.1500 
  9 C       -1.2780     3.1890    -0.7460 C.ar  1 <1>  -0.1500 
 10 C        2.0120     2.3540     0.3860 C.2   1 <1>   0.5690 
 11 C       -3.8310     2.2400    -0.1740 C.ar  1 <1>  -0.1440 
 12 C       -2.3880     3.8920    -1.1730 C.ar  1 <1>  -0.1500 
 13 O        2.1310     3.4770    -0.0400 O.2   1 <1>  -0.5700 
 14 N        2.9670     1.4100     0.1680 N.am  1 <1>  -0.7300 
 15 C       -3.6580     3.4200    -0.8910 C.ar  1 <1>  -0.1500 
 16 C       -5.2380     1.7060     0.1420 C.3   1 <1>   1.1630 
 17 C        4.2050     1.6090    -0.6280 C.3   1 <1>   0.1400 
 18 F       -6.1480     2.6710     0.2160 F     1 <1>  -0.3400 
 19 F       -5.2970     1.0580     1.2990 F     1 <1>  -0.3400 
 20 F       -5.6680     0.8610    -0.7850 F     1 <1>  -0.3400 
 21 C        5.2570     2.3590     0.1880 C.3   1 <1>   0.1200 
 22 O        6.4420     2.3880    -0.5440 O.3   1 <1>  -0.5600 
 23 C        7.4630     3.1080     0.0660 C.3   1 <1>   0.0400 
 24 H        0.7020    -0.9650    -2.3400 H     1 <1>   0.0800 
 25 H        1.2770     0.6340    -1.9520 H     1 <1>   0.0800 
 26 H       -0.3940     0.3880    -2.3830 H     1 <1>   0.0800 
 27 H        1.0430     1.3650     2.0150 H     1 <1>   0.0800 
 28 H        0.3490     2.8970     1.5990 H     1 <1>   0.0800 
 29 H       -2.8070     0.6320     0.8030 H     1 <1>   0.1500 
 30 H       -0.2960     3.5650    -0.9740 H     1 <1>   0.1500 
 31 H       -2.2640     4.8080    -1.7260 H     1 <1>   0.1500 
 32 H        2.7860     0.4450     0.4880 H     1 <1>   0.3700 
 33 H       -4.5110     3.9820    -1.2360 H     1 <1>   0.1500 
 34 H        3.9730     2.1800    -1.5110 H     1 <1>   0.0800 
 35 H        4.5940     0.6500    -0.9210 H     1 <1>   0.0800 
 36 H        5.4440     1.8520     1.1190 H     1 <1>   0.0800 
 37 H        4.9330     3.3710     0.3670 H     1 <1>   0.0800 
 38 H        8.3290     3.0650    -0.5700 H     1 <1>   0.0800 
 39 H        7.6910     2.6650     1.0200 H     1 <1>   0.0800 
 40 H        7.1530     4.1320     0.1870 H     1 <1>   0.0800 
@<TRIPOS>BOND
  1   1   2  2   
  2   1   3  2   
  3   1   4  am  
  4   1   5  1   
  5   4   6  1   
  6   4   7  1   
  7   5  24  1   
  8   5  25  1   
  9   5  26  1   
 10   6   8  ar  
 11   6   9  ar  
 12   7  10  1   
 13   7  27  1   
 14   7  28  1   
 15   8  11  ar  
 16   8  29  1   
 17   9  12  ar  
 18   9  30  1   
 19  10  13  2   
 20  10  14  am  
 21  11  15  ar  
 22  11  16  1   
 23  12  15  ar  
 24  12  31  1   
 25  14  17  1   
 26  14  32  1   
 27  15  33  1   
 28  16  18  1   
 29  16  19  1   
 30  16  20  1   
 31  17  21  1   
 32  17  34  1   
 33  17  35  1   
 34  21  22  1   
 35  21  36  1   
 36  21  37  1   
 37  22  23  1   
 38  23  38  1   
 39  23  39  1   
 40  23  40  1   
@<TRIPOS>SUBSTRUCTURE
  1 ****   4 GROUP 4 **** **** 0

# MOE 2024.06 (io_trps.svl 2023.06)
