@<TRIPOS>MOLECULE
NONAME
32 32 1 0 0 
SMALL
USER_CHARGES


@<TRIPOS>ATOM
  1 CL       0.8480     0.2120     0.9310 Cl    1 <1>  -0.1770 
  2 C        0.6200     1.8400     0.3370 C.ar  1 <1>   0.1770 
  3 C        1.6240     2.4340    -0.4060 C.ar  1 <1>  -0.1440 
  4 C       -0.5520     2.5040     0.6410 C.ar  1 <1>  -0.1500 
  5 C        1.4320     3.7320    -0.8500 C.ar  1 <1>  -0.1500 
  6 C        2.8970     1.6850    -0.7250 C.3   1 <1>   0.4870 
  7 C       -0.7450     3.8100     0.1990 C.ar  1 <1>   0.0830 
  8 C        0.2680     4.4280    -0.5610 C.ar  1 <1>   0.0830 
  9 N        3.7340     1.6960     0.4940 N.4   1 <1>  -0.9060 
 10 O       -1.8890     4.4880     0.5050 O.3   1 <1>  -0.3620 
 11 O        0.2520     5.6910    -1.0750 O.3   1 <1>  -0.3620 
 12 C        5.0300     1.0110     0.3240 C.3   1 <1>   0.3430 
 13 C       -2.9500     3.9090     1.2350 C.3   1 <1>   0.0400 
 14 C       -0.9100     6.4890    -1.1430 C.3   1 <1>   0.0400 
 15 C        5.7750     1.0780     1.6480 C.3   1 <1>  -0.2400 
 16 H       -1.2880     1.9830     1.2220 H     1 <1>   0.1500 
 17 H        2.1820     4.2360    -1.4360 H     1 <1>   0.1500 
 18 H        3.4120     2.1680    -1.5400 H     1 <1>   0.0800 
 19 H        2.6630     0.6720    -1.0130 H     1 <1>   0.0800 
 20 H        3.1980     1.2440     1.2460 H     1 <1>   0.4500 
 21 H        3.8770     2.6700     0.7860 H     1 <1>   0.4500 
 22 H        5.6110     1.4940    -0.4470 H     1 <1>   0.0800 
 23 H        4.8750    -0.0200     0.0450 H     1 <1>   0.0800 
 24 H       -3.7320     4.6420     1.3230 H     1 <1>   0.0800 
 25 H       -2.5960     3.6370     2.2140 H     1 <1>   0.0800 
 26 H       -3.3170     3.0500     0.7010 H     1 <1>   0.0800 
 27 H       -0.6830     7.3630    -1.7260 H     1 <1>   0.0800 
 28 H       -1.1920     6.7800    -0.1470 H     1 <1>   0.0800 
 29 H       -1.6950     5.9260    -1.6160 H     1 <1>   0.0800 
 30 H        5.9640     2.0980     1.9340 H     1 <1>   0.0800 
 31 H        6.7250     0.5830     1.5460 H     1 <1>   0.0800 
 32 H        5.2250     0.5780     2.4260 H     1 <1>   0.0800 
@<TRIPOS>BOND
  1   1   2  1   
  2   2   3  ar  
  3   2   4  ar  
  4   3   5  ar  
  5   3   6  1   
  6   4   7  ar  
  7   4  16  1   
  8   5   8  ar  
  9   5  17  1   
 10   6   9  1   
 11   6  18  1   
 12   6  19  1   
 13   7   8  ar  
 14   7  10  1   
 15   8  11  1   
 16   9  12  1   
 17   9  20  1   
 18   9  21  1   
 19  10  13  1   
 20  11  14  1   
 21  12  15  1   
 22  12  22  1   
 23  12  23  1   
 24  13  24  1   
 25  13  25  1   
 26  13  26  1   
 27  14  27  1   
 28  14  28  1   
 29  14  29  1   
 30  15  30  1   
 31  15  31  1   
 32  15  32  1   
@<TRIPOS>SUBSTRUCTURE
  1 ****   3 GROUP 4 **** **** 0

# MOE 2024.06 (io_trps.svl 2023.06)
