@<TRIPOS>MOLECULE
NONAME
41 43 1 0 0 
SMALL
USER_CHARGES


@<TRIPOS>ATOM
  1 O       -0.4090     0.5030     0.1700 O.2   1 <1>  -0.5700 
  2 C       -1.4170     1.0860    -0.1820 C.2   1 <1>   0.7060 
  3 O       -2.5330     0.3500    -0.2200 O.3   1 <1>  -0.2320 
  4 C       -1.4900     2.4790    -0.5520 C.2   1 <1>   0.0290 
  5 C       -3.7440     0.8220    -0.5840 C.ar  1 <1>   0.0830 
  6 C       -0.3010     3.3070    -0.5240 C.2   1 <1>   0.6160 
  7 C       -2.7020     2.9800    -0.9250 C.2   1 <1>  -0.1780 
  8 C       -3.8680     2.1660    -0.9500 C.ar  1 <1>   0.0280 
  9 C       -4.8480    -0.0280    -0.5880 C.ar  1 <1>  -0.1440 
 10 O       -0.3780     4.4780    -0.8430 O.2   1 <1>  -0.5700 
 11 N        0.9210     2.8340    -0.1510 N.am  1 <1>  -0.7300 
 12 C       -5.1240     2.6440    -1.3200 C.ar  1 <1>  -0.1500 
 13 C       -6.0830     0.4770    -0.9540 C.ar  1 <1>  -0.1500 
 14 C       -4.7220    -1.4940    -0.1910 C.3   1 <1>   0.1220 
 15 C        2.1840     3.5840    -0.0800 C.3   1 <1>   0.2200 
 16 C       -6.2210     1.8080    -1.3200 C.ar  1 <1>  -0.1500 
 17 C       -4.9180    -1.6530     1.3070 C.2   1 <1>  -0.2880 
 18 C        3.2260     2.8590    -0.9220 C.3   1 <1>  -0.1600 
 19 C        2.7370     3.4680     1.3350 C.3   1 <1>  -0.1600 
 20 C       -5.8720    -2.3860     1.8890 C.2   1 <1>  -0.3000 
 21 C        3.7340     1.7050    -0.0490 C.3   1 <1>  -0.1600 
 22 C        3.4210     2.0970     1.4010 C.3   1 <1>  -0.1600 
 23 H       -2.8160     4.0130    -1.2110 H     1 <1>   0.1500 
 24 H        0.9980     1.8460     0.1210 H     1 <1>   0.3700 
 25 H       -5.2360     3.6750    -1.6040 H     1 <1>   0.1500 
 26 H       -6.9510    -0.1610    -0.9540 H     1 <1>   0.1500 
 27 H       -3.7560    -1.8780    -0.4680 H     1 <1>   0.0800 
 28 H       -5.4590    -2.0750    -0.7170 H     1 <1>   0.0800 
 29 H        2.0460     4.6090    -0.3860 H     1 <1>   0.0800 
 30 H       -7.1890     2.1850    -1.6040 H     1 <1>   0.1500 
 31 H       -4.1900    -1.0960     1.8740 H     1 <1>   0.1500 
 32 H        4.0390     3.5370    -1.1140 H     1 <1>   0.0800 
 33 H        2.8270     2.5250    -1.8640 H     1 <1>   0.0800 
 34 H        1.9720     3.5880     2.0810 H     1 <1>   0.0800 
 35 H        3.4780     4.2360     1.4740 H     1 <1>   0.0800 
 36 H       -5.9880    -2.4800     2.9560 H     1 <1>   0.1500 
 37 H       -6.6150    -2.9540     1.3560 H     1 <1>   0.1500 
 38 H        4.7890     1.5470    -0.1970 H     1 <1>   0.0800 
 39 H        3.2080     0.7990    -0.2990 H     1 <1>   0.0800 
 40 H        2.7500     1.3740     1.8330 H     1 <1>   0.0800 
 41 H        4.3150     2.1420     2.0000 H     1 <1>   0.0800 
@<TRIPOS>BOND
  1   1   2  2   
  2   2   3  1   
  3   2   4  1   
  4   3   5  1   
  5   4   6  1   
  6   4   7  2   
  7   5   8  ar  
  8   5   9  ar  
  9   6  10  2   
 10   6  11  am  
 11   7   8  1   
 12   7  23  1   
 13   8  12  ar  
 14   9  13  ar  
 15   9  14  1   
 16  11  15  1   
 17  11  24  1   
 18  12  16  ar  
 19  12  25  1   
 20  13  16  ar  
 21  13  26  1   
 22  14  17  1   
 23  14  27  1   
 24  14  28  1   
 25  15  18  1   
 26  15  19  1   
 27  15  29  1   
 28  16  30  1   
 29  17  20  2   
 30  17  31  1   
 31  18  21  1   
 32  18  32  1   
 33  18  33  1   
 34  19  22  1   
 35  19  34  1   
 36  19  35  1   
 37  20  36  1   
 38  20  37  1   
 39  21  22  1   
 40  21  38  1   
 41  21  39  1   
 42  22  40  1   
 43  22  41  1   
@<TRIPOS>SUBSTRUCTURE
  1 ****   2 GROUP 4 **** **** 0

# MOE 2024.06 (io_trps.svl 2023.06)
