@<TRIPOS>MOLECULE
NONAME
46 47 1 0 0 
SMALL
USER_CHARGES


@<TRIPOS>ATOM
  1 O        0.2980    -0.2620    -0.9640 O.2   1 <1>  -0.5700 
  2 C       -0.6460    -0.7420    -0.3640 C.2   1 <1>   0.6340 
  3 O       -1.5350     0.0980     0.1800 O.3   1 <1>  -0.4300 
  4 C       -0.8770    -2.1660    -0.2070 C.ar  1 <1>   0.0860 
  5 C       -1.3990     1.5030     0.0820 C.3   1 <1>   0.0400 
  6 C        0.1500    -3.1210    -0.3590 C.ar  1 <1>   0.1170 
  7 C       -2.1610    -2.6290     0.1060 C.ar  1 <1>  -0.1500 
  8 N        1.4610    -2.7150    -0.6610 N.am  1 <1>  -0.5470 
  9 C       -0.1560    -4.4740    -0.2170 C.ar  1 <1>  -0.1500 
 10 C       -2.4400    -3.9710     0.2550 C.ar  1 <1>  -0.1500 
 11 C        2.6910    -3.2910    -0.4630 C.2   1 <1>   0.5690 
 12 C       -1.4310    -4.9000     0.0890 C.ar  1 <1>  -0.1500 
 13 O        2.8090    -4.3760     0.0560 O.2   1 <1>  -0.5700 
 14 C        3.9320    -2.5230    -0.9480 C.3   1 <1>  -0.0190 
 15 C        5.2170    -2.5670    -0.0810 C.3   1 <1>   0.0000 
 16 C        3.7020    -1.0170    -1.2060 C.3   1 <1>  -0.1600 
 17 C        6.0920    -1.4350    -0.7200 C.3   1 <1>  -0.1060 
 18 C        4.8720    -2.2790     1.4030 C.3   1 <1>  -0.2400 
 19 C        5.9070    -3.9450    -0.1330 C.3   1 <1>  -0.2400 
 20 C        5.0610    -0.3260    -1.0390 C.3   1 <1>  -0.1600 
 21 C        6.7750    -1.9190    -2.0390 C.2   1 <1>   0.9060 
 22 C        7.1700    -0.8520     0.2350 C.3   1 <1>  -0.2400 
 23 O        7.9520    -2.3060    -2.0110 O.co2 1 <1>  -0.9000 
 24 O        6.1460    -1.9090    -3.1090 O.co2 1 <1>  -0.9000 
 25 H       -2.2290     1.9620     0.5890 H     1 <1>   0.0800 
 26 H       -1.3990     1.7810    -0.9580 H     1 <1>   0.0800 
 27 H       -0.4730     1.7960     0.5460 H     1 <1>   0.0800 
 28 H       -2.9630    -1.9230     0.2340 H     1 <1>   0.1500 
 29 H        1.5210    -1.7600    -1.0360 H     1 <1>   0.3700 
 30 H        0.6130    -5.2130    -0.3500 H     1 <1>   0.1500 
 31 H       -3.4370    -4.2990     0.4970 H     1 <1>   0.1500 
 32 H       -1.6380    -5.9510     0.1990 H     1 <1>   0.1500 
 33 H        4.1790    -2.9620    -1.8990 H     1 <1>   0.0800 
 34 H        3.0210    -0.5950    -0.4880 H     1 <1>   0.0800 
 35 H        3.3190    -0.8600    -2.2000 H     1 <1>   0.0800 
 36 H        5.7590    -2.3160     2.0090 H     1 <1>   0.0800 
 37 H        4.1950    -3.0180     1.7890 H     1 <1>   0.0800 
 38 H        4.4170    -1.3130     1.5200 H     1 <1>   0.0800 
 39 H        6.8810    -3.8910     0.3200 H     1 <1>   0.0800 
 40 H        6.0340    -4.2770    -1.1490 H     1 <1>   0.0800 
 41 H        5.3310    -4.6880     0.3860 H     1 <1>   0.0800 
 42 H        4.9950     0.3800    -0.2310 H     1 <1>   0.0800 
 43 H        5.3360     0.2120    -1.9300 H     1 <1>   0.0800 
 44 H        6.7430    -0.3800     1.0990 H     1 <1>   0.0800 
 45 H        7.7560    -0.1210    -0.2940 H     1 <1>   0.0800 
 46 H        7.8360    -1.6340     0.5540 H     1 <1>   0.0800 
@<TRIPOS>BOND
  1   1   2  2   
  2   2   3  1   
  3   2   4  1   
  4   3   5  1   
  5   4   6  ar  
  6   4   7  ar  
  7   5  25  1   
  8   5  26  1   
  9   5  27  1   
 10   6   8  1   
 11   6   9  ar  
 12   7  10  ar  
 13   7  28  1   
 14   8  11  am  
 15   8  29  1   
 16   9  12  ar  
 17   9  30  1   
 18  10  12  ar  
 19  10  31  1   
 20  11  13  2   
 21  11  14  1   
 22  12  32  1   
 23  14  15  1   
 24  14  16  1   
 25  14  33  1   
 26  15  17  1   
 27  15  18  1   
 28  15  19  1   
 29  16  20  1   
 30  16  34  1   
 31  16  35  1   
 32  17  20  1   
 33  17  21  1   
 34  17  22  1   
 35  18  36  1   
 36  18  37  1   
 37  18  38  1   
 38  19  39  1   
 39  19  40  1   
 40  19  41  1   
 41  20  42  1   
 42  20  43  1   
 43  21  23  ar  
 44  21  24  ar  
 45  22  44  1   
 46  22  45  1   
 47  22  46  1   
@<TRIPOS>SUBSTRUCTURE
  1 ****  11 GROUP 4 **** **** 0

# MOE 2024.06 (io_trps.svl 2023.06)
