@<TRIPOS>MOLECULE
NONAME
47 48 1 0 0 
SMALL
USER_CHARGES


@<TRIPOS>ATOM
  1 CL       2.2630    -2.5070     3.1160 Cl    1 <1>  -0.1770 
  2 C        2.7840    -1.9390     1.5440 C.ar  1 <1>   0.1770 
  3 C        1.8510    -1.6470     0.5570 C.ar  1 <1>   0.0830 
  4 C        4.1400    -1.7960     1.3220 C.ar  1 <1>  -0.1500 
  5 O        0.5330    -1.8110     0.8420 O.3   1 <1>  -0.3630 
  6 C        2.3160    -1.2010    -0.6770 C.ar  1 <1>  -0.1500 
  7 C        4.6120    -1.3520     0.0920 C.ar  1 <1>  -0.0090 
  8 C       -0.4760    -1.5090    -0.0970 C.3   1 <1>   0.0400 
  9 C        3.6770    -1.0600    -0.8960 C.ar  1 <1>  -0.1500 
 10 S        6.3880    -1.1820    -0.2310 S.o2  1 <1>   1.4470 
 11 O        7.1610    -1.4680     0.9580 O.2   1 <1>  -0.6500 
 12 O        6.6370     0.0670    -0.9200 O.2   1 <1>  -0.6500 
 13 N        6.7060    -2.4120    -1.3540 N.am  1 <1>  -0.8490 
 14 C        8.0000    -2.2320    -2.0630 C.3   1 <1>   0.2570 
 15 C        6.6000    -3.7660    -0.7890 C.3   1 <1>   0.1160 
 16 C        9.2770    -2.4140    -1.2120 C.2   1 <1>   0.5690 
 17 O        9.7150    -3.5390    -1.1310 O.2   1 <1>  -0.5700 
 18 N        9.9140    -1.3790    -0.5600 N.am  1 <1>  -0.6600 
 19 C       10.8380    -1.6870     0.5790 C.3   1 <1>   0.1400 
 20 C        9.6130     0.0780    -0.7290 C.3   1 <1>   0.1400 
 21 C       12.1030    -0.8130     0.5400 C.3   1 <1>   0.3430 
 22 C       10.8950     0.9320    -0.7350 C.3   1 <1>   0.3430 
 23 N       11.7690     0.6530     0.4580 N.4   1 <1>  -0.9590 
 24 C       13.0060     1.4900     0.4330 C.3   1 <1>   0.2630 
 25 H        4.8280    -2.0330     2.1150 H     1 <1>   0.1500 
 26 H        1.6390    -0.9600    -1.4750 H     1 <1>   0.1500 
 27 H       -1.4280    -1.7080     0.3620 H     1 <1>   0.0800 
 28 H       -0.3490    -2.1370    -0.9610 H     1 <1>   0.0800 
 29 H       -0.4090    -0.4680    -0.3610 H     1 <1>   0.0800 
 30 H        4.0240    -0.7160    -1.8570 H     1 <1>   0.1500 
 31 H        8.0110    -1.2740    -2.5460 H     1 <1>   0.0800 
 32 H        8.0460    -2.9600    -2.8540 H     1 <1>   0.0800 
 33 H        5.6080    -3.9320    -0.4050 H     1 <1>   0.0800 
 34 H        7.3080    -3.9050     0.0120 H     1 <1>   0.0800 
 35 H        6.7920    -4.5020    -1.5510 H     1 <1>   0.0800 
 36 H       11.1380    -2.7210     0.5590 H     1 <1>   0.0800 
 37 H       10.3140    -1.5270     1.5050 H     1 <1>   0.0800 
 38 H        8.9790     0.4040     0.0790 H     1 <1>   0.0800 
 39 H        9.0890     0.2550    -1.6500 H     1 <1>   0.0800 
 40 H       12.6890    -1.1020    -0.3170 H     1 <1>   0.0800 
 41 H       12.6900    -1.0070     1.4230 H     1 <1>   0.0800 
 42 H       10.6200     1.9740    -0.7510 H     1 <1>   0.0800 
 43 H       11.4410     0.7210    -1.6400 H     1 <1>   0.0800 
 44 H       11.2220     0.8890     1.3000 H     1 <1>   0.4500 
 45 H       13.5970     1.2600    -0.4390 H     1 <1>   0.0800 
 46 H       13.6030     1.3030     1.3120 H     1 <1>   0.0800 
 47 H       12.7500     2.5370     0.4100 H     1 <1>   0.0800 
@<TRIPOS>BOND
  1   1   2  1   
  2   2   3  ar  
  3   2   4  ar  
  4   3   5  1   
  5   3   6  ar  
  6   4   7  ar  
  7   4  25  1   
  8   5   8  1   
  9   6   9  ar  
 10   6  26  1   
 11   7   9  ar  
 12   7  10  1   
 13   8  27  1   
 14   8  28  1   
 15   8  29  1   
 16   9  30  1   
 17  10  11  2   
 18  10  12  2   
 19  10  13  am  
 20  13  14  1   
 21  13  15  1   
 22  14  16  1   
 23  14  31  1   
 24  14  32  1   
 25  15  33  1   
 26  15  34  1   
 27  15  35  1   
 28  16  17  2   
 29  16  18  am  
 30  18  19  1   
 31  18  20  1   
 32  19  21  1   
 33  19  36  1   
 34  19  37  1   
 35  20  22  1   
 36  20  38  1   
 37  20  39  1   
 38  21  23  1   
 39  21  40  1   
 40  21  41  1   
 41  22  23  1   
 42  22  42  1   
 43  22  43  1   
 44  23  24  1   
 45  23  44  1   
 46  24  45  1   
 47  24  46  1   
 48  24  47  1   
@<TRIPOS>SUBSTRUCTURE
  1 ****  10 GROUP 4 **** **** 0

# MOE 2024.06 (io_trps.svl 2023.06)
