@<TRIPOS>MOLECULE
NONAME
54 57 1 0 0 
SMALL
USER_CHARGES


@<TRIPOS>ATOM
  1 O        0.4960     0.6570     0.0960 O.2   1 <1>  -0.5700 
  2 C        0.1690     1.8370     0.0680 C.2   1 <1>   0.5440 
  3 N        1.0610     2.8240     0.4620 N.am  1 <1>  -0.2980 
  4 C       -1.1350     2.2540    -0.3600 C.ar  1 <1>   0.0860 
  5 N        0.7980     4.1620     0.4330 N.2   1 <1>  -0.5120 
  6 C        2.4090     2.4350     0.9350 C.3   1 <1>   0.0600 
  7 C       -1.4140     3.6290    -0.3710 C.ar  1 <1>   0.0860 
  8 C       -2.1230     1.3450    -0.7520 C.ar  1 <1>  -0.1500 
  9 C       -0.3700     4.5510     0.0170 C.2   1 <1>   0.2780 
 10 C       -2.7040     4.0340    -0.7490 C.ar  1 <1>  -0.1500 
 11 C       -3.3750     1.7710    -1.1340 C.ar  1 <1>  -0.1500 
 12 C       -0.6130     5.9720    -0.0520 C.ar  1 <1>   0.0860 
 13 C       -3.6670     3.1250    -1.1280 C.ar  1 <1>  -0.1500 
 14 C       -0.8210     6.6250    -1.2660 C.ar  1 <1>  -0.1500 
 15 C       -0.6350     6.7540     1.1010 C.ar  1 <1>  -0.1500 
 16 C       -1.0620     7.9840    -1.3190 C.ar  1 <1>  -0.1500 
 17 C       -0.8740     8.1140     1.0460 C.ar  1 <1>  -0.1500 
 18 C       -1.1050     8.7700    -0.1650 C.ar  1 <1>   0.0860 
 19 C       -1.3680    10.1990    -0.2360 C.2   1 <1>   0.5440 
 20 O       -1.3490    10.7950    -1.2970 O.2   1 <1>  -0.5700 
 21 N       -1.7100    10.9370     0.8720 N.am  1 <1>  -0.6600 
 22 C       -1.2140    12.3420     0.9580 C.3   1 <1>   0.1400 
 23 C       -3.0790    10.7630     1.4280 C.3   1 <1>   0.1400 
 24 C       -2.1950    13.2970     0.2500 C.3   1 <1>   0.3430 
 25 C       -4.0610    11.7280     0.7270 C.3   1 <1>   0.3430 
 26 N       -3.6020    13.1660     0.7820 N.4   1 <1>  -0.9590 
 27 C       -4.5080    14.0710     0.0020 C.3   1 <1>   0.3430 
 28 C       -5.9090    14.1960     0.6190 C.3   1 <1>   0.1200 
 29 O       -6.6230    15.0990    -0.1470 O.3   1 <1>  -0.6800 
 30 H        2.9260     1.9120     0.1500 H     1 <1>   0.0800 
 31 H        2.3160     1.7900     1.7900 H     1 <1>   0.0800 
 32 H        2.9710     3.3100     1.2090 H     1 <1>   0.0800 
 33 H       -1.8920     0.2930    -0.7480 H     1 <1>   0.1500 
 34 H       -2.9650     5.0770    -0.7460 H     1 <1>   0.1500 
 35 H       -4.1270     1.0590    -1.4320 H     1 <1>   0.1500 
 36 H       -4.6500     3.4580    -1.4200 H     1 <1>   0.1500 
 37 H       -0.7840     6.0550    -2.1780 H     1 <1>   0.1500 
 38 H       -0.4510     6.2770     2.0490 H     1 <1>   0.1500 
 39 H       -1.2150     8.4550    -2.2770 H     1 <1>   0.1500 
 40 H       -0.8700     8.6790     1.9620 H     1 <1>   0.1500 
 41 H       -0.2490    12.4110     0.4830 H     1 <1>   0.0800 
 42 H       -1.0930    12.6240     1.9900 H     1 <1>   0.0800 
 43 H       -3.0660    10.9480     2.4880 H     1 <1>   0.0800 
 44 H       -3.4090     9.7480     1.2740 H     1 <1>   0.0800 
 45 H       -2.1820    13.0640    -0.8030 H     1 <1>   0.0800 
 46 H       -1.8480    14.3110     0.3670 H     1 <1>   0.0800 
 47 H       -5.0320    11.6320     1.1830 H     1 <1>   0.0800 
 48 H       -4.1490    11.4220    -0.3040 H     1 <1>   0.0800 
 49 H       -3.5890    13.4730     1.7640 H     1 <1>   0.4500 
 50 H       -4.6030    13.7050    -1.0070 H     1 <1>   0.0800 
 51 H       -4.0760    15.0580    -0.0390 H     1 <1>   0.0800 
 52 H       -5.8590    14.5810     1.6230 H     1 <1>   0.0800 
 53 H       -6.4360    13.2580     0.5970 H     1 <1>   0.0800 
 54 H       -7.5320    15.2370     0.1970 H     1 <1>   0.4000 
@<TRIPOS>BOND
  1   1   2  2   
  2   2   3  am  
  3   2   4  1   
  4   3   5  1   
  5   3   6  1   
  6   4   7  ar  
  7   4   8  ar  
  8   5   9  2   
  9   6  30  1   
 10   6  31  1   
 11   6  32  1   
 12   7   9  1   
 13   7  10  ar  
 14   8  11  ar  
 15   8  33  1   
 16   9  12  1   
 17  10  13  ar  
 18  10  34  1   
 19  11  13  ar  
 20  11  35  1   
 21  12  14  ar  
 22  12  15  ar  
 23  13  36  1   
 24  14  16  ar  
 25  14  37  1   
 26  15  17  ar  
 27  15  38  1   
 28  16  18  ar  
 29  16  39  1   
 30  17  18  ar  
 31  17  40  1   
 32  18  19  1   
 33  19  20  2   
 34  19  21  am  
 35  21  22  1   
 36  21  23  1   
 37  22  24  1   
 38  22  41  1   
 39  22  42  1   
 40  23  25  1   
 41  23  43  1   
 42  23  44  1   
 43  24  26  1   
 44  24  45  1   
 45  24  46  1   
 46  25  26  1   
 47  25  47  1   
 48  25  48  1   
 49  26  27  1   
 50  26  49  1   
 51  27  28  1   
 52  27  50  1   
 53  27  51  1   
 54  28  29  1   
 55  28  52  1   
 56  28  53  1   
 57  29  54  1   
@<TRIPOS>SUBSTRUCTURE
  1 ****  17 GROUP 4 **** **** 0

# MOE 2024.06 (io_trps.svl 2023.06)
