@<TRIPOS>MOLECULE
NONAME
35 35 1 0 0 
SMALL
USER_CHARGES


@<TRIPOS>ATOM
  1 CL      -0.1830     0.3540    -0.9260 Cl    1 <1>  -0.1770 
  2 C       -1.8740     0.1790    -0.5120 C.ar  1 <1>   0.1770 
  3 C       -2.4110    -1.0760    -0.2580 C.ar  1 <1>   0.0820 
  4 C       -2.6500     1.3170    -0.4480 C.ar  1 <1>  -0.1500 
  5 O       -1.5900    -2.1590    -0.3390 O.3   1 <1>  -0.3630 
  6 C       -3.7610    -1.1640     0.0670 C.ar  1 <1>  -0.1500 
  7 C       -4.0000     1.2130    -0.1210 C.ar  1 <1>   0.0830 
  8 C       -2.0580    -3.4650    -0.0820 C.3   1 <1>   0.0400 
  9 C       -4.5690    -0.0330     0.1420 C.ar  1 <1>  -0.0090 
 10 O       -4.8040     2.3040    -0.0480 O.3   1 <1>  -0.3630 
 11 S       -6.3260    -0.1990     0.5630 S.o2  1 <1>   1.4470 
 12 C       -4.3020     3.6190    -0.1450 C.3   1 <1>   0.0400 
 13 O       -6.7480     0.7410     1.5770 O.2   1 <1>  -0.6500 
 14 O       -6.6320    -1.5960     0.7680 O.2   1 <1>  -0.6500 
 15 N       -7.1510     0.1300    -0.8620 N.am  1 <1>  -0.9140 
 16 C       -7.8830     1.3990    -0.9290 C.3   1 <1>   0.1960 
 17 C       -9.1970     1.3650    -0.1370 C.3   1 <1>   0.1200 
 18 O       -9.9610     2.4680    -0.5110 O.3   1 <1>  -0.5600 
 19 C      -11.1440     2.6030     0.2080 C.3   1 <1>   0.0400 
 20 H       -2.1820     2.2590    -0.6580 H     1 <1>   0.1500 
 21 H       -4.2090    -2.1200     0.2680 H     1 <1>   0.1500 
 22 H       -1.2330    -4.1440    -0.2030 H     1 <1>   0.0800 
 23 H       -2.8330    -3.7060    -0.7880 H     1 <1>   0.0800 
 24 H       -2.4250    -3.5150     0.9280 H     1 <1>   0.0800 
 25 H       -5.1200     4.3000     0.0100 H     1 <1>   0.0800 
 26 H       -3.8870     3.7660    -1.1260 H     1 <1>   0.0800 
 27 H       -3.5570     3.7670     0.6180 H     1 <1>   0.0800 
 28 H       -7.8040    -0.6450    -0.9540 H     1 <1>   0.4200 
 29 H       -8.1200     1.5920    -1.9610 H     1 <1>   0.0800 
 30 H       -7.2670     2.2060    -0.5710 H     1 <1>   0.0800 
 31 H       -9.0100     1.4220     0.9210 H     1 <1>   0.0800 
 32 H       -9.7580     0.4770    -0.3720 H     1 <1>   0.0800 
 33 H      -11.6600     3.4730    -0.1570 H     1 <1>   0.0800 
 34 H      -10.9130     2.7300     1.2510 H     1 <1>   0.0800 
 35 H      -11.7540     1.7290     0.0570 H     1 <1>   0.0800 
@<TRIPOS>BOND
  1   1   2  1   
  2   2   3  ar  
  3   2   4  ar  
  4   3   5  1   
  5   3   6  ar  
  6   4   7  ar  
  7   4  20  1   
  8   5   8  1   
  9   6   9  ar  
 10   6  21  1   
 11   7   9  ar  
 12   7  10  1   
 13   8  22  1   
 14   8  23  1   
 15   8  24  1   
 16   9  11  1   
 17  10  12  1   
 18  11  13  2   
 19  11  14  2   
 20  11  15  am  
 21  12  25  1   
 22  12  26  1   
 23  12  27  1   
 24  15  16  1   
 25  15  28  1   
 26  16  17  1   
 27  16  29  1   
 28  16  30  1   
 29  17  18  1   
 30  17  31  1   
 31  17  32  1   
 32  18  19  1   
 33  19  33  1   
 34  19  34  1   
 35  19  35  1   
@<TRIPOS>SUBSTRUCTURE
  1 ****   9 GROUP 4 **** **** 0

# MOE 2024.06 (io_trps.svl 2023.06)
