@<TRIPOS>MOLECULE
NONAME
45 46 1 0 0 
SMALL
USER_CHARGES


@<TRIPOS>ATOM
  1 S       -0.9850    -0.4160    -0.9710 S.o2  1 <1>   1.3330 
  2 O       -1.3930    -0.0700    -2.3140 O.2   1 <1>  -0.6500 
  3 O       -0.5870    -1.7770    -0.6800 O.2   1 <1>  -0.6500 
  4 N       -2.2370    -0.0010     0.0890 N.am  1 <1>  -0.8490 
  5 C        0.3580     0.6650    -0.4550 C.3   1 <1>  -0.0550 
  6 C       -3.2560    -1.0550     0.1560 C.3   1 <1>   0.1960 
  7 C       -2.8590     1.2940    -0.2410 C.3   1 <1>   0.1960 
  8 C        1.6740     0.4590    -1.2270 C.3   1 <1>  -0.2400 
  9 C       -4.2990    -0.7380     1.2350 C.3   1 <1>  -0.1600 
 10 C       -3.8310     1.6870     0.8690 C.3   1 <1>  -0.1600 
 11 C       -4.9430     0.6350     0.9850 C.3   1 <1>  -0.0190 
 12 C       -5.9600     1.0330     2.0600 C.2   1 <1>   0.5690 
 13 O       -5.5970     1.0300     3.2170 O.2   1 <1>  -0.5700 
 14 N       -7.2470     1.3910     1.7130 N.am  1 <1>  -0.4770 
 15 C       -7.8570     1.1520     0.4740 C.ar  1 <1>   0.1170 
 16 C       -7.9780     2.3160     2.6130 C.3   1 <1>   0.0600 
 17 C       -7.6310     1.9620    -0.6480 C.ar  1 <1>  -0.1790 
 18 C       -8.7080     0.0580     0.3700 C.ar  1 <1>  -0.1500 
 19 C       -6.7470     3.1050    -0.6110 C.2   1 <1>   0.9790 
 20 C       -8.2650     1.6230    -1.8440 C.ar  1 <1>  -0.1500 
 21 C       -9.3340    -0.2550    -0.8210 C.ar  1 <1>  -0.1500 
 22 O       -6.9530     4.0650     0.1520 O.co2 1 <1>  -0.9000 
 23 O       -5.7560     3.1380    -1.3630 O.co2 1 <1>  -0.9000 
 24 C       -9.1090     0.5330    -1.9350 C.ar  1 <1>  -0.1500 
 25 H        0.5430     0.5040     0.5890 H     1 <1>   0.0800 
 26 H        0.0530     1.6860    -0.5750 H     1 <1>   0.0800 
 27 H       -2.7910    -1.9970     0.3970 H     1 <1>   0.0800 
 28 H       -3.7370    -1.1540    -0.8050 H     1 <1>   0.0800 
 29 H       -3.3840     1.2370    -1.1830 H     1 <1>   0.0800 
 30 H       -2.1100     2.0610    -0.3260 H     1 <1>   0.0800 
 31 H        2.0210    -0.5510    -1.0980 H     1 <1>   0.0800 
 32 H        2.4280     1.1360    -0.8650 H     1 <1>   0.0800 
 33 H        1.5190     0.6380    -2.2770 H     1 <1>   0.0800 
 34 H       -3.8200    -0.7480     2.1990 H     1 <1>   0.0800 
 35 H       -5.0590    -1.4970     1.2330 H     1 <1>   0.0800 
 36 H       -4.2600     2.6470     0.6410 H     1 <1>   0.0800 
 37 H       -3.3020     1.7780     1.8000 H     1 <1>   0.0800 
 38 H       -5.4310     0.5840     0.0310 H     1 <1>   0.0800 
 39 H       -8.0050     1.9150     3.6110 H     1 <1>   0.0800 
 40 H       -8.9820     2.4660     2.2580 H     1 <1>   0.0800 
 41 H       -7.4720     3.2660     2.6240 H     1 <1>   0.0800 
 42 H       -8.8740    -0.5510     1.2400 H     1 <1>   0.1500 
 43 H       -8.0770     2.2360    -2.7100 H     1 <1>   0.1500 
 44 H       -9.9900    -1.1040    -0.8840 H     1 <1>   0.1500 
 45 H       -9.5860     0.2990    -2.8700 H     1 <1>   0.1500 
@<TRIPOS>BOND
  1   1   2  2   
  2   1   3  2   
  3   1   4  am  
  4   1   5  1   
  5   4   6  1   
  6   4   7  1   
  7   5   8  1   
  8   5  25  1   
  9   5  26  1   
 10   6   9  1   
 11   6  27  1   
 12   6  28  1   
 13   7  10  1   
 14   7  29  1   
 15   7  30  1   
 16   8  31  1   
 17   8  32  1   
 18   8  33  1   
 19   9  11  1   
 20   9  34  1   
 21   9  35  1   
 22  10  11  1   
 23  10  36  1   
 24  10  37  1   
 25  11  12  1   
 26  11  38  1   
 27  12  13  2   
 28  12  14  am  
 29  14  15  1   
 30  14  16  1   
 31  15  17  ar  
 32  15  18  ar  
 33  16  39  1   
 34  16  40  1   
 35  16  41  1   
 36  17  19  1   
 37  17  20  ar  
 38  18  21  ar  
 39  18  42  1   
 40  19  22  ar  
 41  19  23  ar  
 42  20  24  ar  
 43  20  43  1   
 44  21  24  ar  
 45  21  44  1   
 46  24  45  1   
@<TRIPOS>SUBSTRUCTURE
  1 ****  11 GROUP 4 **** **** 0

# MOE 2024.06 (io_trps.svl 2023.06)
