@<TRIPOS>MOLECULE
NONAME
52 54 1 0 0 
SMALL
USER_CHARGES


@<TRIPOS>ATOM
  1 CL       0.4600     0.9940    -0.9330 Cl    1 <1>  -0.1770 
  2 C        0.6300    -0.7210    -0.6770 C.ar  1 <1>   0.1770 
  3 C        1.6420    -1.1810     0.1450 C.ar  1 <1>  -0.1500 
  4 C       -0.2430    -1.5930    -1.2980 C.ar  1 <1>  -0.1500 
  5 C        1.7950    -2.5460     0.3470 C.ar  1 <1>  -0.1440 
  6 C       -0.0980    -2.9540    -1.0900 C.ar  1 <1>  -0.1500 
  7 C        0.9140    -3.4270    -0.2700 C.ar  1 <1>  -0.1500 
  8 C        2.9130    -3.0660     1.2310 C.3   1 <1>   0.4870 
  9 N        3.9950    -3.6040     0.3630 N.4   1 <1>  -0.9590 
 10 C        5.0330    -4.3160     1.1940 C.3   1 <1>   0.3430 
 11 C        4.6070    -2.5110    -0.4800 C.3   1 <1>   0.3430 
 12 C        6.2350    -4.7920     0.3500 C.3   1 <1>   0.1400 
 13 C        5.7980    -3.0130    -1.3230 C.3   1 <1>   0.1400 
 14 N        6.8050    -3.6620    -0.4400 N.am  1 <1>  -0.6600 
 15 C        7.6570    -2.8220     0.2100 C.2   1 <1>   0.6900 
 16 O        7.3430    -2.4160     1.3130 O.2   1 <1>  -0.5700 
 17 N        8.7960    -2.4510    -0.4310 N.am  1 <1>  -0.5470 
 18 C        9.8150    -1.5500    -0.0780 C.ar  1 <1>   0.1170 
 19 C       11.0590    -1.6840    -0.6810 C.ar  1 <1>  -0.1500 
 20 C        9.6270    -0.5180     0.8340 C.ar  1 <1>  -0.1500 
 21 C       12.1020    -0.8140    -0.3820 C.ar  1 <1>   0.0830 
 22 C       10.6540     0.3560     1.1420 C.ar  1 <1>  -0.1500 
 23 O       13.3360    -0.9250    -0.9570 O.3   1 <1>  -0.3630 
 24 C       11.9000     0.2170     0.5390 C.ar  1 <1>   0.0830 
 25 C       13.6730    -2.0000    -1.8030 C.3   1 <1>   0.0400 
 26 O       12.9470     1.0550     0.8100 O.3   1 <1>  -0.3630 
 27 C       12.8410     2.0690     1.7840 C.3   1 <1>   0.0400 
 28 H        2.2900    -0.4600     0.6130 H     1 <1>   0.1500 
 29 H       -1.0230    -1.2090    -1.9320 H     1 <1>   0.1500 
 30 H       -0.7800    -3.6410    -1.5650 H     1 <1>   0.1500 
 31 H        0.9970    -4.4910    -0.1200 H     1 <1>   0.1500 
 32 H        2.5270    -3.8430     1.8710 H     1 <1>   0.0800 
 33 H        3.2940    -2.2710     1.8520 H     1 <1>   0.0800 
 34 H        3.5600    -4.2790    -0.2770 H     1 <1>   0.4500 
 35 H        4.5920    -5.1640     1.6910 H     1 <1>   0.0800 
 36 H        5.4070    -3.6470     1.9530 H     1 <1>   0.0800 
 37 H        4.9620    -1.7190     0.1600 H     1 <1>   0.0800 
 38 H        3.8610    -2.0940    -1.1390 H     1 <1>   0.0800 
 39 H        5.9350    -5.5840    -0.3140 H     1 <1>   0.0800 
 40 H        6.9940    -5.1840     1.0080 H     1 <1>   0.0800 
 41 H        6.2490    -2.1780    -1.8330 H     1 <1>   0.0800 
 42 H        5.4610    -3.7120    -2.0680 H     1 <1>   0.0800 
 43 H        8.9760    -3.0040    -1.2650 H     1 <1>   0.3700 
 44 H       11.1980    -2.4790    -1.3840 H     1 <1>   0.1500 
 45 H        8.6750    -0.3840     1.3120 H     1 <1>   0.1500 
 46 H       10.4610     1.1360     1.8530 H     1 <1>   0.1500 
 47 H       14.7050    -1.8900    -2.0830 H     1 <1>   0.0800 
 48 H       13.0520    -1.9630    -2.6800 H     1 <1>   0.0800 
 49 H       13.5370    -2.9220    -1.2670 H     1 <1>   0.0800 
 50 H       13.7900     2.5710     1.8440 H     1 <1>   0.0800 
 51 H       12.6050     1.6190     2.7320 H     1 <1>   0.0800 
 52 H       12.0780     2.7640     1.4820 H     1 <1>   0.0800 
@<TRIPOS>BOND
  1   1   2  1   
  2   2   3  ar  
  3   2   4  ar  
  4   3   5  ar  
  5   3  28  1   
  6   4   6  ar  
  7   4  29  1   
  8   5   7  ar  
  9   5   8  1   
 10   6   7  ar  
 11   6  30  1   
 12   7  31  1   
 13   8   9  1   
 14   8  32  1   
 15   8  33  1   
 16   9  10  1   
 17   9  11  1   
 18   9  34  1   
 19  10  12  1   
 20  10  35  1   
 21  10  36  1   
 22  11  13  1   
 23  11  37  1   
 24  11  38  1   
 25  12  14  1   
 26  12  39  1   
 27  12  40  1   
 28  13  14  1   
 29  13  41  1   
 30  13  42  1   
 31  14  15  am  
 32  15  16  2   
 33  15  17  am  
 34  17  18  1   
 35  17  43  1   
 36  18  19  ar  
 37  18  20  ar  
 38  19  21  ar  
 39  19  44  1   
 40  20  22  ar  
 41  20  45  1   
 42  21  23  1   
 43  21  24  ar  
 44  22  24  ar  
 45  22  46  1   
 46  23  25  1   
 47  24  26  1   
 48  25  47  1   
 49  25  48  1   
 50  25  49  1   
 51  26  27  1   
 52  27  50  1   
 53  27  51  1   
 54  27  52  1   
@<TRIPOS>SUBSTRUCTURE
  1 ****  15 GROUP 4 **** **** 0

# MOE 2024.06 (io_trps.svl 2023.06)
