@<TRIPOS>MOLECULE
NONAME
32 33 1 0 0 
SMALL
USER_CHARGES


@<TRIPOS>ATOM
  1 CL      -1.8960    -1.5620    -2.4000 Cl    1 <1>  -0.1770 
  2 C       -0.8270    -2.3020    -1.2350 C.ar  1 <1>   0.1770 
  3 C       -1.1610    -2.3710     0.1140 C.ar  1 <1>  -0.0090 
  4 C        0.3630    -2.8150    -1.7260 C.ar  1 <1>  -0.1500 
  5 S       -2.7210    -1.7090     0.7450 S.o2  1 <1>   1.4470 
  6 C       -0.2460    -2.9790     0.9690 C.ar  1 <1>  -0.1500 
  7 C        1.2600    -3.4170    -0.8610 C.ar  1 <1>  -0.1500 
  8 O       -2.8390    -0.3270     0.3330 O.2   1 <1>  -0.6500 
  9 O       -2.8000    -2.0210     2.1570 O.2   1 <1>  -0.6500 
 10 N       -3.8870    -2.6490    -0.0450 N.am  1 <1>  -0.8490 
 11 C        0.9410    -3.4910     0.4810 C.ar  1 <1>   0.1770 
 12 C       -5.1990    -1.9750    -0.0970 C.3   1 <1>   0.1960 
 13 C       -4.0230    -3.9840     0.5420 C.3   1 <1>   0.1960 
 14 CL       2.0610    -4.2490     1.5830 Cl    1 <1>  -0.1770 
 15 C       -6.1890    -2.7710    -0.9530 C.3   1 <1>  -0.1860 
 16 C       -4.9210    -4.8570    -0.3370 C.3   1 <1>  -0.1600 
 17 C       -7.5310    -2.0670    -0.9370 C.2   1 <1>   0.9060 
 18 C       -6.3110    -4.2300    -0.4760 C.3   1 <1>  -0.1600 
 19 O       -8.0990    -1.8430    -2.0100 O.co2 1 <1>  -0.9000 
 20 O       -8.0220    -1.7460     0.1520 O.co2 1 <1>  -0.9000 
 21 H        0.5810    -2.7390    -2.7770 H     1 <1>   0.1500 
 22 H       -0.4550    -3.0560     2.0230 H     1 <1>   0.1500 
 23 H        2.1900    -3.8230    -1.2170 H     1 <1>   0.1500 
 24 H       -5.0930    -0.9930    -0.5280 H     1 <1>   0.0800 
 25 H       -5.5910    -1.8570     0.9010 H     1 <1>   0.0800 
 26 H       -4.4450    -3.9080     1.5320 H     1 <1>   0.0800 
 27 H       -3.0540    -4.4480     0.6210 H     1 <1>   0.0800 
 28 H       -5.8370    -2.7580    -1.9680 H     1 <1>   0.0800 
 29 H       -5.0100    -5.8350     0.0980 H     1 <1>   0.0800 
 30 H       -4.4690    -4.9600    -1.3080 H     1 <1>   0.0800 
 31 H       -6.9100    -4.7880    -1.1750 H     1 <1>   0.0800 
 32 H       -6.8130    -4.2440     0.4770 H     1 <1>   0.0800 
@<TRIPOS>BOND
  1   1   2  1   
  2   2   3  ar  
  3   2   4  ar  
  4   3   5  1   
  5   3   6  ar  
  6   4   7  ar  
  7   4  21  1   
  8   5   8  2   
  9   5   9  2   
 10   5  10  am  
 11   6  11  ar  
 12   6  22  1   
 13   7  11  ar  
 14   7  23  1   
 15  10  12  1   
 16  10  13  1   
 17  11  14  1   
 18  12  15  1   
 19  12  24  1   
 20  12  25  1   
 21  13  16  1   
 22  13  26  1   
 23  13  27  1   
 24  15  17  1   
 25  15  18  1   
 26  15  28  1   
 27  16  18  1   
 28  16  29  1   
 29  16  30  1   
 30  17  19  ar  
 31  17  20  ar  
 32  18  31  1   
 33  18  32  1   
@<TRIPOS>SUBSTRUCTURE
  1 ****  10 GROUP 4 **** **** 0

# MOE 2024.06 (io_trps.svl 2023.06)
