@<TRIPOS>MOLECULE
NONAME
47 49 1 0 0 
SMALL
USER_CHARGES


@<TRIPOS>ATOM
  1 S       -0.1000    -0.0170    -0.2030 S.o2  1 <1>   1.3330 
  2 O        0.2220    -0.0280     1.2070 O.2   1 <1>  -0.6500 
  3 O       -0.2730    -1.2700    -0.9040 O.2   1 <1>  -0.6500 
  4 N       -1.5180     0.8930    -0.3910 N.am  1 <1>  -0.8490 
  5 C        1.1200     0.9590    -1.0950 C.3   1 <1>  -0.0550 
  6 C       -1.6170     1.9800     0.5910 C.3   1 <1>   0.1960 
  7 C       -2.7140     0.0450    -0.3740 C.3   1 <1>   0.1960 
  8 C        2.5370     0.3580    -1.1010 C.3   1 <1>  -0.2400 
  9 C       -2.8230     2.8670     0.2820 C.3   1 <1>  -0.1600 
 10 C       -3.9640     0.8710    -0.6890 C.3   1 <1>  -0.1600 
 11 C       -4.1290     2.0500     0.2850 C.3   1 <1>  -0.0190 
 12 C       -5.3720     2.8870    -0.0540 C.2   1 <1>   0.5690 
 13 O       -5.2050     3.9420    -0.6230 O.2   1 <1>  -0.5700 
 14 N       -6.6360     2.4630     0.2780 N.am  1 <1>  -0.6600 
 15 C       -7.8160     3.2940    -0.1140 C.3   1 <1>   0.2840 
 16 C       -6.9860     1.2440     1.0610 C.3   1 <1>   0.1400 
 17 C       -9.0660     2.4710    -0.4290 C.ar  1 <1>  -0.1440 
 18 C       -7.8860     0.3370     0.2220 C.3   1 <1>  -0.0170 
 19 C       -9.1090     1.0900    -0.2700 C.ar  1 <1>  -0.1440 
 20 C      -10.1950     3.1360    -0.8850 C.ar  1 <1>  -0.1500 
 21 C      -10.2700     0.3940    -0.5690 C.ar  1 <1>  -0.1500 
 22 C      -11.3530     2.4390    -1.1800 C.ar  1 <1>  -0.1500 
 23 C      -11.3910     1.0660    -1.0220 C.ar  1 <1>  -0.1500 
 24 H        1.1680     1.9390    -0.6630 H     1 <1>   0.0800 
 25 H        0.7910     1.0700    -2.1110 H     1 <1>   0.0800 
 26 H       -0.7240     2.5810     0.5600 H     1 <1>   0.0800 
 27 H       -1.7090     1.5710     1.5840 H     1 <1>   0.0800 
 28 H       -2.8090    -0.4300     0.5890 H     1 <1>   0.0800 
 29 H       -2.6240    -0.7270    -1.1210 H     1 <1>   0.0800 
 30 H        2.9000     0.2580    -0.0930 H     1 <1>   0.0800 
 31 H        3.2080     0.9910    -1.6520 H     1 <1>   0.0800 
 32 H        2.5220    -0.6160    -1.5580 H     1 <1>   0.0800 
 33 H       -2.6760     3.3280    -0.6800 H     1 <1>   0.0800 
 34 H       -2.8870     3.6520     1.0140 H     1 <1>   0.0800 
 35 H       -4.8250     0.2300    -0.6470 H     1 <1>   0.0800 
 36 H       -3.8880     1.2440    -1.6960 H     1 <1>   0.0800 
 37 H       -4.2450     1.6680     1.2820 H     1 <1>   0.0800 
 38 H       -7.5750     3.8820    -0.9830 H     1 <1>   0.0800 
 39 H       -8.0380     3.9730     0.6910 H     1 <1>   0.0800 
 40 H       -7.5140     1.5440     1.9500 H     1 <1>   0.0800 
 41 H       -6.1150     0.6950     1.3610 H     1 <1>   0.0800 
 42 H       -8.1910    -0.5030     0.8200 H     1 <1>   0.0800 
 43 H       -7.3360    -0.0350    -0.6230 H     1 <1>   0.0800 
 44 H      -10.1780     4.2040    -1.0140 H     1 <1>   0.1500 
 45 H      -10.3070    -0.6740    -0.4520 H     1 <1>   0.1500 
 46 H      -12.2230     2.9640    -1.5340 H     1 <1>   0.1500 
 47 H      -12.2900     0.5210    -1.2530 H     1 <1>   0.1500 
@<TRIPOS>BOND
  1   1   2  2   
  2   1   3  2   
  3   1   4  am  
  4   1   5  1   
  5   4   6  1   
  6   4   7  1   
  7   5   8  1   
  8   5  24  1   
  9   5  25  1   
 10   6   9  1   
 11   6  26  1   
 12   6  27  1   
 13   7  10  1   
 14   7  28  1   
 15   7  29  1   
 16   8  30  1   
 17   8  31  1   
 18   8  32  1   
 19   9  11  1   
 20   9  33  1   
 21   9  34  1   
 22  10  11  1   
 23  10  35  1   
 24  10  36  1   
 25  11  12  1   
 26  11  37  1   
 27  12  13  2   
 28  12  14  am  
 29  14  15  1   
 30  14  16  1   
 31  15  17  1   
 32  15  38  1   
 33  15  39  1   
 34  16  18  1   
 35  16  40  1   
 36  16  41  1   
 37  17  19  ar  
 38  17  20  ar  
 39  18  19  1   
 40  18  42  1   
 41  18  43  1   
 42  19  21  ar  
 43  20  22  ar  
 44  20  44  1   
 45  21  23  ar  
 46  21  45  1   
 47  22  23  ar  
 48  22  46  1   
 49  23  47  1   
@<TRIPOS>SUBSTRUCTURE
  1 ****  11 GROUP 4 **** **** 0

# MOE 2024.06 (io_trps.svl 2023.06)
