@<TRIPOS>MOLECULE
NONAME
45 47 1 0 0 
SMALL
USER_CHARGES


@<TRIPOS>ATOM
  1 S        0.4890     0.2120     0.9470 S.o2  1 <1>   1.5010 
  2 O        1.1060     0.3720     2.2470 O.2   1 <1>  -0.6500 
  3 O       -0.2440     1.3170     0.3670 O.2   1 <1>  -0.6500 
  4 N        1.7460    -0.1530    -0.1270 N.am  1 <1>  -0.8490 
  5 C       -0.5210    -1.2790     0.9220 C.2   1 <1>  -0.0630 
  6 C        2.5600     1.0440    -0.4090 C.3   1 <1>   0.1960 
  7 C        2.6120    -1.2380     0.3770 C.3   1 <1>   0.1960 
  8 C       -1.1350    -1.8290    -0.2000 C.2   1 <1>   0.1080 
  9 C       -0.8590    -2.1340     1.9210 C.2   1 <1>  -0.3020 
 10 C        3.7050     0.7710    -1.4070 C.3   1 <1>   0.2090 
 11 C        3.7350    -1.6040    -0.6130 C.3   1 <1>   0.2090 
 12 N       -1.7810    -2.9200     0.0700 N.2   1 <1>  -0.7070 
 13 C       -1.0840    -1.2600    -1.6020 C.3   1 <1>  -0.0590 
 14 N       -1.6160    -3.1050     1.3860 N.pl3 1 <1>   0.3140 
 15 N        4.5360    -0.4110    -1.0220 N.pl3 1 <1>  -0.8380 
 16 C       -2.2240    -4.2460     2.0800 C.3   1 <1>   0.0160 
 17 C        5.7490    -0.1920    -0.3830 C.ar  1 <1>   0.1000 
 18 C        6.9280    -0.4970    -1.0470 C.ar  1 <1>  -0.1500 
 19 C        5.8200     0.3210     0.9060 C.ar  1 <1>  -0.1500 
 20 C        8.1700    -0.3020    -0.4530 C.ar  1 <1>  -0.1430 
 21 C        7.0440     0.5260     1.5130 C.ar  1 <1>  -0.1500 
 22 C        8.2130     0.2170     0.8380 C.ar  1 <1>  -0.1500 
 23 C        9.4690    -0.6390    -1.1990 C.3   1 <1>   1.1630 
 24 F       10.3930    -1.1600    -0.3990 F     1 <1>  -0.3400 
 25 F        9.2980    -1.5160    -2.1820 F     1 <1>  -0.3400 
 26 F       10.0190     0.4350    -1.7500 F     1 <1>  -0.3400 
 27 H        2.9780     1.4240     0.5070 H     1 <1>   0.0800 
 28 H        1.9320     1.8150    -0.8230 H     1 <1>   0.0800 
 29 H        2.0210    -2.1190     0.5550 H     1 <1>   0.0800 
 30 H        3.0610    -0.9490     1.3120 H     1 <1>   0.0800 
 31 H       -0.5990    -2.0900     2.9630 H     1 <1>   0.1500 
 32 H        4.3330     1.6420    -1.4750 H     1 <1>   0.0800 
 33 H        3.2840     0.5940    -2.3810 H     1 <1>   0.0800 
 34 H        3.3000    -2.0490    -1.4910 H     1 <1>   0.0800 
 35 H        4.3850    -2.3330    -0.1620 H     1 <1>   0.0800 
 36 H       -1.4120    -0.2370    -1.5980 H     1 <1>   0.0800 
 37 H       -1.7290    -1.8260    -2.2500 H     1 <1>   0.0800 
 38 H       -0.0810    -1.3100    -1.9840 H     1 <1>   0.0800 
 39 H       -1.9400    -5.1510     1.5760 H     1 <1>   0.0800 
 40 H       -3.2920    -4.1400     2.0530 H     1 <1>   0.0800 
 41 H       -1.8850    -4.2730     3.0990 H     1 <1>   0.0800 
 42 H        6.8470    -0.8900    -2.0450 H     1 <1>   0.1500 
 43 H        4.9170     0.5590     1.4340 H     1 <1>   0.1500 
 44 H        7.0890     0.9250     2.5120 H     1 <1>   0.1500 
 45 H        9.1600     0.3850     1.3270 H     1 <1>   0.1500 
@<TRIPOS>BOND
  1   1   2  2   
  2   1   3  2   
  3   1   4  am  
  4   1   5  1   
  5   4   6  1   
  6   4   7  1   
  7   5   8  1   
  8   5   9  2   
  9   6  10  1   
 10   6  27  1   
 11   6  28  1   
 12   7  11  1   
 13   7  29  1   
 14   7  30  1   
 15   8  12  2   
 16   8  13  1   
 17   9  14  1   
 18   9  31  1   
 19  10  15  1   
 20  10  32  1   
 21  10  33  1   
 22  11  15  1   
 23  11  34  1   
 24  11  35  1   
 25  12  14  1   
 26  13  36  1   
 27  13  37  1   
 28  13  38  1   
 29  14  16  1   
 30  15  17  1   
 31  16  39  1   
 32  16  40  1   
 33  16  41  1   
 34  17  18  ar  
 35  17  19  ar  
 36  18  20  ar  
 37  18  42  1   
 38  19  21  ar  
 39  19  43  1   
 40  20  22  ar  
 41  20  23  1   
 42  21  22  ar  
 43  21  44  1   
 44  22  45  1   
 45  23  24  1   
 46  23  25  1   
 47  23  26  1   
@<TRIPOS>SUBSTRUCTURE
  1 ****  11 GROUP 4 **** **** 0

# MOE 2024.06 (io_trps.svl 2023.06)
