@<TRIPOS>MOLECULE
NONAME
36 37 1 0 0 
SMALL
USER_CHARGES


@<TRIPOS>ATOM
  1 BR       5.9210    -2.6860    -2.5000 Br    1 <1>  -0.1110 
  2 C        5.5720    -1.3200    -1.1920 C.ar  1 <1>   0.1110 
  3 C        5.1110    -0.0910    -1.6200 C.ar  1 <1>  -0.1500 
  4 C        5.7970    -1.6010     0.1420 C.ar  1 <1>  -0.1500 
  5 C        4.8730     0.8920    -0.6750 C.ar  1 <1>  -0.1500 
  6 C        5.5540    -0.6100     1.0770 C.ar  1 <1>  -0.1500 
  7 C        5.0940     0.6380     0.6730 C.ar  1 <1>  -0.1430 
  8 C        4.8550     1.7450     1.7010 C.3   1 <1>   0.0440 
  9 C        5.9630     2.7870     1.7140 C.2   1 <1>   0.5690 
 10 O        5.7720     3.8320     2.2890 O.2   1 <1>  -0.5700 
 11 N        7.1220     2.5150     1.0680 N.am  1 <1>  -0.7300 
 12 C        8.1710     3.4840     0.7060 C.3   1 <1>   0.2200 
 13 C        8.9870     2.9420    -0.4950 C.3   1 <1>   0.2000 
 14 C        9.0360     3.7640     1.9380 C.3   1 <1>  -0.2400 
 15 O        8.1220     2.5040    -1.5070 O.3   1 <1>  -0.5600 
 16 C        9.8830     1.7410    -0.1970 C.3   1 <1>  -0.1600 
 17 C        8.6040     1.3690    -2.1610 C.3   1 <1>   0.1200 
 18 C        9.9550     1.0450    -1.5380 C.3   1 <1>  -0.1600 
 19 H        4.9460     0.0950    -2.6660 H     1 <1>   0.1500 
 20 H        6.1540    -2.5710     0.4380 H     1 <1>   0.1500 
 21 H        4.5240     1.8600    -0.9950 H     1 <1>   0.1500 
 22 H        5.7300    -0.8130     2.1200 H     1 <1>   0.1500 
 23 H        4.7760     1.3280     2.6870 H     1 <1>   0.0800 
 24 H        3.9280     2.2410     1.4820 H     1 <1>   0.0800 
 25 H        7.1150     1.7110     0.4300 H     1 <1>   0.3700 
 26 H        7.6980     4.4040     0.4030 H     1 <1>   0.0800 
 27 H        9.5830     3.7350    -0.9120 H     1 <1>   0.0800 
 28 H        9.4540     2.8560     2.3320 H     1 <1>   0.0800 
 29 H        8.4390     4.2310     2.7010 H     1 <1>   0.0800 
 30 H        9.8350     4.4350     1.6820 H     1 <1>   0.0800 
 31 H        9.4160     1.0980     0.5280 H     1 <1>   0.0800 
 32 H       10.8510     2.0400     0.1660 H     1 <1>   0.0800 
 33 H        8.6800     1.5760    -3.2140 H     1 <1>   0.0800 
 34 H        7.9010     0.5720    -1.9920 H     1 <1>   0.0800 
 35 H       10.1130    -0.0160    -1.4490 H     1 <1>   0.0800 
 36 H       10.7360     1.4710    -2.1430 H     1 <1>   0.0800 
@<TRIPOS>BOND
  1   1   2  1   
  2   2   3  ar  
  3   2   4  ar  
  4   3   5  ar  
  5   3  19  1   
  6   4   6  ar  
  7   4  20  1   
  8   5   7  ar  
  9   5  21  1   
 10   6   7  ar  
 11   6  22  1   
 12   7   8  1   
 13   8   9  1   
 14   8  23  1   
 15   8  24  1   
 16   9  10  2   
 17   9  11  am  
 18  11  12  1   
 19  11  25  1   
 20  12  13  1   
 21  12  14  1   
 22  12  26  1   
 23  13  15  1   
 24  13  16  1   
 25  13  27  1   
 26  14  28  1   
 27  14  29  1   
 28  14  30  1   
 29  15  17  1   
 30  16  18  1   
 31  16  31  1   
 32  16  32  1   
 33  17  18  1   
 34  17  33  1   
 35  17  34  1   
 36  18  35  1   
 37  18  36  1   
@<TRIPOS>SUBSTRUCTURE
  1 ****  11 GROUP 4 **** **** 0

# MOE 2024.06 (io_trps.svl 2023.06)
