@<TRIPOS>MOLECULE
NONAME
48 50 1 0 0 
SMALL
USER_CHARGES


@<TRIPOS>ATOM
  1 O        0.2870    -0.8040     1.1090 O.2   1 <1>  -0.5700 
  2 C        0.7650    -1.8260     0.6580 C.2   1 <1>   0.6340 
  3 O       -0.0880    -2.8370     0.4120 O.3   1 <1>  -0.0870 
  4 C        2.1830    -1.9520     0.3780 C.ar  1 <1>   0.0860 
  5 N        0.1640    -3.8180    -0.4410 N.2   1 <1>  -0.5130 
  6 C        2.8920    -0.8630    -0.1300 C.ar  1 <1>  -0.1500 
  7 C        2.9000    -3.1260     0.6160 C.ar  1 <1>  -0.1500 
  8 C       -0.7420    -4.6940    -0.6170 C.2   1 <1>   0.3030 
  9 C        4.2550    -0.9310    -0.3970 C.ar  1 <1>   0.0830 
 10 C        4.2520    -3.2270     0.3500 C.ar  1 <1>   0.0830 
 11 C       -2.0610    -4.8620    -0.0630 C.ar  1 <1>   0.0860 
 12 C       -0.4890    -5.8440    -1.5770 C.3   1 <1>  -0.0990 
 13 O        4.9530     0.1300    -0.8980 O.3   1 <1>  -0.3620 
 14 C        4.9470    -2.1180    -0.1450 C.ar  1 <1>   0.0830 
 15 O        4.8210    -4.4340     0.6140 O.3   1 <1>  -0.3630 
 16 C       -2.6500    -6.0180    -0.5460 C.ar  1 <1>  -0.1430 
 17 C       -2.7890    -4.0780     0.8320 C.ar  1 <1>  -0.1500 
 18 C       -1.7340    -6.7440    -1.5030 C.3   1 <1>  -0.0170 
 19 C        4.3130     1.3260    -1.2850 C.3   1 <1>   0.0400 
 20 O        6.2830    -2.1820    -0.3760 O.3   1 <1>  -0.3630 
 21 C        5.7020    -5.0000    -0.3340 C.3   1 <1>   0.0400 
 22 C       -3.9190    -6.4130    -0.1690 C.ar  1 <1>  -0.1500 
 23 C       -4.0610    -4.4600     1.2200 C.ar  1 <1>  -0.1500 
 24 C        7.1070    -1.6030     0.6080 C.3   1 <1>   0.0400 
 25 C       -4.6360    -5.6240     0.7280 C.ar  1 <1>   0.0830 
 26 O       -5.8830    -5.9210     1.1620 O.3   1 <1>  -0.3630 
 27 C       -6.5610    -7.0790     0.7270 C.3   1 <1>   0.0400 
 28 H        2.3410     0.0420    -0.3040 H     1 <1>   0.1500 
 29 H        2.3920    -3.9850     1.0150 H     1 <1>   0.1500 
 30 H       -0.3550    -5.4590    -2.5710 H     1 <1>   0.0800 
 31 H        0.3940    -6.3820    -1.2800 H     1 <1>   0.0800 
 32 H       -2.3700    -3.1700     1.2260 H     1 <1>   0.1500 
 33 H       -1.4830    -7.7160    -1.1150 H     1 <1>   0.0800 
 34 H       -2.1960    -6.8450    -2.4700 H     1 <1>   0.0800 
 35 H        5.0580     1.9860    -1.6900 H     1 <1>   0.0800 
 36 H        3.8590     1.7760    -0.4200 H     1 <1>   0.0800 
 37 H        3.5760     1.1020    -2.0360 H     1 <1>   0.0800 
 38 H        6.6890    -4.6060    -0.1730 H     1 <1>   0.0800 
 39 H        5.7090    -6.0650    -0.1910 H     1 <1>   0.0800 
 40 H        5.3560    -4.7620    -1.3250 H     1 <1>   0.0800 
 41 H       -4.3310    -7.3190    -0.5720 H     1 <1>   0.1500 
 42 H       -4.6230    -3.8560     1.9100 H     1 <1>   0.1500 
 43 H        6.8920    -0.5510     0.6720 H     1 <1>   0.0800 
 44 H        6.9110    -2.0840     1.5500 H     1 <1>   0.0800 
 45 H        8.1310    -1.7530     0.3210 H     1 <1>   0.0800 
 46 H       -7.5240    -7.1000     1.2030 H     1 <1>   0.0800 
 47 H       -5.9920    -7.9450     1.0140 H     1 <1>   0.0800 
 48 H       -6.6820    -7.0320    -0.3410 H     1 <1>   0.0800 
@<TRIPOS>BOND
  1   1   2  2   
  2   2   3  1   
  3   2   4  1   
  4   3   5  1   
  5   4   6  ar  
  6   4   7  ar  
  7   5   8  2   
  8   6   9  ar  
  9   6  28  1   
 10   7  10  ar  
 11   7  29  1   
 12   8  11  1   
 13   8  12  1   
 14   9  13  1   
 15   9  14  ar  
 16  10  14  ar  
 17  10  15  1   
 18  11  16  ar  
 19  11  17  ar  
 20  12  18  1   
 21  12  30  1   
 22  12  31  1   
 23  13  19  1   
 24  14  20  1   
 25  15  21  1   
 26  16  18  1   
 27  16  22  ar  
 28  17  23  ar  
 29  17  32  1   
 30  18  33  1   
 31  18  34  1   
 32  19  35  1   
 33  19  36  1   
 34  19  37  1   
 35  20  24  1   
 36  21  38  1   
 37  21  39  1   
 38  21  40  1   
 39  22  25  ar  
 40  22  41  1   
 41  23  25  ar  
 42  23  42  1   
 43  24  43  1   
 44  24  44  1   
 45  24  45  1   
 46  25  26  1   
 47  26  27  1   
 48  27  46  1   
 49  27  47  1   
 50  27  48  1   
@<TRIPOS>SUBSTRUCTURE
  1 ****   5 GROUP 4 **** **** 0

# MOE 2024.06 (io_trps.svl 2023.06)
