@<TRIPOS>MOLECULE
NONAME
52 55 1 0 0 
SMALL
USER_CHARGES


@<TRIPOS>ATOM
  1 S       -0.2080     1.3910     1.7120 S.o2  1 <1>   1.4470 
  2 O       -1.2790     2.3480     1.8950 O.2   1 <1>  -0.6500 
  3 O       -0.1030     0.2830     2.6360 O.2   1 <1>  -0.6500 
  4 N       -0.4320     0.7250     0.1680 N.am  1 <1>  -0.8490 
  5 C        1.4070     2.2390     1.6270 C.ar  1 <1>  -0.0090 
  6 C       -1.4540    -0.3320     0.1730 C.3   1 <1>   0.1960 
  7 C       -0.7830     1.7330    -0.8480 C.3   1 <1>   0.1960 
  8 C        1.7880     3.2170     2.5490 C.ar  1 <1>  -0.1440 
  9 C        2.3200     1.9020     0.6340 C.ar  1 <1>  -0.1500 
 10 C       -1.6380    -0.9310    -1.2340 C.3   1 <1>   0.1200 
 11 C       -0.9650     1.0790    -2.2290 C.3   1 <1>   0.1200 
 12 C        3.0200     3.8410     2.4350 C.ar  1 <1>  -0.1500 
 13 C        0.8750     3.6280     3.6980 C.3   1 <1>  -0.0960 
 14 C        3.5630     2.5140     0.4950 C.ar  1 <1>   0.0860 
 15 O       -1.9340     0.0710    -2.1660 O.3   1 <1>  -0.5600 
 16 C        3.8920     3.5000     1.4200 C.ar  1 <1>  -0.1500 
 17 C        4.4610     2.1320    -0.5800 C.2   1 <1>   0.5440 
 18 O        4.0170     1.7540    -1.6470 O.2   1 <1>  -0.5700 
 19 N        5.8130     2.1800    -0.4040 N.am  1 <1>  -0.7300 
 20 C        6.8240     1.7810    -1.4020 C.3   1 <1>   0.2200 
 21 C        7.6000     0.5130    -0.9860 C.3   1 <1>  -0.0800 
 22 C        7.9320     2.8400    -1.5160 C.3   1 <1>  -0.1600 
 23 C        8.8810     0.6890    -1.7890 C.3   1 <1>  -0.1600 
 24 C        8.1530     0.6400     0.4490 C.3   1 <1>  -0.1600 
 25 C        9.2120     2.0490    -1.1960 C.3   1 <1>  -0.0800 
 26 C        9.2270     1.7330     0.3100 C.3   1 <1>  -0.1600 
 27 H       -2.3950     0.0650     0.5170 H     1 <1>   0.0800 
 28 H       -1.1590    -1.1190     0.8470 H     1 <1>   0.0800 
 29 H       -0.0060     2.4750    -0.9110 H     1 <1>   0.0800 
 30 H       -1.7000     2.2330    -0.5790 H     1 <1>   0.0800 
 31 H        2.0710     1.1290    -0.0740 H     1 <1>   0.1500 
 32 H       -2.4530    -1.6330    -1.2360 H     1 <1>   0.0800 
 33 H       -0.7420    -1.4380    -1.5470 H     1 <1>   0.0800 
 34 H       -0.0380     0.6490    -2.5680 H     1 <1>   0.0800 
 35 H       -1.2940     1.8080    -2.9470 H     1 <1>   0.0800 
 36 H        3.3080     4.6040     3.1390 H     1 <1>   0.1500 
 37 H        1.3950     4.2490     4.4050 H     1 <1>   0.0800 
 38 H        0.0310     4.1810     3.3230 H     1 <1>   0.0800 
 39 H        0.5160     2.7610     4.2250 H     1 <1>   0.0800 
 40 H        4.8350     4.0100     1.3430 H     1 <1>   0.1500 
 41 H        6.1950     2.3650     0.5210 H     1 <1>   0.3700 
 42 H        6.3630     1.6290    -2.3650 H     1 <1>   0.0800 
 43 H        7.0680    -0.4010    -1.1850 H     1 <1>   0.0800 
 44 H        7.7910     3.6710    -0.8480 H     1 <1>   0.0800 
 45 H        7.9720     3.2040    -2.5270 H     1 <1>   0.0800 
 46 H        8.7080     0.7270    -2.8520 H     1 <1>   0.0800 
 47 H        9.6240    -0.0580    -1.5630 H     1 <1>   0.0800 
 48 H        8.6120    -0.2890     0.7420 H     1 <1>   0.0800 
 49 H        7.4000     0.8880     1.1750 H     1 <1>   0.0800 
 50 H       10.1170     2.5060    -1.5600 H     1 <1>   0.0800 
 51 H       10.1890     1.3470     0.6020 H     1 <1>   0.0800 
 52 H        9.0010     2.6020     0.9040 H     1 <1>   0.0800 
@<TRIPOS>BOND
  1   1   2  2   
  2   1   3  2   
  3   1   4  am  
  4   1   5  1   
  5   4   6  1   
  6   4   7  1   
  7   5   8  ar  
  8   5   9  ar  
  9   6  10  1   
 10   6  27  1   
 11   6  28  1   
 12   7  11  1   
 13   7  29  1   
 14   7  30  1   
 15   8  12  ar  
 16   8  13  1   
 17   9  14  ar  
 18   9  31  1   
 19  10  15  1   
 20  10  32  1   
 21  10  33  1   
 22  11  15  1   
 23  11  34  1   
 24  11  35  1   
 25  12  16  ar  
 26  12  36  1   
 27  13  37  1   
 28  13  38  1   
 29  13  39  1   
 30  14  16  ar  
 31  14  17  1   
 32  16  40  1   
 33  17  18  2   
 34  17  19  am  
 35  19  20  1   
 36  19  41  1   
 37  20  21  1   
 38  20  22  1   
 39  20  42  1   
 40  21  23  1   
 41  21  24  1   
 42  21  43  1   
 43  22  25  1   
 44  22  44  1   
 45  22  45  1   
 46  23  25  1   
 47  23  46  1   
 48  23  47  1   
 49  24  26  1   
 50  24  48  1   
 51  24  49  1   
 52  25  26  1   
 53  25  50  1   
 54  26  51  1   
 55  26  52  1   
@<TRIPOS>SUBSTRUCTURE
  1 ****   9 GROUP 4 **** **** 0

# MOE 2024.06 (io_trps.svl 2023.06)
