@<TRIPOS>MOLECULE
NONAME
47 49 1 0 0 
SMALL
USER_CHARGES


@<TRIPOS>ATOM
  1 CL       5.6840    -4.2820    -1.3970 Cl    1 <1>  -0.1770 
  2 C        3.9720    -3.9040    -1.5380 C.ar  1 <1>   0.1770 
  3 C        3.4460    -2.8550    -0.7870 C.ar  1 <1>   0.1170 
  4 C        3.1860    -4.6650    -2.3820 C.ar  1 <1>  -0.1500 
  5 N        4.2990    -2.1140     0.0420 N.am  1 <1>  -0.5470 
  6 C        2.0860    -2.5910    -0.8980 C.ar  1 <1>  -0.1500 
  7 C        1.8340    -4.3840    -2.4810 C.ar  1 <1>  -0.1500 
  8 C        4.1080    -1.4650     1.2250 C.2   1 <1>   0.5690 
  9 C        1.2880    -3.3490    -1.7380 C.ar  1 <1>  -0.1500 
 10 O        3.0300    -1.2300     1.7100 O.2   1 <1>  -0.5700 
 11 C        5.3910    -1.0880     1.9720 C.3   1 <1>   0.1710 
 12 N        6.5190    -2.0280     1.6630 N.3   1 <1>  -0.8100 
 13 C        7.8490    -1.4790     2.0140 C.3   1 <1>   0.1100 
 14 C        6.3240    -3.3550     2.3100 C.3   1 <1>   0.1100 
 15 C        8.9960    -2.4520     1.6310 C.3   1 <1>   0.3430 
 16 C        7.4400    -4.3630     1.9350 C.3   1 <1>   0.3430 
 17 N        8.4590    -3.7280     1.0410 N.4   1 <1>  -0.9590 
 18 C        9.5050    -4.6550     0.5450 C.3   1 <1>   0.4860 
 19 C       10.2750    -3.9470    -0.5520 C.ar  1 <1>  -0.1430 
 20 C       11.5640    -3.4880    -0.3200 C.ar  1 <1>  -0.1500 
 21 C        9.6880    -3.7410    -1.7930 C.ar  1 <1>  -0.1500 
 22 C       12.2530    -2.8180    -1.3160 C.ar  1 <1>  -0.1500 
 23 C       10.3800    -3.0710    -2.7870 C.ar  1 <1>  -0.1500 
 24 C       11.6600    -2.6070    -2.5470 C.ar  1 <1>  -0.1500 
 25 H        3.6220    -5.4670    -2.9510 H     1 <1>   0.1500 
 26 H        5.2960    -2.2510    -0.1430 H     1 <1>   0.3700 
 27 H        1.6500    -1.7890    -0.3280 H     1 <1>   0.1500 
 28 H        1.2060    -4.9680    -3.1330 H     1 <1>   0.1500 
 29 H        0.2360    -3.1320    -1.8130 H     1 <1>   0.1500 
 30 H        5.1920    -1.0730     3.0290 H     1 <1>   0.0800 
 31 H        5.6560    -0.0910     1.6680 H     1 <1>   0.0800 
 32 H        7.8950    -1.2730     3.0710 H     1 <1>   0.0800 
 33 H        8.0010    -0.5470     1.4960 H     1 <1>   0.0800 
 34 H        5.3760    -3.7720     2.0150 H     1 <1>   0.0800 
 35 H        6.3000    -3.2400     3.3810 H     1 <1>   0.0800 
 36 H        9.5850    -2.6680     2.5070 H     1 <1>   0.0800 
 37 H        9.6390    -1.9620     0.9180 H     1 <1>   0.0800 
 38 H        6.9910    -5.2070     1.4380 H     1 <1>   0.0800 
 39 H        7.9090    -4.7230     2.8360 H     1 <1>   0.0800 
 40 H        7.9250    -3.4050     0.2210 H     1 <1>   0.4500 
 41 H        9.0530    -5.5460     0.1420 H     1 <1>   0.0800 
 42 H       10.1700    -4.9350     1.3450 H     1 <1>   0.0800 
 43 H       12.0490    -3.6450     0.6280 H     1 <1>   0.1500 
 44 H        8.6950    -4.0980    -2.0070 H     1 <1>   0.1500 
 45 H       13.2540    -2.4620    -1.1370 H     1 <1>   0.1500 
 46 H        9.9250    -2.9110    -3.7500 H     1 <1>   0.1500 
 47 H       12.1980    -2.0870    -3.3220 H     1 <1>   0.1500 
@<TRIPOS>BOND
  1   1   2  1   
  2   2   3  ar  
  3   2   4  ar  
  4   3   5  1   
  5   3   6  ar  
  6   4   7  ar  
  7   4  25  1   
  8   5   8  am  
  9   5  26  1   
 10   6   9  ar  
 11   6  27  1   
 12   7   9  ar  
 13   7  28  1   
 14   8  10  2   
 15   8  11  1   
 16   9  29  1   
 17  11  12  1   
 18  11  30  1   
 19  11  31  1   
 20  12  13  1   
 21  12  14  1   
 22  13  15  1   
 23  13  32  1   
 24  13  33  1   
 25  14  16  1   
 26  14  34  1   
 27  14  35  1   
 28  15  17  1   
 29  15  36  1   
 30  15  37  1   
 31  16  17  1   
 32  16  38  1   
 33  16  39  1   
 34  17  18  1   
 35  17  40  1   
 36  18  19  1   
 37  18  41  1   
 38  18  42  1   
 39  19  20  ar  
 40  19  21  ar  
 41  20  22  ar  
 42  20  43  1   
 43  21  23  ar  
 44  21  44  1   
 45  22  24  ar  
 46  22  45  1   
 47  23  24  ar  
 48  23  46  1   
 49  24  47  1   
@<TRIPOS>SUBSTRUCTURE
  1 ****   1 GROUP 4 **** **** 0

# MOE 2024.06 (io_trps.svl 2023.06)
