@<TRIPOS>MOLECULE
NONAME
45 45 1 0 0 
SMALL
USER_CHARGES


@<TRIPOS>ATOM
  1 O       -2.0330     1.2830     2.5080 O.co2 1 <1>  -0.9000 
  2 C       -2.5840     2.3780     2.3650 C.2   1 <1>   0.9060 
  3 O       -3.6120     2.6710     2.9900 O.co2 1 <1>  -0.9000 
  4 C       -2.0090     3.3990     1.3910 C.3   1 <1>  -0.1860 
  5 C       -3.0920     4.2850     0.7260 C.3   1 <1>  -0.0190 
  6 C       -1.1300     2.7390     0.3140 C.3   1 <1>  -0.0220 
  7 C       -4.1140     3.4790    -0.0900 C.2   1 <1>   0.5690 
  8 C       -2.4100     5.4070    -0.0820 C.3   1 <1>  -0.0220 
  9 C       -0.6530     3.7290    -0.7480 C.2   1 <1>  -0.2760 
 10 O       -4.1450     3.5520    -1.2990 O.2   1 <1>  -0.5700 
 11 N       -4.9880     2.7090     0.6000 N.am  1 <1>  -0.7300 
 12 C       -1.2160     4.9370    -0.9150 C.2   1 <1>  -0.2760 
 13 C        0.4960     3.1390    -1.5560 C.3   1 <1>  -0.1020 
 14 C       -5.8450     1.6330     0.1080 C.3   1 <1>   0.5000 
 15 C       -0.7960     6.0040    -1.9180 C.3   1 <1>  -0.1020 
 16 C       -6.6100     1.1490     1.2990 C.1   1 <1>  -0.2000 
 17 C       -6.8390     2.1420    -0.9650 C.3   1 <1>  -0.1600 
 18 C       -4.9300     0.5030    -0.4160 C.3   1 <1>  -0.1600 
 19 C       -7.1930     0.7720     2.2650 C.1   1 <1>  -0.1770 
 20 C       -7.6540     3.3920    -0.5770 C.3   1 <1>  -0.2400 
 21 C       -5.6440    -0.7720    -0.9080 C.3   1 <1>  -0.2400 
 22 H       -1.3780     4.0360     1.9790 H     1 <1>   0.0800 
 23 H       -3.6530     4.7640     1.5070 H     1 <1>   0.0800 
 24 H       -1.6810     1.9470    -0.1640 H     1 <1>   0.0800 
 25 H       -0.2830     2.2920     0.8060 H     1 <1>   0.0800 
 26 H       -2.0600     6.1580     0.6030 H     1 <1>   0.0800 
 27 H       -3.1440     5.8680    -0.7190 H     1 <1>   0.0800 
 28 H       -4.7840     2.6020     1.6150 H     1 <1>   0.3700 
 29 H        1.3520     2.9980    -0.9220 H     1 <1>   0.0800 
 30 H        0.7840     3.7560    -2.3820 H     1 <1>   0.0800 
 31 H        0.2010     2.1830    -1.9520 H     1 <1>   0.0800 
 32 H       -1.5800     6.1460    -2.6410 H     1 <1>   0.0800 
 33 H        0.1020     5.7500    -2.4430 H     1 <1>   0.0800 
 34 H       -0.6230     6.9350    -1.4090 H     1 <1>   0.0800 
 35 H       -7.5310     1.3510    -1.1890 H     1 <1>   0.0800 
 36 H       -6.2980     2.3470    -1.8710 H     1 <1>   0.0800 
 37 H       -4.2530     0.2280     0.3760 H     1 <1>   0.0800 
 38 H       -4.3360     0.8880    -1.2260 H     1 <1>   0.0800 
 39 H       -7.6870     0.4430     3.1610 H     1 <1>   0.1770 
 40 H       -8.2190     3.2150     0.3200 H     1 <1>   0.0800 
 41 H       -8.3340     3.6480    -1.3690 H     1 <1>   0.0800 
 42 H       -6.9970     4.2280    -0.4110 H     1 <1>   0.0800 
 43 H       -6.2430    -1.2000    -0.1230 H     1 <1>   0.0800 
 44 H       -4.9110    -1.5000    -1.2060 H     1 <1>   0.0800 
 45 H       -6.2720    -0.5580    -1.7540 H     1 <1>   0.0800 
@<TRIPOS>BOND
  1   1   2  ar  
  2   2   3  ar  
  3   2   4  1   
  4   4   5  1   
  5   4   6  1   
  6   4  22  1   
  7   5   7  1   
  8   5   8  1   
  9   5  23  1   
 10   6   9  1   
 11   6  24  1   
 12   6  25  1   
 13   7  10  2   
 14   7  11  am  
 15   8  12  1   
 16   8  26  1   
 17   8  27  1   
 18   9  12  2   
 19   9  13  1   
 20  11  14  1   
 21  11  28  1   
 22  12  15  1   
 23  13  29  1   
 24  13  30  1   
 25  13  31  1   
 26  14  16  1   
 27  14  17  1   
 28  14  18  1   
 29  15  32  1   
 30  15  33  1   
 31  15  34  1   
 32  16  19  3   
 33  17  20  1   
 34  17  35  1   
 35  17  36  1   
 36  18  21  1   
 37  18  37  1   
 38  18  38  1   
 39  19  39  1   
 40  20  40  1   
 41  20  41  1   
 42  20  42  1   
 43  21  43  1   
 44  21  44  1   
 45  21  45  1   
@<TRIPOS>SUBSTRUCTURE
  1 ****   7 GROUP 4 **** **** 0

# MOE 2024.06 (io_trps.svl 2023.06)
