@<TRIPOS>MOLECULE
NONAME
29 29 1 0 0 
SMALL
USER_CHARGES


@<TRIPOS>ATOM
  1 BR       0.8670     1.9490     3.1440 Br    1 <1>  -0.1110 
  2 C        0.4290     2.8510     1.4950 C.ar  1 <1>   0.1110 
  3 C        1.3970     2.9790     0.5080 C.ar  1 <1>   0.0830 
  4 C       -0.8520     3.3460     1.3480 C.ar  1 <1>  -0.1500 
  5 O        2.6300     2.4600     0.7430 O.3   1 <1>  -0.3630 
  6 C        1.0430     3.6360    -0.6680 C.ar  1 <1>  -0.1500 
  7 C       -1.1980     3.9990     0.1730 C.ar  1 <1>  -0.1430 
  8 C        3.6710     2.5530    -0.2200 C.3   1 <1>   0.1810 
  9 C       -0.2400     4.1370    -0.8250 C.ar  1 <1>  -0.1500 
 10 C       -2.6020     4.5630    -0.0320 C.3   1 <1>   0.0640 
 11 C        4.9500     1.8940     0.2860 C.2   1 <1>   0.5690 
 12 C       -2.9160     5.6390     1.0120 C.3   1 <1>  -0.2400 
 13 C       -3.6490     3.4450     0.0080 C.3   1 <1>  -0.2400 
 14 O        5.9280     1.8890    -0.4160 O.2   1 <1>  -0.5700 
 15 N        4.9900     1.3210     1.5060 N.am  1 <1>  -0.8000 
 16 H       -1.5620     3.2180     2.1450 H     1 <1>   0.1500 
 17 H        1.7450     3.7690    -1.4690 H     1 <1>   0.1500 
 18 H        3.8620     3.5920    -0.4170 H     1 <1>   0.0800 
 19 H        3.3500     2.0590    -1.1190 H     1 <1>   0.0800 
 20 H       -0.4930     4.6410    -1.7420 H     1 <1>   0.1500 
 21 H       -2.6530     5.0240    -1.0040 H     1 <1>   0.0800 
 22 H       -2.9300     5.2210     2.0030 H     1 <1>   0.0800 
 23 H       -3.8750     6.0820     0.8130 H     1 <1>   0.0800 
 24 H       -2.1690     6.4120     0.9760 H     1 <1>   0.0800 
 25 H       -3.6790     2.9800     0.9770 H     1 <1>   0.0800 
 26 H       -3.4110     2.6940    -0.7250 H     1 <1>   0.0800 
 27 H       -4.6240     3.8400    -0.2130 H     1 <1>   0.0800 
 28 H        5.8440     0.8800     1.8470 H     1 <1>   0.3700 
 29 H        4.1730     1.3130     2.1210 H     1 <1>   0.3700 
@<TRIPOS>BOND
  1   1   2  1   
  2   2   3  ar  
  3   2   4  ar  
  4   3   5  1   
  5   3   6  ar  
  6   4   7  ar  
  7   4  16  1   
  8   5   8  1   
  9   6   9  ar  
 10   6  17  1   
 11   7   9  ar  
 12   7  10  1   
 13   8  11  1   
 14   8  18  1   
 15   8  19  1   
 16   9  20  1   
 17  10  12  1   
 18  10  13  1   
 19  10  21  1   
 20  11  14  2   
 21  11  15  am  
 22  12  22  1   
 23  12  23  1   
 24  12  24  1   
 25  13  25  1   
 26  13  26  1   
 27  13  27  1   
 28  15  28  1   
 29  15  29  1   
@<TRIPOS>SUBSTRUCTURE
  1 ****   3 GROUP 4 **** **** 0

# MOE 2024.06 (io_trps.svl 2023.06)
