@<TRIPOS>MOLECULE
NONAME
42 45 1 0 0 
SMALL
USER_CHARGES


@<TRIPOS>ATOM
  1 F       -0.7670    -0.2180     0.0110 F     1 <1>  -0.1900 
  2 C       -1.9380    -0.7640    -0.1710 C.ar  1 <1>   0.1900 
  3 C       -2.6920    -0.3780    -1.2610 C.ar  1 <1>  -0.1500 
  4 C       -2.3800    -1.7100     0.7330 C.ar  1 <1>  -0.1500 
  5 C       -3.9360    -0.9560    -1.4470 C.ar  1 <1>  -0.1500 
  6 C       -3.6260    -2.2840     0.5390 C.ar  1 <1>  -0.1500 
  7 C       -4.4100    -1.9050    -0.5460 C.ar  1 <1>  -0.1430 
  8 C       -5.7820    -2.5220    -0.7470 C.3   1 <1>   0.4870 
  9 N       -6.7220    -1.9300     0.2440 N.4   1 <1>  -0.9590 
 10 C       -8.0390    -2.6620     0.2560 C.3   1 <1>   0.3430 
 11 C       -6.8840    -0.4550     0.0350 C.3   1 <1>   0.3430 
 12 C       -9.1580    -1.9080     1.0080 C.3   1 <1>   0.0580 
 13 C       -7.8440     0.1780     1.0650 C.3   1 <1>  -0.0800 
 14 C      -10.0730    -1.2640    -0.0370 C.2   1 <1>  -0.0290 
 15 C       -8.5660    -0.8530     1.9510 C.3   1 <1>  -0.1600 
 16 C       -8.9110     0.9580     0.2910 C.3   1 <1>   0.1400 
 17 N       -9.8180     0.0380    -0.4660 N.am  1 <1>  -0.4690 
 18 C      -11.1130    -1.9680    -0.5660 C.2   1 <1>  -0.1500 
 19 C      -10.5750     0.5960    -1.4890 C.2   1 <1>   0.6160 
 20 C      -11.9310    -1.4060    -1.5740 C.2   1 <1>  -0.1500 
 21 O      -10.3020     1.7090    -1.9200 O.2   1 <1>  -0.5700 
 22 C      -11.6560    -0.1550    -2.0220 C.2   1 <1>  -0.1360 
 23 H       -2.3050     0.3580    -1.9450 H     1 <1>   0.1500 
 24 H       -1.7560    -1.9870     1.5650 H     1 <1>   0.1500 
 25 H       -4.5220    -0.6580    -2.3020 H     1 <1>   0.1500 
 26 H       -3.9660    -3.0280     1.2400 H     1 <1>   0.1500 
 27 H       -5.7140    -3.5890    -0.6060 H     1 <1>   0.0800 
 28 H       -6.1290    -2.3320    -1.7500 H     1 <1>   0.0800 
 29 H       -6.2830    -2.0370     1.1660 H     1 <1>   0.4500 
 30 H       -7.9010    -3.6260     0.7180 H     1 <1>   0.0800 
 31 H       -8.3700    -2.8290    -0.7560 H     1 <1>   0.0800 
 32 H       -7.2730    -0.2820    -0.9560 H     1 <1>   0.0800 
 33 H       -5.9250     0.0350     0.1010 H     1 <1>   0.0800 
 34 H       -9.7310    -2.6210     1.5750 H     1 <1>   0.0800 
 35 H       -7.2970     0.8710     1.6800 H     1 <1>   0.0800 
 36 H       -7.8850    -1.3060     2.6520 H     1 <1>   0.0800 
 37 H       -9.3530    -0.3800     2.5150 H     1 <1>   0.0800 
 38 H       -8.4350     1.6480    -0.3870 H     1 <1>   0.0800 
 39 H       -9.5110     1.5360     0.9730 H     1 <1>   0.0800 
 40 H      -11.3470    -2.9700    -0.2470 H     1 <1>   0.1500 
 41 H      -12.7520    -1.9840    -1.9650 H     1 <1>   0.1500 
 42 H      -12.2350     0.3230    -2.7900 H     1 <1>   0.1500 
@<TRIPOS>BOND
  1   1   2  1   
  2   2   3  ar  
  3   2   4  ar  
  4   3   5  ar  
  5   3  23  1   
  6   4   6  ar  
  7   4  24  1   
  8   5   7  ar  
  9   5  25  1   
 10   6   7  ar  
 11   6  26  1   
 12   7   8  1   
 13   8   9  1   
 14   8  27  1   
 15   8  28  1   
 16   9  10  1   
 17   9  11  1   
 18   9  29  1   
 19  10  12  1   
 20  10  30  1   
 21  10  31  1   
 22  11  13  1   
 23  11  32  1   
 24  11  33  1   
 25  12  14  1   
 26  12  15  1   
 27  12  34  1   
 28  13  15  1   
 29  13  16  1   
 30  13  35  1   
 31  14  17  1   
 32  14  18  2   
 33  15  36  1   
 34  15  37  1   
 35  16  17  1   
 36  16  38  1   
 37  16  39  1   
 38  17  19  am  
 39  18  20  1   
 40  18  40  1   
 41  19  21  2   
 42  19  22  1   
 43  20  22  2   
 44  20  41  1   
 45  22  42  1   
@<TRIPOS>SUBSTRUCTURE
  1 ****  11 GROUP 4 **** **** 0

# MOE 2024.06 (io_trps.svl 2023.06)
