@<TRIPOS>MOLECULE
NONAME
39 40 1 0 0 
SMALL
USER_CHARGES


@<TRIPOS>ATOM
  1 CL       5.6740     0.9300     3.0650 Cl    1 <1>  -0.1770 
  2 C        4.8580     0.5100     1.5780 C.ar  1 <1>   0.1770 
  3 C        4.0420     1.4170     0.9240 C.ar  1 <1>   0.1770 
  4 C        5.0740    -0.7460     1.0450 C.ar  1 <1>  -0.1500 
  5 CL       3.7690     3.0110     1.5850 Cl    1 <1>  -0.1770 
  6 C        3.4440     1.0740    -0.2750 C.ar  1 <1>  -0.1500 
  7 C        4.5030    -1.0940    -0.1750 C.ar  1 <1>  -0.1440 
  8 C        3.6790    -0.1790    -0.8230 C.ar  1 <1>  -0.1500 
  9 C        4.8030    -2.4500    -0.8110 C.3   1 <1>   0.5940 
 10 S        4.3450    -3.7590     0.3410 S.3   1 <1>  -0.4600 
 11 N        6.2650    -2.6100    -1.0030 N.am  1 <1>  -0.6600 
 12 C        5.9690    -4.5300     0.4840 C.3   1 <1>   0.1310 
 13 C        6.8790    -3.6020    -0.2900 C.2   1 <1>   0.5690 
 14 C        6.9020    -1.7540    -2.0510 C.3   1 <1>   0.1400 
 15 O        8.0790    -3.7260    -0.2160 O.2   1 <1>  -0.5700 
 16 C        8.2240    -1.1170    -1.5980 C.3   1 <1>  -0.1600 
 17 C        8.1140    -0.5130    -0.1960 C.3   1 <1>   0.3430 
 18 N        9.4580    -0.2680     0.3960 N.4   1 <1>  -0.9590 
 19 C       10.0860    -1.5630     0.8250 C.3   1 <1>   0.2630 
 20 C        9.3470     0.6630     1.5600 C.3   1 <1>   0.2630 
 21 H        5.6910    -1.4430     1.5850 H     1 <1>   0.1500 
 22 H        2.8030     1.7830    -0.7710 H     1 <1>   0.1500 
 23 H        3.2120    -0.4330    -1.7610 H     1 <1>   0.1500 
 24 H        4.2600    -2.6130    -1.7270 H     1 <1>   0.0800 
 25 H        5.9240    -5.5060     0.0380 H     1 <1>   0.0800 
 26 H        6.2330    -4.5820     1.5240 H     1 <1>   0.0800 
 27 H        6.2190    -0.9680    -2.3310 H     1 <1>   0.0800 
 28 H        7.0780    -2.3540    -2.9290 H     1 <1>   0.0800 
 29 H        8.4950    -0.3490    -2.3010 H     1 <1>   0.0800 
 30 H        8.9840    -1.8740    -1.6420 H     1 <1>   0.0800 
 31 H        7.5750    -1.1900     0.4450 H     1 <1>   0.0800 
 32 H        7.5550     0.4080    -0.2510 H     1 <1>   0.0800 
 33 H       10.0540     0.1660    -0.3240 H     1 <1>   0.4500 
 34 H        9.4660    -2.0550     1.5570 H     1 <1>   0.0800 
 35 H       11.0580    -1.3850     1.2560 H     1 <1>   0.0800 
 36 H       10.2000    -2.2280    -0.0150 H     1 <1>   0.0800 
 37 H        8.7170     0.2350     2.3240 H     1 <1>   0.0800 
 38 H        8.9190     1.6030     1.2500 H     1 <1>   0.0800 
 39 H       10.3210     0.8520     1.9820 H     1 <1>   0.0800 
@<TRIPOS>BOND
  1   1   2  1   
  2   2   3  ar  
  3   2   4  ar  
  4   3   5  1   
  5   3   6  ar  
  6   4   7  ar  
  7   4  21  1   
  8   6   8  ar  
  9   6  22  1   
 10   7   8  ar  
 11   7   9  1   
 12   8  23  1   
 13   9  10  1   
 14   9  11  1   
 15   9  24  1   
 16  10  12  1   
 17  11  13  am  
 18  11  14  1   
 19  12  13  1   
 20  12  25  1   
 21  12  26  1   
 22  13  15  2   
 23  14  16  1   
 24  14  27  1   
 25  14  28  1   
 26  16  17  1   
 27  16  29  1   
 28  16  30  1   
 29  17  18  1   
 30  17  31  1   
 31  17  32  1   
 32  18  19  1   
 33  18  20  1   
 34  18  33  1   
 35  19  34  1   
 36  19  35  1   
 37  19  36  1   
 38  20  37  1   
 39  20  38  1   
 40  20  39  1   
@<TRIPOS>SUBSTRUCTURE
  1 ****   4 GROUP 4 **** **** 0

# MOE 2024.06 (io_trps.svl 2023.06)
