@<TRIPOS>MOLECULE
NONAME
40 41 1 0 0 
SMALL
USER_CHARGES


@<TRIPOS>ATOM
  1 O       -0.4220    -2.2700    -1.5680 O.2   1 <1>  -0.5700 
  2 C       -0.0740    -2.5930    -0.4490 C.2   1 <1>   0.6900 
  3 N       -0.9810    -3.2010     0.3680 N.am  1 <1>  -0.6600 
  4 N        1.1640    -2.3410     0.0540 N.am  1 <1>  -0.5470 
  5 C       -1.6080    -2.3530     1.4190 C.3   1 <1>   0.1400 
  6 C       -1.9390    -4.1560    -0.2620 C.3   1 <1>   0.1400 
  7 C        2.2690    -1.6450    -0.4640 C.ar  1 <1>   0.1170 
  8 C       -2.8150    -1.5900     0.8310 C.3   1 <1>   0.3430 
  9 C       -3.1470    -3.3960    -0.8490 C.3   1 <1>   0.3430 
 10 C        3.5590    -1.9470    -0.0110 C.ar  1 <1>  -0.1440 
 11 C        2.1010    -0.6340    -1.4040 C.ar  1 <1>  -0.1500 
 12 N       -3.8160    -2.5120     0.1760 N.4   1 <1>  -0.9590 
 13 C        4.6500    -1.2240    -0.4920 C.ar  1 <1>  -0.1430 
 14 C        3.7470    -3.0750     1.0090 C.3   1 <1>  -0.0970 
 15 C        3.1830     0.0720    -1.8870 C.ar  1 <1>  -0.1500 
 16 C       -4.9190    -1.7270    -0.4560 C.3   1 <1>   0.2630 
 17 C        4.4520    -0.2220    -1.4290 C.ar  1 <1>  -0.1500 
 18 C        6.0790    -1.4820    -0.0300 C.3   1 <1>  -0.0970 
 19 H        1.3610    -2.8670     0.8990 H     1 <1>   0.3700 
 20 H       -0.8880    -1.6420     1.7900 H     1 <1>   0.0800 
 21 H       -1.9210    -2.9680     2.2440 H     1 <1>   0.0800 
 22 H       -2.2680    -4.8760     0.4660 H     1 <1>   0.0800 
 23 H       -1.4410    -4.6910    -1.0540 H     1 <1>   0.0800 
 24 H       -2.4430    -0.8900     0.0990 H     1 <1>   0.0800 
 25 H       -3.2930    -1.0250     1.6140 H     1 <1>   0.0800 
 26 H       -3.8550    -4.1070    -1.2430 H     1 <1>   0.0800 
 27 H       -2.7930    -2.7940    -1.6710 H     1 <1>   0.0800 
 28 H        1.1210    -0.3870    -1.7650 H     1 <1>   0.1500 
 29 H       -4.2130    -3.1200     0.9060 H     1 <1>   0.4500 
 30 H        3.1800    -3.9400     0.7170 H     1 <1>   0.0800 
 31 H        3.4180    -2.7470     1.9790 H     1 <1>   0.0800 
 32 H        4.7680    -3.3910     1.0920 H     1 <1>   0.0800 
 33 H        3.0390     0.8490    -2.6160 H     1 <1>   0.1500 
 34 H       -4.5250    -1.0860    -1.2290 H     1 <1>   0.0800 
 35 H       -5.4150    -1.1160     0.2800 H     1 <1>   0.0800 
 36 H       -5.6460    -2.3900    -0.8980 H     1 <1>   0.0800 
 37 H        5.2850     0.3400    -1.8130 H     1 <1>   0.1500 
 38 H        6.1370    -1.4340     1.0420 H     1 <1>   0.0800 
 39 H        6.7550    -0.7490    -0.4310 H     1 <1>   0.0800 
 40 H        6.4020    -2.4520    -0.3610 H     1 <1>   0.0800 
@<TRIPOS>BOND
  1   1   2  2   
  2   2   3  am  
  3   2   4  am  
  4   3   5  1   
  5   3   6  1   
  6   4   7  1   
  7   4  19  1   
  8   5   8  1   
  9   5  20  1   
 10   5  21  1   
 11   6   9  1   
 12   6  22  1   
 13   6  23  1   
 14   7  10  ar  
 15   7  11  ar  
 16   8  12  1   
 17   8  24  1   
 18   8  25  1   
 19   9  12  1   
 20   9  26  1   
 21   9  27  1   
 22  10  13  ar  
 23  10  14  1   
 24  11  15  ar  
 25  11  28  1   
 26  12  16  1   
 27  12  29  1   
 28  13  17  ar  
 29  13  18  1   
 30  14  30  1   
 31  14  31  1   
 32  14  32  1   
 33  15  17  ar  
 34  15  33  1   
 35  16  34  1   
 36  16  35  1   
 37  16  36  1   
 38  17  37  1   
 39  18  38  1   
 40  18  39  1   
 41  18  40  1   
@<TRIPOS>SUBSTRUCTURE
  1 ****   4 GROUP 4 **** **** 0

# MOE 2024.06 (io_trps.svl 2023.06)
