@<TRIPOS>MOLECULE
NONAME
47 50 1 0 0 
SMALL
USER_CHARGES


@<TRIPOS>ATOM
  1 O        0.5580    -1.1870     2.8450 O.2   1 <1>  -0.5700 
  2 C        0.2150    -1.9710     1.9900 C.2   1 <1>   0.5690 
  3 N        1.1150    -2.4670     1.0740 N.am  1 <1>  -0.6600 
  4 C       -1.2470    -2.4130     2.0070 C.3   1 <1>   0.1810 
  5 C        0.8000    -3.4760     0.0080 C.3   1 <1>   0.1400 
  6 C        2.5340    -1.9860     1.0310 C.3   1 <1>   0.1400 
  7 O       -1.8840    -2.1730     0.7610 O.3   1 <1>  -0.3620 
  8 C        1.8080    -4.6400     0.0050 C.3   1 <1>   0.2090 
  9 C        3.5230    -3.1620     1.0520 C.3   1 <1>   0.2090 
 10 C       -3.1380    -2.6260     0.5180 C.ar  1 <1>   0.0820 
 11 N        3.2140    -4.1300    -0.0470 N.pl3 1 <1>  -0.8380 
 12 C       -3.5950    -2.5160    -0.7880 C.ar  1 <1>  -0.1500 
 13 C       -3.9620    -3.1860     1.4950 C.ar  1 <1>  -0.1500 
 14 C        4.0060    -4.2680    -1.1680 C.ar  1 <1>   0.7200 
 15 C       -4.8600    -2.9710    -1.1050 C.ar  1 <1>  -0.1440 
 16 C       -5.2300    -3.6400     1.1640 C.ar  1 <1>  -0.1500 
 17 N        3.7110    -5.2680    -1.9980 N.ar  1 <1>  -0.6200 
 18 N        4.9940    -3.3880    -1.3300 N.ar  1 <1>  -0.6200 
 19 C       -5.6660    -3.5270    -0.1430 C.ar  1 <1>  -0.1440 
 20 C       -5.5440    -2.9490    -2.4490 C.3   1 <1>  -0.0170 
 21 C        4.4740    -5.3930    -3.0560 C.ar  1 <1>   0.1600 
 22 C        5.7390    -3.5360    -2.3970 C.ar  1 <1>   0.1600 
 23 C       -6.9940    -3.9510    -0.7190 C.3   1 <1>  -0.0170 
 24 C       -7.0040    -3.2990    -2.1130 C.3   1 <1>  -0.1600 
 25 C        5.5200    -4.5400    -3.3070 C.ar  1 <1>  -0.1500 
 26 H       -1.7760    -1.8620     2.7620 H     1 <1>   0.0800 
 27 H       -1.2960    -3.4640     2.2200 H     1 <1>   0.0800 
 28 H        0.8330    -2.9890    -0.9510 H     1 <1>   0.0800 
 29 H       -0.1860    -3.8810     0.1350 H     1 <1>   0.0800 
 30 H        2.7420    -1.3400     1.8650 H     1 <1>   0.0800 
 31 H        2.6870    -1.4200     0.1300 H     1 <1>   0.0800 
 32 H        1.5920    -5.2830    -0.8280 H     1 <1>   0.0800 
 33 H        1.6820    -5.2210     0.9020 H     1 <1>   0.0800 
 34 H        3.4440    -3.6690     1.9980 H     1 <1>   0.0800 
 35 H        4.5280    -2.7870     0.9750 H     1 <1>   0.0800 
 36 H       -2.9630    -2.0780    -1.5380 H     1 <1>   0.1500 
 37 H       -3.6420    -3.2740     2.5150 H     1 <1>   0.1500 
 38 H       -5.8700    -4.0730     1.9130 H     1 <1>   0.1500 
 39 H       -5.1090    -3.7000    -3.0840 H     1 <1>   0.0800 
 40 H       -5.4660    -1.9830    -2.9160 H     1 <1>   0.0800 
 41 H        4.2600    -6.1970    -3.7400 H     1 <1>   0.1500 
 42 H        6.5460    -2.8400    -2.5490 H     1 <1>   0.1500 
 43 H       -7.8150    -3.6060    -0.1150 H     1 <1>   0.0800 
 44 H       -7.0240    -5.0230    -0.8000 H     1 <1>   0.0800 
 45 H       -7.4410    -3.9460    -2.8530 H     1 <1>   0.0800 
 46 H       -7.5750    -2.3880    -2.0630 H     1 <1>   0.0800 
 47 H        6.1380    -4.6530    -4.1780 H     1 <1>   0.1500 
@<TRIPOS>BOND
  1   1   2  2   
  2   2   3  am  
  3   2   4  1   
  4   3   5  1   
  5   3   6  1   
  6   4   7  1   
  7   4  26  1   
  8   4  27  1   
  9   5   8  1   
 10   5  28  1   
 11   5  29  1   
 12   6   9  1   
 13   6  30  1   
 14   6  31  1   
 15   7  10  1   
 16   8  11  1   
 17   8  32  1   
 18   8  33  1   
 19   9  11  1   
 20   9  34  1   
 21   9  35  1   
 22  10  12  ar  
 23  10  13  ar  
 24  11  14  1   
 25  12  15  ar  
 26  12  36  1   
 27  13  16  ar  
 28  13  37  1   
 29  14  17  ar  
 30  14  18  ar  
 31  15  19  ar  
 32  15  20  1   
 33  16  19  ar  
 34  16  38  1   
 35  17  21  ar  
 36  18  22  ar  
 37  19  23  1   
 38  20  24  1   
 39  20  39  1   
 40  20  40  1   
 41  21  25  ar  
 42  21  41  1   
 43  22  25  ar  
 44  22  42  1   
 45  23  24  1   
 46  23  43  1   
 47  23  44  1   
 48  24  45  1   
 49  24  46  1   
 50  25  47  1   
@<TRIPOS>SUBSTRUCTURE
  1 ****   5 GROUP 4 **** **** 0

# MOE 2024.06 (io_trps.svl 2023.06)
