@<TRIPOS>MOLECULE
NONAME
41 42 1 0 0 
SMALL
USER_CHARGES


@<TRIPOS>ATOM
  1 S       -0.2380    -0.3250    -0.3720 S.3   1 <1>  -0.0800 
  2 C       -0.6080     1.3880    -0.5110 C.2   1 <1>  -0.1400 
  3 C        1.4610     0.0190    -0.0970 C.2   1 <1>  -0.1100 
  4 C        0.5090     2.1240    -0.3540 C.2   1 <1>  -0.1500 
  5 C       -2.0490     1.7730    -0.7840 C.3   1 <1>   0.2500 
  6 C        1.6870     1.3450    -0.1180 C.2   1 <1>  -0.1500 
  7 S       -3.0260     1.4990     0.7210 S.3   1 <1>  -0.4600 
  8 C       -4.6840     2.0590     0.2420 C.3   1 <1>   0.0700 
  9 C       -5.6690     1.6130     1.3230 C.3   1 <1>   0.1400 
 10 N       -7.0040     2.2230     1.0950 N.am  1 <1>  -0.7300 
 11 C       -7.8530     1.8900     0.0740 C.2   1 <1>   0.5440 
 12 O       -7.4730     1.0840    -0.7520 O.2   1 <1>  -0.5700 
 13 C       -9.1750     2.4830    -0.0130 C.ar  1 <1>   0.0860 
 14 C      -10.2380     1.7840    -0.5800 C.ar  1 <1>  -0.1500 
 15 C       -9.4430     3.7660     0.4640 C.ar  1 <1>  -0.1500 
 16 C      -11.5140     2.3110    -0.6620 C.ar  1 <1>   0.0820 
 17 C      -10.7070     4.3190     0.3840 C.ar  1 <1>  -0.1500 
 18 O      -12.4360     1.4830    -1.2300 O.3   1 <1>  -0.3620 
 19 C      -11.7630     3.6080    -0.1820 C.ar  1 <1>   0.0820 
 20 C      -13.7950     1.5230    -0.8550 C.3   1 <1>   0.0400 
 21 O      -13.0040     4.1540    -0.2920 O.3   1 <1>  -0.3630 
 22 C      -13.2760     5.5020     0.0260 C.3   1 <1>   0.0400 
 23 H        2.1170    -0.8200     0.0540 H     1 <1>   0.1500 
 24 H        0.5610     3.1980    -0.3920 H     1 <1>   0.1500 
 25 H       -2.4740     1.1690    -1.5660 H     1 <1>   0.0800 
 26 H       -2.1310     2.8160    -1.0310 H     1 <1>   0.0800 
 27 H        2.6420     1.8180     0.0260 H     1 <1>   0.1500 
 28 H       -4.9210     1.6080    -0.7050 H     1 <1>   0.0800 
 29 H       -4.6480     3.1300     0.1590 H     1 <1>   0.0800 
 30 H       -5.3040     1.9120     2.2900 H     1 <1>   0.0800 
 31 H       -5.7580     0.5400     1.3050 H     1 <1>   0.0800 
 32 H       -7.3690     2.7770     1.8710 H     1 <1>   0.3700 
 33 H      -10.0620     0.7950    -0.9680 H     1 <1>   0.1500 
 34 H       -8.6470     4.3460     0.8950 H     1 <1>   0.1500 
 35 H      -10.8480     5.3110     0.7670 H     1 <1>   0.1500 
 36 H      -14.2730     2.3370    -1.3690 H     1 <1>   0.0800 
 37 H      -14.2500     0.5940    -1.1470 H     1 <1>   0.0800 
 38 H      -13.8630     1.6490     0.2110 H     1 <1>   0.0800 
 39 H      -14.3070     5.6970    -0.2080 H     1 <1>   0.0800 
 40 H      -13.1050     5.6560     1.0760 H     1 <1>   0.0800 
 41 H      -12.6420     6.1360    -0.5680 H     1 <1>   0.0800 
@<TRIPOS>BOND
  1   1   2  1   
  2   1   3  1   
  3   2   4  2   
  4   2   5  1   
  5   3   6  2   
  6   3  23  1   
  7   4   6  1   
  8   4  24  1   
  9   5   7  1   
 10   5  25  1   
 11   5  26  1   
 12   6  27  1   
 13   7   8  1   
 14   8   9  1   
 15   8  28  1   
 16   8  29  1   
 17   9  10  1   
 18   9  30  1   
 19   9  31  1   
 20  10  11  am  
 21  10  32  1   
 22  11  12  2   
 23  11  13  1   
 24  13  14  ar  
 25  13  15  ar  
 26  14  16  ar  
 27  14  33  1   
 28  15  17  ar  
 29  15  34  1   
 30  16  18  1   
 31  16  19  ar  
 32  17  19  ar  
 33  17  35  1   
 34  18  20  1   
 35  19  21  1   
 36  20  36  1   
 37  20  37  1   
 38  20  38  1   
 39  21  22  1   
 40  22  39  1   
 41  22  40  1   
 42  22  41  1   
@<TRIPOS>SUBSTRUCTURE
  1 ****  11 GROUP 4 **** **** 0

# MOE 2024.06 (io_trps.svl 2023.06)
