@<TRIPOS>MOLECULE
NONAME
48 51 1 0 0 
SMALL
USER_CHARGES


@<TRIPOS>ATOM
  1 O       -0.4490     0.0470     0.9020 O.2   1 <1>  -0.5700 
  2 C       -1.0410    -0.0170    -0.1530 C.2   1 <1>   0.6900 
  3 N       -1.3720     1.0650    -0.8960 N.am  1 <1>  -0.7300 
  4 N       -1.4100    -1.2180    -0.6510 N.am  1 <1>  -0.7300 
  5 C       -1.1770     2.5380    -0.7590 C.3   1 <1>   0.2200 
  6 C       -1.1530    -2.5180    -0.0120 C.3   1 <1>   0.2200 
  7 C        0.2840     3.0380    -0.8150 C.3   1 <1>  -0.0800 
  8 C       -1.9240     3.2140     0.4130 C.3   1 <1>  -0.0800 
  9 C       -0.2700    -3.3590    -0.9390 C.3   1 <1>  -0.1600 
 10 C       -2.4940    -3.2090     0.2580 C.3   1 <1>  -0.1600 
 11 C        1.0170     2.8770     0.5340 C.3   1 <1>  -0.1600 
 12 C        0.2290     4.5500    -1.1350 C.3   1 <1>  -0.1600 
 13 C       -1.1840     3.0520     1.7580 C.3   1 <1>  -0.1600 
 14 C       -1.9830     4.7270     0.0950 C.3   1 <1>  -0.1600 
 15 C       -0.0580    -4.7710    -0.3730 C.3   1 <1>  -0.1600 
 16 C       -2.2860    -4.6210     0.8260 C.3   1 <1>  -0.1600 
 17 C        0.2490     3.6090     1.6530 C.3   1 <1>  -0.0800 
 18 C       -0.5530     5.3010    -0.0320 C.3   1 <1>  -0.0800 
 19 C       -1.3980    -5.4670    -0.0990 C.3   1 <1>  -0.1600 
 20 C        0.1780     5.1080     1.3090 C.3   1 <1>  -0.1600 
 21 H       -1.8750     0.8390    -1.7460 H     1 <1>   0.3700 
 22 H       -1.8940    -1.2600    -1.5410 H     1 <1>   0.3700 
 23 H       -1.6410     2.9270    -1.6480 H     1 <1>   0.0800 
 24 H       -0.6400    -2.3720     0.9250 H     1 <1>   0.0800 
 25 H        0.8170     2.5220    -1.5940 H     1 <1>   0.0800 
 26 H       -2.9220     2.8210     0.4860 H     1 <1>   0.0800 
 27 H        0.6850    -2.8750    -1.0510 H     1 <1>   0.0800 
 28 H       -0.7310    -3.4360    -1.9070 H     1 <1>   0.0800 
 29 H       -3.0550    -3.2800    -0.6570 H     1 <1>   0.0800 
 30 H       -3.0570    -2.6230     0.9620 H     1 <1>   0.0800 
 31 H        1.1300     1.8410     0.7810 H     1 <1>   0.0800 
 32 H        2.0090     3.2840     0.4550 H     1 <1>   0.0800 
 33 H       -0.2440     4.7100    -2.0880 H     1 <1>   0.0800 
 34 H        1.2280     4.9440    -1.2030 H     1 <1>   0.0800 
 35 H       -1.1590     2.0220     2.0540 H     1 <1>   0.0800 
 36 H       -1.7170     3.5800     2.5290 H     1 <1>   0.0800 
 37 H       -2.5120     5.2420     0.8780 H     1 <1>   0.0800 
 38 H       -2.5230     4.8920    -0.8200 H     1 <1>   0.0800 
 39 H        0.5030    -4.7050     0.5440 H     1 <1>   0.0800 
 40 H        0.5180    -5.3570    -1.0690 H     1 <1>   0.0800 
 41 H       -3.2400    -5.1040     0.9520 H     1 <1>   0.0800 
 42 H       -1.8220    -4.5490     1.7950 H     1 <1>   0.0800 
 43 H        0.7600     3.4730     2.5900 H     1 <1>   0.0800 
 44 H       -0.6010     6.3500    -0.2690 H     1 <1>   0.0800 
 45 H       -1.2200    -6.4270     0.3540 H     1 <1>   0.0800 
 46 H       -1.9110    -5.6330    -1.0310 H     1 <1>   0.0800 
 47 H        1.1720     5.5160     1.2470 H     1 <1>   0.0800 
 48 H       -0.3420     5.6360     2.0890 H     1 <1>   0.0800 
@<TRIPOS>BOND
  1   1   2  2   
  2   2   3  am  
  3   2   4  am  
  4   3   5  1   
  5   3  21  1   
  6   4   6  1   
  7   4  22  1   
  8   5   7  1   
  9   5   8  1   
 10   5  23  1   
 11   6   9  1   
 12   6  10  1   
 13   6  24  1   
 14   7  11  1   
 15   7  12  1   
 16   7  25  1   
 17   8  13  1   
 18   8  14  1   
 19   8  26  1   
 20   9  15  1   
 21   9  27  1   
 22   9  28  1   
 23  10  16  1   
 24  10  29  1   
 25  10  30  1   
 26  11  17  1   
 27  11  31  1   
 28  11  32  1   
 29  12  18  1   
 30  12  33  1   
 31  12  34  1   
 32  13  17  1   
 33  13  35  1   
 34  13  36  1   
 35  14  18  1   
 36  14  37  1   
 37  14  38  1   
 38  15  19  1   
 39  15  39  1   
 40  15  40  1   
 41  16  19  1   
 42  16  41  1   
 43  16  42  1   
 44  17  20  1   
 45  17  43  1   
 46  18  20  1   
 47  18  44  1   
 48  19  45  1   
 49  19  46  1   
 50  20  47  1   
 51  20  48  1   
@<TRIPOS>SUBSTRUCTURE
  1 ****   2 GROUP 4 **** **** 0

# MOE 2024.06 (io_trps.svl 2023.06)
