@<TRIPOS>MOLECULE
NONAME
36 37 1 0 0 
SMALL
USER_CHARGES


@<TRIPOS>ATOM
  1 CL       1.2840    -0.2810     0.6200 Cl    1 <1>  -0.1770 
  2 C        0.4680    -1.7700     0.2230 C.ar  1 <1>   0.1770 
  3 C        0.0720    -2.6200     1.2360 C.ar  1 <1>  -0.1500 
  4 C        0.2270    -2.0810    -1.1010 C.ar  1 <1>  -0.1500 
  5 C       -0.5780    -3.8000     0.9120 C.ar  1 <1>  -0.1500 
  6 C       -0.4240    -3.2640    -1.4110 C.ar  1 <1>  -0.1500 
  7 C       -0.8390    -4.1420    -0.4120 C.ar  1 <1>  -0.0090 
  8 S       -1.7050    -5.6860    -0.8140 S.o2  1 <1>   1.4470 
  9 O       -2.0170    -5.7280    -2.2270 O.2   1 <1>  -0.6500 
 10 O       -1.0000    -6.7930    -0.2050 O.2   1 <1>  -0.6500 
 11 N       -3.1730    -5.5180     0.0140 N.am  1 <1>  -0.8490 
 12 C       -3.8880    -6.8020     0.0950 C.3   1 <1>   0.1960 
 13 C       -4.0610    -4.5210    -0.6090 C.3   1 <1>   0.1960 
 14 C       -5.2010    -6.6690     0.8900 C.3   1 <1>   0.1100 
 15 C       -5.3670    -4.3530     0.1900 C.3   1 <1>   0.1100 
 16 N       -6.0900    -5.6350     0.3210 N.3   1 <1>  -0.8100 
 17 C       -7.3520    -5.5280     1.1080 C.3   1 <1>   0.1710 
 18 C       -8.4350    -4.5990     0.5350 C.2   1 <1>   0.5690 
 19 O       -9.3300    -5.0500    -0.1340 O.2   1 <1>  -0.5700 
 20 N       -8.4220    -3.2770     0.8120 N.am  1 <1>  -0.8000 
 21 H        0.2720    -2.3610     2.2610 H     1 <1>   0.1500 
 22 H        0.5470    -1.4050    -1.8760 H     1 <1>   0.1500 
 23 H       -0.8890    -4.4710     1.6970 H     1 <1>   0.1500 
 24 H       -0.6110    -3.5100    -2.4440 H     1 <1>   0.1500 
 25 H       -3.2650    -7.5330     0.5830 H     1 <1>   0.0800 
 26 H       -4.1100    -7.1640    -0.8960 H     1 <1>   0.0800 
 27 H       -4.3080    -4.8190    -1.6150 H     1 <1>   0.0800 
 28 H       -3.5600    -3.5700    -0.6570 H     1 <1>   0.0800 
 29 H       -4.9620    -6.4270     1.9120 H     1 <1>   0.0800 
 30 H       -5.7080    -7.6180     0.8790 H     1 <1>   0.0800 
 31 H       -5.9890    -3.6440    -0.3280 H     1 <1>   0.0800 
 32 H       -5.1350    -3.9590     1.1640 H     1 <1>   0.0800 
 33 H       -7.1230    -5.2060     2.1070 H     1 <1>   0.0800 
 34 H       -7.7920    -6.5070     1.1770 H     1 <1>   0.0800 
 35 H       -9.1620    -2.6890     0.4260 H     1 <1>   0.3700 
 36 H       -7.7190    -2.8160     1.3860 H     1 <1>   0.3700 
@<TRIPOS>BOND
  1   1   2  1   
  2   2   3  ar  
  3   2   4  ar  
  4   3   5  ar  
  5   3  21  1   
  6   4   6  ar  
  7   4  22  1   
  8   5   7  ar  
  9   5  23  1   
 10   6   7  ar  
 11   6  24  1   
 12   7   8  1   
 13   8   9  2   
 14   8  10  2   
 15   8  11  am  
 16  11  12  1   
 17  11  13  1   
 18  12  14  1   
 19  12  25  1   
 20  12  26  1   
 21  13  15  1   
 22  13  27  1   
 23  13  28  1   
 24  14  16  1   
 25  14  29  1   
 26  14  30  1   
 27  15  16  1   
 28  15  31  1   
 29  15  32  1   
 30  16  17  1   
 31  17  18  1   
 32  17  33  1   
 33  17  34  1   
 34  18  19  2   
 35  18  20  am  
 36  20  35  1   
 37  20  36  1   
@<TRIPOS>SUBSTRUCTURE
  1 ****  13 GROUP 4 **** **** 0

# MOE 2024.06 (io_trps.svl 2023.06)
