@<TRIPOS>MOLECULE
NONAME
29 30 1 0 0 
SMALL
USER_CHARGES


@<TRIPOS>ATOM
  1 F        0.1350     0.7080    -0.9520 F     1 <1>  -0.3400 
  2 C       -1.0440     1.2810    -0.7050 C.3   1 <1>   1.0200 
  3 F       -1.8630     0.2750    -0.4030 F     1 <1>  -0.3400 
  4 F       -1.4710     1.7360    -1.8800 F     1 <1>  -0.3400 
  5 C       -0.9460     2.3590     0.4390 C.3   1 <1>   0.5360 
  6 O       -1.0270     1.7800     1.7240 O.3   1 <1>  -0.6800 
  7 N       -2.1140     3.2470     0.3110 N.pl3 1 <1>   0.3140 
  8 C        0.3410     3.2180     0.4780 C.3   1 <1>  -0.1600 
  9 N       -3.3650     2.9860     0.7810 N.2   1 <1>  -0.7070 
 10 C       -2.0410     4.4490    -0.2970 C.2   1 <1>  -0.0680 
 11 C        0.4540     4.2930    -0.6240 C.3   1 <1>   0.6490 
 12 C       -4.0530     4.0270     0.4290 C.2   1 <1>   0.1080 
 13 N       -0.8550     4.9710    -0.8410 N.pl3 1 <1>  -0.8530 
 14 C       -3.2850     4.9720    -0.2480 C.2   1 <1>  -0.1500 
 15 O        0.6000     3.6230    -1.8250 O.3   1 <1>  -0.6800 
 16 C        1.6860     5.2810    -0.3470 C.3   1 <1>   1.0200 
 17 C       -5.5240     4.1660     0.7410 C.3   1 <1>  -0.0590 
 18 F        1.8280     6.2280    -1.2720 F     1 <1>  -0.3400 
 19 F        1.6180     5.9110     0.8230 F     1 <1>  -0.3400 
 20 F        2.8430     4.6200    -0.3340 F     1 <1>  -0.3400 
 21 H       -1.9890     1.7040     1.9330 H     1 <1>   0.4000 
 22 H        1.2080     2.5840     0.4610 H     1 <1>   0.0800 
 23 H        0.3550     3.7330     1.4230 H     1 <1>   0.0800 
 24 H       -0.9320     5.1630    -1.8490 H     1 <1>   0.4000 
 25 H       -3.6210     5.9160    -0.6350 H     1 <1>   0.1500 
 26 H        1.5190     3.3020    -1.9310 H     1 <1>   0.4000 
 27 H       -6.0640     3.3520     0.2940 H     1 <1>   0.0800 
 28 H       -5.9040     5.0940     0.3570 H     1 <1>   0.0800 
 29 H       -5.6700     4.1390     1.8050 H     1 <1>   0.0800 
@<TRIPOS>BOND
  1   1   2  1   
  2   2   3  1   
  3   2   4  1   
  4   2   5  1   
  5   5   6  1   
  6   5   7  1   
  7   5   8  1   
  8   6  21  1   
  9   7   9  1   
 10   7  10  1   
 11   8  11  1   
 12   8  22  1   
 13   8  23  1   
 14   9  12  2   
 15  10  13  1   
 16  10  14  2   
 17  11  13  1   
 18  11  15  1   
 19  11  16  1   
 20  12  14  1   
 21  12  17  1   
 22  13  24  1   
 23  14  25  1   
 24  15  26  1   
 25  16  18  1   
 26  16  19  1   
 27  16  20  1   
 28  17  27  1   
 29  17  28  1   
 30  17  29  1   
@<TRIPOS>SUBSTRUCTURE
  1 ****   5 GROUP 4 **** **** 0

# MOE 2024.06 (io_trps.svl 2023.06)
