@<TRIPOS>MOLECULE
NONAME
46 49 1 0 0 
SMALL
USER_CHARGES


@<TRIPOS>ATOM
  1 O       -0.6760     0.2600    -0.1610 O.2   1 <1>  -0.5700 
  2 C       -0.6820     1.4160     0.1610 C.2   1 <1>   0.6590 
  3 O       -1.8380     2.1180     0.4730 O.3   1 <1>  -0.4300 
  4 C        0.6320     2.3070     0.2380 C.3   1 <1>  -0.0190 
  5 C       -1.6180     3.5050     0.9420 C.3   1 <1>   0.2000 
  6 C        1.1710     3.4240    -0.9920 C.3   1 <1>  -0.0190 
  7 C       -0.1450     3.2330     1.1470 C.3   1 <1>  -0.0800 
  8 C       -1.5560     4.8660    -0.1470 C.3   1 <1>  -0.1600 
  9 C        2.6130     3.8920    -0.7650 C.2   1 <1>   0.5690 
 10 C       -0.0500     4.6800    -1.0200 C.3   1 <1>  -0.0800 
 11 C       -0.1110     3.9780    -0.0200 C.3   1 <1>  -0.1600 
 12 O        2.8250     5.0460    -0.4890 O.2   1 <1>  -0.5700 
 13 N        3.5960     2.9440    -0.8820 N.am  1 <1>  -0.5470 
 14 C        4.9860     3.0230    -0.7360 C.ar  1 <1>   0.1170 
 15 C        5.6990     4.2180    -0.7330 C.ar  1 <1>  -0.1500 
 16 C        5.7070     1.8430    -0.5990 C.ar  1 <1>  -0.1500 
 17 C        7.0730     4.2280    -0.5910 C.ar  1 <1>  -0.1500 
 18 C        7.0820     1.8550    -0.4590 C.ar  1 <1>  -0.1500 
 19 C        7.8090     3.0490    -0.4500 C.ar  1 <1>   0.0860 
 20 C        9.2510     3.0770    -0.3030 C.2   1 <1>   0.6340 
 21 O        9.8990     4.1050    -0.2990 O.2   1 <1>  -0.5700 
 22 O        9.8870     1.9080    -0.1670 O.3   1 <1>  -0.4300 
 23 C       11.2820     1.8080     0.0020 C.3   1 <1>   0.2000 
 24 C       11.7000     0.4300    -0.5040 C.3   1 <1>  -0.2400 
 25 C       11.6040     1.9780     1.4870 C.3   1 <1>  -0.2400 
 26 H        1.4230     1.7940     0.7540 H     1 <1>   0.0800 
 27 H       -2.1680     3.6750     1.8520 H     1 <1>   0.0800 
 28 H        1.1730     2.9140    -1.9430 H     1 <1>   0.0800 
 29 H        0.3580     3.6900     1.9890 H     1 <1>   0.0800 
 30 H       -1.5820     5.8000     0.4020 H     1 <1>   0.0800 
 31 H       -2.4120     4.8580    -0.8030 H     1 <1>   0.0800 
 32 H       -0.3780     4.6670    -2.0610 H     1 <1>   0.0800 
 33 H       -0.7510     3.3040    -0.9260 H     1 <1>   0.0800 
 34 H        0.4700     4.8140     0.4850 H     1 <1>   0.0800 
 35 H        3.2560     2.0080    -1.0930 H     1 <1>   0.3700 
 36 H        5.1850     5.1550    -0.8440 H     1 <1>   0.1500 
 37 H        5.1900     0.9000    -0.5990 H     1 <1>   0.1500 
 38 H        7.5940     5.1710    -0.5910 H     1 <1>   0.1500 
 39 H        7.6050     0.9200    -0.3540 H     1 <1>   0.1500 
 40 H       11.7650     2.5730    -0.5850 H     1 <1>   0.0800 
 41 H       11.2050    -0.3430     0.0560 H     1 <1>   0.0800 
 42 H       12.7620     0.3070    -0.3970 H     1 <1>   0.0800 
 43 H       11.4510     0.3320    -1.5460 H     1 <1>   0.0800 
 44 H       11.0910     1.2350     2.0720 H     1 <1>   0.0800 
 45 H       11.3120     2.9590     1.8180 H     1 <1>   0.0800 
 46 H       12.6610     1.8730     1.6460 H     1 <1>   0.0800 
@<TRIPOS>BOND
  1   1   2  2   
  2   2   3  1   
  3   2   4  1   
  4   3   5  1   
  5   4   6  1   
  6   4   7  1   
  7   4  26  1   
  8   5   7  1   
  9   5   8  1   
 10   5  27  1   
 11   6   9  1   
 12   6  10  1   
 13   6  28  1   
 14   7  11  1   
 15   7  29  1   
 16   8  10  1   
 17   8  30  1   
 18   8  31  1   
 19   9  12  2   
 20   9  13  am  
 21  10  11  1   
 22  10  32  1   
 23  11  33  1   
 24  11  34  1   
 25  13  14  1   
 26  13  35  1   
 27  14  15  ar  
 28  14  16  ar  
 29  15  17  ar  
 30  15  36  1   
 31  16  18  ar  
 32  16  37  1   
 33  17  19  ar  
 34  17  38  1   
 35  18  19  ar  
 36  18  39  1   
 37  19  20  1   
 38  20  21  2   
 39  20  22  1   
 40  22  23  1   
 41  23  24  1   
 42  23  25  1   
 43  23  40  1   
 44  24  41  1   
 45  24  42  1   
 46  24  43  1   
 47  25  44  1   
 48  25  45  1   
 49  25  46  1   
@<TRIPOS>SUBSTRUCTURE
  1 ****  14 GROUP 4 **** **** 0

# MOE 2024.06 (io_trps.svl 2023.06)
