@<TRIPOS>MOLECULE
NONAME
44 45 1 0 0 
SMALL
USER_CHARGES


@<TRIPOS>ATOM
  1 S        0.0500     0.2450     0.2630 S.o2  1 <1>   1.2040 
  2 O        0.0550     0.8920     1.5570 O.2   1 <1>  -0.6500 
  3 O       -0.0400     1.0530    -0.9340 O.2   1 <1>  -0.6500 
  4 C       -1.2190    -1.0430     0.2280 C.ar  1 <1>  -0.0090 
  5 C        1.5560    -0.7120     0.1440 C.3   1 <1>  -0.0550 
  6 C       -1.6850    -1.6240     1.4020 C.ar  1 <1>  -0.1500 
  7 C       -1.7380    -1.5060    -0.9760 C.ar  1 <1>  -0.1500 
  8 C        2.8170     0.1720     0.1400 C.3   1 <1>  -0.0990 
  9 C       -2.6340    -2.6320     1.3780 C.ar  1 <1>  -0.1500 
 10 C       -2.6870    -2.5140    -1.0100 C.ar  1 <1>  -0.1500 
 11 C        4.1110    -0.6240     0.0620 C.2   1 <1>   0.5690 
 12 C       -3.1360    -3.0780     0.1700 C.ar  1 <1>  -0.1500 
 13 O        4.0060    -1.7970    -0.2090 O.2   1 <1>  -0.5700 
 14 N        5.3190     0.0020     0.2810 N.am  1 <1>  -0.6600 
 15 C        6.6600    -0.6690     0.3310 C.3   1 <1>   0.2200 
 16 C        5.4830     1.4810     0.1630 C.3   1 <1>   0.1400 
 17 C        7.3420    -0.4500    -1.0290 C.3   1 <1>  -0.1600 
 18 C        6.6400    -2.1450     0.7720 C.3   1 <1>  -0.1600 
 19 C        6.1500     1.7890    -1.1840 C.3   1 <1>  -0.1600 
 20 C        7.4890     1.0490    -1.3410 C.3   1 <1>  -0.1600 
 21 C        8.0140    -2.6570     1.2310 C.3   1 <1>  -0.2400 
 22 H        1.5390    -1.2930    -0.7590 H     1 <1>   0.0800 
 23 H        1.6150    -1.3950     0.9700 H     1 <1>   0.0800 
 24 H       -1.3050    -1.2810     2.3510 H     1 <1>   0.1500 
 25 H       -1.3990    -1.0710    -1.9010 H     1 <1>   0.1500 
 26 H        2.8270     0.7570     1.0420 H     1 <1>   0.0800 
 27 H        2.7730     0.8370    -0.7030 H     1 <1>   0.0800 
 28 H       -2.9840    -3.0660     2.2990 H     1 <1>   0.1500 
 29 H       -3.0770    -2.8560    -1.9530 H     1 <1>   0.1500 
 30 H       -3.8750    -3.8610     0.1470 H     1 <1>   0.1500 
 31 H        7.2400    -0.1480     1.0740 H     1 <1>   0.0800 
 32 H        6.1040     1.8340     0.9680 H     1 <1>   0.0800 
 33 H        4.5450     2.0000     0.2260 H     1 <1>   0.0800 
 34 H        6.7570    -0.9310    -1.7930 H     1 <1>   0.0800 
 35 H        8.3180    -0.9010    -1.0310 H     1 <1>   0.0800 
 36 H        6.2960    -2.7640    -0.0380 H     1 <1>   0.0800 
 37 H        5.9540    -2.2510     1.5940 H     1 <1>   0.0800 
 38 H        6.3120     2.8490    -1.2690 H     1 <1>   0.0800 
 39 H        5.4820     1.4960    -1.9760 H     1 <1>   0.0800 
 40 H        7.8610     1.1770    -2.3430 H     1 <1>   0.0800 
 41 H        8.2080     1.4790    -0.6650 H     1 <1>   0.0800 
 42 H        8.7220    -2.6440     0.4220 H     1 <1>   0.0800 
 43 H        7.9250    -3.6710     1.5800 H     1 <1>   0.0800 
 44 H        8.3930    -2.0530     2.0370 H     1 <1>   0.0800 
@<TRIPOS>BOND
  1   1   2  2   
  2   1   3  2   
  3   1   4  1   
  4   1   5  1   
  5   4   6  ar  
  6   4   7  ar  
  7   5   8  1   
  8   5  22  1   
  9   5  23  1   
 10   6   9  ar  
 11   6  24  1   
 12   7  10  ar  
 13   7  25  1   
 14   8  11  1   
 15   8  26  1   
 16   8  27  1   
 17   9  12  ar  
 18   9  28  1   
 19  10  12  ar  
 20  10  29  1   
 21  11  13  2   
 22  11  14  am  
 23  12  30  1   
 24  14  15  1   
 25  14  16  1   
 26  15  17  1   
 27  15  18  1   
 28  15  31  1   
 29  16  19  1   
 30  16  32  1   
 31  16  33  1   
 32  17  20  1   
 33  17  34  1   
 34  17  35  1   
 35  18  21  1   
 36  18  36  1   
 37  18  37  1   
 38  19  20  1   
 39  19  38  1   
 40  19  39  1   
 41  20  40  1   
 42  20  41  1   
 43  21  42  1   
 44  21  43  1   
 45  21  44  1   
@<TRIPOS>SUBSTRUCTURE
  1 ****   8 GROUP 4 **** **** 0

# MOE 2024.06 (io_trps.svl 2023.06)
