@<TRIPOS>MOLECULE
NONAME
39 41 1 0 0 
SMALL
USER_CHARGES


@<TRIPOS>ATOM
  1 O       -6.6600     2.0130     0.6980 O.3   1 <1>  -0.5600 
  2 C       -7.9440     2.4090     0.2960 C.3   1 <1>   0.2800 
  3 C       -5.7800     1.4650    -0.2290 C.3   1 <1>   0.1200 
  4 C       -8.6240     2.9590     1.5620 C.3   1 <1>  -0.1600 
  5 C       -8.7670     1.2150    -0.2350 C.3   1 <1>  -0.1600 
  6 C       -7.8870     3.5280    -0.7670 C.3   1 <1>  -0.1600 
  7 C       -4.4910     1.1500     0.5310 C.3   1 <1>   0.3430 
  8 C      -10.0550     3.4300     1.2430 C.3   1 <1>  -0.0800 
  9 C      -10.1980     1.6810    -0.5720 C.3   1 <1>  -0.0800 
 10 C       -9.3180     3.9940    -1.1040 C.3   1 <1>  -0.0800 
 11 N       -3.4500     0.5490    -0.3580 N.4   1 <1>  -0.9060 
 12 C      -10.8650     2.2390     0.7000 C.3   1 <1>  -0.1600 
 13 C       -9.9920     4.5340     0.1710 C.3   1 <1>  -0.1600 
 14 C      -10.1310     2.7960    -1.6350 C.3   1 <1>  -0.1600 
 15 C       -2.1940     0.2430     0.3890 C.3   1 <1>   0.2630 
 16 H       -5.5930     2.1870    -1.0030 H     1 <1>   0.0800 
 17 H       -6.2100     0.5660    -0.6310 H     1 <1>   0.0800 
 18 H       -8.0540     3.7850     1.9490 H     1 <1>   0.0800 
 19 H       -8.6600     2.1930     2.3160 H     1 <1>   0.0800 
 20 H       -8.8080     0.4400     0.5100 H     1 <1>   0.0800 
 21 H       -8.3280     0.8150    -1.1290 H     1 <1>   0.0800 
 22 H       -7.4320     3.1730    -1.6720 H     1 <1>   0.0800 
 23 H       -7.3170     4.3590    -0.3930 H     1 <1>   0.0800 
 24 H       -4.7250     0.4650     1.3310 H     1 <1>   0.0800 
 25 H       -4.1170     2.0640     0.9640 H     1 <1>   0.0800 
 26 H      -10.5210     3.8130     2.1350 H     1 <1>   0.0800 
 27 H      -10.7730     0.8520    -0.9490 H     1 <1>   0.0800 
 28 H       -9.2830     4.7700    -1.8510 H     1 <1>   0.0800 
 29 H       -3.2420     1.1990    -1.1300 H     1 <1>   0.4500 
 30 H       -3.8180    -0.3140    -0.7820 H     1 <1>   0.4500 
 31 H      -11.8690     2.5550     0.4750 H     1 <1>   0.0800 
 32 H      -10.9270     1.4680     1.4480 H     1 <1>   0.0800 
 33 H       -9.4400     5.3780     0.5480 H     1 <1>   0.0800 
 34 H      -10.9870     4.8740    -0.0590 H     1 <1>   0.0800 
 35 H      -11.1280     3.1180    -1.8830 H     1 <1>   0.0800 
 36 H       -9.6810     2.4170    -2.5360 H     1 <1>   0.0800 
 37 H       -1.7830     1.1440     0.8170 H     1 <1>   0.0800 
 38 H       -1.4590    -0.1880    -0.2720 H     1 <1>   0.0800 
 39 H       -2.3920    -0.4570     1.1850 H     1 <1>   0.0800 
@<TRIPOS>BOND
  1   1   2  1   
  2   1   3  1   
  3   2   4  1   
  4   2   5  1   
  5   2   6  1   
  6   3   7  1   
  7   3  16  1   
  8   3  17  1   
  9   4   8  1   
 10   4  18  1   
 11   4  19  1   
 12   5   9  1   
 13   5  20  1   
 14   5  21  1   
 15   6  10  1   
 16   6  22  1   
 17   6  23  1   
 18   7  11  1   
 19   7  24  1   
 20   7  25  1   
 21   8  12  1   
 22   8  13  1   
 23   8  26  1   
 24   9  12  1   
 25   9  14  1   
 26   9  27  1   
 27  10  13  1   
 28  10  14  1   
 29  10  28  1   
 30  11  15  1   
 31  11  29  1   
 32  11  30  1   
 33  12  31  1   
 34  12  32  1   
 35  13  33  1   
 36  13  34  1   
 37  14  35  1   
 38  14  36  1   
 39  15  37  1   
 40  15  38  1   
 41  15  39  1   
@<TRIPOS>SUBSTRUCTURE
  1 ****   2 GROUP 4 **** **** 0

# MOE 2024.06 (io_trps.svl 2023.06)
