@<TRIPOS>MOLECULE
NONAME
51 53 1 0 0 
SMALL
USER_CHARGES


@<TRIPOS>ATOM
  1 O       -0.4020     0.4340    -0.8450 O.3   1 <1>  -0.3630 
  2 C       -0.3490     1.7740    -0.6860 C.ar  1 <1>   0.3920 
  3 C        0.7390    -0.3440    -1.1650 C.3   1 <1>   0.1200 
  4 N        0.8250     2.3630    -0.7450 N.ar  1 <1>  -0.3100 
  5 C       -1.5560     2.4590    -0.4520 C.ar  1 <1>   0.0000 
  6 C        1.6660    -0.4330     0.0630 C.3   1 <1>   0.3430 
  7 N        0.9230     3.6720    -0.5770 N.ar  1 <1>  -0.3100 
  8 C       -1.4510     3.8460    -0.2750 C.ar  1 <1>   0.0000 
  9 C       -2.8290     1.8520    -0.3830 C.ar  1 <1>  -0.1500 
 10 N        3.1280    -0.4650    -0.2950 N.4   1 <1>  -0.9590 
 11 C       -0.1520     4.4040    -0.3620 C.ar  1 <1>   0.3100 
 12 C       -2.6300     4.5820    -0.0190 C.ar  1 <1>  -0.1500 
 13 C       -3.9540     2.5910    -0.1390 C.ar  1 <1>  -0.1500 
 14 C        3.9470    -0.8720     0.8810 C.3   1 <1>   0.3430 
 15 C        3.5690     0.8670    -0.8130 C.3   1 <1>   0.3430 
 16 C        0.0280     5.8270    -0.2120 C.ar  1 <1>   0.0000 
 17 C       -3.8520     3.9720     0.0460 C.ar  1 <1>  -0.1500 
 18 C        3.8130    -2.3740     1.1040 C.3   1 <1>  -0.2400 
 19 C        4.8970     0.7260    -1.5480 C.3   1 <1>  -0.2400 
 20 C       -0.2800     6.7050    -1.2500 C.ar  1 <1>  -0.1500 
 21 C        0.5110     6.3710     0.9760 C.ar  1 <1>  -0.1500 
 22 C       -0.1210     8.0700    -1.1030 C.ar  1 <1>  -0.1500 
 23 C        0.6710     7.7360     1.1260 C.ar  1 <1>  -0.1500 
 24 C        0.3570     8.5950     0.0860 C.ar  1 <1>  -0.1430 
 25 C        0.5330    10.0940     0.2490 C.3   1 <1>  -0.0970 
 26 H        1.2190     0.1100    -2.0140 H     1 <1>   0.0800 
 27 H        0.3930    -1.3240    -1.4410 H     1 <1>   0.0800 
 28 H        1.4040    -1.3190     0.6150 H     1 <1>   0.0800 
 29 H        1.4850     0.4190     0.6990 H     1 <1>   0.0800 
 30 H       -2.9080     0.7890    -0.5260 H     1 <1>   0.1500 
 31 H        3.2800    -1.1580    -1.0380 H     1 <1>   0.4500 
 32 H       -2.5630     5.6470     0.1280 H     1 <1>   0.1500 
 33 H       -4.9230     2.1250    -0.0870 H     1 <1>   0.1500 
 34 H        3.6320    -0.3320     1.7600 H     1 <1>   0.0800 
 35 H        4.9850    -0.6440     0.7040 H     1 <1>   0.0800 
 36 H        3.6570     1.5760    -0.0050 H     1 <1>   0.0800 
 37 H        2.8400     1.2530    -1.5080 H     1 <1>   0.0800 
 38 H       -4.7450     4.5420     0.2410 H     1 <1>   0.1500 
 39 H        2.8110    -2.6500     1.3760 H     1 <1>   0.0800 
 40 H        4.4600    -2.6650     1.9130 H     1 <1>   0.0800 
 41 H        4.1170    -2.9190     0.2290 H     1 <1>   0.0800 
 42 H        5.6940     0.4460    -0.8840 H     1 <1>   0.0800 
 43 H        5.1550     1.6760    -1.9810 H     1 <1>   0.0800 
 44 H        4.8190     0.0110    -2.3480 H     1 <1>   0.0800 
 45 H       -0.6490     6.3110    -2.1810 H     1 <1>   0.1500 
 46 H        0.7620     5.7150     1.7910 H     1 <1>   0.1500 
 47 H       -0.3690     8.7260    -1.9200 H     1 <1>   0.1500 
 48 H        1.0440     8.1290     2.0560 H     1 <1>   0.1500 
 49 H       -0.3730    10.5270     0.6350 H     1 <1>   0.0800 
 50 H        0.7610    10.5510    -0.6970 H     1 <1>   0.0800 
 51 H        1.3370    10.3070     0.9300 H     1 <1>   0.0800 
@<TRIPOS>BOND
  1   1   2  1   
  2   1   3  1   
  3   2   4  ar  
  4   2   5  ar  
  5   3   6  1   
  6   3  26  1   
  7   3  27  1   
  8   4   7  ar  
  9   5   8  ar  
 10   5   9  ar  
 11   6  10  1   
 12   6  28  1   
 13   6  29  1   
 14   7  11  ar  
 15   8  11  ar  
 16   8  12  ar  
 17   9  13  ar  
 18   9  30  1   
 19  10  14  1   
 20  10  15  1   
 21  10  31  1   
 22  11  16  1   
 23  12  17  ar  
 24  12  32  1   
 25  13  17  ar  
 26  13  33  1   
 27  14  18  1   
 28  14  34  1   
 29  14  35  1   
 30  15  19  1   
 31  15  36  1   
 32  15  37  1   
 33  16  20  ar  
 34  16  21  ar  
 35  17  38  1   
 36  18  39  1   
 37  18  40  1   
 38  18  41  1   
 39  19  42  1   
 40  19  43  1   
 41  19  44  1   
 42  20  22  ar  
 43  20  45  1   
 44  21  23  ar  
 45  21  46  1   
 46  22  24  ar  
 47  22  47  1   
 48  23  24  ar  
 49  23  48  1   
 50  24  25  1   
 51  25  49  1   
 52  25  50  1   
 53  25  51  1   
@<TRIPOS>SUBSTRUCTURE
  1 ****   7 GROUP 4 **** **** 0

# MOE 2024.06 (io_trps.svl 2023.06)
