@<TRIPOS>MOLECULE
NONAME
34 35 1 0 0 
SMALL
USER_CHARGES


@<TRIPOS>ATOM
  1 O       -1.9020    -0.1280    -2.1620 O.2   1 <1>  -0.5700 
  2 C       -2.0360    -0.7620    -1.1380 C.2   1 <1>   0.6900 
  3 N       -1.1790    -1.7650    -0.7770 N.am  1 <1>  -0.6600 
  4 N       -3.0660    -0.4520    -0.3180 N.am  1 <1>  -0.4900 
  5 C       -1.2130    -2.3450     0.5930 C.3   1 <1>   0.1400 
  6 C        0.0250    -2.0770    -1.5940 C.3   1 <1>   0.2840 
  7 C       -3.4040    -1.1370     0.7950 C.2   1 <1>   0.5690 
  8 C       -2.6520    -2.4110     1.1110 C.3   1 <1>  -0.0990 
  9 C        1.2790    -1.6390    -0.8520 C.ar  1 <1>  -0.1440 
 10 O       -4.2930    -0.7640     1.5130 O.2   1 <1>  -0.5700 
 11 C        2.1470    -2.5730    -0.3090 C.ar  1 <1>  -0.1500 
 12 C        1.5550    -0.2890    -0.7070 C.ar  1 <1>  -0.1500 
 13 C        3.2820    -2.1710     0.3780 C.ar  1 <1>  -0.1440 
 14 C        2.6840     0.1240    -0.0240 C.ar  1 <1>  -0.1500 
 15 C        3.5550    -0.8140     0.5250 C.ar  1 <1>   0.0820 
 16 C        4.2200    -3.2160     0.9660 C.3   1 <1>  -0.0970 
 17 O        4.6780    -0.4660     1.2080 O.3   1 <1>  -0.3630 
 18 C        5.0570     0.8810     1.3750 C.3   1 <1>   0.0400 
 19 H       -3.6170     0.3600    -0.5710 H     1 <1>   0.3700 
 20 H       -0.6200    -1.7220     1.2440 H     1 <1>   0.0800 
 21 H       -0.7830    -3.3320     0.5870 H     1 <1>   0.0800 
 22 H       -0.0190    -1.5750    -2.5450 H     1 <1>   0.0800 
 23 H        0.0560    -3.1350    -1.7860 H     1 <1>   0.0800 
 24 H       -2.6500    -2.5740     2.1730 H     1 <1>   0.0800 
 25 H       -3.1630    -3.2330     0.6470 H     1 <1>   0.0800 
 26 H        1.9390    -3.6220    -0.4210 H     1 <1>   0.1500 
 27 H        0.8850     0.4420    -1.1260 H     1 <1>   0.1500 
 28 H        2.8650     1.1770     0.0700 H     1 <1>   0.1500 
 29 H        3.8730    -4.2120     0.7660 H     1 <1>   0.0800 
 30 H        4.2910    -3.0820     2.0300 H     1 <1>   0.0800 
 31 H        5.2010    -3.1010     0.5390 H     1 <1>   0.0800 
 32 H        5.9780     0.9030     1.9290 H     1 <1>   0.0800 
 33 H        4.2880     1.3950     1.9240 H     1 <1>   0.0800 
 34 H        5.2030     1.3240     0.4050 H     1 <1>   0.0800 
@<TRIPOS>BOND
  1   1   2  2   
  2   2   3  am  
  3   2   4  am  
  4   3   5  1   
  5   3   6  1   
  6   4   7  am  
  7   4  19  1   
  8   5   8  1   
  9   5  20  1   
 10   5  21  1   
 11   6   9  1   
 12   6  22  1   
 13   6  23  1   
 14   7   8  1   
 15   7  10  2   
 16   8  24  1   
 17   8  25  1   
 18   9  11  ar  
 19   9  12  ar  
 20  11  13  ar  
 21  11  26  1   
 22  12  14  ar  
 23  12  27  1   
 24  13  15  ar  
 25  13  16  1   
 26  14  15  ar  
 27  14  28  1   
 28  15  17  1   
 29  16  29  1   
 30  16  30  1   
 31  16  31  1   
 32  17  18  1   
 33  18  32  1   
 34  18  33  1   
 35  18  34  1   
@<TRIPOS>SUBSTRUCTURE
  1 ****   9 GROUP 4 **** **** 0

# MOE 2024.06 (io_trps.svl 2023.06)
