@<TRIPOS>MOLECULE
NONAME
39 41 1 0 0 
SMALL
USER_CHARGES


@<TRIPOS>ATOM
  1 O       -0.0580    -1.0040    -1.0190 O.co2 1 <1>  -0.9000 
  2 C       -0.0120    -1.4440     0.1310 C.2   1 <1>   0.9060 
  3 O        1.0290    -1.4270     0.7980 O.co2 1 <1>  -0.9000 
  4 C       -1.2280    -2.1000     0.7710 C.3   1 <1>  -0.1860 
  5 C       -1.3210    -3.7800     0.5930 C.3   1 <1>  -0.0190 
  6 C       -2.6470    -1.4610     0.2450 C.3   1 <1>  -0.0800 
  7 C       -0.0860    -4.5450     0.0760 C.2   1 <1>   0.5690 
  8 C       -2.7190    -4.0950    -0.2170 C.3   1 <1>  -0.0800 
  9 C       -2.6920    -2.7800     0.0380 C.3   1 <1>  -0.1600 
 10 C       -4.0520    -1.8030    -0.5170 C.3   1 <1>  -0.1600 
 11 O       -0.2560    -5.5340    -0.6030 O.2   1 <1>  -0.5700 
 12 N        1.1600    -4.1390     0.4540 N.am  1 <1>  -0.5470 
 13 C       -4.1470    -3.4620    -0.6920 C.3   1 <1>  -0.1600 
 14 C        2.4040    -4.6780     0.0960 C.ar  1 <1>   0.1170 
 15 C        2.8190    -5.9750     0.4230 C.ar  1 <1>   0.0830 
 16 C        3.2770    -3.8610    -0.6100 C.ar  1 <1>  -0.1500 
 17 O        2.0210    -6.7930     1.1550 O.3   1 <1>  -0.3630 
 18 C        4.0710    -6.4300     0.0340 C.ar  1 <1>  -0.1500 
 19 C        4.5240    -4.3170    -1.0010 C.ar  1 <1>  -0.1500 
 20 C        1.5100    -7.9200     0.4810 C.3   1 <1>   0.0400 
 21 C        4.9220    -5.6040    -0.6820 C.ar  1 <1>  -0.1500 
 22 H       -1.1260    -1.8880     1.8220 H     1 <1>   0.0800 
 23 H       -1.4430    -4.1810     1.5890 H     1 <1>   0.0800 
 24 H       -3.0140    -1.0120     1.1560 H     1 <1>   0.0800 
 25 H       -2.3590    -4.4820    -1.1620 H     1 <1>   0.0800 
 26 H       -3.1820    -2.9360     1.0940 H     1 <1>   0.0800 
 27 H       -2.1860    -2.6110    -1.0120 H     1 <1>   0.0800 
 28 H       -4.0600    -1.3280    -1.4870 H     1 <1>   0.0800 
 29 H       -4.8970    -1.4290     0.0370 H     1 <1>   0.0800 
 30 H        1.2150    -3.1500     0.7640 H     1 <1>   0.3700 
 31 H       -4.9480    -3.8560    -0.0840 H     1 <1>   0.0800 
 32 H       -4.3590    -3.7200    -1.7170 H     1 <1>   0.0800 
 33 H        2.9610    -2.8580    -0.8510 H     1 <1>   0.1500 
 34 H        4.3800    -7.4230     0.2980 H     1 <1>   0.1500 
 35 H        5.1780    -3.6650    -1.5520 H     1 <1>   0.1500 
 36 H        0.7120    -8.3300     1.0730 H     1 <1>   0.0800 
 37 H        2.2950    -8.6430     0.3600 H     1 <1>   0.0800 
 38 H        1.1310    -7.6120    -0.4780 H     1 <1>   0.0800 
 39 H        5.8910    -5.9590    -0.9840 H     1 <1>   0.1500 
@<TRIPOS>BOND
  1   1   2  ar  
  2   2   3  ar  
  3   2   4  1   
  4   4   5  1   
  5   4   6  1   
  6   4  22  1   
  7   5   7  1   
  8   5   8  1   
  9   5  23  1   
 10   6   9  1   
 11   6  10  1   
 12   6  24  1   
 13   7  11  2   
 14   7  12  am  
 15   8   9  1   
 16   8  13  1   
 17   8  25  1   
 18   9  26  1   
 19   9  27  1   
 20  10  13  1   
 21  10  28  1   
 22  10  29  1   
 23  12  14  1   
 24  12  30  1   
 25  13  31  1   
 26  13  32  1   
 27  14  15  ar  
 28  14  16  ar  
 29  15  17  1   
 30  15  18  ar  
 31  16  19  ar  
 32  16  33  1   
 33  17  20  1   
 34  18  21  ar  
 35  18  34  1   
 36  19  21  ar  
 37  19  35  1   
 38  20  36  1   
 39  20  37  1   
 40  20  38  1   
 41  21  39  1   
@<TRIPOS>SUBSTRUCTURE
  1 ****   7 GROUP 4 **** **** 0

# MOE 2024.06 (io_trps.svl 2023.06)
