@<TRIPOS>MOLECULE
NONAME
58 60 1 0 0 
SMALL
USER_CHARGES


@<TRIPOS>ATOM
  1 O       -0.1860    -0.9060     1.0470 O.2   1 <1>  -0.5700 
  2 C       -0.9350    -1.8080     0.7310 C.2   1 <1>   0.6900 
  3 N       -0.4330    -2.9360     0.0890 N.am  1 <1>  -0.4200 
  4 N       -2.2900    -1.7110     1.0100 N.am  1 <1>  -0.4360 
  5 C       -1.2680    -3.9730    -0.3060 C.2   1 <1>   0.7030 
  6 C        1.0340    -3.0050    -0.2020 C.3   1 <1>   0.0600 
  7 C       -3.1060    -2.7650     0.6450 C.2   1 <1>   0.4260 
  8 C       -2.8520    -0.5150     1.7070 C.3   1 <1>   0.0600 
  9 O       -0.8200    -4.9360    -0.9050 O.2   1 <1>  -0.5700 
 10 C       -2.6660    -3.8750     0.0060 C.2   1 <1>   0.2770 
 11 N       -4.4410    -2.8920     0.8390 N.pl3 1 <1>  -0.7000 
 12 N       -3.7870    -4.6940    -0.1920 N.pl3 1 <1>  -0.7640 
 13 C       -4.8300    -4.0540     0.3300 C.cat 1 <1>   0.6560 
 14 C       -3.7340    -6.0230    -0.8570 C.3   1 <1>   0.3540 
 15 C       -6.2960    -4.5150     0.3880 C.3   1 <1>   0.2540 
 16 C       -3.3470    -7.0880     0.1700 C.3   1 <1>  -0.1600 
 17 N       -7.2330    -3.3720     0.5640 N.3   1 <1>  -0.8100 
 18 C       -3.3000    -8.4850    -0.4610 C.3   1 <1>  -0.1600 
 19 C       -7.3710    -2.5830    -0.6910 C.3   1 <1>   0.1100 
 20 C       -8.5280    -3.7920     1.1620 C.3   1 <1>   0.1100 
 21 C       -2.9170    -9.5420     0.5780 C.3   1 <1>  -0.2400 
 22 C       -8.6640    -1.7570    -0.7040 C.3   1 <1>  -0.0800 
 23 C       -9.6160    -3.9990     0.0980 C.3   1 <1>  -0.0800 
 24 C       -9.8980    -2.6810    -0.6540 C.3   1 <1>  -0.1600 
 25 C       -8.7240    -0.8380    -1.9310 C.3   1 <1>  -0.2400 
 26 C      -10.9040    -4.5510     0.7220 C.3   1 <1>  -0.2400 
 27 H        1.5970    -2.5900     0.6170 H     1 <1>   0.0800 
 28 H        1.2520    -2.4410    -1.0930 H     1 <1>   0.0800 
 29 H        1.3540    -4.0230    -0.3460 H     1 <1>   0.0800 
 30 H       -2.9990    -0.7390     2.7490 H     1 <1>   0.0800 
 31 H       -3.7910    -0.2330     1.2640 H     1 <1>   0.0800 
 32 H       -2.1800     0.3230     1.6280 H     1 <1>   0.0800 
 33 H       -5.1080    -2.2480     1.2760 H     1 <1>   0.4500 
 34 H       -3.0130    -6.0040    -1.6590 H     1 <1>   0.0800 
 35 H       -4.6940    -6.2600    -1.2830 H     1 <1>   0.0800 
 36 H       -6.3820    -5.1810     1.2280 H     1 <1>   0.0800 
 37 H       -6.5500    -5.0640    -0.5000 H     1 <1>   0.0800 
 38 H       -4.0600    -7.0890     0.9750 H     1 <1>   0.0800 
 39 H       -2.3750    -6.8560     0.5720 H     1 <1>   0.0800 
 40 H       -2.5740    -8.5020    -1.2580 H     1 <1>   0.0800 
 41 H       -4.2610    -8.7380    -0.8780 H     1 <1>   0.0800 
 42 H       -7.3880    -3.2420    -1.5440 H     1 <1>   0.0800 
 43 H       -6.5250    -1.9250    -0.7960 H     1 <1>   0.0800 
 44 H       -8.8570    -3.0190     1.8360 H     1 <1>   0.0800 
 45 H       -8.4070    -4.6880     1.7460 H     1 <1>   0.0800 
 46 H       -1.9470    -9.3320     0.9930 H     1 <1>   0.0800 
 47 H       -2.8830   -10.5150     0.1180 H     1 <1>   0.0800 
 48 H       -3.6370    -9.5710     1.3770 H     1 <1>   0.0800 
 49 H       -8.6600    -1.1330     0.1740 H     1 <1>   0.0800 
 50 H       -9.2560    -4.7300    -0.6060 H     1 <1>   0.0800 
 51 H      -10.2260    -2.9260    -1.6490 H     1 <1>   0.0800 
 52 H      -10.6970    -2.1410    -0.1760 H     1 <1>   0.0800 
 53 H       -8.7070    -1.4120    -2.8410 H     1 <1>   0.0800 
 54 H       -7.8880    -0.1610    -1.9350 H     1 <1>   0.0800 
 55 H       -9.6280    -0.2550    -1.9120 H     1 <1>   0.0800 
 56 H      -11.2940    -3.8680     1.4570 H     1 <1>   0.0800 
 57 H      -10.7160    -5.4970     1.1980 H     1 <1>   0.0800 
 58 H      -11.6510    -4.6990    -0.0380 H     1 <1>   0.0800 
@<TRIPOS>BOND
  1   1   2  2   
  2   2   3  am  
  3   2   4  am  
  4   3   5  am  
  5   3   6  1   
  6   4   7  1   
  7   4   8  1   
  8   5   9  2   
  9   5  10  1   
 10   6  27  1   
 11   6  28  1   
 12   6  29  1   
 13   7  10  2   
 14   7  11  1   
 15   8  30  1   
 16   8  31  1   
 17   8  32  1   
 18  10  12  1   
 19  11  13  ar  
 20  11  33  1   
 21  12  13  ar  
 22  12  14  1   
 23  13  15  1   
 24  14  16  1   
 25  14  34  1   
 26  14  35  1   
 27  15  17  1   
 28  15  36  1   
 29  15  37  1   
 30  16  18  1   
 31  16  38  1   
 32  16  39  1   
 33  17  19  1   
 34  17  20  1   
 35  18  21  1   
 36  18  40  1   
 37  18  41  1   
 38  19  22  1   
 39  19  42  1   
 40  19  43  1   
 41  20  23  1   
 42  20  44  1   
 43  20  45  1   
 44  21  46  1   
 45  21  47  1   
 46  21  48  1   
 47  22  24  1   
 48  22  25  1   
 49  22  49  1   
 50  23  24  1   
 51  23  26  1   
 52  23  50  1   
 53  24  51  1   
 54  24  52  1   
 55  25  53  1   
 56  25  54  1   
 57  25  55  1   
 58  26  56  1   
 59  26  57  1   
 60  26  58  1   
@<TRIPOS>SUBSTRUCTURE
  1 ****  13 GROUP 4 **** **** 0

# MOE 2024.06 (io_trps.svl 2023.06)
