@<TRIPOS>MOLECULE
NONAME
36 38 1 0 0 
SMALL
USER_CHARGES


@<TRIPOS>ATOM
  1 S       -1.7720     0.2990    -1.8370 S.3   1 <1>  -0.0800 
  2 C       -1.6860     0.7120    -0.1300 C.2   1 <1>  -0.1400 
  3 C       -0.2700     1.1450    -2.1620 C.2   1 <1>  -0.1100 
  4 C       -0.5800     1.4380     0.1250 C.2   1 <1>  -0.1500 
  5 C       -2.8120     0.2190     0.7510 C.3   1 <1>   0.5230 
  6 C        0.2250     1.6840    -1.0340 C.2   1 <1>  -0.1500 
  7 N       -4.0870     0.7870     0.2430 N.4   1 <1>  -0.9590 
  8 C       -4.1060     2.2930     0.3320 C.3   1 <1>   0.3430 
  9 C       -5.2910     0.1870     0.9200 C.3   1 <1>   0.3430 
 10 C       -5.4230     2.8950    -0.1960 C.3   1 <1>   0.2090 
 11 C       -6.6140     0.7790     0.3930 C.3   1 <1>   0.2090 
 12 N       -6.6130     2.2710     0.4570 N.pl3 1 <1>  -0.8380 
 13 C       -7.8100     2.8450     0.0920 C.ar  1 <1>   0.4100 
 14 N       -8.1850     2.6620    -1.1660 N.ar  1 <1>  -0.6200 
 15 C       -8.5480     3.5690     1.0230 C.ar  1 <1>  -0.1500 
 16 C       -9.3370     3.2200    -1.5050 C.ar  1 <1>   0.1600 
 17 C       -9.7420     4.1430     0.6560 C.ar  1 <1>  -0.1500 
 18 C      -10.1400     3.9570    -0.6520 C.ar  1 <1>  -0.1500 
 19 H        0.0910     1.1490    -3.1770 H     1 <1>   0.1500 
 20 H       -0.2730     1.8230     1.0830 H     1 <1>   0.1500 
 21 H       -2.6450     0.5250     1.7700 H     1 <1>   0.0800 
 22 H       -2.8430    -0.8580     0.7130 H     1 <1>   0.0800 
 23 H        1.1390     2.2510    -0.9650 H     1 <1>   0.1500 
 24 H       -4.1300     0.5520    -0.7590 H     1 <1>   0.4500 
 25 H       -3.2850     2.7060    -0.2330 H     1 <1>   0.0800 
 26 H       -3.9870     2.5970     1.3580 H     1 <1>   0.0800 
 27 H       -5.2420     0.3760     1.9800 H     1 <1>   0.0800 
 28 H       -5.3040    -0.8800     0.7730 H     1 <1>   0.0800 
 29 H       -5.4830     2.7570    -1.2630 H     1 <1>   0.0800 
 30 H       -5.4330     3.9550    -0.0050 H     1 <1>   0.0800 
 31 H       -7.4330     0.4030     0.9830 H     1 <1>   0.0800 
 32 H       -6.7730     0.4610    -0.6240 H     1 <1>   0.0800 
 33 H       -8.1700     3.6690     2.0230 H     1 <1>   0.1500 
 34 H       -9.6610     3.0840    -2.5230 H     1 <1>   0.1500 
 35 H      -10.3380     4.7090     1.3510 H     1 <1>   0.1500 
 36 H      -11.0630     4.3780    -1.0070 H     1 <1>   0.1500 
@<TRIPOS>BOND
  1   1   2  1   
  2   1   3  1   
  3   2   4  2   
  4   2   5  1   
  5   3   6  2   
  6   3  19  1   
  7   4   6  1   
  8   4  20  1   
  9   5   7  1   
 10   5  21  1   
 11   5  22  1   
 12   6  23  1   
 13   7   8  1   
 14   7   9  1   
 15   7  24  1   
 16   8  10  1   
 17   8  25  1   
 18   8  26  1   
 19   9  11  1   
 20   9  27  1   
 21   9  28  1   
 22  10  12  1   
 23  10  29  1   
 24  10  30  1   
 25  11  12  1   
 26  11  31  1   
 27  11  32  1   
 28  12  13  1   
 29  13  14  ar  
 30  13  15  ar  
 31  14  16  ar  
 32  15  17  ar  
 33  15  33  1   
 34  16  18  ar  
 35  16  34  1   
 36  17  18  ar  
 37  17  35  1   
 38  18  36  1   
@<TRIPOS>SUBSTRUCTURE
  1 ****  10 GROUP 4 **** **** 0

# MOE 2024.06 (io_trps.svl 2023.06)
