@<TRIPOS>MOLECULE
NONAME
39 41 1 0 0 
SMALL
USER_CHARGES


@<TRIPOS>ATOM
  1 S        0.1840     0.4230    -1.4010 S.o2  1 <1>   1.5010 
  2 O       -0.2280     1.1320    -2.5930 O.2   1 <1>  -0.6500 
  3 O       -0.2930    -0.9230    -1.1720 O.2   1 <1>  -0.6500 
  4 N       -0.2960     1.3570    -0.0710 N.am  1 <1>  -0.8490 
  5 C        1.9910     0.4300    -1.2880 C.2   1 <1>  -0.0630 
  6 C       -1.7080     1.1260     0.2690 C.3   1 <1>   0.1960 
  7 C       -0.0740     2.7990    -0.2760 C.3   1 <1>   0.1960 
  8 C        2.8440     0.4170    -2.3320 C.2   1 <1>  -0.1100 
  9 C        2.6810     0.4190    -0.0330 C.2   1 <1>  -0.1500 
 10 C       -2.1400     1.9840     1.4720 C.3   1 <1>   0.1200 
 11 C       -0.5380     3.6080     0.9490 C.3   1 <1>   0.1200 
 12 S        4.5090     0.4040    -1.8000 S.3   1 <1>  -0.0800 
 13 C        4.0360     0.4070    -0.1000 C.2   1 <1>  -0.0450 
 14 O       -1.8810     3.3390     1.2320 O.3   1 <1>  -0.5600 
 15 C        5.0480     0.4000     0.9250 C.2   1 <1>   0.7150 
 16 O        4.7410     0.4980     2.0960 O.2   1 <1>  -0.5700 
 17 N        6.3640     0.2860     0.5990 N.am  1 <1>  -0.7300 
 18 C        7.4950     0.3650     1.5470 C.3   1 <1>   0.3200 
 19 C        8.5780     1.2740     0.9910 C.2   1 <1>  -0.0400 
 20 O        9.7540     1.2790     1.5900 O.3   1 <1>  -0.2800 
 21 C        8.5820     2.1310    -0.0550 C.2   1 <1>  -0.1500 
 22 C       10.5280     2.1290     0.9460 C.2   1 <1>  -0.0100 
 23 C        9.8640     2.6920    -0.0850 C.2   1 <1>  -0.1500 
 24 H       -1.8570     0.0880     0.5150 H     1 <1>   0.0800 
 25 H       -2.3350     1.3600    -0.5760 H     1 <1>   0.0800 
 26 H       -0.6180     3.1440    -1.1400 H     1 <1>   0.0800 
 27 H        0.9730     2.9850    -0.4430 H     1 <1>   0.0800 
 28 H        2.6580     0.4130    -3.3930 H     1 <1>   0.1500 
 29 H        2.1300     0.4170     0.8940 H     1 <1>   0.1500 
 30 H       -1.6090     1.6840     2.3590 H     1 <1>   0.0800 
 31 H       -3.1960     1.8770     1.6470 H     1 <1>   0.0800 
 32 H       -0.4480     4.6620     0.7560 H     1 <1>   0.0800 
 33 H        0.0540     3.3610     1.8140 H     1 <1>   0.0800 
 34 H        6.6240     0.1770    -0.3810 H     1 <1>   0.3700 
 35 H        7.8990    -0.6210     1.6930 H     1 <1>   0.0800 
 36 H        7.1670     0.7430     2.5010 H     1 <1>   0.0800 
 37 H        7.7880     2.3660    -0.7410 H     1 <1>   0.1500 
 38 H       11.5380     2.2730     1.2890 H     1 <1>   0.1500 
 39 H       10.2140     3.4190    -0.7950 H     1 <1>   0.1500 
@<TRIPOS>BOND
  1   1   2  2   
  2   1   3  2   
  3   1   4  am  
  4   1   5  1   
  5   4   6  1   
  6   4   7  1   
  7   5   8  2   
  8   5   9  1   
  9   6  10  1   
 10   6  24  1   
 11   6  25  1   
 12   7  11  1   
 13   7  26  1   
 14   7  27  1   
 15   8  12  1   
 16   8  28  1   
 17   9  13  2   
 18   9  29  1   
 19  10  14  1   
 20  10  30  1   
 21  10  31  1   
 22  11  14  1   
 23  11  32  1   
 24  11  33  1   
 25  12  13  1   
 26  13  15  1   
 27  15  16  2   
 28  15  17  am  
 29  17  18  1   
 30  17  34  1   
 31  18  19  1   
 32  18  35  1   
 33  18  36  1   
 34  19  20  1   
 35  19  21  2   
 36  20  22  1   
 37  21  23  1   
 38  21  37  1   
 39  22  23  2   
 40  22  38  1   
 41  23  39  1   
@<TRIPOS>SUBSTRUCTURE
  1 ****  13 GROUP 4 **** **** 0

# MOE 2024.06 (io_trps.svl 2023.06)
