@<TRIPOS>MOLECULE
NONAME
37 38 1 0 0 
SMALL
USER_CHARGES


@<TRIPOS>ATOM
  1 I       -0.1470    -0.4980     1.8080 I     1 <1>  -0.0810 
  2 C        1.5330    -1.1590     0.6610 C.ar  1 <1>   0.0810 
  3 C        1.5310    -2.4210     0.0760 C.ar  1 <1>   0.0820 
  4 C        2.5950    -0.2820     0.5390 C.ar  1 <1>  -0.1500 
  5 O        0.4470    -3.2270     0.2450 O.3   1 <1>  -0.3630 
  6 C        2.6540    -2.7950    -0.6580 C.ar  1 <1>  -0.1500 
  7 C        3.7050    -0.6690    -0.1950 C.ar  1 <1>  -0.1430 
  8 C        0.4320    -4.5560    -0.2230 C.3   1 <1>   0.1200 
  9 C        3.7260    -1.9240    -0.7870 C.ar  1 <1>  -0.1500 
 10 C        4.8900     0.2680    -0.3480 C.3   1 <1>  -0.0960 
 11 C       -0.9150    -5.1700     0.1680 C.3   1 <1>   0.1100 
 12 N       -1.0170    -6.5890    -0.2430 N.3   1 <1>  -0.8100 
 13 C       -2.4330    -6.9990    -0.3390 C.3   1 <1>   0.1100 
 14 C       -0.2530    -7.4840     0.6540 C.3   1 <1>   0.1100 
 15 C       -2.5660    -8.4610    -0.8100 C.3   1 <1>   0.3430 
 16 C       -0.3560    -8.9550     0.2000 C.3   1 <1>   0.3430 
 17 N       -1.7850    -9.3940     0.0680 N.4   1 <1>  -0.9060 
 18 H        2.5550     0.6840     1.0090 H     1 <1>   0.1500 
 19 H        2.7160    -3.7520    -1.1380 H     1 <1>   0.1500 
 20 H        1.2500    -5.0770     0.2380 H     1 <1>   0.0800 
 21 H        0.5390    -4.5410    -1.2930 H     1 <1>   0.0800 
 22 H        4.5860    -2.2300    -1.3580 H     1 <1>   0.1500 
 23 H        4.5820     1.2910    -0.2270 H     1 <1>   0.0800 
 24 H        5.3290     0.1600    -1.3240 H     1 <1>   0.0800 
 25 H        5.6330     0.0400     0.3950 H     1 <1>   0.0800 
 26 H       -1.6810    -4.5970    -0.3270 H     1 <1>   0.0800 
 27 H       -1.0590    -5.0800     1.2320 H     1 <1>   0.0800 
 28 H       -2.9370    -6.3640    -1.0490 H     1 <1>   0.0800 
 29 H       -2.9190    -6.8760     0.6150 H     1 <1>   0.0800 
 30 H       -0.6140    -7.3890     1.6650 H     1 <1>   0.0800 
 31 H        0.7850    -7.2000     0.6480 H     1 <1>   0.0800 
 32 H       -2.1990    -8.5230    -1.8220 H     1 <1>   0.0800 
 33 H       -3.6070    -8.7410    -0.8160 H     1 <1>   0.0800 
 34 H        0.1610    -9.5840     0.9070 H     1 <1>   0.0800 
 35 H        0.1410    -9.0490    -0.7520 H     1 <1>   0.0800 
 36 H       -1.8260   -10.3480    -0.3100 H     1 <1>   0.4500 
 37 H       -2.2150    -9.4090     0.9990 H     1 <1>   0.4500 
@<TRIPOS>BOND
  1   1   2  1   
  2   2   3  ar  
  3   2   4  ar  
  4   3   5  1   
  5   3   6  ar  
  6   4   7  ar  
  7   4  18  1   
  8   5   8  1   
  9   6   9  ar  
 10   6  19  1   
 11   7   9  ar  
 12   7  10  1   
 13   8  11  1   
 14   8  20  1   
 15   8  21  1   
 16   9  22  1   
 17  10  23  1   
 18  10  24  1   
 19  10  25  1   
 20  11  12  1   
 21  11  26  1   
 22  11  27  1   
 23  12  13  1   
 24  12  14  1   
 25  13  15  1   
 26  13  28  1   
 27  13  29  1   
 28  14  16  1   
 29  14  30  1   
 30  14  31  1   
 31  15  17  1   
 32  15  32  1   
 33  15  33  1   
 34  16  17  1   
 35  16  34  1   
 36  16  35  1   
 37  17  36  1   
 38  17  37  1   
@<TRIPOS>SUBSTRUCTURE
  1 ****   8 GROUP 4 **** **** 0

# MOE 2024.06 (io_trps.svl 2023.06)
