@<TRIPOS>MOLECULE
NONAME
29 29 1 0 0 
SMALL
USER_CHARGES


@<TRIPOS>ATOM
  1 S        0.0340     0.1830    -1.1650 S.o2  1 <1>   1.4470 
  2 O        0.0240     1.4370    -0.4410 O.2   1 <1>  -0.6500 
  3 O        0.5990     0.1380    -2.4960 O.2   1 <1>  -0.6500 
  4 N        0.9070    -0.9220    -0.2130 N.am  1 <1>  -0.8490 
  5 C       -1.6340    -0.5350    -1.2080 C.ar  1 <1>  -0.0090 
  6 C        2.3540    -0.7610    -0.3770 C.3   1 <1>   0.1160 
  7 C        0.5560    -0.8620     1.2100 C.3   1 <1>   0.1160 
  8 C       -2.6540    -0.0480    -0.4000 C.ar  1 <1>  -0.1500 
  9 C       -1.9210    -1.6110    -2.0370 C.ar  1 <1>  -0.1500 
 10 C       -3.9400    -0.5930    -0.3910 C.ar  1 <1>   0.0860 
 11 C       -3.1840    -2.1740    -2.0610 C.ar  1 <1>  -0.1500 
 12 C       -4.9720    -0.0560     0.4790 C.2   1 <1>   0.6340 
 13 C       -4.1790    -1.6690    -1.2470 C.ar  1 <1>  -0.1500 
 14 O       -4.7580     0.8090     1.3030 O.2   1 <1>  -0.5700 
 15 O       -6.2110    -0.5460     0.3660 O.3   1 <1>  -0.4300 
 16 C       -7.2730    -0.0800     1.1740 C.3   1 <1>   0.0400 
 17 H        2.6270    -0.9090    -1.4090 H     1 <1>   0.0800 
 18 H        2.8800    -1.4890     0.2160 H     1 <1>   0.0800 
 19 H        2.6580     0.2290    -0.0770 H     1 <1>   0.0800 
 20 H       -0.4990    -1.0310     1.3400 H     1 <1>   0.0800 
 21 H        0.8060     0.1030     1.6220 H     1 <1>   0.0800 
 22 H        1.0880    -1.6230     1.7540 H     1 <1>   0.0800 
 23 H       -2.4460     0.7870     0.2490 H     1 <1>   0.1500 
 24 H       -1.1450    -2.0090    -2.6700 H     1 <1>   0.1500 
 25 H       -3.3880    -3.0070    -2.7140 H     1 <1>   0.1500 
 26 H       -5.1570    -2.1200    -1.2770 H     1 <1>   0.1500 
 27 H       -8.1680    -0.6130     0.9050 H     1 <1>   0.0800 
 28 H       -7.4040     0.9750     1.0020 H     1 <1>   0.0800 
 29 H       -7.0300    -0.2600     2.2070 H     1 <1>   0.0800 
@<TRIPOS>BOND
  1   1   2  2   
  2   1   3  2   
  3   1   4  am  
  4   1   5  1   
  5   4   6  1   
  6   4   7  1   
  7   5   8  ar  
  8   5   9  ar  
  9   6  17  1   
 10   6  18  1   
 11   6  19  1   
 12   7  20  1   
 13   7  21  1   
 14   7  22  1   
 15   8  10  ar  
 16   8  23  1   
 17   9  11  ar  
 18   9  24  1   
 19  10  12  1   
 20  10  13  ar  
 21  11  13  ar  
 22  11  25  1   
 23  12  14  2   
 24  12  15  1   
 25  13  26  1   
 26  15  16  1   
 27  16  27  1   
 28  16  28  1   
 29  16  29  1   
@<TRIPOS>SUBSTRUCTURE
  1 ****   8 GROUP 4 **** **** 0

# MOE 2024.06 (io_trps.svl 2023.06)
