@<TRIPOS>MOLECULE
NONAME
49 50 1 0 0 
SMALL
USER_CHARGES


@<TRIPOS>ATOM
  1 S        3.3040    -2.9880    -1.0590 S.o2  1 <1>   1.4470 
  2 O        4.3350    -3.2330    -2.0450 O.2   1 <1>  -0.6500 
  3 O        2.8010    -1.6450    -0.8710 O.2   1 <1>  -0.6500 
  4 N        3.9030    -3.5410     0.4290 N.am  1 <1>  -0.8490 
  5 C        1.8840    -4.0790    -1.3570 C.ar  1 <1>  -0.0090 
  6 C        4.7370    -2.5400     1.0990 C.3   1 <1>   0.1960 
  7 C        4.5760    -4.8340     0.3110 C.3   1 <1>   0.1960 
  8 C        0.9330    -4.2850    -0.3690 C.ar  1 <1>  -0.1500 
  9 C        1.7040    -4.7180    -2.5770 C.ar  1 <1>  -0.1500 
 10 C        3.9090    -1.8680     2.1880 C.3   1 <1>  -0.2400 
 11 C        4.5280    -5.5620     1.6530 C.3   1 <1>  -0.2400 
 12 C       -0.1880    -5.0900    -0.5600 C.ar  1 <1>   0.0860 
 13 C        0.6120    -5.5390    -2.7960 C.ar  1 <1>  -0.1500 
 14 C       -1.1800    -5.2450     0.4880 C.2   1 <1>   0.5440 
 15 C       -0.3220    -5.7220    -1.7950 C.ar  1 <1>  -0.1500 
 16 O       -0.8460    -5.3030     1.6550 O.2   1 <1>  -0.5700 
 17 N       -2.5290    -5.2540     0.2110 N.am  1 <1>  -0.6600 
 18 C       -3.4810    -5.7670     1.2400 C.3   1 <1>   0.1400 
 19 C       -3.1160    -4.1920    -0.6550 C.3   1 <1>   0.1400 
 20 C       -3.9520    -4.6030     2.1300 C.3   1 <1>   0.3430 
 21 C       -3.6240    -3.0250     0.2210 C.3   1 <1>   0.3430 
 22 N       -4.5590    -3.4830     1.3160 N.4   1 <1>  -0.9590 
 23 C       -4.9360    -2.3400     2.2020 C.3   1 <1>   0.2630 
 24 H        5.0960    -1.8050     0.3950 H     1 <1>   0.0800 
 25 H        5.5980    -2.9970     1.5560 H     1 <1>   0.0800 
 26 H        5.5920    -4.7020    -0.0240 H     1 <1>   0.0800 
 27 H        4.0670    -5.4470    -0.4150 H     1 <1>   0.0800 
 28 H        1.0670    -3.8010     0.5850 H     1 <1>   0.1500 
 29 H        2.4280    -4.5740    -3.3630 H     1 <1>   0.1500 
 30 H        3.0680    -1.3530     1.7590 H     1 <1>   0.0800 
 31 H        4.5130    -1.1510     2.7120 H     1 <1>   0.0800 
 32 H        3.5570    -2.6010     2.8910 H     1 <1>   0.0800 
 33 H        5.0800    -5.0310     2.4060 H     1 <1>   0.0800 
 34 H        4.9590    -6.5410     1.5470 H     1 <1>   0.0800 
 35 H        3.5070    -5.6730     1.9740 H     1 <1>   0.0800 
 36 H        0.4940    -6.0330    -3.7460 H     1 <1>   0.1500 
 37 H       -1.1670    -6.3670    -1.9700 H     1 <1>   0.1500 
 38 H       -2.9960    -6.5110     1.8500 H     1 <1>   0.0800 
 39 H       -4.3210    -6.2360     0.7590 H     1 <1>   0.0800 
 40 H       -3.9260    -4.6030    -1.2320 H     1 <1>   0.0800 
 41 H       -2.3790    -3.8190    -1.3450 H     1 <1>   0.0800 
 42 H       -3.0970    -4.2360     2.6760 H     1 <1>   0.0800 
 43 H       -4.6690    -4.9710     2.8450 H     1 <1>   0.0800 
 44 H       -4.1200    -2.3020    -0.4060 H     1 <1>   0.0800 
 45 H       -2.7670    -2.5430     0.6630 H     1 <1>   0.0800 
 46 H       -5.4110    -3.8510     0.8700 H     1 <1>   0.4500 
 47 H       -4.0620    -1.9420     2.6910 H     1 <1>   0.0800 
 48 H       -5.6340    -2.6650     2.9570 H     1 <1>   0.0800 
 49 H       -5.3960    -1.5540     1.6250 H     1 <1>   0.0800 
@<TRIPOS>BOND
  1   1   2  2   
  2   1   3  2   
  3   1   4  am  
  4   1   5  1   
  5   4   6  1   
  6   4   7  1   
  7   5   8  ar  
  8   5   9  ar  
  9   6  10  1   
 10   6  24  1   
 11   6  25  1   
 12   7  11  1   
 13   7  26  1   
 14   7  27  1   
 15   8  12  ar  
 16   8  28  1   
 17   9  13  ar  
 18   9  29  1   
 19  10  30  1   
 20  10  31  1   
 21  10  32  1   
 22  11  33  1   
 23  11  34  1   
 24  11  35  1   
 25  12  14  1   
 26  12  15  ar  
 27  13  15  ar  
 28  13  36  1   
 29  14  16  2   
 30  14  17  am  
 31  15  37  1   
 32  17  18  1   
 33  17  19  1   
 34  18  20  1   
 35  18  38  1   
 36  18  39  1   
 37  19  21  1   
 38  19  40  1   
 39  19  41  1   
 40  20  22  1   
 41  20  42  1   
 42  20  43  1   
 43  21  22  1   
 44  21  44  1   
 45  21  45  1   
 46  22  23  1   
 47  22  46  1   
 48  23  47  1   
 49  23  48  1   
 50  23  49  1   
@<TRIPOS>SUBSTRUCTURE
  1 ****   8 GROUP 4 **** **** 0

# MOE 2024.06 (io_trps.svl 2023.06)
