@<TRIPOS>MOLECULE
NONAME
51 53 1 0 0 
SMALL
USER_CHARGES


@<TRIPOS>ATOM
  1 CL      -1.0810     0.6280    -0.8400 Cl    1 <1>  -0.1770 
  2 C       -2.5340    -0.3420    -0.6960 C.ar  1 <1>   0.1770 
  3 C       -2.4520    -1.6810    -0.3320 C.ar  1 <1>   0.0820 
  4 C       -3.7460     0.2660    -0.9550 C.ar  1 <1>  -0.1500 
  5 O       -1.2190    -2.2110    -0.0890 O.3   1 <1>  -0.3630 
  6 C       -3.6290    -2.4160    -0.2320 C.ar  1 <1>  -0.1500 
  7 C       -4.9180    -0.4740    -0.8470 C.ar  1 <1>   0.0820 
  8 C       -1.0720    -3.5380     0.3680 C.3   1 <1>   0.0400 
  9 C       -4.8620    -1.8250    -0.4820 C.ar  1 <1>   0.1170 
 10 O       -6.1570     0.0610    -1.0800 O.3   1 <1>  -0.3630 
 11 N       -6.0660    -2.5400    -0.3860 N.am  1 <1>  -0.5470 
 12 C       -6.3070     1.4060    -1.4820 C.3   1 <1>   0.0400 
 13 C       -6.4440    -3.6700     0.2780 C.2   1 <1>   0.5690 
 14 O       -5.6820    -4.3980     0.8690 O.2   1 <1>  -0.5700 
 15 C       -7.9400    -3.9930     0.2670 C.3   1 <1>   0.1710 
 16 N       -8.8010    -2.8250    -0.0870 N.3   1 <1>  -0.8100 
 17 C      -10.1750    -3.2520    -0.4380 C.3   1 <1>   0.1100 
 18 C       -8.8700    -1.8420     1.0250 C.3   1 <1>   0.1100 
 19 C      -11.0630    -2.0580    -0.8410 C.3   1 <1>   0.2090 
 20 C       -9.7160    -0.6110     0.6500 C.3   1 <1>   0.2090 
 21 N      -11.0880    -1.0160     0.2270 N.pl3 1 <1>  -0.8380 
 22 C      -11.9970     0.0210     0.0540 C.ar  1 <1>   0.1000 
 23 C      -13.0310     0.1830     0.9640 C.ar  1 <1>  -0.1500 
 24 C      -11.8980     0.9100    -1.0120 C.ar  1 <1>  -0.1500 
 25 C      -13.9490     1.2080     0.8180 C.ar  1 <1>  -0.1500 
 26 C      -12.8130     1.9360    -1.1620 C.ar  1 <1>  -0.1500 
 27 C      -13.8410     2.0860    -0.2470 C.ar  1 <1>  -0.1500 
 28 H       -3.7430     1.3020    -1.2310 H     1 <1>   0.1500 
 29 H       -3.6050    -3.4530     0.0370 H     1 <1>   0.1500 
 30 H       -0.0260    -3.7220     0.5290 H     1 <1>   0.0800 
 31 H       -1.4500    -4.2100    -0.3820 H     1 <1>   0.0800 
 32 H       -1.6090    -3.6520     1.2940 H     1 <1>   0.0800 
 33 H       -6.8810    -2.0300    -0.7510 H     1 <1>   0.3700 
 34 H       -7.3550     1.6000    -1.6180 H     1 <1>   0.0800 
 35 H       -5.7860     1.5540    -2.4120 H     1 <1>   0.0800 
 36 H       -5.9150     2.0480    -0.7130 H     1 <1>   0.0800 
 37 H       -8.2210    -4.3790     1.2320 H     1 <1>   0.0800 
 38 H       -8.0870    -4.7750    -0.4570 H     1 <1>   0.0800 
 39 H      -10.6290    -3.7520     0.4010 H     1 <1>   0.0800 
 40 H      -10.1360    -3.9440    -1.2610 H     1 <1>   0.0800 
 41 H       -7.8810    -1.5060     1.2860 H     1 <1>   0.0800 
 42 H       -9.3040    -2.3020     1.8970 H     1 <1>   0.0800 
 43 H      -12.0660    -2.4020    -1.0210 H     1 <1>   0.0800 
 44 H      -10.6850    -1.6310    -1.7530 H     1 <1>   0.0800 
 45 H       -9.2310    -0.0790    -0.1500 H     1 <1>   0.0800 
 46 H       -9.7880     0.0470     1.4980 H     1 <1>   0.0800 
 47 H      -13.1050    -0.5050     1.7850 H     1 <1>   0.1500 
 48 H      -11.1000     0.7920    -1.7200 H     1 <1>   0.1500 
 49 H      -14.7460     1.3210     1.5320 H     1 <1>   0.1500 
 50 H      -12.7280     2.6170    -1.9900 H     1 <1>   0.1500 
 51 H      -14.5540     2.8840    -0.3620 H     1 <1>   0.1500 
@<TRIPOS>BOND
  1   1   2  1   
  2   2   3  ar  
  3   2   4  ar  
  4   3   5  1   
  5   3   6  ar  
  6   4   7  ar  
  7   4  28  1   
  8   5   8  1   
  9   6   9  ar  
 10   6  29  1   
 11   7   9  ar  
 12   7  10  1   
 13   8  30  1   
 14   8  31  1   
 15   8  32  1   
 16   9  11  1   
 17  10  12  1   
 18  11  13  am  
 19  11  33  1   
 20  12  34  1   
 21  12  35  1   
 22  12  36  1   
 23  13  14  2   
 24  13  15  1   
 25  15  16  1   
 26  15  37  1   
 27  15  38  1   
 28  16  17  1   
 29  16  18  1   
 30  17  19  1   
 31  17  39  1   
 32  17  40  1   
 33  18  20  1   
 34  18  41  1   
 35  18  42  1   
 36  19  21  1   
 37  19  43  1   
 38  19  44  1   
 39  20  21  1   
 40  20  45  1   
 41  20  46  1   
 42  21  22  1   
 43  22  23  ar  
 44  22  24  ar  
 45  23  25  ar  
 46  23  47  1   
 47  24  26  ar  
 48  24  48  1   
 49  25  27  ar  
 50  25  49  1   
 51  26  27  ar  
 52  26  50  1   
 53  27  51  1   
@<TRIPOS>SUBSTRUCTURE
  1 ****  10 GROUP 4 **** **** 0

# MOE 2024.06 (io_trps.svl 2023.06)
