@<TRIPOS>MOLECULE
NONAME
40 40 1 0 0 
SMALL
USER_CHARGES


@<TRIPOS>ATOM
  1 CL       0.5440    -1.0080     3.2030 Cl    1 <1>  -0.1770 
  2 C        1.4900    -1.3510     1.7700 C.ar  1 <1>   0.1770 
  3 C        0.9520    -2.1260     0.7510 C.ar  1 <1>   0.0820 
  4 C        2.7670    -0.8270     1.6750 C.ar  1 <1>  -0.1500 
  5 O       -0.2910    -2.6520     0.8590 O.3   1 <1>  -0.3630 
  6 C        1.7320    -2.3640    -0.3730 C.ar  1 <1>   0.1770 
  7 C        3.5370    -1.0750     0.5460 C.ar  1 <1>  -0.1440 
  8 C       -1.3420    -1.8640     0.3680 C.3   1 <1>   0.1200 
  9 CL       1.0970    -3.3230    -1.6930 Cl    1 <1>  -0.1770 
 10 C        3.0110    -1.8460    -0.4810 C.ar  1 <1>  -0.1500 
 11 C        4.9390    -0.5030     0.4340 C.3   1 <1>  -0.0960 
 12 C       -2.6320    -2.6500     0.5920 C.3   1 <1>  -0.1600 
 13 C       -3.8370    -1.8690     0.0860 C.3   1 <1>   0.3430 
 14 N       -5.0620    -2.6740     0.3260 N.4   1 <1>  -0.9060 
 15 C       -6.3360    -2.0890    -0.0960 C.3   1 <1>   0.5030 
 16 C       -7.4140    -3.1060     0.2620 C.3   1 <1>  -0.2400 
 17 C       -6.3220    -1.8540    -1.6060 C.3   1 <1>  -0.2400 
 18 C       -6.5810    -0.7840     0.6620 C.3   1 <1>  -0.2400 
 19 H        3.1510    -0.2300     2.4830 H     1 <1>   0.1500 
 20 H       -1.1670    -1.6820    -0.6800 H     1 <1>   0.0800 
 21 H       -1.3470    -0.9320     0.9090 H     1 <1>   0.0800 
 22 H        3.5860    -2.0500    -1.3670 H     1 <1>   0.1500 
 23 H        4.9030     0.4670    -0.0270 H     1 <1>   0.0800 
 24 H        5.5620    -1.1470    -0.1610 H     1 <1>   0.0800 
 25 H        5.3860    -0.4070     1.4080 H     1 <1>   0.0800 
 26 H       -2.7350    -2.8380     1.6470 H     1 <1>   0.0800 
 27 H       -2.5550    -3.5850     0.0640 H     1 <1>   0.0800 
 28 H       -3.7220    -1.6710    -0.9680 H     1 <1>   0.0800 
 29 H       -3.9020    -0.9270     0.6080 H     1 <1>   0.0800 
 30 H       -5.1350    -2.8810     1.3270 H     1 <1>   0.4500 
 31 H       -4.9670    -3.5770    -0.1490 H     1 <1>   0.4500 
 32 H       -7.2590    -4.0360    -0.2570 H     1 <1>   0.0800 
 33 H       -8.3810    -2.7310    -0.0260 H     1 <1>   0.0800 
 34 H       -7.4390    -3.2910     1.3210 H     1 <1>   0.0800 
 35 H       -6.1010    -2.7630    -2.1380 H     1 <1>   0.0800 
 36 H       -5.6130    -1.0960    -1.8840 H     1 <1>   0.0800 
 37 H       -7.2920    -1.5150    -1.9280 H     1 <1>   0.0800 
 38 H       -6.5420    -0.9390     1.7250 H     1 <1>   0.0800 
 39 H       -7.5600    -0.4060     0.4230 H     1 <1>   0.0800 
 40 H       -5.8720    -0.0250     0.3850 H     1 <1>   0.0800 
@<TRIPOS>BOND
  1   1   2  1   
  2   2   3  ar  
  3   2   4  ar  
  4   3   5  1   
  5   3   6  ar  
  6   4   7  ar  
  7   4  19  1   
  8   5   8  1   
  9   6   9  1   
 10   6  10  ar  
 11   7  10  ar  
 12   7  11  1   
 13   8  12  1   
 14   8  20  1   
 15   8  21  1   
 16  10  22  1   
 17  11  23  1   
 18  11  24  1   
 19  11  25  1   
 20  12  13  1   
 21  12  26  1   
 22  12  27  1   
 23  13  14  1   
 24  13  28  1   
 25  13  29  1   
 26  14  15  1   
 27  14  30  1   
 28  14  31  1   
 29  15  16  1   
 30  15  17  1   
 31  15  18  1   
 32  16  32  1   
 33  16  33  1   
 34  16  34  1   
 35  17  35  1   
 36  17  36  1   
 37  17  37  1   
 38  18  38  1   
 39  18  39  1   
 40  18  40  1   
@<TRIPOS>SUBSTRUCTURE
  1 ****   8 GROUP 4 **** **** 0

# MOE 2024.06 (io_trps.svl 2023.06)
