@<TRIPOS>MOLECULE
NONAME
40 42 1 0 0 
SMALL
USER_CHARGES


@<TRIPOS>ATOM
  1 BR      -2.2670     0.5330     1.5780 Br    1 <1>  -0.1110 
  2 C       -1.1500     1.9530     0.9050 C.ar  1 <1>   0.1110 
  3 C       -1.4420     2.5340    -0.3200 C.ar  1 <1>  -0.1440 
  4 C       -0.0810     2.3560     1.6830 C.ar  1 <1>  -0.1500 
  5 C       -0.6160     3.5540    -0.7720 C.ar  1 <1>  -0.1500 
  6 C       -2.6280     2.0730    -1.1430 C.3   1 <1>   0.4870 
  7 C        0.7280     3.3780     1.2190 C.ar  1 <1>  -0.1500 
  8 C        0.4600     3.9720    -0.0040 C.ar  1 <1>  -0.1500 
  9 N       -3.8820     2.5200    -0.4780 N.4   1 <1>  -0.9590 
 10 C       -5.1070     1.9440    -1.1450 C.3   1 <1>   0.3430 
 11 C       -3.9680     4.0270    -0.3790 C.3   1 <1>   0.3430 
 12 C       -6.4180     2.4070    -0.4750 C.3   1 <1>   0.2090 
 13 C       -5.2730     4.5030     0.2930 C.3   1 <1>   0.2090 
 14 N       -6.4610     3.8940    -0.3730 N.pl3 1 <1>  -0.8380 
 15 C       -7.6950     4.4540    -0.0640 C.ar  1 <1>   0.1000 
 16 C       -8.2580     4.3180     1.2030 C.ar  1 <1>  -0.1500 
 17 C       -8.3850     5.1660    -1.0390 C.ar  1 <1>  -0.1500 
 18 C       -9.4890     4.8830     1.4900 C.ar  1 <1>  -0.1500 
 19 C       -9.6160     5.7330    -0.7610 C.ar  1 <1>  -0.1500 
 20 C      -10.1560     5.5860     0.5040 C.ar  1 <1>   0.1770 
 21 CL     -11.7100     6.3000     0.8630 Cl    1 <1>  -0.1770 
 22 H        0.1180     1.8820     2.6290 H     1 <1>   0.1500 
 23 H       -0.7900     4.0330    -1.7220 H     1 <1>   0.1500 
 24 H       -2.6110     0.9970    -1.2170 H     1 <1>   0.0800 
 25 H       -2.5670     2.4840    -2.1370 H     1 <1>   0.0800 
 26 H        1.5690     3.7090     1.8070 H     1 <1>   0.1500 
 27 H        1.1010     4.7630    -0.3590 H     1 <1>   0.1500 
 28 H       -3.8450     2.1560     0.4840 H     1 <1>   0.4500 
 29 H       -5.0650     0.8670    -1.1240 H     1 <1>   0.0800 
 30 H       -5.1350     2.2540    -2.1760 H     1 <1>   0.0800 
 31 H       -3.9270     4.4560    -1.3660 H     1 <1>   0.0800 
 32 H       -3.1290     4.4080     0.1810 H     1 <1>   0.0800 
 33 H       -6.5040     1.9720     0.5060 H     1 <1>   0.0800 
 34 H       -7.2570     2.0690    -1.0600 H     1 <1>   0.0800 
 35 H       -5.3390     5.5760     0.2240 H     1 <1>   0.0800 
 36 H       -5.2650     4.2390     1.3370 H     1 <1>   0.0800 
 37 H       -7.7340     3.7710     1.9640 H     1 <1>   0.1500 
 38 H       -7.9510     5.2700    -2.0160 H     1 <1>   0.1500 
 39 H       -9.9320     4.7840     2.4650 H     1 <1>   0.1500 
 40 H      -10.1550     6.2850    -1.5100 H     1 <1>   0.1500 
@<TRIPOS>BOND
  1   1   2  1   
  2   2   3  ar  
  3   2   4  ar  
  4   3   5  ar  
  5   3   6  1   
  6   4   7  ar  
  7   4  22  1   
  8   5   8  ar  
  9   5  23  1   
 10   6   9  1   
 11   6  24  1   
 12   6  25  1   
 13   7   8  ar  
 14   7  26  1   
 15   8  27  1   
 16   9  10  1   
 17   9  11  1   
 18   9  28  1   
 19  10  12  1   
 20  10  29  1   
 21  10  30  1   
 22  11  13  1   
 23  11  31  1   
 24  11  32  1   
 25  12  14  1   
 26  12  33  1   
 27  12  34  1   
 28  13  14  1   
 29  13  35  1   
 30  13  36  1   
 31  14  15  1   
 32  15  16  ar  
 33  15  17  ar  
 34  16  18  ar  
 35  16  37  1   
 36  17  19  ar  
 37  17  38  1   
 38  18  20  ar  
 39  18  39  1   
 40  19  20  ar  
 41  19  40  1   
 42  20  21  1   
@<TRIPOS>SUBSTRUCTURE
  1 ****  13 GROUP 4 **** **** 0

# MOE 2024.06 (io_trps.svl 2023.06)
