@<TRIPOS>MOLECULE
NONAME
27 27 1 0 0 
SMALL
USER_CHARGES


@<TRIPOS>ATOM
  1 F       -9.2050     2.1400    -1.4020 F     1 <1>  -0.1900 
  2 C       -8.0170     2.0670    -0.8560 C.ar  1 <1>   0.1900 
  3 C       -7.1170     3.0930    -1.0740 C.ar  1 <1>  -0.1500 
  4 C       -7.7050     0.9720    -0.0730 C.ar  1 <1>  -0.1500 
  5 C       -5.8640     3.0070    -0.4990 C.ar  1 <1>  -0.1500 
  6 C       -6.4470     0.9050     0.4920 C.ar  1 <1>  -0.1500 
  7 C       -5.4760     1.9010     0.2820 C.ar  1 <1>   0.0860 
  8 C       -4.1880     1.7660     0.8800 C.2   1 <1>   0.3030 
  9 N       -4.1330     1.4560     2.1620 N.2   1 <1>  -0.8000 
 10 C       -2.9150     1.9280    -0.0150 C.3   1 <1>   0.3170 
 11 O       -3.0370     1.4320     2.6990 O.3   1 <1>  -0.6500 
 12 N       -1.9250     0.9280     0.4490 N.4   1 <1>  -0.2260 
 13 C       -2.3000     3.3280     0.1590 C.3   1 <1>  -0.2400 
 14 C       -3.1740     1.6520    -1.5150 C.3   1 <1>  -0.2400 
 15 O       -0.7330     0.8670    -0.2670 O.2   1 <1>  -0.7500 
 16 H       -7.4020     3.9370    -1.6740 H     1 <1>   0.1500 
 17 H       -8.4330     0.2000     0.0920 H     1 <1>   0.1500 
 18 H       -5.1660     3.8120    -0.6380 H     1 <1>   0.1500 
 19 H       -6.1780     0.0750     1.1260 H     1 <1>   0.1500 
 20 H       -2.3780     0.0160     0.5040 H     1 <1>   0.3600 
 21 H       -1.8030     1.1700     1.4560 H     1 <1>   0.3600 
 22 H       -2.9720     4.0880    -0.1850 H     1 <1>   0.0800 
 23 H       -1.3790     3.4030    -0.3900 H     1 <1>   0.0800 
 24 H       -2.1010     3.5010     1.2030 H     1 <1>   0.0800 
 25 H       -3.7980     2.4050    -1.9530 H     1 <1>   0.0800 
 26 H       -3.6440     0.6940    -1.6390 H     1 <1>   0.0800 
 27 H       -2.2480     1.6560    -2.0610 H     1 <1>   0.0800 
@<TRIPOS>BOND
  1   1   2  1   
  2   2   3  ar  
  3   2   4  ar  
  4   3   5  ar  
  5   3  16  1   
  6   4   6  ar  
  7   4  17  1   
  8   5   7  ar  
  9   5  18  1   
 10   6   7  ar  
 11   6  19  1   
 12   7   8  1   
 13   8   9  2   
 14   8  10  1   
 15   9  11  1   
 16  10  12  1   
 17  10  13  1   
 18  10  14  1   
 19  12  15  2   
 20  12  20  1   
 21  12  21  1   
 22  13  22  1   
 23  13  23  1   
 24  13  24  1   
 25  14  25  1   
 26  14  26  1   
 27  14  27  1   
@<TRIPOS>SUBSTRUCTURE
  1 ****   7 GROUP 4 **** **** 0

# MOE 2024.06 (io_trps.svl 2023.06)
