@<TRIPOS>MOLECULE
NONAME
46 48 1 0 0 
SMALL
USER_CHARGES


@<TRIPOS>ATOM
  1 O       -0.9910    -0.0970    -1.2030 O.2   1 <1>  -0.5700 
  2 C       -1.6940    -1.0860    -1.2290 C.2   1 <1>   0.6340 
  3 O       -1.1460    -2.2510    -1.5960 O.3   1 <1>  -0.4300 
  4 C       -3.1020    -1.0780    -0.8750 C.ar  1 <1>   0.0860 
  5 C        0.2160    -2.3500    -1.9620 C.3   1 <1>   0.0400 
  6 C       -3.7940     0.1190    -0.6870 C.ar  1 <1>  -0.1500 
  7 C       -3.8220    -2.2640    -0.7010 C.ar  1 <1>  -0.1500 
  8 C       -5.1380     0.1520    -0.3390 C.ar  1 <1>   0.1170 
  9 C       -5.1600    -2.2520    -0.3530 C.ar  1 <1>  -0.1500 
 10 N       -5.8350     1.3480    -0.1340 N.am  1 <1>  -0.5470 
 11 C       -5.8140    -1.0490    -0.1710 C.ar  1 <1>  -0.1500 
 12 C       -5.6920     2.5760    -0.7290 C.2   1 <1>   0.5690 
 13 O       -4.9140     2.7540    -1.6360 O.2   1 <1>  -0.5700 
 14 C       -6.6160     3.7120    -0.2150 C.3   1 <1>   0.2040 
 15 C       -8.0410     3.1200    -0.0930 C.ar  1 <1>  -0.1430 
 16 C       -6.0660     4.2210     1.1380 C.3   1 <1>  -0.1600 
 17 C       -6.6830     4.9330    -1.1750 C.3   1 <1>  -0.1600 
 18 C       -8.7560     3.0540     1.1010 C.ar  1 <1>  -0.1500 
 19 C       -8.6360     2.6040    -1.2400 C.ar  1 <1>  -0.1500 
 20 C       -4.6930     4.8960     0.9850 C.3   1 <1>   0.1200 
 21 C       -5.6960     6.0580    -0.8260 C.3   1 <1>   0.1200 
 22 C      -10.0190     2.4900     1.1410 C.ar  1 <1>  -0.1500 
 23 C       -9.8980     2.0400    -1.2020 C.ar  1 <1>  -0.1500 
 24 O       -4.5490     5.5160    -0.2580 O.3   1 <1>  -0.5600 
 25 C      -10.5920     1.9820    -0.0090 C.ar  1 <1>  -0.1500 
 26 H        0.4270    -3.3730    -2.2190 H     1 <1>   0.0800 
 27 H        0.8240    -2.0430    -1.1280 H     1 <1>   0.0800 
 28 H        0.3960    -1.7090    -2.8070 H     1 <1>   0.0800 
 29 H       -3.2640     1.0470    -0.8160 H     1 <1>   0.1500 
 30 H       -3.3270    -3.2100    -0.8390 H     1 <1>   0.1500 
 31 H       -5.6920    -3.1790    -0.2250 H     1 <1>   0.1500 
 32 H       -6.6830     1.2670     0.4290 H     1 <1>   0.3700 
 33 H       -6.8550    -1.0440     0.0960 H     1 <1>   0.1500 
 34 H       -5.9800     3.4160     1.8460 H     1 <1>   0.0800 
 35 H       -6.7430     4.9480     1.5510 H     1 <1>   0.0800 
 36 H       -7.6690     5.3610    -1.1520 H     1 <1>   0.0800 
 37 H       -6.5110     4.6180    -2.1890 H     1 <1>   0.0800 
 38 H       -8.3590     3.4360     2.0230 H     1 <1>   0.1500 
 39 H       -8.1140     2.6340    -2.1830 H     1 <1>   0.1500 
 40 H       -3.9060     4.1640     1.0550 H     1 <1>   0.0800 
 41 H       -4.5430     5.6370     1.7500 H     1 <1>   0.0800 
 42 H       -6.1240     6.7500    -0.1210 H     1 <1>   0.0800 
 43 H       -5.4050     6.5960    -1.7120 H     1 <1>   0.0800 
 44 H      -10.5610     2.4480     2.0710 H     1 <1>   0.1500 
 45 H      -10.3400     1.6470    -2.1010 H     1 <1>   0.1500 
 46 H      -11.5750     1.5440     0.0230 H     1 <1>   0.1500 
@<TRIPOS>BOND
  1   1   2  2   
  2   2   3  1   
  3   2   4  1   
  4   3   5  1   
  5   4   6  ar  
  6   4   7  ar  
  7   5  26  1   
  8   5  27  1   
  9   5  28  1   
 10   6   8  ar  
 11   6  29  1   
 12   7   9  ar  
 13   7  30  1   
 14   8  10  1   
 15   8  11  ar  
 16   9  11  ar  
 17   9  31  1   
 18  10  12  am  
 19  10  32  1   
 20  11  33  1   
 21  12  13  2   
 22  12  14  1   
 23  14  15  1   
 24  14  16  1   
 25  14  17  1   
 26  15  18  ar  
 27  15  19  ar  
 28  16  20  1   
 29  16  34  1   
 30  16  35  1   
 31  17  21  1   
 32  17  36  1   
 33  17  37  1   
 34  18  22  ar  
 35  18  38  1   
 36  19  23  ar  
 37  19  39  1   
 38  20  24  1   
 39  20  40  1   
 40  20  41  1   
 41  21  24  1   
 42  21  42  1   
 43  21  43  1   
 44  22  25  ar  
 45  22  44  1   
 46  23  25  ar  
 47  23  45  1   
 48  25  46  1   
@<TRIPOS>SUBSTRUCTURE
  1 ****  10 GROUP 4 **** **** 0

# MOE 2024.06 (io_trps.svl 2023.06)
