@<TRIPOS>MOLECULE
NONAME
42 44 1 0 0 
SMALL
USER_CHARGES


@<TRIPOS>ATOM
  1 S       -0.1420    -0.0100     0.6070 S.3   1 <1>  -0.0800 
  2 C        0.8090     1.4350     0.3150 C.2   1 <1>   0.1240 
  3 C       -1.6030     0.9710     0.7020 C.2   1 <1>  -0.1400 
  4 N        2.1500     1.4650     0.1290 N.pl3 1 <1>  -0.5340 
  5 C        0.0590     2.5580     0.2920 C.2   1 <1>  -0.0860 
  6 C       -1.3340     2.2690     0.5120 C.2   1 <1>  -0.1810 
  7 C       -2.9660     0.3660     0.9640 C.3   1 <1>   0.3000 
  8 C        2.7670     2.6660    -0.0890 C.2   1 <1>   0.5500 
  9 C        0.7660     3.7790     0.0600 C.2   1 <1>   0.8670 
 10 C       -2.4710     3.2710     0.5560 C.3   1 <1>   0.0210 
 11 O       -3.8930     1.3980     1.2140 O.3   1 <1>  -0.5600 
 12 N        2.1150     3.7910    -0.1260 N.2   1 <1>  -0.6610 
 13 N        4.1290     2.6230    -0.2710 N.pl3 1 <1>  -0.4080 
 14 O        0.1640     4.8480     0.0220 O.2   1 <1>  -0.5700 
 15 C       -3.8460     2.5580     0.4180 C.3   1 <1>   0.2800 
 16 N        4.9800     3.7010    -0.4790 N.2   1 <1>  -0.4920 
 17 C       -4.1550     2.1770    -1.0380 C.3   1 <1>  -0.2400 
 18 C       -4.9640     3.4590     0.9440 C.3   1 <1>  -0.2400 
 19 C        6.2270     3.5840    -0.6680 C.2   1 <1>   0.3280 
 20 C        7.0870     4.8260    -0.8670 C.3   1 <1>  -0.0990 
 21 C        6.9960     2.2700    -0.7240 C.3   1 <1>  -0.1790 
 22 C        8.0680     5.0680     0.2890 C.3   1 <1>  -0.2400 
 23 H        2.6810     0.5980     0.1610 H     1 <1>   0.4000 
 24 H       -2.9400    -0.2660     1.8330 H     1 <1>   0.0800 
 25 H       -3.3030    -0.2050     0.1170 H     1 <1>   0.0800 
 26 H       -2.3620     3.9920    -0.2350 H     1 <1>   0.0800 
 27 H       -2.4230     3.8030     1.4890 H     1 <1>   0.0800 
 28 H        4.5590     1.7020    -0.2350 H     1 <1>   0.4000 
 29 H       -3.3540     1.6050    -1.4700 H     1 <1>   0.0800 
 30 H       -4.2740     3.0650    -1.6320 H     1 <1>   0.0800 
 31 H       -5.0680     1.6110    -1.0900 H     1 <1>   0.0800 
 32 H       -4.7970     3.6910     1.9810 H     1 <1>   0.0800 
 33 H       -5.9150     2.9670     0.8470 H     1 <1>   0.0800 
 34 H       -4.9960     4.3800     0.3890 H     1 <1>   0.0800 
 35 H        7.6250     4.7420    -1.7940 H     1 <1>   0.0800 
 36 H        6.4370     5.6810    -0.9500 H     1 <1>   0.0800 
 37 H        7.6890     2.2900    -1.5450 H     1 <1>   0.0800 
 38 H        6.3470     1.4280    -0.8650 H     1 <1>   0.0800 
 39 H        7.5450     2.1340     0.1890 H     1 <1>   0.0800 
 40 H        8.7860     4.2700     0.3590 H     1 <1>   0.0800 
 41 H        7.5310     5.1380     1.2190 H     1 <1>   0.0800 
 42 H        8.5990     5.9910     0.1320 H     1 <1>   0.0800 
@<TRIPOS>BOND
  1   1   2  1   
  2   1   3  1   
  3   2   4  1   
  4   2   5  2   
  5   3   6  2   
  6   3   7  1   
  7   4   8  1   
  8   4  23  1   
  9   5   6  1   
 10   5   9  1   
 11   6  10  1   
 12   7  11  1   
 13   7  24  1   
 14   7  25  1   
 15   8  12  2   
 16   8  13  1   
 17   9  12  1   
 18   9  14  2   
 19  10  15  1   
 20  10  26  1   
 21  10  27  1   
 22  11  15  1   
 23  13  16  1   
 24  13  28  1   
 25  15  17  1   
 26  15  18  1   
 27  16  19  2   
 28  17  29  1   
 29  17  30  1   
 30  17  31  1   
 31  18  32  1   
 32  18  33  1   
 33  18  34  1   
 34  19  20  1   
 35  19  21  1   
 36  20  22  1   
 37  20  35  1   
 38  20  36  1   
 39  21  37  1   
 40  21  38  1   
 41  21  39  1   
 42  22  40  1   
 43  22  41  1   
 44  22  42  1   
@<TRIPOS>SUBSTRUCTURE
  1 ****   5 GROUP 4 **** **** 0

# MOE 2024.06 (io_trps.svl 2023.06)
