@<TRIPOS>MOLECULE
NONAME
36 37 1 0 0 
SMALL
USER_CHARGES


@<TRIPOS>ATOM
  1 S        0.3720    -0.0170     0.9490 S.3   1 <1>  -0.4600 
  2 C       -1.2610     0.3920     1.6270 C.3   1 <1>   0.2140 
  3 C        1.5080     1.0330     1.9240 C.3   1 <1>   0.1310 
  4 C       -2.3280    -0.2780     0.7780 C.ar  1 <1>  -0.1440 
  5 C        2.9680     0.6140     1.7710 C.2   1 <1>   0.5690 
  6 C       -3.2300     0.4820     0.0490 C.ar  1 <1>  -0.1500 
  7 C       -2.4170    -1.6610     0.7300 C.ar  1 <1>  -0.1500 
  8 O        3.5400     0.2210     2.7620 O.2   1 <1>  -0.5700 
  9 N        3.6190     0.7260     0.5710 N.am  1 <1>  -0.6600 
 10 C       -4.2100    -0.1320    -0.7120 C.ar  1 <1>  -0.1500 
 11 C       -3.3970    -2.2740    -0.0320 C.ar  1 <1>  -0.1500 
 12 C        3.0200     1.1320    -0.7190 C.3   1 <1>   0.1400 
 13 C        5.0350     0.3360     0.3990 C.3   1 <1>   0.1400 
 14 C       -4.3000    -1.5140    -0.7550 C.ar  1 <1>  -0.1430 
 15 C        4.2060     1.2830    -1.6630 C.3   1 <1>  -0.1600 
 16 C        5.2590     0.3270    -1.1090 C.3   1 <1>  -0.1600 
 17 C       -5.3730    -2.1870    -1.5910 C.3   1 <1>  -0.0970 
 18 H       -1.3570     1.4630     1.6120 H     1 <1>   0.0800 
 19 H       -1.2890     0.0310     2.6400 H     1 <1>   0.0800 
 20 H        1.2150     0.9420     2.9530 H     1 <1>   0.0800 
 21 H        1.3740     2.0460     1.5950 H     1 <1>   0.0800 
 22 H       -3.1760     1.5560     0.0680 H     1 <1>   0.1500 
 23 H       -1.7180    -2.2640     1.2820 H     1 <1>   0.1500 
 24 H       -4.9020     0.4710    -1.2730 H     1 <1>   0.1500 
 25 H       -3.4490    -3.3480    -0.0600 H     1 <1>   0.1500 
 26 H        2.4680     2.0520    -0.6250 H     1 <1>   0.0800 
 27 H        2.3680     0.3480    -1.0680 H     1 <1>   0.0800 
 28 H        5.2210    -0.6300     0.8370 H     1 <1>   0.0800 
 29 H        5.6600     1.0730     0.8730 H     1 <1>   0.0800 
 30 H        4.5680     2.2950    -1.6120 H     1 <1>   0.0800 
 31 H        3.9390     1.0560    -2.6800 H     1 <1>   0.0800 
 32 H        5.0810    -0.6680    -1.4800 H     1 <1>   0.0800 
 33 H        6.2610     0.6220    -1.3660 H     1 <1>   0.0800 
 34 H       -6.2460    -1.5630    -1.6560 H     1 <1>   0.0800 
 35 H       -5.6590    -3.1250    -1.1500 H     1 <1>   0.0800 
 36 H       -4.9990    -2.3680    -2.5820 H     1 <1>   0.0800 
@<TRIPOS>BOND
  1   1   2  1   
  2   1   3  1   
  3   2   4  1   
  4   2  18  1   
  5   2  19  1   
  6   3   5  1   
  7   3  20  1   
  8   3  21  1   
  9   4   6  ar  
 10   4   7  ar  
 11   5   8  2   
 12   5   9  am  
 13   6  10  ar  
 14   6  22  1   
 15   7  11  ar  
 16   7  23  1   
 17   9  12  1   
 18   9  13  1   
 19  10  14  ar  
 20  10  24  1   
 21  11  14  ar  
 22  11  25  1   
 23  12  15  1   
 24  12  26  1   
 25  12  27  1   
 26  13  16  1   
 27  13  28  1   
 28  13  29  1   
 29  14  17  1   
 30  15  16  1   
 31  15  30  1   
 32  15  31  1   
 33  16  32  1   
 34  16  33  1   
 35  17  34  1   
 36  17  35  1   
 37  17  36  1   
@<TRIPOS>SUBSTRUCTURE
  1 ****   1 GROUP 4 **** **** 0

# MOE 2024.06 (io_trps.svl 2023.06)
