@<TRIPOS>MOLECULE
NONAME
52 55 1 0 0 
SMALL
USER_CHARGES


@<TRIPOS>ATOM
  1 O        0.0510     1.7240     2.5860 O.2   1 <1>  -0.5700 
  2 C       -0.3010     2.1000     1.4970 C.2   1 <1>   0.4230 
  3 C        0.5800     2.6230     0.4900 C.ar  1 <1>   0.0860 
  4 C       -1.7700     2.0120     1.1530 C.3   1 <1>  -0.0990 
  5 C        0.0400     3.1790    -0.6740 C.ar  1 <1>   0.0820 
  6 C        1.9700     2.5940     0.6140 C.ar  1 <1>  -0.1500 
  7 C       -2.1880     3.1880     0.2590 C.3   1 <1>   0.2800 
  8 O       -1.2970     3.2750    -0.8450 O.3   1 <1>  -0.3630 
  9 C        0.8600     3.6560    -1.6830 C.ar  1 <1>  -0.1500 
 10 C        2.7880     3.0800    -0.3880 C.ar  1 <1>  -0.1500 
 11 C       -2.1560     4.5310     1.0140 C.3   1 <1>  -0.1600 
 12 C       -3.5930     2.9620    -0.3150 C.3   1 <1>  -0.1600 
 13 C        2.2330     3.6090    -1.5420 C.ar  1 <1>  -0.1500 
 14 C       -2.6790     5.6770     0.1470 C.3   1 <1>   0.1100 
 15 C       -4.0660     4.1630    -1.1340 C.3   1 <1>   0.1100 
 16 N       -4.0480     5.3730    -0.2920 N.3   1 <1>  -0.8100 
 17 C       -4.6200     6.5360    -1.0400 C.3   1 <1>   0.1710 
 18 C       -6.1430     6.4920    -1.1750 C.2   1 <1>   0.5690 
 19 O       -6.6700     7.1040    -2.0720 O.2   1 <1>  -0.5700 
 20 N       -6.8070     5.7430    -0.2460 N.am  1 <1>  -0.5470 
 21 C       -8.1630     5.4540    -0.0210 C.ar  1 <1>   0.1170 
 22 C       -8.4880     4.5650     0.9970 C.ar  1 <1>  -0.1500 
 23 C       -9.1980     6.0130    -0.7640 C.ar  1 <1>  -0.1500 
 24 C       -9.8050     4.2380     1.2700 C.ar  1 <1>  -0.1500 
 25 C      -10.5160     5.6890    -0.4970 C.ar  1 <1>  -0.1500 
 26 C      -10.8320     4.8020     0.5190 C.ar  1 <1>   0.0830 
 27 O      -12.1510     4.5390     0.7160 O.3   1 <1>  -0.3620 
 28 C      -12.5700     3.6490     1.7260 C.3   1 <1>   0.0400 
 29 H       -2.3510     2.0120     2.0570 H     1 <1>   0.0800 
 30 H       -1.9470     1.0820     0.6460 H     1 <1>   0.0800 
 31 H        2.4030     2.1790     1.5090 H     1 <1>   0.1500 
 32 H        0.4170     4.0670    -2.5730 H     1 <1>   0.1500 
 33 H        3.8590     3.0460    -0.2740 H     1 <1>   0.1500 
 34 H       -1.1590     4.7600     1.3420 H     1 <1>   0.0800 
 35 H       -2.7730     4.4650     1.8920 H     1 <1>   0.0800 
 36 H       -4.2920     2.8000     0.4870 H     1 <1>   0.0800 
 37 H       -3.5950     2.0820    -0.9330 H     1 <1>   0.0800 
 38 H        2.8720     3.9820    -2.3240 H     1 <1>   0.1500 
 39 H       -2.0370     5.8180    -0.7080 H     1 <1>   0.0800 
 40 H       -2.6760     6.5840     0.7280 H     1 <1>   0.0800 
 41 H       -5.0650     3.9730    -1.4900 H     1 <1>   0.0800 
 42 H       -3.4260     4.2990    -1.9910 H     1 <1>   0.0800 
 43 H       -4.1840     6.5960    -2.0210 H     1 <1>   0.0800 
 44 H       -4.3830     7.4460    -0.5190 H     1 <1>   0.0800 
 45 H       -6.1380     5.2710     0.3710 H     1 <1>   0.3700 
 46 H       -7.7040     4.1240     1.5840 H     1 <1>   0.1500 
 47 H       -8.9840     6.7050    -1.5570 H     1 <1>   0.1500 
 48 H      -10.0120     3.5480     2.0650 H     1 <1>   0.1500 
 49 H      -11.3090     6.1250    -1.0760 H     1 <1>   0.1500 
 50 H      -13.6430     3.5940     1.6970 H     1 <1>   0.0800 
 51 H      -12.2490     4.0280     2.6800 H     1 <1>   0.0800 
 52 H      -12.1490     2.6790     1.5330 H     1 <1>   0.0800 
@<TRIPOS>BOND
  1   1   2  2   
  2   2   3  1   
  3   2   4  1   
  4   3   5  ar  
  5   3   6  ar  
  6   4   7  1   
  7   4  29  1   
  8   4  30  1   
  9   5   8  1   
 10   5   9  ar  
 11   6  10  ar  
 12   6  31  1   
 13   7   8  1   
 14   7  11  1   
 15   7  12  1   
 16   9  13  ar  
 17   9  32  1   
 18  10  13  ar  
 19  10  33  1   
 20  11  14  1   
 21  11  34  1   
 22  11  35  1   
 23  12  15  1   
 24  12  36  1   
 25  12  37  1   
 26  13  38  1   
 27  14  16  1   
 28  14  39  1   
 29  14  40  1   
 30  15  16  1   
 31  15  41  1   
 32  15  42  1   
 33  16  17  1   
 34  17  18  1   
 35  17  43  1   
 36  17  44  1   
 37  18  19  2   
 38  18  20  am  
 39  20  21  1   
 40  20  45  1   
 41  21  22  ar  
 42  21  23  ar  
 43  22  24  ar  
 44  22  46  1   
 45  23  25  ar  
 46  23  47  1   
 47  24  26  ar  
 48  24  48  1   
 49  25  26  ar  
 50  25  49  1   
 51  26  27  1   
 52  27  28  1   
 53  28  50  1   
 54  28  51  1   
 55  28  52  1   
@<TRIPOS>SUBSTRUCTURE
  1 ****  15 GROUP 4 **** **** 0

# MOE 2024.06 (io_trps.svl 2023.06)
