@<TRIPOS>MOLECULE
NONAME
34 35 1 0 0 
SMALL
USER_CHARGES


@<TRIPOS>ATOM
  1 CL       0.7360    -0.4970    -0.7860 Cl    1 <1>  -0.1770 
  2 C        2.0740     0.5500    -0.3990 C.ar  1 <1>   0.1770 
  3 C        1.9510     1.9130    -0.5880 C.ar  1 <1>  -0.1500 
  4 C        3.2440     0.0050     0.0940 C.ar  1 <1>  -0.1500 
  5 C        3.0190     2.7360    -0.2810 C.ar  1 <1>  -0.1500 
  6 C        4.3060     0.8380     0.3990 C.ar  1 <1>  -0.1500 
  7 C        4.2230     2.2220     0.2100 C.ar  1 <1>   0.0860 
  8 C        5.3300     3.1110     0.5060 C.2   1 <1>   0.5440 
  9 O        5.1170     4.2010     0.9900 O.2   1 <1>  -0.5700 
 10 N        6.6120     2.6940     0.2510 N.am  1 <1>  -0.4900 
 11 C        7.7710     3.4030     0.1930 C.2   1 <1>   0.6900 
 12 O        7.7980     4.5980    -0.0060 O.2   1 <1>  -0.5700 
 13 N        8.9230     2.7040     0.3000 N.am  1 <1>  -0.7300 
 14 C       10.2850     3.2800     0.2300 C.3   1 <1>   0.1400 
 15 C       11.2640     2.2370    -0.3310 C.3   1 <1>   0.2000 
 16 O       11.0630     0.9990     0.2860 O.3   1 <1>  -0.5600 
 17 C       12.7310     2.5580    -0.0880 C.3   1 <1>  -0.1600 
 18 C       12.2360     0.2430     0.2840 C.3   1 <1>   0.1200 
 19 C       13.3710     1.1830    -0.1180 C.3   1 <1>  -0.1600 
 20 H        1.0300     2.3190    -0.9670 H     1 <1>   0.1500 
 21 H        3.3110    -1.0590     0.2390 H     1 <1>   0.1500 
 22 H        2.9290     3.8020    -0.4200 H     1 <1>   0.1500 
 23 H        5.2050     0.4030     0.8000 H     1 <1>   0.1500 
 24 H        6.7230     1.7320    -0.0300 H     1 <1>   0.3700 
 25 H        8.9400     1.7180     0.5700 H     1 <1>   0.3700 
 26 H       10.5900     3.5690     1.2210 H     1 <1>   0.0800 
 27 H       10.2860     4.1590    -0.3920 H     1 <1>   0.0800 
 28 H       11.0890     2.1010    -1.3850 H     1 <1>   0.0800 
 29 H       12.8540     3.0010     0.8850 H     1 <1>   0.0800 
 30 H       13.1300     3.2190    -0.8360 H     1 <1>   0.0800 
 31 H       12.1230    -0.5660    -0.4170 H     1 <1>   0.0800 
 32 H       12.3790    -0.1470     1.2770 H     1 <1>   0.0800 
 33 H       14.2080     1.1060     0.5530 H     1 <1>   0.0800 
 34 H       13.6960     0.9390    -1.1140 H     1 <1>   0.0800 
@<TRIPOS>BOND
  1   1   2  1   
  2   2   3  ar  
  3   2   4  ar  
  4   3   5  ar  
  5   3  20  1   
  6   4   6  ar  
  7   4  21  1   
  8   5   7  ar  
  9   5  22  1   
 10   6   7  ar  
 11   6  23  1   
 12   7   8  1   
 13   8   9  2   
 14   8  10  am  
 15  10  11  am  
 16  10  24  1   
 17  11  12  2   
 18  11  13  am  
 19  13  14  1   
 20  13  25  1   
 21  14  15  1   
 22  14  26  1   
 23  14  27  1   
 24  15  16  1   
 25  15  17  1   
 26  15  28  1   
 27  16  18  1   
 28  17  19  1   
 29  17  29  1   
 30  17  30  1   
 31  18  19  1   
 32  18  31  1   
 33  18  32  1   
 34  19  33  1   
 35  19  34  1   
@<TRIPOS>SUBSTRUCTURE
  1 ****  10 GROUP 4 **** **** 0

# MOE 2024.06 (io_trps.svl 2023.06)
