@<TRIPOS>MOLECULE
NONAME
55 57 1 0 0 
SMALL
USER_CHARGES


@<TRIPOS>ATOM
  1 O       -0.4710    -4.5650     1.5470 O.2   1 <1>  -0.5700 
  2 C       -0.0010    -3.6140     0.9730 C.2   1 <1>   0.5690 
  3 N       -0.7790    -2.5660     0.5940 N.am  1 <1>  -0.7300 
  4 C        1.4900    -3.5880     0.6750 C.3   1 <1>   0.0440 
  5 C       -2.2270    -2.4910     0.7990 C.3   1 <1>   0.2200 
  6 C        1.9430    -2.2610     0.0720 C.ar  1 <1>  -0.1440 
  7 C       -2.8720    -1.7740    -0.3830 C.3   1 <1>  -0.1600 
  8 C       -2.5070    -1.7530     2.1050 C.3   1 <1>  -0.1600 
  9 C        1.8910    -2.0640    -1.2990 C.ar  1 <1>  -0.1500 
 10 C        2.3870    -1.2340     0.8910 C.ar  1 <1>  -0.1500 
 11 C       -4.3720    -1.6110    -0.1480 C.3   1 <1>   0.3430 
 12 C       -4.0090    -1.5980     2.3130 C.3   1 <1>   0.3430 
 13 C        2.2710    -0.8500    -1.8430 C.ar  1 <1>  -0.1500 
 14 C        2.7700    -0.0190     0.3490 C.ar  1 <1>  -0.1500 
 15 N       -4.6110    -0.8950     1.1430 N.4   1 <1>  -0.9590 
 16 C        2.7110     0.1790    -1.0270 C.ar  1 <1>   0.0820 
 17 C       -6.0600    -0.6290     1.3580 C.3   1 <1>   0.4860 
 18 O        3.0630     1.3350    -1.6410 O.3   1 <1>  -0.3630 
 19 C       -6.5460     0.2970     0.2610 C.ar  1 <1>  -0.1440 
 20 C        3.6390     2.4010    -0.9220 C.3   1 <1>   0.1200 
 21 C       -6.1890     1.6380     0.2660 C.ar  1 <1>  -0.1500 
 22 C       -7.3460    -0.1930    -0.7620 C.ar  1 <1>  -0.1500 
 23 C        3.9780     3.5090    -1.9130 C.3   1 <1>  -0.2400 
 24 C       -6.6160     2.4760    -0.7490 C.ar  1 <1>  -0.1500 
 25 C       -7.7730     0.6480    -1.7760 C.ar  1 <1>  -0.1500 
 26 C       -7.4060     1.9810    -1.7700 C.ar  1 <1>  -0.1500 
 27 H       -0.3120    -1.7700     0.1440 H     1 <1>   0.3700 
 28 H        1.7150    -4.3930     0.0000 H     1 <1>   0.0800 
 29 H        2.0230    -3.7760     1.5900 H     1 <1>   0.0800 
 30 H       -2.6220    -3.4930     0.8660 H     1 <1>   0.0800 
 31 H       -2.7210    -2.3540    -1.2770 H     1 <1>   0.0800 
 32 H       -2.4260    -0.8060    -0.5300 H     1 <1>   0.0800 
 33 H       -2.0380    -0.7850     2.1010 H     1 <1>   0.0800 
 34 H       -2.0990    -2.3210     2.9230 H     1 <1>   0.0800 
 35 H        1.5550    -2.8520    -1.9520 H     1 <1>   0.1500 
 36 H        2.4380    -1.3740     1.9580 H     1 <1>   0.1500 
 37 H       -4.8390    -2.5820    -0.1200 H     1 <1>   0.0800 
 38 H       -4.8000    -1.0530    -0.9670 H     1 <1>   0.0800 
 39 H       -4.1890    -1.0370     3.2170 H     1 <1>   0.0800 
 40 H       -4.4570    -2.5730     2.4250 H     1 <1>   0.0800 
 41 H        2.2340    -0.6920    -2.9060 H     1 <1>   0.1500 
 42 H        3.1110     0.7550     1.0100 H     1 <1>   0.1500 
 43 H       -4.1660     0.0280     1.0520 H     1 <1>   0.4500 
 44 H       -6.2150    -0.1550     2.3130 H     1 <1>   0.0800 
 45 H       -6.6180    -1.5510     1.3380 H     1 <1>   0.0800 
 46 H        4.5280     2.0410    -0.4340 H     1 <1>   0.0800 
 47 H        2.9250     2.7470    -0.1940 H     1 <1>   0.0800 
 48 H       -5.5820     2.0510     1.0540 H     1 <1>   0.1500 
 49 H       -7.6510    -1.2260    -0.7860 H     1 <1>   0.1500 
 50 H        4.6780     3.1480    -2.6450 H     1 <1>   0.0800 
 51 H        4.4220     4.3390    -1.3930 H     1 <1>   0.0800 
 52 H        3.0860     3.8500    -2.4070 H     1 <1>   0.0800 
 53 H       -6.3400     3.5180    -0.7460 H     1 <1>   0.1500 
 54 H       -8.3950     0.2690    -2.5700 H     1 <1>   0.1500 
 55 H       -7.7400     2.6350    -2.5590 H     1 <1>   0.1500 
@<TRIPOS>BOND
  1   1   2  2   
  2   2   3  am  
  3   2   4  1   
  4   3   5  1   
  5   3  27  1   
  6   4   6  1   
  7   4  28  1   
  8   4  29  1   
  9   5   7  1   
 10   5   8  1   
 11   5  30  1   
 12   6   9  ar  
 13   6  10  ar  
 14   7  11  1   
 15   7  31  1   
 16   7  32  1   
 17   8  12  1   
 18   8  33  1   
 19   8  34  1   
 20   9  13  ar  
 21   9  35  1   
 22  10  14  ar  
 23  10  36  1   
 24  11  15  1   
 25  11  37  1   
 26  11  38  1   
 27  12  15  1   
 28  12  39  1   
 29  12  40  1   
 30  13  16  ar  
 31  13  41  1   
 32  14  16  ar  
 33  14  42  1   
 34  15  17  1   
 35  15  43  1   
 36  16  18  1   
 37  17  19  1   
 38  17  44  1   
 39  17  45  1   
 40  18  20  1   
 41  19  21  ar  
 42  19  22  ar  
 43  20  23  1   
 44  20  46  1   
 45  20  47  1   
 46  21  24  ar  
 47  21  48  1   
 48  22  25  ar  
 49  22  49  1   
 50  23  50  1   
 51  23  51  1   
 52  23  52  1   
 53  24  26  ar  
 54  24  53  1   
 55  25  26  ar  
 56  25  54  1   
 57  26  55  1   
@<TRIPOS>SUBSTRUCTURE
  1 ****   7 GROUP 4 **** **** 0

# MOE 2024.06 (io_trps.svl 2023.06)
