@<TRIPOS>MOLECULE
NONAME
46 48 1 0 0 
SMALL
USER_CHARGES


@<TRIPOS>ATOM
  1 O        0.1830     0.9930     2.1330 O.2   1 <1>  -0.5700 
  2 C        0.4500     1.8010     1.2500 C.2   1 <1>   0.5650 
  3 N       -0.5410     2.6760     0.7250 N.pl3 1 <1>   0.5610 
  4 C        1.7810     1.9100     0.7130 C.2   1 <1>  -0.1240 
  5 N       -1.8740     2.7870     1.0280 N.2   1 <1>  -0.7070 
  6 C       -0.2130     3.5920    -0.2360 C.2   1 <1>  -0.0680 
  7 C        2.0760     2.8290    -0.2560 C.2   1 <1>  -0.0380 
  8 C        2.8330     0.9400     1.2630 C.3   1 <1>   0.0390 
  9 C       -2.3370     3.7500     0.2750 C.2   1 <1>   0.2350 
 10 N        1.0990     3.6730    -0.7200 N.pl3 1 <1>  -0.5840 
 11 C       -1.3310     4.2810    -0.5450 C.2   1 <1>  -0.1810 
 12 C        3.4270     3.0290    -0.9270 C.3   1 <1>  -0.1020 
 13 C        3.0240    -0.2400     0.3330 C.2   1 <1>   0.6590 
 14 C       -3.7200     4.1760     0.2970 C.ar  1 <1>   0.0540 
 15 C       -1.4870     5.3830    -1.5800 C.3   1 <1>  -0.0590 
 16 O        4.0960    -0.4850    -0.1570 O.2   1 <1>  -0.5700 
 17 O        1.9470    -0.9710     0.0820 O.3   1 <1>  -0.4300 
 18 C       -4.0760     5.5140     0.4490 C.ar  1 <1>  -0.1500 
 19 C       -4.7490     3.2470     0.1680 C.ar  1 <1>  -0.1500 
 20 C        1.9890    -2.0830    -0.7790 C.3   1 <1>   0.1200 
 21 C       -5.4010     5.9110     0.4470 C.ar  1 <1>  -0.1500 
 22 C       -6.0760     3.6370     0.1660 C.ar  1 <1>  -0.1500 
 23 C        0.5790    -2.6580    -0.8700 C.3   1 <1>  -0.2400 
 24 C       -6.4110     4.9740     0.3010 C.ar  1 <1>  -0.1430 
 25 C       -7.8670     5.4050     0.3000 C.3   1 <1>  -0.0970 
 26 H        2.5640     0.5650     2.2320 H     1 <1>   0.0800 
 27 H        3.7740     1.4430     1.3850 H     1 <1>   0.0800 
 28 H        1.3110     4.3680    -1.4470 H     1 <1>   0.4000 
 29 H        3.8210     3.9960    -0.6710 H     1 <1>   0.0800 
 30 H        3.3130     2.9750    -1.9940 H     1 <1>   0.0800 
 31 H        4.1490     2.2870    -0.6440 H     1 <1>   0.0800 
 32 H       -0.6510     5.3870    -2.2540 H     1 <1>   0.0800 
 33 H       -1.5450     6.3400    -1.0940 H     1 <1>   0.0800 
 34 H       -2.3850     5.2250    -2.1510 H     1 <1>   0.0800 
 35 H       -3.3040     6.2500     0.5780 H     1 <1>   0.1500 
 36 H       -4.4940     2.2060     0.0710 H     1 <1>   0.1500 
 37 H        2.6780    -2.8040    -0.3720 H     1 <1>   0.0800 
 38 H        2.3360    -1.7550    -1.7450 H     1 <1>   0.0800 
 39 H       -5.6450     6.9520     0.5650 H     1 <1>   0.1500 
 40 H       -6.8470     2.8940     0.0630 H     1 <1>   0.1500 
 41 H        0.2420    -2.9660     0.1040 H     1 <1>   0.0800 
 42 H        0.5760    -3.5140    -1.5210 H     1 <1>   0.0800 
 43 H       -0.0960    -1.9220    -1.2670 H     1 <1>   0.0800 
 44 H       -7.9640     6.4030    -0.0880 H     1 <1>   0.0800 
 45 H       -8.2520     5.3820     1.3030 H     1 <1>   0.0800 
 46 H       -8.4530     4.7450    -0.3130 H     1 <1>   0.0800 
@<TRIPOS>BOND
  1   1   2  2   
  2   2   3  1   
  3   2   4  1   
  4   3   5  1   
  5   3   6  1   
  6   4   7  2   
  7   4   8  1   
  8   5   9  2   
  9   6  10  1   
 10   6  11  2   
 11   7  10  1   
 12   7  12  1   
 13   8  13  1   
 14   8  26  1   
 15   8  27  1   
 16   9  11  1   
 17   9  14  1   
 18  10  28  1   
 19  11  15  1   
 20  12  29  1   
 21  12  30  1   
 22  12  31  1   
 23  13  16  2   
 24  13  17  1   
 25  14  18  ar  
 26  14  19  ar  
 27  15  32  1   
 28  15  33  1   
 29  15  34  1   
 30  17  20  1   
 31  18  21  ar  
 32  18  35  1   
 33  19  22  ar  
 34  19  36  1   
 35  20  23  1   
 36  20  37  1   
 37  20  38  1   
 38  21  24  ar  
 39  21  39  1   
 40  22  24  ar  
 41  22  40  1   
 42  23  41  1   
 43  23  42  1   
 44  23  43  1   
 45  24  25  1   
 46  25  44  1   
 47  25  45  1   
 48  25  46  1   
@<TRIPOS>SUBSTRUCTURE
  1 ****   3 GROUP 4 **** **** 0

# MOE 2024.06 (io_trps.svl 2023.06)
