@<TRIPOS>MOLECULE
NONAME
40 42 1 0 0 
SMALL
USER_CHARGES


@<TRIPOS>ATOM
  1 S        1.9000     2.7610     1.1120 S.3   1 <1>  -0.0800 
  2 C        1.9360     1.4860    -0.1080 C.2   1 <1>   0.4420 
  3 C        0.1670     2.8880     0.9190 C.ar  1 <1>   0.0400 
  4 N        0.7910     1.1950    -0.5940 N.2   1 <1>  -0.5650 
  5 N        3.1780     0.9630    -0.3820 N.am  1 <1>  -0.4940 
  6 C       -0.2180     1.9670    -0.0370 C.ar  1 <1>   0.2270 
  7 C       -0.7150     3.7310     1.5690 C.ar  1 <1>  -0.1500 
  8 C        3.5600     0.0060    -1.2820 C.2   1 <1>   0.5690 
  9 C       -1.5650     1.8860    -0.3600 C.ar  1 <1>  -0.1500 
 10 C       -2.0550     3.6360     1.2330 C.ar  1 <1>  -0.1500 
 11 O        2.8020    -0.5420    -2.0400 O.2   1 <1>  -0.5700 
 12 C        5.0260    -0.3990    -1.3300 C.3   1 <1>   0.1310 
 13 C       -2.4760     2.7170     0.2740 C.ar  1 <1>  -0.1500 
 14 S        6.1090     0.8200    -0.4300 S.3   1 <1>  -0.2860 
 15 C        7.7380     0.0680    -0.5490 C.2   1 <1>   0.2430 
 16 N        7.9190    -1.0670    -1.1240 N.2   1 <1>  -0.3380 
 17 N        8.8620     0.6090    -0.0620 N.pl3 1 <1>   0.0480 
 18 N        9.2250    -1.3190    -1.0290 N.2   1 <1>  -0.3380 
 19 C        9.7650    -0.3270    -0.4040 C.2   1 <1>   0.0060 
 20 C        9.1130     1.8880     0.6630 C.3   1 <1>   0.1760 
 21 C       11.2510    -0.2530    -0.1040 C.3   1 <1>  -0.0600 
 22 C        8.3740     1.9240     2.0060 C.3   1 <1>  -0.2400 
 23 C        8.7680     3.1010    -0.2080 C.3   1 <1>  -0.2400 
 24 H        3.9400     1.3650     0.1590 H     1 <1>   0.3700 
 25 H       -0.3660     4.4320     2.3060 H     1 <1>   0.1500 
 26 H       -1.8780     1.1730    -1.1020 H     1 <1>   0.1500 
 27 H       -2.7770     4.2730     1.7140 H     1 <1>   0.1500 
 28 H        5.3700    -0.4420    -2.3470 H     1 <1>   0.0800 
 29 H        5.1620    -1.3570    -0.8620 H     1 <1>   0.0800 
 30 H       -3.5210     2.6530     0.0220 H     1 <1>   0.1500 
 31 H       10.1650     1.9380     0.8770 H     1 <1>   0.0800 
 32 H       11.4140    -0.2070     0.9570 H     1 <1>   0.0800 
 33 H       11.6820     0.6120    -0.5740 H     1 <1>   0.0800 
 34 H       11.7430    -1.1300    -0.4860 H     1 <1>   0.0800 
 35 H        7.3100     1.9590     1.8670 H     1 <1>   0.0800 
 36 H        8.6660     2.7990     2.5590 H     1 <1>   0.0800 
 37 H        8.6250     1.0580     2.5930 H     1 <1>   0.0800 
 38 H        7.7120     3.1590    -0.4000 H     1 <1>   0.0800 
 39 H        9.2940     3.0480    -1.1450 H     1 <1>   0.0800 
 40 H        9.0640     4.0060     0.2920 H     1 <1>   0.0800 
@<TRIPOS>BOND
  1   1   2  1   
  2   1   3  1   
  3   2   4  2   
  4   2   5  1   
  5   3   6  ar  
  6   3   7  ar  
  7   4   6  1   
  8   5   8  am  
  9   5  24  1   
 10   6   9  ar  
 11   7  10  ar  
 12   7  25  1   
 13   8  11  2   
 14   8  12  1   
 15   9  13  ar  
 16   9  26  1   
 17  10  13  ar  
 18  10  27  1   
 19  12  14  1   
 20  12  28  1   
 21  12  29  1   
 22  13  30  1   
 23  14  15  1   
 24  15  16  2   
 25  15  17  1   
 26  16  18  1   
 27  17  19  1   
 28  17  20  1   
 29  18  19  2   
 30  19  21  1   
 31  20  22  1   
 32  20  23  1   
 33  20  31  1   
 34  21  32  1   
 35  21  33  1   
 36  21  34  1   
 37  22  35  1   
 38  22  36  1   
 39  22  37  1   
 40  23  38  1   
 41  23  39  1   
 42  23  40  1   
@<TRIPOS>SUBSTRUCTURE
  1 ****   5 GROUP 4 **** **** 0

# MOE 2024.06 (io_trps.svl 2023.06)
