@<TRIPOS>MOLECULE
NONAME
39 39 1 0 0 
SMALL
USER_CHARGES


@<TRIPOS>ATOM
  1 O        0.4560    -0.5360     1.7740 O.2   1 <1>  -0.5700 
  2 C        0.8470    -1.3060     0.9130 C.2   1 <1>   0.6900 
  3 N        0.1760    -2.4800     0.7180 N.am  1 <1>  -0.6600 
  4 N        1.9740    -1.0260     0.1750 N.am  1 <1>  -0.6600 
  5 C       -1.2980    -2.5020     0.4760 C.3   1 <1>   0.2200 
  6 C        0.7050    -3.6390     1.4750 C.3   1 <1>   0.1400 
  7 C        2.2690    -1.7180    -1.1090 C.3   1 <1>   0.1400 
  8 C        2.7790     0.1870     0.4680 C.3   1 <1>   0.1400 
  9 C       -1.6790    -3.8370    -0.1990 C.3   1 <1>  -0.1600 
 10 C       -1.7380    -1.3010    -0.3930 C.3   1 <1>  -0.1600 
 11 C        0.3670    -4.9430     0.7530 C.3   1 <1>  -0.1600 
 12 C        3.5250    -2.5750    -0.9720 C.3   1 <1>  -0.2400 
 13 C        3.7400    -0.0980     1.6210 C.3   1 <1>  -0.2400 
 14 C       -1.1450    -5.0660     0.5490 C.3   1 <1>  -0.1600 
 15 C       -3.2420    -1.2580    -0.7040 C.3   1 <1>  -0.2400 
 16 H       -1.7930    -2.4380     1.4310 H     1 <1>   0.0800 
 17 H        0.2700    -3.6390     2.4590 H     1 <1>   0.0800 
 18 H        1.7730    -3.5460     1.5810 H     1 <1>   0.0800 
 19 H        2.4040    -0.9860    -1.8860 H     1 <1>   0.0800 
 20 H        1.4410    -2.3440    -1.3960 H     1 <1>   0.0800 
 21 H        2.1220     0.9980     0.7370 H     1 <1>   0.0800 
 22 H        3.3320     0.4840    -0.4060 H     1 <1>   0.0800 
 23 H       -1.2930    -3.8390    -1.2040 H     1 <1>   0.0800 
 24 H       -2.7480    -3.9200    -0.2590 H     1 <1>   0.0800 
 25 H       -1.1870    -1.3100    -1.3170 H     1 <1>   0.0800 
 26 H       -1.5010    -0.3890     0.1260 H     1 <1>   0.0800 
 27 H        0.7230    -5.7750     1.3350 H     1 <1>   0.0800 
 28 H        0.8720    -4.9600    -0.1970 H     1 <1>   0.0800 
 29 H        4.3850    -1.9570    -0.7890 H     1 <1>   0.0800 
 30 H        3.6890    -3.1210    -1.8830 H     1 <1>   0.0800 
 31 H        3.4090    -3.2780    -0.1680 H     1 <1>   0.0800 
 32 H        3.1830    -0.3520     2.5050 H     1 <1>   0.0800 
 33 H        4.3260     0.7780     1.8280 H     1 <1>   0.0800 
 34 H        4.4020    -0.9060     1.3720 H     1 <1>   0.0800 
 35 H       -1.3680    -5.9580    -0.0100 H     1 <1>   0.0800 
 36 H       -1.6320    -5.1390     1.5070 H     1 <1>   0.0800 
 37 H       -3.5270    -2.0610    -1.3600 H     1 <1>   0.0800 
 38 H       -3.4840    -0.3300    -1.1910 H     1 <1>   0.0800 
 39 H       -3.8150    -1.3230     0.2040 H     1 <1>   0.0800 
@<TRIPOS>BOND
  1   1   2  2   
  2   2   3  am  
  3   2   4  am  
  4   3   5  1   
  5   3   6  1   
  6   4   7  1   
  7   4   8  1   
  8   5   9  1   
  9   5  10  1   
 10   5  16  1   
 11   6  11  1   
 12   6  17  1   
 13   6  18  1   
 14   7  12  1   
 15   7  19  1   
 16   7  20  1   
 17   8  13  1   
 18   8  21  1   
 19   8  22  1   
 20   9  14  1   
 21   9  23  1   
 22   9  24  1   
 23  10  15  1   
 24  10  25  1   
 25  10  26  1   
 26  11  14  1   
 27  11  27  1   
 28  11  28  1   
 29  12  29  1   
 30  12  30  1   
 31  12  31  1   
 32  13  32  1   
 33  13  33  1   
 34  13  34  1   
 35  14  35  1   
 36  14  36  1   
 37  15  37  1   
 38  15  38  1   
 39  15  39  1   
@<TRIPOS>SUBSTRUCTURE
  1 ****   3 GROUP 4 **** **** 0

# MOE 2024.06 (io_trps.svl 2023.06)
