@<TRIPOS>MOLECULE
NONAME
29 30 1 0 0 
SMALL
USER_CHARGES


@<TRIPOS>ATOM
  1 O       -0.3070    -0.9620    -1.6080 O.2   1 <1>  -0.5700 
  2 C       -0.0610    -1.6800    -0.6890 C.2   1 <1>   0.4480 
  3 C       -1.0670    -1.9370     0.4080 C.3   1 <1>  -0.0380 
  4 C        1.2800    -2.3770    -0.5640 C.3   1 <1>  -0.0990 
  5 C       -1.1580    -3.4220     0.6670 C.2   1 <1>   0.4480 
  6 C        1.0890    -3.8860    -0.3530 C.3   1 <1>   0.0640 
  7 O       -2.2070    -3.9810     0.7410 O.2   1 <1>  -0.5700 
  8 C        0.1520    -4.1680     0.8300 C.3   1 <1>  -0.0990 
  9 C        2.4310    -4.5900    -0.1720 C.ar  1 <1>  -0.1440 
 10 C        3.2710    -4.2900     0.8920 C.ar  1 <1>  -0.1500 
 11 C        2.8310    -5.5540    -1.0860 C.ar  1 <1>  -0.1500 
 12 C        4.4840    -4.9400     1.0380 C.ar  1 <1>  -0.1500 
 13 C        4.0440    -6.2040    -0.9400 C.ar  1 <1>  -0.1500 
 14 C        4.8780    -5.9000     0.1220 C.ar  1 <1>  -0.1430 
 15 C        6.2080    -6.6150     0.2820 C.3   1 <1>  -0.0970 
 16 H       -2.0300    -1.5620     0.1100 H     1 <1>   0.0800 
 17 H       -0.7630    -1.4310     1.3030 H     1 <1>   0.0800 
 18 H        1.8180    -1.9430     0.2590 H     1 <1>   0.0800 
 19 H        1.8520    -2.2090    -1.4590 H     1 <1>   0.0800 
 20 H        0.6140    -4.2770    -1.2390 H     1 <1>   0.0800 
 21 H       -0.0470    -5.2240     0.8870 H     1 <1>   0.0800 
 22 H        0.6070    -3.8670     1.7560 H     1 <1>   0.0800 
 23 H        2.9940    -3.5490     1.6200 H     1 <1>   0.1500 
 24 H        2.2020    -5.8100    -1.9210 H     1 <1>   0.1500 
 25 H        5.1210    -4.6960     1.8690 H     1 <1>   0.1500 
 26 H        4.3350    -6.9500    -1.6580 H     1 <1>   0.1500 
 27 H        6.9240    -5.9750     0.7660 H     1 <1>   0.0800 
 28 H        6.6020    -6.8980    -0.6780 H     1 <1>   0.0800 
 29 H        6.0760    -7.5010     0.8770 H     1 <1>   0.0800 
@<TRIPOS>BOND
  1   1   2  2   
  2   2   3  1   
  3   2   4  1   
  4   3   5  1   
  5   3  16  1   
  6   3  17  1   
  7   4   6  1   
  8   4  18  1   
  9   4  19  1   
 10   5   7  2   
 11   5   8  1   
 12   6   8  1   
 13   6   9  1   
 14   6  20  1   
 15   8  21  1   
 16   8  22  1   
 17   9  10  ar  
 18   9  11  ar  
 19  10  12  ar  
 20  10  23  1   
 21  11  13  ar  
 22  11  24  1   
 23  12  14  ar  
 24  12  25  1   
 25  13  14  ar  
 26  13  26  1   
 27  14  15  1   
 28  15  27  1   
 29  15  28  1   
 30  15  29  1   
@<TRIPOS>SUBSTRUCTURE
  1 ****   6 GROUP 4 **** **** 0

# MOE 2024.06 (io_trps.svl 2023.06)
