@<TRIPOS>MOLECULE
NONAME
41 41 1 0 0 
SMALL
USER_CHARGES


@<TRIPOS>ATOM
  1 CL       0.2910    -1.6900     0.8640 Cl    1 <1>  -0.1770 
  2 C        2.0310    -1.7920     0.7680 C.ar  1 <1>   0.1770 
  3 C        2.6510    -3.0090     0.9880 C.ar  1 <1>  -0.1500 
  4 C        2.7600    -0.6530     0.4770 C.ar  1 <1>  -0.1500 
  5 C        4.0310    -3.0890     0.9080 C.ar  1 <1>  -0.1500 
  6 C        4.1400    -0.7360     0.3970 C.ar  1 <1>  -0.1500 
  7 C        4.7730    -1.9560     0.5960 C.ar  1 <1>   0.0830 
  8 O        6.1240    -2.0290     0.5380 O.3   1 <1>  -0.3630 
  9 C        6.8190    -2.3340    -0.6790 C.3   1 <1>   0.3410 
 10 C        8.3430    -2.2620    -0.3790 C.2   1 <1>   0.5690 
 11 C        6.4450    -1.3000    -1.7560 C.3   1 <1>  -0.2400 
 12 C        6.4280    -3.7500    -1.1390 C.3   1 <1>  -0.2400 
 13 O        9.1440    -2.5330    -1.2470 O.2   1 <1>  -0.5700 
 14 N        8.7630    -1.9060     0.8730 N.am  1 <1>  -0.7300 
 15 C       10.1130    -1.5220     1.4080 C.3   1 <1>   0.1400 
 16 C       11.3470    -1.9340     0.5700 C.3   1 <1>   0.3430 
 17 N       11.3370    -3.3700     0.1470 N.4   1 <1>  -0.9590 
 18 C       11.2470    -4.3440     1.2750 C.3   1 <1>   0.2630 
 19 C       12.4690    -3.6780    -0.7730 C.3   1 <1>   0.2630 
 20 H        2.0580    -3.8750     1.2210 H     1 <1>   0.1500 
 21 H        2.2510     0.2810     0.3190 H     1 <1>   0.1500 
 22 H        4.5290    -4.0240     1.0890 H     1 <1>   0.1500 
 23 H        4.7230     0.1420     0.1840 H     1 <1>   0.1500 
 24 H        7.0190    -1.4790    -2.6470 H     1 <1>   0.0800 
 25 H        6.6650    -0.3060    -1.4110 H     1 <1>   0.0800 
 26 H        5.4050    -1.3700    -2.0180 H     1 <1>   0.0800 
 27 H        7.0010    -4.0210    -2.0080 H     1 <1>   0.0800 
 28 H        5.3890    -3.7950    -1.4080 H     1 <1>   0.0800 
 29 H        6.6330    -4.4640    -0.3630 H     1 <1>   0.0800 
 30 H        7.9870    -1.7030     1.5200 H     1 <1>   0.3700 
 31 H       10.2170    -1.9400     2.3940 H     1 <1>   0.0800 
 32 H       10.1330    -0.4510     1.5240 H     1 <1>   0.0800 
 33 H       12.2400    -1.7270     1.1350 H     1 <1>   0.0800 
 34 H       11.3680    -1.3130    -0.3120 H     1 <1>   0.0800 
 35 H       10.4590    -3.4370    -0.4180 H     1 <1>   0.4500 
 36 H       12.1120    -4.2610     1.9130 H     1 <1>   0.0800 
 37 H       11.1920    -5.3500     0.8930 H     1 <1>   0.0800 
 38 H       10.3610    -4.1550     1.8600 H     1 <1>   0.0800 
 39 H       13.4110    -3.5740    -0.2590 H     1 <1>   0.0800 
 40 H       12.4550    -3.0050    -1.6150 H     1 <1>   0.0800 
 41 H       12.3840    -4.6870    -1.1430 H     1 <1>   0.0800 
@<TRIPOS>BOND
  1   1   2  1   
  2   2   3  ar  
  3   2   4  ar  
  4   3   5  ar  
  5   3  20  1   
  6   4   6  ar  
  7   4  21  1   
  8   5   7  ar  
  9   5  22  1   
 10   6   7  ar  
 11   6  23  1   
 12   7   8  1   
 13   8   9  1   
 14   9  10  1   
 15   9  11  1   
 16   9  12  1   
 17  10  13  2   
 18  10  14  am  
 19  11  24  1   
 20  11  25  1   
 21  11  26  1   
 22  12  27  1   
 23  12  28  1   
 24  12  29  1   
 25  14  15  1   
 26  14  30  1   
 27  15  16  1   
 28  15  31  1   
 29  15  32  1   
 30  16  17  1   
 31  16  33  1   
 32  16  34  1   
 33  17  18  1   
 34  17  19  1   
 35  17  35  1   
 36  18  36  1   
 37  18  37  1   
 38  18  38  1   
 39  19  39  1   
 40  19  40  1   
 41  19  41  1   
@<TRIPOS>SUBSTRUCTURE
  1 ****   8 GROUP 4 **** **** 0

# MOE 2024.06 (io_trps.svl 2023.06)
