@<TRIPOS>MOLECULE
NONAME
29 29 1 0 0 
SMALL
USER_CHARGES


@<TRIPOS>ATOM
  1 P       -0.3400     0.1700    -0.8820 P.3   1 <1>   0.8390 
  2 O       -0.6540     0.6540    -2.2250 O.2   1 <1>  -0.7000 
  3 C       -0.9900    -1.4760    -0.6100 C.ar  1 <1>  -0.1390 
  4 C        1.3970     0.1680    -0.6230 C.3   1 <1>  -0.2660 
  5 C       -1.1440     1.1800     0.3440 C.3   1 <1>  -0.1600 
  6 C       -1.6470    -2.1470    -1.6360 C.ar  1 <1>  -0.1500 
  7 C       -0.8930    -2.1450     0.6060 C.ar  1 <1>  -0.1500 
  8 C        1.7260    -0.2180     0.7710 C.2   1 <1>   0.9060 
  9 C       -0.7570     2.6680     0.3020 C.3   1 <1>  -0.1600 
 10 C       -2.1830    -3.4120    -1.4670 C.ar  1 <1>  -0.1500 
 11 C       -1.4210    -3.4110     0.7920 C.ar  1 <1>  -0.1500 
 12 O        2.1640    -1.3470     0.9880 O.co2 1 <1>  -0.9000 
 13 O        1.5460     0.6040     1.6690 O.co2 1 <1>  -0.9000 
 14 C       -1.5400     3.4790     1.3390 C.3   1 <1>  -0.2400 
 15 C       -2.0710    -4.0490    -0.2470 C.ar  1 <1>  -0.1500 
 16 H        1.8230     1.1350    -0.7890 H     1 <1>   0.0800 
 17 H        1.8910    -0.5220    -1.2770 H     1 <1>   0.0800 
 18 H       -0.9460     0.8110     1.3330 H     1 <1>   0.0800 
 19 H       -2.2060     1.1160     0.2040 H     1 <1>   0.0800 
 20 H       -1.7410    -1.6620    -2.5930 H     1 <1>   0.1500 
 21 H       -0.3850    -1.6790     1.4350 H     1 <1>   0.1500 
 22 H       -0.9470     3.0600    -0.6830 H     1 <1>   0.0800 
 23 H        0.2970     2.7640     0.5030 H     1 <1>   0.0800 
 24 H       -2.6840    -3.8960    -2.2860 H     1 <1>   0.1500 
 25 H       -1.3140    -3.8940     1.7470 H     1 <1>   0.1500 
 26 H       -2.5970     3.4100     1.1530 H     1 <1>   0.0800 
 27 H       -1.2470     4.5120     1.2920 H     1 <1>   0.0800 
 28 H       -1.3330     3.1090     2.3280 H     1 <1>   0.0800 
 29 H       -2.4810    -5.0330    -0.1060 H     1 <1>   0.1500 
@<TRIPOS>BOND
  1   1   2  2   
  2   1   3  1   
  3   1   4  1   
  4   1   5  1   
  5   3   6  ar  
  6   3   7  ar  
  7   4   8  1   
  8   4  16  1   
  9   4  17  1   
 10   5   9  1   
 11   5  18  1   
 12   5  19  1   
 13   6  10  ar  
 14   6  20  1   
 15   7  11  ar  
 16   7  21  1   
 17   8  12  ar  
 18   8  13  ar  
 19   9  14  1   
 20   9  22  1   
 21   9  23  1   
 22  10  15  ar  
 23  10  24  1   
 24  11  15  ar  
 25  11  25  1   
 26  14  26  1   
 27  14  27  1   
 28  14  28  1   
 29  15  29  1   
@<TRIPOS>SUBSTRUCTURE
  1 ****   1 GROUP 4 **** **** 0

# MOE 2024.06 (io_trps.svl 2023.06)
