@<TRIPOS>MOLECULE
NONAME
40 41 1 0 0 
SMALL
USER_CHARGES


@<TRIPOS>ATOM
  1 F        0.9140    -2.4760    -2.3920 F     1 <1>  -0.1900 
  2 C        2.0380    -2.2680    -1.7580 C.ar  1 <1>   0.1900 
  3 C        2.4720    -0.9680    -1.5800 C.ar  1 <1>  -0.1500 
  4 C        2.7500    -3.3550    -1.2890 C.ar  1 <1>  -0.1500 
  5 C        3.6630    -0.7470    -0.9070 C.ar  1 <1>  -0.1500 
  6 C        3.9400    -3.1250    -0.6190 C.ar  1 <1>  -0.1500 
  7 C        4.4020    -1.8290    -0.4230 C.ar  1 <1>   0.0830 
  8 O        5.5780    -1.7090     0.2460 O.3   1 <1>  -0.3630 
  9 C        6.1520    -0.4530     0.6010 C.3   1 <1>   0.2610 
 10 C        7.6590    -0.6160     0.8480 C.2   1 <1>   0.5690 
 11 C        5.4300     0.0720     1.8510 C.3   1 <1>  -0.2400 
 12 O        8.3730     0.3530     0.7420 O.2   1 <1>  -0.5700 
 13 N        8.1560    -1.8380     1.1790 N.am  1 <1>  -0.7300 
 14 C        9.5730    -2.1480     1.4730 C.3   1 <1>   0.2200 
 15 C       10.2560    -2.7910     0.2440 C.3   1 <1>   0.2000 
 16 C        9.5910    -3.0590     2.7000 C.3   1 <1>  -0.2400 
 17 O       11.5810    -3.1310     0.5350 O.3   1 <1>  -0.5600 
 18 C       10.3290    -1.8880    -0.9820 C.3   1 <1>  -0.1600 
 19 C       12.4320    -2.8930    -0.5450 C.3   1 <1>   0.1200 
 20 C       11.5590    -2.4090    -1.6950 C.3   1 <1>  -0.1600 
 21 H        1.8860    -0.1500    -1.9610 H     1 <1>   0.1500 
 22 H        2.3800    -4.3520    -1.4470 H     1 <1>   0.1500 
 23 H        3.9900     0.2660    -0.7740 H     1 <1>   0.1500 
 24 H        4.5160    -3.9510    -0.2430 H     1 <1>   0.1500 
 25 H        6.0390     0.2230    -0.2260 H     1 <1>   0.0800 
 26 H        5.5620    -0.6140     2.6680 H     1 <1>   0.0800 
 27 H        4.3810     0.2070     1.6630 H     1 <1>   0.0800 
 28 H        5.8500     1.0210     2.1340 H     1 <1>   0.0800 
 29 H        7.5090    -2.6290     1.1980 H     1 <1>   0.3700 
 30 H       10.0900    -1.2310     1.7060 H     1 <1>   0.0800 
 31 H        9.7550    -3.7090    -0.0100 H     1 <1>   0.0800 
 32 H        9.1050    -3.9940     2.4880 H     1 <1>   0.0800 
 33 H        9.1040    -2.5760     3.5280 H     1 <1>   0.0800 
 34 H       10.6080    -3.2630     2.9830 H     1 <1>   0.0800 
 35 H       10.4800    -0.8670    -0.6750 H     1 <1>   0.0800 
 36 H        9.4390    -1.9490    -1.5820 H     1 <1>   0.0800 
 37 H       12.9570    -3.8010    -0.7850 H     1 <1>   0.0800 
 38 H       13.1310    -2.1310    -0.2440 H     1 <1>   0.0800 
 39 H       12.0480    -1.6540    -2.2840 H     1 <1>   0.0800 
 40 H       11.3040    -3.2440    -2.3240 H     1 <1>   0.0800 
@<TRIPOS>BOND
  1   1   2  1   
  2   2   3  ar  
  3   2   4  ar  
  4   3   5  ar  
  5   3  21  1   
  6   4   6  ar  
  7   4  22  1   
  8   5   7  ar  
  9   5  23  1   
 10   6   7  ar  
 11   6  24  1   
 12   7   8  1   
 13   8   9  1   
 14   9  10  1   
 15   9  11  1   
 16   9  25  1   
 17  10  12  2   
 18  10  13  am  
 19  11  26  1   
 20  11  27  1   
 21  11  28  1   
 22  13  14  1   
 23  13  29  1   
 24  14  15  1   
 25  14  16  1   
 26  14  30  1   
 27  15  17  1   
 28  15  18  1   
 29  15  31  1   
 30  16  32  1   
 31  16  33  1   
 32  16  34  1   
 33  17  19  1   
 34  18  20  1   
 35  18  35  1   
 36  18  36  1   
 37  19  20  1   
 38  19  37  1   
 39  19  38  1   
 40  20  39  1   
 41  20  40  1   
@<TRIPOS>SUBSTRUCTURE
  1 ****   8 GROUP 4 **** **** 0

# MOE 2024.06 (io_trps.svl 2023.06)
