@<TRIPOS>MOLECULE
NONAME
40 40 1 0 0 
SMALL
USER_CHARGES


@<TRIPOS>ATOM
  1 O       -6.2370    -5.6550     0.1500 O.3   1 <1>  -0.3630 
  2 C       -6.2630    -4.3050     0.0150 C.ar  1 <1>   0.0830 
  3 C       -5.0380    -6.3780     0.0290 C.3   1 <1>   0.1200 
  4 C       -7.4890    -3.6860     0.1950 C.ar  1 <1>  -0.1500 
  5 C       -5.1430    -3.5350    -0.2870 C.ar  1 <1>  -0.1500 
  6 C       -5.3760    -7.8550     0.2550 C.3   1 <1>   0.3430 
  7 C       -7.6170    -2.3100     0.0810 C.ar  1 <1>  -0.1440 
  8 C       -5.2580    -2.1600    -0.4060 C.ar  1 <1>  -0.1440 
  9 N       -4.1800    -8.7580     0.1280 N.4   1 <1>  -0.9590 
 10 C       -6.4910    -1.5580    -0.2200 C.ar  1 <1>  -0.1500 
 11 C       -8.9640    -1.6190     0.2780 C.3   1 <1>   0.0630 
 12 C       -4.0470    -1.3050    -0.7340 C.3   1 <1>  -0.0970 
 13 C       -4.6190   -10.1880     0.1200 C.3   1 <1>   0.2630 
 14 C       -3.1810    -8.5320     1.2220 C.3   1 <1>   0.2630 
 15 C       -9.4930    -1.8440     1.6980 C.3   1 <1>  -0.2400 
 16 C       -9.9820    -2.0950    -0.7630 C.3   1 <1>  -0.2400 
 17 H       -4.3570    -6.0110     0.7750 H     1 <1>   0.0800 
 18 H       -4.6530    -6.2180    -0.9630 H     1 <1>   0.0800 
 19 H       -8.3450    -4.2920     0.4260 H     1 <1>   0.1500 
 20 H       -4.1800    -3.9810    -0.4340 H     1 <1>   0.1500 
 21 H       -6.1170    -8.1410    -0.4740 H     1 <1>   0.0800 
 22 H       -5.8090    -7.9640     1.2360 H     1 <1>   0.0800 
 23 H       -3.7260    -8.5640    -0.7790 H     1 <1>   0.4500 
 24 H       -6.5730    -0.4890    -0.3110 H     1 <1>   0.1500 
 25 H       -8.8310    -0.5580     0.1440 H     1 <1>   0.0800 
 26 H       -3.2580    -1.9000    -1.1570 H     1 <1>   0.0800 
 27 H       -3.6830    -0.8320     0.1600 H     1 <1>   0.0800 
 28 H       -4.3140    -0.5440    -1.4450 H     1 <1>   0.0800 
 29 H       -5.1060   -10.4360     1.0490 H     1 <1>   0.0800 
 30 H       -3.7710   -10.8410    -0.0090 H     1 <1>   0.0800 
 31 H       -5.3110   -10.3630    -0.6890 H     1 <1>   0.0800 
 32 H       -3.6320    -8.7120     2.1850 H     1 <1>   0.0800 
 33 H       -2.8140    -7.5190     1.1980 H     1 <1>   0.0800 
 34 H       -2.3420    -9.1990     1.1060 H     1 <1>   0.0800 
 35 H       -9.6950    -2.8860     1.8710 H     1 <1>   0.0800 
 36 H      -10.4000    -1.2870     1.8510 H     1 <1>   0.0800 
 37 H       -8.7630    -1.5140     2.4160 H     1 <1>   0.0800 
 38 H      -10.1940    -3.1410    -0.6420 H     1 <1>   0.0800 
 39 H       -9.5920    -1.9370    -1.7530 H     1 <1>   0.0800 
 40 H      -10.9010    -1.5440    -0.6650 H     1 <1>   0.0800 
@<TRIPOS>BOND
  1   1   2  1   
  2   1   3  1   
  3   2   4  ar  
  4   2   5  ar  
  5   3   6  1   
  6   3  17  1   
  7   3  18  1   
  8   4   7  ar  
  9   4  19  1   
 10   5   8  ar  
 11   5  20  1   
 12   6   9  1   
 13   6  21  1   
 14   6  22  1   
 15   7  10  ar  
 16   7  11  1   
 17   8  10  ar  
 18   8  12  1   
 19   9  13  1   
 20   9  14  1   
 21   9  23  1   
 22  10  24  1   
 23  11  15  1   
 24  11  16  1   
 25  11  25  1   
 26  12  26  1   
 27  12  27  1   
 28  12  28  1   
 29  13  29  1   
 30  13  30  1   
 31  13  31  1   
 32  14  32  1   
 33  14  33  1   
 34  14  34  1   
 35  15  35  1   
 36  15  36  1   
 37  15  37  1   
 38  16  38  1   
 39  16  39  1   
 40  16  40  1   
@<TRIPOS>SUBSTRUCTURE
  1 ****   2 GROUP 4 **** **** 0

# MOE 2024.06 (io_trps.svl 2023.06)
