@<TRIPOS>MOLECULE
NONAME
33 35 1 0 0 
SMALL
USER_CHARGES


@<TRIPOS>ATOM
  1 S        0.0130     1.0980     1.3620 S.3   1 <1>   0.1810 
  2 N       -1.5800     0.8400     0.8610 N.2   1 <1>  -0.5100 
  3 C        0.5700     1.1400    -0.2810 C.2   1 <1>   0.4340 
  4 C       -1.5270     0.8170    -0.4140 C.2   1 <1>   0.5710 
  5 S        2.3080     1.3890    -0.6160 S.3   1 <1>  -0.2860 
  6 N       -0.3540     0.9770    -1.1240 N.2   1 <1>  -0.5650 
  7 S       -2.9950     0.5680    -1.4050 S.3   1 <1>  -0.2850 
  8 C        3.1480     1.4170     1.0410 C.3   1 <1>   0.1310 
  9 C       -4.3550     0.3980    -0.1660 C.3   1 <1>  -0.0100 
 10 C        4.6370     1.7000     0.8940 C.2   1 <1>   0.5690 
 11 O        5.0130     2.7760     1.2940 O.2   1 <1>  -0.5700 
 12 N        5.4900     0.7460     0.3690 N.am  1 <1>  -0.4770 
 13 C        6.8840     0.8110     0.2210 C.ar  1 <1>   0.1170 
 14 C        5.0260    -0.5720    -0.1540 C.3   1 <1>   0.1400 
 15 C        7.3940    -0.3600    -0.2970 C.ar  1 <1>  -0.1430 
 16 C        7.7570     1.8530     0.5160 C.ar  1 <1>  -0.1500 
 17 C        6.2900    -1.3520    -0.5460 C.3   1 <1>  -0.0170 
 18 C        8.7460    -0.5280    -0.5300 C.ar  1 <1>  -0.1500 
 19 C        9.1150     1.7000     0.2890 C.ar  1 <1>  -0.1500 
 20 C        9.6100     0.5140    -0.2320 C.ar  1 <1>  -0.1500 
 21 H        2.9830     0.4680     1.5140 H     1 <1>   0.0800 
 22 H        2.6890     2.2000     1.6150 H     1 <1>   0.0800 
 23 H       -5.2730     0.2470    -0.7040 H     1 <1>   0.0800 
 24 H       -4.3890     1.3040     0.4120 H     1 <1>   0.0800 
 25 H       -4.1280    -0.4480     0.4580 H     1 <1>   0.0800 
 26 H        4.4090    -0.4210    -1.0230 H     1 <1>   0.0800 
 27 H        4.4760    -1.1040     0.6020 H     1 <1>   0.0800 
 28 H        7.3870     2.7770     0.9180 H     1 <1>   0.1500 
 29 H        6.2560    -1.6450    -1.5800 H     1 <1>   0.0800 
 30 H        6.4120    -2.2210     0.0750 H     1 <1>   0.0800 
 31 H        9.1240    -1.4500    -0.9350 H     1 <1>   0.1500 
 32 H        9.7870     2.5080     0.5180 H     1 <1>   0.1500 
 33 H       10.6660     0.4030    -0.4060 H     1 <1>   0.1500 
@<TRIPOS>BOND
  1   1   2  1   
  2   1   3  1   
  3   2   4  2   
  4   3   5  1   
  5   3   6  2   
  6   4   6  1   
  7   4   7  1   
  8   5   8  1   
  9   7   9  1   
 10   8  10  1   
 11   8  21  1   
 12   8  22  1   
 13   9  23  1   
 14   9  24  1   
 15   9  25  1   
 16  10  11  2   
 17  10  12  am  
 18  12  13  1   
 19  12  14  1   
 20  13  15  ar  
 21  13  16  ar  
 22  14  17  1   
 23  14  26  1   
 24  14  27  1   
 25  15  17  1   
 26  15  18  ar  
 27  16  19  ar  
 28  16  28  1   
 29  17  29  1   
 30  17  30  1   
 31  18  20  ar  
 32  18  31  1   
 33  19  20  ar  
 34  19  32  1   
 35  20  33  1   
@<TRIPOS>SUBSTRUCTURE
  1 ****   8 GROUP 4 **** **** 0

# MOE 2024.06 (io_trps.svl 2023.06)
