@<TRIPOS>MOLECULE
NONAME
41 43 1 0 0 
SMALL
USER_CHARGES


@<TRIPOS>ATOM
  1 CL       2.8310    -3.6310     2.5760 Cl    1 <1>  -0.1770 
  2 C        3.2350    -2.7170     1.1390 C.ar  1 <1>   0.1770 
  3 C        2.3660    -2.6600     0.0620 C.ar  1 <1>   0.1900 
  4 C        4.4400    -2.0450     1.0830 C.ar  1 <1>  -0.1500 
  5 F        1.2230    -3.2960     0.1090 F     1 <1>  -0.1900 
  6 C        2.6750    -1.9400    -1.0770 C.ar  1 <1>  -0.1500 
  7 C        4.7710    -1.3200    -0.0540 C.ar  1 <1>   0.0830 
  8 C        3.8860    -1.2660    -1.1330 C.ar  1 <1>  -0.1500 
  9 O        5.9730    -0.6940    -0.0370 O.3   1 <1>  -0.3630 
 10 C        6.4910    -0.0490    -1.1920 C.3   1 <1>   0.1810 
 11 C        7.8960     0.4990    -0.9510 C.2   1 <1>   0.5690 
 12 O        8.0620     1.6810    -1.1490 O.2   1 <1>  -0.5700 
 13 N        8.9350    -0.3140    -0.5670 N.am  1 <1>  -0.6600 
 14 C       10.3000     0.2290    -0.2850 C.3   1 <1>   0.1400 
 15 C        8.8610    -1.7960    -0.3560 C.3   1 <1>   0.1400 
 16 C       11.3700    -0.4860    -1.1290 C.3   1 <1>   0.2090 
 17 C        9.9340    -2.5360    -1.1770 C.3   1 <1>   0.2090 
 18 N       11.3030    -1.9700    -0.9630 N.pl3 1 <1>  -0.8380 
 19 C       12.1170    -2.5380     0.0000 C.ar  1 <1>   0.4100 
 20 N       11.5320    -3.0090     1.0960 N.ar  1 <1>  -0.6200 
 21 C       13.4930    -2.5820    -0.2090 C.ar  1 <1>  -0.1500 
 22 C       12.3410    -3.5320     2.0030 C.ar  1 <1>   0.1600 
 23 C       14.3230    -3.1280     0.7430 C.ar  1 <1>  -0.1500 
 24 C       13.7170    -3.6160     1.8820 C.ar  1 <1>  -0.1500 
 25 H        5.1200    -2.0820     1.9150 H     1 <1>   0.1500 
 26 H        1.9800    -1.9100    -1.8980 H     1 <1>   0.1500 
 27 H        4.1170    -0.7050    -2.0200 H     1 <1>   0.1500 
 28 H        5.8340     0.7640    -1.4430 H     1 <1>   0.0800 
 29 H        6.5190    -0.7580    -1.9980 H     1 <1>   0.0800 
 30 H       10.5250     0.0830     0.7570 H     1 <1>   0.0800 
 31 H       10.3390     1.2850    -0.4860 H     1 <1>   0.0800 
 32 H        7.8960    -2.1810    -0.6250 H     1 <1>   0.0800 
 33 H        9.0180    -2.0070     0.6880 H     1 <1>   0.0800 
 34 H       12.3420    -0.1290    -0.8370 H     1 <1>   0.0800 
 35 H       11.2250    -0.2390    -2.1660 H     1 <1>   0.0800 
 36 H        9.6890    -2.4680    -2.2220 H     1 <1>   0.0800 
 37 H        9.9290    -3.5790    -0.9090 H     1 <1>   0.0800 
 38 H       13.8880    -2.1890    -1.1250 H     1 <1>   0.1500 
 39 H       11.8800    -3.9170     2.8960 H     1 <1>   0.1500 
 40 H       15.3890    -3.1750     0.6060 H     1 <1>   0.1500 
 41 H       14.3040    -4.0570     2.6670 H     1 <1>   0.1500 
@<TRIPOS>BOND
  1   1   2  1   
  2   2   3  ar  
  3   2   4  ar  
  4   3   5  1   
  5   3   6  ar  
  6   4   7  ar  
  7   4  25  1   
  8   6   8  ar  
  9   6  26  1   
 10   7   8  ar  
 11   7   9  1   
 12   8  27  1   
 13   9  10  1   
 14  10  11  1   
 15  10  28  1   
 16  10  29  1   
 17  11  12  2   
 18  11  13  am  
 19  13  14  1   
 20  13  15  1   
 21  14  16  1   
 22  14  30  1   
 23  14  31  1   
 24  15  17  1   
 25  15  32  1   
 26  15  33  1   
 27  16  18  1   
 28  16  34  1   
 29  16  35  1   
 30  17  18  1   
 31  17  36  1   
 32  17  37  1   
 33  18  19  1   
 34  19  20  ar  
 35  19  21  ar  
 36  20  22  ar  
 37  21  23  ar  
 38  21  38  1   
 39  22  24  ar  
 40  22  39  1   
 41  23  24  ar  
 42  23  40  1   
 43  24  41  1   
@<TRIPOS>SUBSTRUCTURE
  1 ****  15 GROUP 4 **** **** 0

# MOE 2024.06 (io_trps.svl 2023.06)
