@<TRIPOS>MOLECULE
NONAME
35 35 1 0 0 
SMALL
USER_CHARGES


@<TRIPOS>ATOM
  1 S       -0.0480    -0.1070    -1.3810 S.o   1 <1>   0.2430 
  2 O        0.4360    -1.3920    -0.5890 O.2   1 <1>  -0.5000 
  3 C       -1.7670     0.2190    -0.7890 C.ar  1 <1>   0.0640 
  4 C        0.8140     1.3560    -0.5850 C.3   1 <1>   0.0330 
  5 C       -2.0820    -0.0190     0.5380 C.ar  1 <1>  -0.1500 
  6 C       -2.6950     0.7440    -1.6720 C.ar  1 <1>  -0.1500 
  7 C        0.0830     2.6660    -0.8860 C.3   1 <1>   0.3430 
  8 C       -3.3500     0.2970     0.9940 C.ar  1 <1>  -0.1500 
  9 C       -3.9610     1.0560    -1.2070 C.ar  1 <1>  -0.1500 
 10 N        0.6180     3.8140    -0.0810 N.4   1 <1>  -0.9590 
 11 C       -4.2840     0.8370     0.1230 C.ar  1 <1>  -0.1500 
 12 C       -0.3440     4.9550    -0.0800 C.3   1 <1>   0.3430 
 13 C        1.9640     4.2450    -0.5560 C.3   1 <1>   0.3430 
 14 C       -1.5250     4.6300     0.8290 C.3   1 <1>  -0.2400 
 15 C        2.6730     5.0120     0.5540 C.3   1 <1>  -0.2400 
 16 H        1.8280     1.4110    -0.9340 H     1 <1>   0.0800 
 17 H        0.8340     1.2070     0.4790 H     1 <1>   0.0800 
 18 H       -1.3520    -0.4520     1.2010 H     1 <1>   0.1500 
 19 H       -2.4440     0.9010    -2.7070 H     1 <1>   0.1500 
 20 H       -0.9580     2.5280    -0.6480 H     1 <1>   0.0800 
 21 H        0.1510     2.8870    -1.9390 H     1 <1>   0.0800 
 22 H       -3.6150     0.1150     2.0220 H     1 <1>   0.1500 
 23 H       -4.7010     1.4610    -1.8770 H     1 <1>   0.1500 
 24 H        0.7160     3.5120     0.8980 H     1 <1>   0.4500 
 25 H       -5.2720     1.0760     0.4810 H     1 <1>   0.1500 
 26 H       -0.6880     5.1580    -1.0820 H     1 <1>   0.0800 
 27 H        0.1400     5.8440     0.2930 H     1 <1>   0.0800 
 28 H        1.8720     4.8620    -1.4370 H     1 <1>   0.0800 
 29 H        2.5600     3.3840    -0.8100 H     1 <1>   0.0800 
 30 H       -2.1080     3.8080     0.4540 H     1 <1>   0.0800 
 31 H       -2.1730     5.4870     0.8790 H     1 <1>   0.0800 
 32 H       -1.1920     4.4120     1.8280 H     1 <1>   0.0800 
 33 H        2.1630     5.9260     0.7960 H     1 <1>   0.0800 
 34 H        3.6640     5.2710     0.2230 H     1 <1>   0.0800 
 35 H        2.7710     4.4060     1.4370 H     1 <1>   0.0800 
@<TRIPOS>BOND
  1   1   2  2   
  2   1   3  1   
  3   1   4  1   
  4   3   5  ar  
  5   3   6  ar  
  6   4   7  1   
  7   4  16  1   
  8   4  17  1   
  9   5   8  ar  
 10   5  18  1   
 11   6   9  ar  
 12   6  19  1   
 13   7  10  1   
 14   7  20  1   
 15   7  21  1   
 16   8  11  ar  
 17   8  22  1   
 18   9  11  ar  
 19   9  23  1   
 20  10  12  1   
 21  10  13  1   
 22  10  24  1   
 23  11  25  1   
 24  12  14  1   
 25  12  26  1   
 26  12  27  1   
 27  13  15  1   
 28  13  28  1   
 29  13  29  1   
 30  14  30  1   
 31  14  31  1   
 32  14  32  1   
 33  15  33  1   
 34  15  34  1   
 35  15  35  1   
@<TRIPOS>SUBSTRUCTURE
  1 ****   7 GROUP 4 **** **** 0

# MOE 2024.06 (io_trps.svl 2023.06)
