@<TRIPOS>MOLECULE
NONAME
42 44 1 0 0 
SMALL
USER_CHARGES


@<TRIPOS>ATOM
  1 S       -9.3380    -3.3150     0.8790 S.3   1 <1>  -0.4600 
  2 C       -9.3910    -2.1160    -0.4710 C.3   1 <1>   0.5940 
  3 C       -7.5440    -3.5190     0.9430 C.3   1 <1>   0.1310 
  4 N       -7.9900    -2.0340    -0.9430 N.am  1 <1>  -0.6600 
  5 C       -9.8250    -0.7350     0.0270 C.ar  1 <1>  -0.1440 
  6 C       -7.0370    -2.6140    -0.1590 C.2   1 <1>   0.5690 
  7 C       -7.7330    -1.3510    -2.2450 C.3   1 <1>   0.1400 
  8 C      -10.5600     0.0810    -0.8300 C.ar  1 <1>  -0.1500 
  9 C       -9.4590    -0.2500     1.2890 C.ar  1 <1>  -0.1500 
 10 O       -5.8550    -2.3930    -0.2790 O.2   1 <1>  -0.5700 
 11 C       -6.7690    -0.1650    -2.1030 C.3   1 <1>  -0.1600 
 12 C      -10.8760     1.3580    -0.4140 C.ar  1 <1>   0.0830 
 13 C       -9.7950     1.0360     1.6930 C.ar  1 <1>  -0.1500 
 14 C       -7.1180     0.7130    -0.8990 C.3   1 <1>   0.3430 
 15 O      -11.5470     2.3020    -1.0800 O.3   1 <1>  -0.3630 
 16 C      -10.5000     1.8250     0.8100 C.ar  1 <1>   0.0830 
 17 N       -5.9720     1.5790    -0.5150 N.4   1 <1>  -0.9590 
 18 C      -11.6720     3.4160    -0.1950 C.3   1 <1>   0.4000 
 19 O      -10.9110     3.0870     0.9670 O.3   1 <1>  -0.3620 
 20 C       -4.9160     0.7710     0.1810 C.3   1 <1>   0.2630 
 21 C       -6.4510     2.6850     0.3680 C.3   1 <1>   0.2630 
 22 H      -10.0480    -2.5090    -1.2290 H     1 <1>   0.0800 
 23 H       -7.3130    -4.5500     0.7500 H     1 <1>   0.0800 
 24 H       -7.1980    -3.2100     1.9110 H     1 <1>   0.0800 
 25 H       -8.6640    -1.0050    -2.6600 H     1 <1>   0.0800 
 26 H       -7.3170    -2.0660    -2.9360 H     1 <1>   0.0800 
 27 H      -10.8820    -0.2480    -1.8030 H     1 <1>   0.1500 
 28 H       -8.9070    -0.8690     1.9760 H     1 <1>   0.1500 
 29 H       -6.8100     0.4230    -3.0020 H     1 <1>   0.0800 
 30 H       -5.7750    -0.5620    -2.0220 H     1 <1>   0.0800 
 31 H       -9.5290     1.4130     2.6650 H     1 <1>   0.1500 
 32 H       -7.3690     0.0890    -0.0580 H     1 <1>   0.0800 
 33 H       -7.9830     1.3120    -1.1350 H     1 <1>   0.0800 
 34 H       -5.5720     1.9840    -1.3740 H     1 <1>   0.4500 
 35 H      -12.7060     3.5440     0.0760 H     1 <1>   0.0800 
 36 H      -11.2700     4.2990    -0.6590 H     1 <1>   0.0800 
 37 H       -5.3180     0.3210     1.0740 H     1 <1>   0.0800 
 38 H       -4.0810     1.3960     0.4530 H     1 <1>   0.0800 
 39 H       -4.5580    -0.0200    -0.4590 H     1 <1>   0.0800 
 40 H       -6.8890     2.2830     1.2670 H     1 <1>   0.0800 
 41 H       -7.1970     3.2740    -0.1420 H     1 <1>   0.0800 
 42 H       -5.6310     3.3300     0.6400 H     1 <1>   0.0800 
@<TRIPOS>BOND
  1   1   2  1   
  2   1   3  1   
  3   2   4  1   
  4   2   5  1   
  5   2  22  1   
  6   3   6  1   
  7   3  23  1   
  8   3  24  1   
  9   4   6  am  
 10   4   7  1   
 11   5   8  ar  
 12   5   9  ar  
 13   6  10  2   
 14   7  11  1   
 15   7  25  1   
 16   7  26  1   
 17   8  12  ar  
 18   8  27  1   
 19   9  13  ar  
 20   9  28  1   
 21  11  14  1   
 22  11  29  1   
 23  11  30  1   
 24  12  15  1   
 25  12  16  ar  
 26  13  16  ar  
 27  13  31  1   
 28  14  17  1   
 29  14  32  1   
 30  14  33  1   
 31  15  18  1   
 32  16  19  1   
 33  17  20  1   
 34  17  21  1   
 35  17  34  1   
 36  18  19  1   
 37  18  35  1   
 38  18  36  1   
 39  20  37  1   
 40  20  38  1   
 41  20  39  1   
 42  21  40  1   
 43  21  41  1   
 44  21  42  1   
@<TRIPOS>SUBSTRUCTURE
  1 ****   5 GROUP 4 **** **** 0

# MOE 2024.06 (io_trps.svl 2023.06)
