@<TRIPOS>MOLECULE
NONAME
47 49 1 0 0 
SMALL
USER_CHARGES


@<TRIPOS>ATOM
  1 S       -0.2560    -0.2440     0.6730 S.o2  1 <1>   1.4470 
  2 O       -0.4930    -0.5830     2.0600 O.2   1 <1>  -0.6500 
  3 O        0.9370    -0.7300     0.0150 O.2   1 <1>  -0.6500 
  4 N       -1.5810    -0.8360    -0.2060 N.am  1 <1>  -0.8490 
  5 C       -0.3730     1.5530     0.4330 C.ar  1 <1>  -0.0090 
  6 C       -2.8630    -0.4670     0.4160 C.3   1 <1>   0.1960 
  7 C       -1.4900    -2.2900    -0.3670 C.3   1 <1>   0.1960 
  8 C       -0.6980     2.4020     1.4910 C.ar  1 <1>  -0.1500 
  9 C       -0.1580     2.1140    -0.8240 C.ar  1 <1>  -0.1500 
 10 C       -4.0330    -0.8700    -0.4930 C.3   1 <1>  -0.0190 
 11 C       -2.6140    -2.7970    -1.2790 C.3   1 <1>  -0.1600 
 12 C       -0.8070     3.7710     1.3050 C.ar  1 <1>  -0.1500 
 13 C       -0.2620     3.4800    -1.0300 C.ar  1 <1>  -0.1500 
 14 C       -5.3620    -0.4380     0.1110 C.2   1 <1>   0.5690 
 15 C       -3.9990    -2.3860    -0.7590 C.3   1 <1>  -0.1600 
 16 C       -0.5870     4.2850     0.0430 C.ar  1 <1>   0.1900 
 17 O       -5.4600    -0.3310     1.3090 O.2   1 <1>  -0.5700 
 18 N       -6.3990    -0.1970    -0.7460 N.am  1 <1>  -0.5470 
 19 F       -0.6900     5.5730    -0.1410 F     1 <1>  -0.1900 
 20 C       -7.7060     0.2030    -0.4390 C.ar  1 <1>   0.1170 
 21 C       -8.0030     1.4300     0.1600 C.ar  1 <1>  -0.1440 
 22 C       -8.7480    -0.6540    -0.7720 C.ar  1 <1>  -0.1500 
 23 C       -9.3230     1.7640     0.4190 C.ar  1 <1>  -0.1500 
 24 C       -6.9150     2.4270     0.5390 C.3   1 <1>  -0.0970 
 25 C      -10.0620    -0.3130    -0.5150 C.ar  1 <1>  -0.1500 
 26 C      -10.3510     0.9000     0.0840 C.ar  1 <1>  -0.1500 
 27 H       -2.9020     0.5980     0.5750 H     1 <1>   0.0800 
 28 H       -2.9600    -0.9490     1.3770 H     1 <1>   0.0800 
 29 H       -1.5500    -2.7700     0.5970 H     1 <1>   0.0800 
 30 H       -0.5430    -2.5500    -0.8110 H     1 <1>   0.0800 
 31 H       -0.8670     1.9870     2.4710 H     1 <1>   0.1500 
 32 H        0.0950     1.4680    -1.6490 H     1 <1>   0.1500 
 33 H       -3.9100    -0.3470    -1.4230 H     1 <1>   0.0800 
 34 H       -2.5570    -3.8690    -1.3480 H     1 <1>   0.0800 
 35 H       -2.4600    -2.3970    -2.2670 H     1 <1>   0.0800 
 36 H       -1.0570     4.4280     2.1200 H     1 <1>   0.1500 
 37 H       -0.0950     3.9140    -2.0000 H     1 <1>   0.1500 
 38 H       -4.7550    -2.6590    -1.4750 H     1 <1>   0.0800 
 39 H       -4.2050    -2.9110     0.1590 H     1 <1>   0.0800 
 40 H       -6.2400    -0.4230    -1.7250 H     1 <1>   0.3700 
 41 H       -8.5300    -1.6010    -1.2310 H     1 <1>   0.1500 
 42 H       -9.5620     2.7030     0.8860 H     1 <1>   0.1500 
 43 H       -6.1670     2.4820    -0.2310 H     1 <1>   0.0800 
 44 H       -6.4480     2.1210     1.4580 H     1 <1>   0.0800 
 45 H       -7.3260     3.4100     0.6760 H     1 <1>   0.0800 
 46 H      -10.8590    -0.9880    -0.7750 H     1 <1>   0.1500 
 47 H      -11.3720     1.1700     0.2900 H     1 <1>   0.1500 
@<TRIPOS>BOND
  1   1   2  2   
  2   1   3  2   
  3   1   4  am  
  4   1   5  1   
  5   4   6  1   
  6   4   7  1   
  7   5   8  ar  
  8   5   9  ar  
  9   6  10  1   
 10   6  27  1   
 11   6  28  1   
 12   7  11  1   
 13   7  29  1   
 14   7  30  1   
 15   8  12  ar  
 16   8  31  1   
 17   9  13  ar  
 18   9  32  1   
 19  10  14  1   
 20  10  15  1   
 21  10  33  1   
 22  11  15  1   
 23  11  34  1   
 24  11  35  1   
 25  12  16  ar  
 26  12  36  1   
 27  13  16  ar  
 28  13  37  1   
 29  14  17  2   
 30  14  18  am  
 31  15  38  1   
 32  15  39  1   
 33  16  19  1   
 34  18  20  1   
 35  18  40  1   
 36  20  21  ar  
 37  20  22  ar  
 38  21  23  ar  
 39  21  24  1   
 40  22  25  ar  
 41  22  41  1   
 42  23  26  ar  
 43  23  42  1   
 44  24  43  1   
 45  24  44  1   
 46  24  45  1   
 47  25  26  ar  
 48  25  46  1   
 49  26  47  1   
@<TRIPOS>SUBSTRUCTURE
  1 ****   6 GROUP 4 **** **** 0

# MOE 2024.06 (io_trps.svl 2023.06)
