@<TRIPOS>MOLECULE
NONAME
44 44 1 0 0 
SMALL
USER_CHARGES


@<TRIPOS>ATOM
  1 O        0.1550    -0.1270    -1.8900 O.2   1 <1>  -0.5700 
  2 C        0.3440    -1.1680    -1.3120 C.2   1 <1>   0.5690 
  3 N        1.4880    -1.4610    -0.6230 N.am  1 <1>  -0.5470 
  4 C       -0.7380    -2.2320    -1.3630 C.3   1 <1>  -0.0990 
  5 C        2.6240    -0.6780    -0.3600 C.ar  1 <1>   0.1170 
  6 C       -1.3470    -2.5650     0.0140 C.3   1 <1>  -0.0800 
  7 C        3.8310    -1.3120    -0.0990 C.ar  1 <1>  -0.1500 
  8 C        2.5850     0.7110    -0.3300 C.ar  1 <1>  -0.1500 
  9 C       -2.3780    -3.6910    -0.1240 C.3   1 <1>  -0.2400 
 10 C       -2.0090    -1.3330     0.6450 C.3   1 <1>  -0.2400 
 11 C        4.9860    -0.5970     0.1880 C.ar  1 <1>   0.1170 
 12 C        3.7240     1.4420    -0.0490 C.ar  1 <1>  -0.1500 
 13 N        6.1780    -1.3000     0.4250 N.am  1 <1>  -0.5470 
 14 C        4.9170     0.7920     0.2080 C.ar  1 <1>  -0.1500 
 15 C        7.2970    -0.9460     1.1260 C.2   1 <1>   0.5690 
 16 O        7.4140     0.0910     1.7300 O.2   1 <1>  -0.5700 
 17 C        8.4480    -1.9330     1.1520 C.3   1 <1>  -0.0990 
 18 C        9.1760    -2.0150    -0.2000 C.3   1 <1>  -0.1600 
 19 C       10.3390    -3.0130    -0.1480 C.3   1 <1>  -0.1600 
 20 C       11.0590    -3.0880    -1.4970 C.3   1 <1>  -0.2400 
 21 H        1.5210    -2.4020    -0.2390 H     1 <1>   0.3700 
 22 H       -0.3150    -3.1190    -1.7990 H     1 <1>   0.0800 
 23 H       -1.5160    -1.8910    -2.0240 H     1 <1>   0.0800 
 24 H       -0.5660    -2.9050     0.6740 H     1 <1>   0.0800 
 25 H        3.8720    -2.3840    -0.1180 H     1 <1>   0.1500 
 26 H        1.6630     1.2300    -0.5240 H     1 <1>   0.1500 
 27 H       -3.1860    -3.3900    -0.7680 H     1 <1>   0.0800 
 28 H       -2.7860    -3.9440     0.8390 H     1 <1>   0.0800 
 29 H       -1.9210    -4.5730    -0.5370 H     1 <1>   0.0800 
 30 H       -2.7850    -0.9500     0.0060 H     1 <1>   0.0800 
 31 H       -1.2870    -0.5520     0.8080 H     1 <1>   0.0800 
 32 H       -2.4440    -1.5870     1.5960 H     1 <1>   0.0800 
 33 H        3.6820     2.5170    -0.0290 H     1 <1>   0.1500 
 34 H        6.2130    -2.2290     0.0140 H     1 <1>   0.3700 
 35 H        5.7960     1.3730     0.4210 H     1 <1>   0.1500 
 36 H        8.0710    -2.9000     1.4300 H     1 <1>   0.0800 
 37 H        9.1430    -1.6230     1.9130 H     1 <1>   0.0800 
 38 H        9.5540    -1.0380    -0.4530 H     1 <1>   0.0800 
 39 H        8.4850    -2.3110    -0.9700 H     1 <1>   0.0800 
 40 H        9.9700    -3.9910     0.1110 H     1 <1>   0.0800 
 41 H       11.0420    -2.7110     0.6100 H     1 <1>   0.0800 
 42 H       10.3820    -3.4110    -2.2690 H     1 <1>   0.0800 
 43 H       11.8720    -3.7900    -1.4410 H     1 <1>   0.0800 
 44 H       11.4570    -2.1250    -1.7650 H     1 <1>   0.0800 
@<TRIPOS>BOND
  1   1   2  2   
  2   2   3  am  
  3   2   4  1   
  4   3   5  1   
  5   3  21  1   
  6   4   6  1   
  7   4  22  1   
  8   4  23  1   
  9   5   7  ar  
 10   5   8  ar  
 11   6   9  1   
 12   6  10  1   
 13   6  24  1   
 14   7  11  ar  
 15   7  25  1   
 16   8  12  ar  
 17   8  26  1   
 18   9  27  1   
 19   9  28  1   
 20   9  29  1   
 21  10  30  1   
 22  10  31  1   
 23  10  32  1   
 24  11  13  1   
 25  11  14  ar  
 26  12  14  ar  
 27  12  33  1   
 28  13  15  am  
 29  13  34  1   
 30  14  35  1   
 31  15  16  2   
 32  15  17  1   
 33  17  18  1   
 34  17  36  1   
 35  17  37  1   
 36  18  19  1   
 37  18  38  1   
 38  18  39  1   
 39  19  20  1   
 40  19  40  1   
 41  19  41  1   
 42  20  42  1   
 43  20  43  1   
 44  20  44  1   
@<TRIPOS>SUBSTRUCTURE
  1 ****   7 GROUP 4 **** **** 0

# MOE 2024.06 (io_trps.svl 2023.06)
