@<TRIPOS>MOLECULE
NONAME
48 50 1 0 0 
SMALL
USER_CHARGES


@<TRIPOS>ATOM
  1 O        0.0450    -0.6370     1.8580 O.2   1 <1>  -0.5700 
  2 C       -0.4890    -1.4610     1.1340 C.2   1 <1>   0.5440 
  3 N       -1.6910    -1.1420     0.5440 N.am  1 <1>  -0.6600 
  4 C        0.1400    -2.7440     0.8940 C.ar  1 <1>   0.0860 
  5 C       -2.1200    -1.7030    -0.7580 C.3   1 <1>   0.1400 
  6 C       -2.4590     0.0810     0.8690 C.3   1 <1>   0.1400 
  7 C        1.4640    -2.8350     0.4390 C.ar  1 <1>   0.1170 
  8 C       -0.5730    -3.9260     1.1050 C.ar  1 <1>  -0.1500 
  9 C       -3.3160    -0.8560    -1.1810 C.3   1 <1>  -0.1600 
 10 C       -3.1410     0.4660    -0.4380 C.3   1 <1>  -0.1600 
 11 N        2.2140    -1.6680     0.2570 N.am  1 <1>  -0.5470 
 12 C        2.0180    -4.0890     0.1960 C.ar  1 <1>  -0.1500 
 13 C       -0.0110    -5.1640     0.8600 C.ar  1 <1>  -0.1500 
 14 C        3.2070    -1.3460    -0.6400 C.2   1 <1>   0.5440 
 15 C        1.2910    -5.2440     0.4000 C.ar  1 <1>  -0.1500 
 16 O        3.4960    -2.1310    -1.5240 O.2   1 <1>  -0.5700 
 17 C        3.8550    -0.0590    -0.5270 C.ar  1 <1>   0.0860 
 18 C        3.0980     1.1220    -0.5320 C.ar  1 <1>   0.0820 
 19 C        5.2460     0.0510    -0.3860 C.ar  1 <1>   0.0820 
 20 O        1.7520     1.0160    -0.6470 O.3   1 <1>  -0.3630 
 21 C        3.7140     2.3640    -0.4250 C.ar  1 <1>  -0.1500 
 22 O        5.9700    -1.0940    -0.3300 O.3   1 <1>  -0.3630 
 23 C        5.8500     1.3010    -0.2830 C.ar  1 <1>  -0.1500 
 24 C        0.8770     1.9970    -0.1380 C.3   1 <1>   0.0400 
 25 C        5.0870     2.4520    -0.3040 C.ar  1 <1>  -0.1500 
 26 C        7.3790    -1.1160    -0.3820 C.3   1 <1>   0.0400 
 27 H       -2.3920    -2.7400    -0.6630 H     1 <1>   0.0800 
 28 H       -1.3160    -1.6010    -1.4680 H     1 <1>   0.0800 
 29 H       -1.8210     0.8680     1.2330 H     1 <1>   0.0800 
 30 H       -3.1920    -0.1600     1.6200 H     1 <1>   0.0800 
 31 H       -1.5840    -3.8640     1.4680 H     1 <1>   0.1500 
 32 H       -4.2190    -1.3410    -0.8550 H     1 <1>   0.0800 
 33 H       -3.3540    -0.7250    -2.2480 H     1 <1>   0.0800 
 34 H       -2.4880     1.1140    -0.9950 H     1 <1>   0.0800 
 35 H       -4.0760     0.9700    -0.2680 H     1 <1>   0.0800 
 36 H        1.8410    -0.8540     0.7620 H     1 <1>   0.3700 
 37 H        3.0330    -4.1560    -0.1560 H     1 <1>   0.1500 
 38 H       -0.5790    -6.0630     1.0260 H     1 <1>   0.1500 
 39 H        1.7390    -6.2030     0.2030 H     1 <1>   0.1500 
 40 H        3.1390     3.2710    -0.4430 H     1 <1>   0.1500 
 41 H        6.9140     1.3990    -0.1800 H     1 <1>   0.1500 
 42 H       -0.1210     1.6020    -0.1800 H     1 <1>   0.0800 
 43 H        0.9440     2.8810    -0.7470 H     1 <1>   0.0800 
 44 H        1.1410     2.2060     0.8840 H     1 <1>   0.0800 
 45 H        5.5610     3.4150    -0.2250 H     1 <1>   0.1500 
 46 H        7.6930    -2.1430    -0.4120 H     1 <1>   0.0800 
 47 H        7.7700    -0.6390     0.4990 H     1 <1>   0.0800 
 48 H        7.7030    -0.6090    -1.2740 H     1 <1>   0.0800 
@<TRIPOS>BOND
  1   1   2  2   
  2   2   3  am  
  3   2   4  1   
  4   3   5  1   
  5   3   6  1   
  6   4   7  ar  
  7   4   8  ar  
  8   5   9  1   
  9   5  27  1   
 10   5  28  1   
 11   6  10  1   
 12   6  29  1   
 13   6  30  1   
 14   7  11  1   
 15   7  12  ar  
 16   8  13  ar  
 17   8  31  1   
 18   9  10  1   
 19   9  32  1   
 20   9  33  1   
 21  10  34  1   
 22  10  35  1   
 23  11  14  am  
 24  11  36  1   
 25  12  15  ar  
 26  12  37  1   
 27  13  15  ar  
 28  13  38  1   
 29  14  16  2   
 30  14  17  1   
 31  15  39  1   
 32  17  18  ar  
 33  17  19  ar  
 34  18  20  1   
 35  18  21  ar  
 36  19  22  1   
 37  19  23  ar  
 38  20  24  1   
 39  21  25  ar  
 40  21  40  1   
 41  22  26  1   
 42  23  25  ar  
 43  23  41  1   
 44  24  42  1   
 45  24  43  1   
 46  24  44  1   
 47  25  45  1   
 48  26  46  1   
 49  26  47  1   
 50  26  48  1   
@<TRIPOS>SUBSTRUCTURE
  1 ****  11 GROUP 4 **** **** 0

# MOE 2024.06 (io_trps.svl 2023.06)
