@<TRIPOS>MOLECULE
NONAME
41 42 1 0 0 
SMALL
USER_CHARGES


@<TRIPOS>ATOM
  1 S        0.0860    -0.3950     0.0310 S.3   1 <1>  -0.2860 
  2 C       -1.6980    -0.1980     0.0740 C.2   1 <1>   0.2420 
  3 C        0.6900     1.3340     0.3650 C.3   1 <1>   0.1310 
  4 N       -2.2850     0.9150     0.3310 N.2   1 <1>  -0.3380 
  5 N       -2.5390    -1.2060    -0.1570 N.pl3 1 <1>   0.0480 
  6 C        2.2090     1.3900     0.4430 C.2   1 <1>   0.5690 
  7 N       -3.5940     0.6520     0.2750 N.2   1 <1>  -0.3380 
  8 C       -3.7300    -0.6040    -0.0130 C.2   1 <1>   0.0060 
  9 C       -2.2090    -2.6100    -0.4760 C.3   1 <1>   0.0160 
 10 O        2.7720     2.4360     0.2480 O.2   1 <1>  -0.5700 
 11 N        2.9300     0.2900     0.7390 N.am  1 <1>  -0.8000 
 12 C       -5.0600    -1.3340    -0.1710 C.3   1 <1>   0.0200 
 13 C       -6.2810    -0.4270     0.0630 C.3   1 <1>  -0.1600 
 14 C       -7.6320    -1.1200    -0.2030 C.3   1 <1>  -0.0800 
 15 C       -8.7650    -0.0820    -0.1180 C.3   1 <1>  -0.1600 
 16 C       -7.8990    -2.2800     0.7780 C.3   1 <1>  -0.1600 
 17 C      -10.1410    -0.7180    -0.3550 C.3   1 <1>  -0.1600 
 18 C       -9.2780    -2.9130     0.5470 C.3   1 <1>  -0.1600 
 19 C      -10.3940    -1.8660     0.6280 C.3   1 <1>  -0.1600 
 20 H        0.2560     1.6510     1.2940 H     1 <1>   0.0800 
 21 H        0.3320     1.9550    -0.4340 H     1 <1>   0.0800 
 22 H       -1.3980    -2.6350    -1.1810 H     1 <1>   0.0800 
 23 H       -3.0630    -3.1020    -0.9040 H     1 <1>   0.0800 
 24 H       -1.9160    -3.1170     0.4250 H     1 <1>   0.0800 
 25 H        3.9480     0.3450     0.7760 H     1 <1>   0.3700 
 26 H        2.5060    -0.6300     0.8640 H     1 <1>   0.3700 
 27 H       -5.0780    -2.1470     0.5310 H     1 <1>   0.0800 
 28 H       -5.1130    -1.7400    -1.1650 H     1 <1>   0.0800 
 29 H       -6.1960     0.4220    -0.5940 H     1 <1>   0.0800 
 30 H       -6.2560    -0.0540     1.0730 H     1 <1>   0.0800 
 31 H       -7.6220    -1.5160    -1.2050 H     1 <1>   0.0800 
 32 H       -8.6050     0.6910    -0.8500 H     1 <1>   0.0800 
 33 H       -8.7550     0.3810     0.8540 H     1 <1>   0.0800 
 34 H       -7.8450    -1.9120     1.7880 H     1 <1>   0.0800 
 35 H       -7.1540    -3.0460     0.6640 H     1 <1>   0.0800 
 36 H      -10.1920    -1.0930    -1.3630 H     1 <1>   0.0800 
 37 H      -10.9070     0.0290    -0.2420 H     1 <1>   0.0800 
 38 H       -9.4500    -3.6790     1.2830 H     1 <1>   0.0800 
 39 H       -9.2980    -3.3790    -0.4240 H     1 <1>   0.0800 
 40 H      -11.3410    -2.3280     0.4080 H     1 <1>   0.0800 
 41 H      -10.4430    -1.4730     1.6290 H     1 <1>   0.0800 
@<TRIPOS>BOND
  1   1   2  1   
  2   1   3  1   
  3   2   4  2   
  4   2   5  1   
  5   3   6  1   
  6   3  20  1   
  7   3  21  1   
  8   4   7  1   
  9   5   8  1   
 10   5   9  1   
 11   6  10  2   
 12   6  11  am  
 13   7   8  2   
 14   8  12  1   
 15   9  22  1   
 16   9  23  1   
 17   9  24  1   
 18  11  25  1   
 19  11  26  1   
 20  12  13  1   
 21  12  27  1   
 22  12  28  1   
 23  13  14  1   
 24  13  29  1   
 25  13  30  1   
 26  14  15  1   
 27  14  16  1   
 28  14  31  1   
 29  15  17  1   
 30  15  32  1   
 31  15  33  1   
 32  16  18  1   
 33  16  34  1   
 34  16  35  1   
 35  17  19  1   
 36  17  36  1   
 37  17  37  1   
 38  18  19  1   
 39  18  38  1   
 40  18  39  1   
 41  19  40  1   
 42  19  41  1   
@<TRIPOS>SUBSTRUCTURE
  1 ****   8 GROUP 4 **** **** 0

# MOE 2024.06 (io_trps.svl 2023.06)
