@<TRIPOS>MOLECULE
NONAME
50 52 1 0 0 
SMALL
USER_CHARGES


@<TRIPOS>ATOM
  1 CL      -0.4850    -0.3410     0.9430 Cl    1 <1>  -0.1770 
  2 C       -1.9650     0.5860     1.0660 C.ar  1 <1>   0.1770 
  3 C       -3.1560     0.1160     0.5240 C.ar  1 <1>  -0.1440 
  4 C       -1.8870     1.8020     1.7180 C.ar  1 <1>  -0.1500 
  5 C       -4.3000     0.9140     0.6350 C.ar  1 <1>   0.1170 
  6 C       -3.2210    -1.2440    -0.1760 C.3   1 <1>  -0.0970 
  7 C       -3.0200     2.5830     1.8340 C.ar  1 <1>  -0.1500 
  8 N       -5.5090     0.4890     0.0600 N.am  1 <1>  -0.5470 
  9 C       -4.2110     2.1390     1.2930 C.ar  1 <1>  -0.1500 
 10 C       -6.8070     0.7300     0.4210 C.2   1 <1>   0.5690 
 11 O       -7.1120     1.3930     1.3820 O.2   1 <1>  -0.5700 
 12 C       -7.9000     0.1040    -0.4490 C.3   1 <1>  -0.0190 
 13 C       -9.2730     0.7880    -0.2770 C.3   1 <1>  -0.1600 
 14 C       -8.0340    -1.4050    -0.1690 C.3   1 <1>  -0.1600 
 15 C      -10.3550     0.1310    -1.1360 C.3   1 <1>   0.1400 
 16 C       -9.1180    -2.0460    -1.0400 C.3   1 <1>   0.1400 
 17 N      -10.4070    -1.3280    -0.8420 N.am  1 <1>  -0.6600 
 18 C      -11.4990    -1.9530    -0.2680 C.2   1 <1>   0.5440 
 19 O      -11.3550    -3.0550     0.2290 O.2   1 <1>  -0.5700 
 20 C      -12.8090    -1.3330    -0.2290 C.ar  1 <1>   0.0860 
 21 C      -13.4790    -1.1520     0.9800 C.ar  1 <1>  -0.1500 
 22 C      -13.4490    -0.9010    -1.3920 C.ar  1 <1>  -0.1500 
 23 C      -14.7230    -0.5510     1.0370 C.ar  1 <1>  -0.1500 
 24 C      -14.6920    -0.2990    -1.3440 C.ar  1 <1>  -0.1500 
 25 C      -15.3390    -0.1140    -0.1330 C.ar  1 <1>   0.0830 
 26 O      -16.5500     0.4860    -0.1690 O.3   1 <1>  -0.3630 
 27 C      -17.3100     0.6940     1.0000 C.3   1 <1>   0.0400 
 28 H       -0.9480     2.1290     2.1280 H     1 <1>   0.1500 
 29 H       -2.4000    -1.8770     0.1040 H     1 <1>   0.0800 
 30 H       -3.1930    -1.1070    -1.2420 H     1 <1>   0.0800 
 31 H       -4.1210    -1.7660     0.0930 H     1 <1>   0.0800 
 32 H       -2.9770     3.5320     2.3410 H     1 <1>   0.1500 
 33 H       -5.3910    -0.1590    -0.7150 H     1 <1>   0.3700 
 34 H       -5.0840     2.7610     1.3830 H     1 <1>   0.1500 
 35 H       -7.6030     0.2320    -1.4740 H     1 <1>   0.0800 
 36 H       -9.1930     1.8280    -0.5380 H     1 <1>   0.0800 
 37 H       -9.5780     0.7370     0.7550 H     1 <1>   0.0800 
 38 H       -8.2890    -1.5610     0.8660 H     1 <1>   0.0800 
 39 H       -7.1000    -1.9040    -0.3520 H     1 <1>   0.0800 
 40 H      -10.1340     0.2710    -2.1800 H     1 <1>   0.0800 
 41 H      -11.2990     0.6030    -0.9270 H     1 <1>   0.0800 
 42 H       -9.2170    -3.0880    -0.7870 H     1 <1>   0.0800 
 43 H       -8.8430    -1.9860    -2.0790 H     1 <1>   0.0800 
 44 H      -13.0060    -1.4950     1.8850 H     1 <1>   0.1500 
 45 H      -12.9610    -1.0470    -2.3390 H     1 <1>   0.1500 
 46 H      -15.1970    -0.4320     1.9930 H     1 <1>   0.1500 
 47 H      -15.1750     0.0320    -2.2470 H     1 <1>   0.1500 
 48 H      -18.2310     1.1720     0.7180 H     1 <1>   0.0800 
 49 H      -16.7570     1.3290     1.6680 H     1 <1>   0.0800 
 50 H      -17.5180    -0.2590     1.4550 H     1 <1>   0.0800 
@<TRIPOS>BOND
  1   1   2  1   
  2   2   3  ar  
  3   2   4  ar  
  4   3   5  ar  
  5   3   6  1   
  6   4   7  ar  
  7   4  28  1   
  8   5   8  1   
  9   5   9  ar  
 10   6  29  1   
 11   6  30  1   
 12   6  31  1   
 13   7   9  ar  
 14   7  32  1   
 15   8  10  am  
 16   8  33  1   
 17   9  34  1   
 18  10  11  2   
 19  10  12  1   
 20  12  13  1   
 21  12  14  1   
 22  12  35  1   
 23  13  15  1   
 24  13  36  1   
 25  13  37  1   
 26  14  16  1   
 27  14  38  1   
 28  14  39  1   
 29  15  17  1   
 30  15  40  1   
 31  15  41  1   
 32  16  17  1   
 33  16  42  1   
 34  16  43  1   
 35  17  18  am  
 36  18  19  2   
 37  18  20  1   
 38  20  21  ar  
 39  20  22  ar  
 40  21  23  ar  
 41  21  44  1   
 42  22  24  ar  
 43  22  45  1   
 44  23  25  ar  
 45  23  46  1   
 46  24  25  ar  
 47  24  47  1   
 48  25  26  1   
 49  26  27  1   
 50  27  48  1   
 51  27  49  1   
 52  27  50  1   
@<TRIPOS>SUBSTRUCTURE
  1 ****  13 GROUP 4 **** **** 0

# MOE 2024.06 (io_trps.svl 2023.06)
