@<TRIPOS>MOLECULE
NONAME
34 34 1 0 0 
SMALL
USER_CHARGES


@<TRIPOS>ATOM
  1 CL      -0.6270     0.3230    -1.3540 Cl    1 <1>  -0.1770 
  2 C       -1.9510    -0.6540    -0.7740 C.ar  1 <1>   0.1770 
  3 C       -2.6540    -0.2480     0.3440 C.ar  1 <1>  -0.1500 
  4 C       -2.2770    -1.8190    -1.4420 C.ar  1 <1>  -0.1500 
  5 C       -3.7060    -1.0250     0.8000 C.ar  1 <1>  -0.1500 
  6 C       -3.3290    -2.5920    -0.9810 C.ar  1 <1>  -0.1500 
  7 C       -4.0460    -2.1990     0.1420 C.ar  1 <1>  -0.1430 
  8 C       -5.2040    -3.0410     0.6480 C.3   1 <1>   0.2840 
  9 N       -6.4520    -2.4400     0.1550 N.am  1 <1>  -0.7300 
 10 C       -7.6480    -2.5430     0.7820 C.2   1 <1>   0.5690 
 11 O       -7.7720    -3.1960     1.7910 O.2   1 <1>  -0.5700 
 12 C       -8.8540    -1.8070     0.1930 C.3   1 <1>  -0.0190 
 13 C       -9.3380    -0.7100     1.1720 C.3   1 <1>  -0.1600 
 14 C       -9.9510    -2.8340    -0.1760 C.3   1 <1>  -0.1600 
 15 C       -9.8230     0.5700     0.4750 C.3   1 <1>  -0.2400 
 16 C      -11.1670    -2.2470    -0.9030 C.3   1 <1>  -0.2400 
 17 H       -2.3810     0.6630     0.8460 H     1 <1>   0.1500 
 18 H       -1.7130    -2.1120    -2.3100 H     1 <1>   0.1500 
 19 H       -4.2610    -0.7140     1.6690 H     1 <1>   0.1500 
 20 H       -3.5860    -3.5000    -1.5000 H     1 <1>   0.1500 
 21 H       -5.2070    -3.0650     1.7250 H     1 <1>   0.0800 
 22 H       -5.1260    -4.0520     0.2860 H     1 <1>   0.0800 
 23 H       -6.3430    -1.8560    -0.6740 H     1 <1>   0.3700 
 24 H       -8.5250    -1.3330    -0.7140 H     1 <1>   0.0800 
 25 H       -8.5220    -0.4330     1.8180 H     1 <1>   0.0800 
 26 H      -10.1140    -1.1040     1.8070 H     1 <1>   0.0800 
 27 H      -10.2850    -3.3350     0.7180 H     1 <1>   0.0800 
 28 H       -9.5100    -3.5850    -0.8100 H     1 <1>   0.0800 
 29 H       -9.0300     1.0020    -0.1080 H     1 <1>   0.0800 
 30 H      -10.1300     1.2900     1.2130 H     1 <1>   0.0800 
 31 H      -10.6580     0.3770    -0.1710 H     1 <1>   0.0800 
 32 H      -11.7410    -1.6260    -0.2400 H     1 <1>   0.0800 
 33 H      -11.8050    -3.0430    -1.2450 H     1 <1>   0.0800 
 34 H      -10.8580    -1.6690    -1.7560 H     1 <1>   0.0800 
@<TRIPOS>BOND
  1   1   2  1   
  2   2   3  ar  
  3   2   4  ar  
  4   3   5  ar  
  5   3  17  1   
  6   4   6  ar  
  7   4  18  1   
  8   5   7  ar  
  9   5  19  1   
 10   6   7  ar  
 11   6  20  1   
 12   7   8  1   
 13   8   9  1   
 14   8  21  1   
 15   8  22  1   
 16   9  10  am  
 17   9  23  1   
 18  10  11  2   
 19  10  12  1   
 20  12  13  1   
 21  12  14  1   
 22  12  24  1   
 23  13  15  1   
 24  13  25  1   
 25  13  26  1   
 26  14  16  1   
 27  14  27  1   
 28  14  28  1   
 29  15  29  1   
 30  15  30  1   
 31  15  31  1   
 32  16  32  1   
 33  16  33  1   
 34  16  34  1   
@<TRIPOS>SUBSTRUCTURE
  1 ****   9 GROUP 4 **** **** 0

# MOE 2024.06 (io_trps.svl 2023.06)
