@<TRIPOS>MOLECULE
NONAME
45 46 1 0 0 
SMALL
USER_CHARGES


@<TRIPOS>ATOM
  1 O       -0.0380    -0.1600     0.1490 O.2   1 <1>  -0.5700 
  2 C       -0.0690     0.7630    -0.6330 C.2   1 <1>   0.5690 
  3 N        1.0120     1.5640    -0.8820 N.am  1 <1>  -0.5470 
  4 C       -1.3680     1.0610    -1.3930 C.3   1 <1>   0.4050 
  5 C        2.2750     1.5540    -0.2760 C.ar  1 <1>   0.1170 
  6 O       -1.0790     1.6460    -2.6500 O.3   1 <1>  -0.5600 
  7 C       -2.2670     1.9980    -0.5800 C.ar  1 <1>  -0.1430 
  8 C        2.4590     1.9670     1.0510 C.ar  1 <1>  -0.1430 
  9 C        3.3750     1.1400    -1.0320 C.ar  1 <1>  -0.1430 
 10 C       -2.1620     1.7060    -3.5290 C.3   1 <1>   0.0400 
 11 C       -2.0140     3.3630    -0.5240 C.ar  1 <1>  -0.1500 
 12 C       -3.3450     1.4840     0.1250 C.ar  1 <1>  -0.1500 
 13 C        3.7370     1.9390     1.5920 C.ar  1 <1>  -0.1500 
 14 C        1.2970     2.4540     1.9320 C.3   1 <1>   0.0630 
 15 C        4.6390     1.1300    -0.4690 C.ar  1 <1>  -0.1500 
 16 C        3.2090     0.6810    -2.4770 C.3   1 <1>  -0.0970 
 17 C       -2.8290     4.1990     0.2190 C.ar  1 <1>  -0.1500 
 18 C       -4.1620     2.3190     0.8680 C.ar  1 <1>  -0.1500 
 19 C        4.8210     1.5270     0.8410 C.ar  1 <1>  -0.1500 
 20 C        1.5410     3.8790     2.4430 C.3   1 <1>  -0.2400 
 21 C        1.0620     1.4910     3.1010 C.3   1 <1>  -0.2400 
 22 C       -3.9040     3.6770     0.9150 C.ar  1 <1>  -0.1500 
 23 H        0.9020     2.1680    -1.6980 H     1 <1>   0.3700 
 24 H       -1.8670     0.1250    -1.5690 H     1 <1>   0.0800 
 25 H       -2.5320     0.7110    -3.7100 H     1 <1>   0.0800 
 26 H       -1.8210     2.1380    -4.4530 H     1 <1>   0.0800 
 27 H       -2.9370     2.3250    -3.1080 H     1 <1>   0.0800 
 28 H       -1.1800     3.7800    -1.0620 H     1 <1>   0.1500 
 29 H       -3.5530     0.4270     0.1060 H     1 <1>   0.1500 
 30 H        3.9000     2.2400     2.6100 H     1 <1>   0.1500 
 31 H        0.3860     2.4880     1.3660 H     1 <1>   0.0800 
 32 H        5.4900     0.8110    -1.0440 H     1 <1>   0.1500 
 33 H        2.8390     1.4900    -3.0810 H     1 <1>   0.0800 
 34 H        2.5130    -0.1370    -2.5210 H     1 <1>   0.0800 
 35 H        4.1450     0.3500    -2.8880 H     1 <1>   0.0800 
 36 H       -2.6250     5.2550     0.2560 H     1 <1>   0.1500 
 37 H       -4.9960     1.9110     1.4130 H     1 <1>   0.1500 
 38 H        5.8040     1.5130     1.2770 H     1 <1>   0.1500 
 39 H        2.3830     3.9150     3.1090 H     1 <1>   0.0800 
 40 H        0.6730     4.2340     2.9700 H     1 <1>   0.0800 
 41 H        1.7280     4.5350     1.6120 H     1 <1>   0.0800 
 42 H        1.9160     1.4580     3.7520 H     1 <1>   0.0800 
 43 H        0.8840     0.5010     2.7180 H     1 <1>   0.0800 
 44 H        0.2020     1.7970     3.6680 H     1 <1>   0.0800 
 45 H       -4.5380     4.3260     1.4940 H     1 <1>   0.1500 
@<TRIPOS>BOND
  1   1   2  2   
  2   2   3  am  
  3   2   4  1   
  4   3   5  1   
  5   3  23  1   
  6   4   6  1   
  7   4   7  1   
  8   4  24  1   
  9   5   8  ar  
 10   5   9  ar  
 11   6  10  1   
 12   7  11  ar  
 13   7  12  ar  
 14   8  13  ar  
 15   8  14  1   
 16   9  15  ar  
 17   9  16  1   
 18  10  25  1   
 19  10  26  1   
 20  10  27  1   
 21  11  17  ar  
 22  11  28  1   
 23  12  18  ar  
 24  12  29  1   
 25  13  19  ar  
 26  13  30  1   
 27  14  20  1   
 28  14  21  1   
 29  14  31  1   
 30  15  19  ar  
 31  15  32  1   
 32  16  33  1   
 33  16  34  1   
 34  16  35  1   
 35  17  22  ar  
 36  17  36  1   
 37  18  22  ar  
 38  18  37  1   
 39  19  38  1   
 40  20  39  1   
 41  20  40  1   
 42  20  41  1   
 43  21  42  1   
 44  21  43  1   
 45  21  44  1   
 46  22  45  1   
@<TRIPOS>SUBSTRUCTURE
  1 ****   3 GROUP 4 **** **** 0

# MOE 2024.06 (io_trps.svl 2023.06)
