@<TRIPOS>MOLECULE
NONAME
37 38 1 0 0 
SMALL
USER_CHARGES


@<TRIPOS>ATOM
  1 BR       2.7650     2.3610    -2.7790 Br    1 <1>  -0.1110 
  2 C        1.5440     2.8760    -1.3750 C.ar  1 <1>   0.1110 
  3 C        1.8490     2.5650    -0.0530 C.ar  1 <1>   0.0830 
  4 C        0.3970     3.5570    -1.7320 C.ar  1 <1>  -0.1500 
  5 O        2.9980     1.8940     0.2080 O.3   1 <1>  -0.3630 
  6 C        0.9590     2.9570     0.9450 C.ar  1 <1>  -0.1500 
  7 C       -0.4660     3.9350    -0.7210 C.ar  1 <1>   0.1770 
  8 C        3.6640     2.0670     1.4520 C.3   1 <1>   0.1810 
  9 C       -0.1990     3.6440     0.6070 C.ar  1 <1>  -0.1500 
 10 CL      -1.9270     4.8000    -1.1270 Cl    1 <1>  -0.1770 
 11 C        5.0650     1.4590     1.4280 C.2   1 <1>   0.5690 
 12 O        5.2920     0.5970     2.2460 O.2   1 <1>  -0.5700 
 13 N        6.0320     1.8880     0.5440 N.am  1 <1>  -0.6600 
 14 C        5.8170     2.9130    -0.5180 C.3   1 <1>   0.1400 
 15 C        7.3890     1.2730     0.5380 C.3   1 <1>   0.1400 
 16 C        6.8760     4.0120    -0.4030 C.3   1 <1>  -0.1600 
 17 C        8.4560     2.3640     0.6650 C.3   1 <1>  -0.1600 
 18 C        8.3030     3.4350    -0.4300 C.3   1 <1>  -0.0190 
 19 C        9.3550     4.5320    -0.2790 C.2   1 <1>   0.5690 
 20 O        9.3120     5.2990     0.6480 O.2   1 <1>  -0.5700 
 21 N       10.3390     4.6430    -1.1900 N.am  1 <1>  -0.8000 
 22 H        0.1810     3.7860    -2.7580 H     1 <1>   0.1500 
 23 H        1.1450     2.7280     1.9780 H     1 <1>   0.1500 
 24 H        3.0830     1.5800     2.2130 H     1 <1>   0.0800 
 25 H        3.7340     3.1170     1.6620 H     1 <1>   0.0800 
 26 H       -0.8960     3.9520     1.3660 H     1 <1>   0.1500 
 27 H        4.8450     3.3630    -0.4420 H     1 <1>   0.0800 
 28 H        5.8840     2.4350    -1.4810 H     1 <1>   0.0800 
 29 H        7.5220     0.7300    -0.3820 H     1 <1>   0.0800 
 30 H        7.4970     0.5750     1.3510 H     1 <1>   0.0800 
 31 H        6.7190     4.5500     0.5160 H     1 <1>   0.0800 
 32 H        6.7530     4.7090    -1.2130 H     1 <1>   0.0800 
 33 H        9.4310     1.9150     0.6010 H     1 <1>   0.0800 
 34 H        8.3700     2.8210     1.6360 H     1 <1>   0.0800 
 35 H        8.4510     2.9610    -1.3840 H     1 <1>   0.0800 
 36 H       11.0350     5.3800    -1.0730 H     1 <1>   0.3700 
 37 H       10.4500     4.0330    -1.9980 H     1 <1>   0.3700 
@<TRIPOS>BOND
  1   1   2  1   
  2   2   3  ar  
  3   2   4  ar  
  4   3   5  1   
  5   3   6  ar  
  6   4   7  ar  
  7   4  22  1   
  8   5   8  1   
  9   6   9  ar  
 10   6  23  1   
 11   7   9  ar  
 12   7  10  1   
 13   8  11  1   
 14   8  24  1   
 15   8  25  1   
 16   9  26  1   
 17  11  12  2   
 18  11  13  am  
 19  13  14  1   
 20  13  15  1   
 21  14  16  1   
 22  14  27  1   
 23  14  28  1   
 24  15  17  1   
 25  15  29  1   
 26  15  30  1   
 27  16  18  1   
 28  16  31  1   
 29  16  32  1   
 30  17  18  1   
 31  17  33  1   
 32  17  34  1   
 33  18  19  1   
 34  18  35  1   
 35  19  20  2   
 36  19  21  am  
 37  21  36  1   
 38  21  37  1   
@<TRIPOS>SUBSTRUCTURE
  1 ****  14 GROUP 4 **** **** 0

# MOE 2024.06 (io_trps.svl 2023.06)
