@<TRIPOS>MOLECULE
NONAME
40 41 1 0 0 
SMALL
USER_CHARGES


@<TRIPOS>ATOM
  1 O        0.0350     1.7680    -1.5470 O.2   1 <1>  -0.5700 
  2 C       -0.1060     2.1560    -0.4030 C.2   1 <1>   0.6900 
  3 N        0.8930     2.8400     0.2260 N.am  1 <1>  -0.6600 
  4 N       -1.2620     1.9780     0.2960 N.am  1 <1>  -0.5470 
  5 C        1.4410     4.0350    -0.4780 C.3   1 <1>   0.2200 
  6 C        1.8780     2.1210     1.0810 C.3   1 <1>   0.2200 
  7 C       -2.4570     1.3030     0.0100 C.ar  1 <1>   0.1170 
  8 C        2.9770     3.9890    -0.6060 C.3   1 <1>  -0.1600 
  9 C        0.9820     5.2870     0.2640 C.3   1 <1>  -0.2400 
 10 C        3.0230     1.5820     0.2040 C.3   1 <1>  -0.1600 
 11 C        1.2440     1.0080     1.9210 C.3   1 <1>  -0.2400 
 12 C       -3.5750     1.5720     0.7910 C.ar  1 <1>  -0.1500 
 13 C       -2.5760     0.3620    -1.0090 C.ar  1 <1>  -0.1500 
 14 C        3.4650     2.5640    -0.9000 C.3   1 <1>  -0.1600 
 15 C       -4.7820     0.9300     0.5690 C.ar  1 <1>  -0.1440 
 16 C       -3.7770    -0.2820    -1.2400 C.ar  1 <1>  -0.1500 
 17 C       -4.8790     0.0000    -0.4530 C.ar  1 <1>  -0.1500 
 18 C       -5.9960     1.2360     1.4270 C.3   1 <1>  -0.0970 
 19 H       -1.2340     2.4730     1.1800 H     1 <1>   0.3700 
 20 H        1.0300     4.0620    -1.4760 H     1 <1>   0.0800 
 21 H        2.2920     2.8410     1.7680 H     1 <1>   0.0800 
 22 H        3.4350     4.3440     0.3010 H     1 <1>   0.0800 
 23 H        3.2820     4.6490    -1.3980 H     1 <1>   0.0800 
 24 H        1.3550     5.2870     1.2720 H     1 <1>   0.0800 
 25 H       -0.0930     5.3260     0.2830 H     1 <1>   0.0800 
 26 H        1.3440     6.1640    -0.2390 H     1 <1>   0.0800 
 27 H        2.7170     0.6590    -0.2590 H     1 <1>   0.0800 
 28 H        3.8600     1.3580     0.8400 H     1 <1>   0.0800 
 29 H        0.8400     0.2340     1.2930 H     1 <1>   0.0800 
 30 H        0.4670     1.4090     2.5440 H     1 <1>   0.0800 
 31 H        1.9900     0.5670     2.5570 H     1 <1>   0.0800 
 32 H       -3.4980     2.2960     1.5790 H     1 <1>   0.1500 
 33 H       -1.7290     0.1270    -1.6260 H     1 <1>   0.1500 
 34 H        4.5350     2.5460    -1.0060 H     1 <1>   0.0800 
 35 H        3.0340     2.2460    -1.8350 H     1 <1>   0.0800 
 36 H       -3.8520    -1.0040    -2.0340 H     1 <1>   0.1500 
 37 H       -5.8110    -0.5050    -0.6400 H     1 <1>   0.1500 
 38 H       -5.7150     1.7810     2.3100 H     1 <1>   0.0800 
 39 H       -6.4740     0.3220     1.7300 H     1 <1>   0.0800 
 40 H       -6.6980     1.8260     0.8660 H     1 <1>   0.0800 
@<TRIPOS>BOND
  1   1   2  2   
  2   2   3  am  
  3   2   4  am  
  4   3   5  1   
  5   3   6  1   
  6   4   7  1   
  7   4  19  1   
  8   5   8  1   
  9   5   9  1   
 10   5  20  1   
 11   6  10  1   
 12   6  11  1   
 13   6  21  1   
 14   7  12  ar  
 15   7  13  ar  
 16   8  14  1   
 17   8  22  1   
 18   8  23  1   
 19   9  24  1   
 20   9  25  1   
 21   9  26  1   
 22  10  14  1   
 23  10  27  1   
 24  10  28  1   
 25  11  29  1   
 26  11  30  1   
 27  11  31  1   
 28  12  15  ar  
 29  12  32  1   
 30  13  16  ar  
 31  13  33  1   
 32  14  34  1   
 33  14  35  1   
 34  15  17  ar  
 35  15  18  1   
 36  16  17  ar  
 37  16  36  1   
 38  17  37  1   
 39  18  38  1   
 40  18  39  1   
 41  18  40  1   
@<TRIPOS>SUBSTRUCTURE
  1 ****   4 GROUP 4 **** **** 0

# MOE 2024.06 (io_trps.svl 2023.06)
