@<TRIPOS>MOLECULE
NONAME
39 40 1 0 0 
SMALL
USER_CHARGES


@<TRIPOS>ATOM
  1 S        0.3980    -0.5530    -0.0700 S.o2  1 <1>   1.3330 
  2 O        0.3850    -0.4980    -1.5130 O.2   1 <1>  -0.6500 
  3 O        0.8080    -1.7630     0.6020 O.2   1 <1>  -0.6500 
  4 N        1.4680     0.6690     0.4310 N.am  1 <1>  -0.8490 
  5 C       -1.1920    -0.0280     0.5910 C.3   1 <1>  -0.0550 
  6 C        1.4590     1.8360    -0.4750 C.3   1 <1>   0.1960 
  7 C        2.8350     0.1350     0.5900 C.3   1 <1>   0.1960 
  8 C       -2.3550    -0.9830     0.2720 C.3   1 <1>  -0.2400 
  9 C        2.4320     2.9390    -0.0070 C.3   1 <1>   0.3430 
 10 C        3.8360     1.2140     1.0540 C.3   1 <1>   0.3430 
 11 N        3.8420     2.4260     0.1540 N.4   1 <1>  -0.9590 
 12 C        4.7750     3.4770     0.6470 C.3   1 <1>   0.4230 
 13 C        4.7630     4.7090    -0.2640 C.3   1 <1>  -0.1600 
 14 C        6.2310     2.9860     0.6540 C.3   1 <1>  -0.1600 
 15 C        6.1930     5.2370    -0.2480 C.3   1 <1>  -0.1600 
 16 C        7.0470     3.9780    -0.1810 C.3   1 <1>  -0.1600 
 17 H       -1.4340     0.9400     0.2010 H     1 <1>   0.0800 
 18 H       -1.1100     0.0600     1.6570 H     1 <1>   0.0800 
 19 H        0.4650     2.2460    -0.5210 H     1 <1>   0.0800 
 20 H        1.7340     1.5350    -1.4740 H     1 <1>   0.0800 
 21 H        3.1700    -0.2980    -0.3390 H     1 <1>   0.0800 
 22 H        2.8310    -0.6490     1.3290 H     1 <1>   0.0800 
 23 H       -2.4800    -1.0750    -0.7940 H     1 <1>   0.0800 
 24 H       -3.2710    -0.6130     0.6970 H     1 <1>   0.0800 
 25 H       -2.1560    -1.9600     0.6780 H     1 <1>   0.0800 
 26 H        2.0780     3.3270     0.9340 H     1 <1>   0.0800 
 27 H        2.4130     3.7440    -0.7240 H     1 <1>   0.0800 
 28 H        4.8200     0.7770     1.0950 H     1 <1>   0.0800 
 29 H        3.5680     1.5100     2.0550 H     1 <1>   0.0800 
 30 H        4.1830     2.1350    -0.7710 H     1 <1>   0.4500 
 31 H        4.5040     3.7770     1.6470 H     1 <1>   0.0800 
 32 H        4.0750     5.4590     0.0860 H     1 <1>   0.0800 
 33 H        4.5210     4.4350    -1.2760 H     1 <1>   0.0800 
 34 H        6.3560     1.9950     0.2550 H     1 <1>   0.0800 
 35 H        6.5950     3.0030     1.6670 H     1 <1>   0.0800 
 36 H        6.3570     5.8330     0.6350 H     1 <1>   0.0800 
 37 H        6.4200     5.8330    -1.1170 H     1 <1>   0.0800 
 38 H        7.1860     3.5890    -1.1760 H     1 <1>   0.0800 
 39 H        8.0150     4.1740     0.2500 H     1 <1>   0.0800 
@<TRIPOS>BOND
  1   1   2  2   
  2   1   3  2   
  3   1   4  am  
  4   1   5  1   
  5   4   6  1   
  6   4   7  1   
  7   5   8  1   
  8   5  17  1   
  9   5  18  1   
 10   6   9  1   
 11   6  19  1   
 12   6  20  1   
 13   7  10  1   
 14   7  21  1   
 15   7  22  1   
 16   8  23  1   
 17   8  24  1   
 18   8  25  1   
 19   9  11  1   
 20   9  26  1   
 21   9  27  1   
 22  10  11  1   
 23  10  28  1   
 24  10  29  1   
 25  11  12  1   
 26  11  30  1   
 27  12  13  1   
 28  12  14  1   
 29  12  31  1   
 30  13  15  1   
 31  13  32  1   
 32  13  33  1   
 33  14  16  1   
 34  14  34  1   
 35  14  35  1   
 36  15  16  1   
 37  15  36  1   
 38  15  37  1   
 39  16  38  1   
 40  16  39  1   
@<TRIPOS>SUBSTRUCTURE
  1 ****   9 GROUP 4 **** **** 0

# MOE 2024.06 (io_trps.svl 2023.06)
