@<TRIPOS>MOLECULE
NONAME
18 18 1 0 0 
SMALL
USER_CHARGES


@<TRIPOS>ATOM
  1 I        0.1190    -0.3700     1.3660 I     1 <1>  -0.0280 
  2 C        1.6220     0.9010     0.5810 C.2   1 <1>   0.0680 
  3 S        2.9080     0.1050    -0.2910 S.3   1 <1>  -0.0800 
  4 C        1.7650     2.2340     0.6350 C.2   1 <1>  -0.1500 
  5 C        3.6840     1.6660    -0.6010 C.2   1 <1>  -0.0220 
  6 C        2.9520     2.6610    -0.0440 C.2   1 <1>  -0.1500 
  7 S        5.2400     1.6780    -1.5160 S.o2  1 <1>   1.2570 
  8 O        5.3550     0.4840    -2.3250 O.2   1 <1>  -0.6500 
  9 O        5.3860     2.9740    -2.1400 O.2   1 <1>  -0.6500 
 10 C        6.4790     1.5920    -0.2130 C.3   1 <1>  -0.0550 
 11 C        6.4420     0.3230     0.6600 C.3   1 <1>  -0.2400 
 12 H        1.0960     2.9270     1.1160 H     1 <1>   0.1500 
 13 H        3.2070     3.7070    -0.0920 H     1 <1>   0.1500 
 14 H        6.3780     2.4500     0.4240 H     1 <1>   0.0800 
 15 H        7.4490     1.6520    -0.6700 H     1 <1>   0.0800 
 16 H        5.5230     0.2670     1.2150 H     1 <1>   0.0800 
 17 H        7.2610     0.3320     1.3580 H     1 <1>   0.0800 
 18 H        6.5280    -0.5550     0.0420 H     1 <1>   0.0800 
@<TRIPOS>BOND
  1   1   2  1   
  2   2   3  1   
  3   2   4  2   
  4   3   5  1   
  5   4   6  1   
  6   4  12  1   
  7   5   6  2   
  8   5   7  1   
  9   6  13  1   
 10   7   8  2   
 11   7   9  2   
 12   7  10  1   
 13  10  11  1   
 14  10  14  1   
 15  10  15  1   
 16  11  16  1   
 17  11  17  1   
 18  11  18  1   
@<TRIPOS>SUBSTRUCTURE
  1 ****   5 GROUP 4 **** **** 0

# MOE 2024.06 (io_trps.svl 2023.06)
