@<TRIPOS>MOLECULE
NONAME
32 33 1 0 0 
SMALL
USER_CHARGES


@<TRIPOS>ATOM
  1 CL      -1.8050     0.5770    -3.0720 Cl    1 <1>  -0.1770 
  2 C       -2.3690     1.1390    -1.5180 C.ar  1 <1>   0.1770 
  3 C       -1.6970     2.1380    -0.8340 C.ar  1 <1>   0.1770 
  4 C       -3.5090     0.5660    -0.9820 C.ar  1 <1>  -0.1500 
  5 CL      -0.2600     2.8730    -1.5020 Cl    1 <1>  -0.1770 
  6 C       -2.1600     2.5700     0.3950 C.ar  1 <1>  -0.1500 
  7 C       -3.9870     1.0010     0.2490 C.ar  1 <1>  -0.1440 
  8 C       -3.3040     2.0000     0.9350 C.ar  1 <1>  -0.1500 
  9 C       -5.2460     0.3880     0.8410 C.3   1 <1>   0.4870 
 10 N       -6.4300     0.8940     0.0910 N.4   1 <1>  -0.9590 
 11 C       -6.5970     2.3720     0.2560 C.3   1 <1>   0.3430 
 12 C       -7.6630     0.1360     0.4610 C.3   1 <1>   0.3430 
 13 C       -7.7520     2.8660    -0.6100 C.3   1 <1>  -0.1600 
 14 C       -8.8350     0.5960    -0.4030 C.3   1 <1>  -0.1600 
 15 C       -9.0280     2.1030    -0.2670 C.3   1 <1>   0.2000 
 16 O      -10.0220     2.4980    -1.1270 O.3   1 <1>  -0.6800 
 17 H       -3.9970    -0.2140    -1.5390 H     1 <1>   0.1500 
 18 H       -1.6250     3.3440     0.9200 H     1 <1>   0.1500 
 19 H       -3.6450     2.3460     1.8980 H     1 <1>   0.1500 
 20 H       -5.3270     0.6450     1.8850 H     1 <1>   0.0800 
 21 H       -5.1860    -0.6860     0.7600 H     1 <1>   0.0800 
 22 H       -6.2390     0.7250    -0.9050 H     1 <1>   0.4500 
 23 H       -5.6920     2.8840    -0.0350 H     1 <1>   0.0800 
 24 H       -6.7980     2.6050     1.2900 H     1 <1>   0.0800 
 25 H       -7.8990     0.3050     1.5000 H     1 <1>   0.0800 
 26 H       -7.5080    -0.9220     0.3170 H     1 <1>   0.0800 
 27 H       -7.4990     2.7410    -1.6480 H     1 <1>   0.0800 
 28 H       -7.9060     3.9150    -0.4230 H     1 <1>   0.0800 
 29 H       -9.7290     0.0930    -0.0750 H     1 <1>   0.0800 
 30 H       -8.6510     0.3250    -1.4280 H     1 <1>   0.0800 
 31 H       -9.3540     2.3490     0.7310 H     1 <1>   0.0800 
 32 H       -9.8010     2.3160    -2.0600 H     1 <1>   0.4000 
@<TRIPOS>BOND
  1   1   2  1   
  2   2   3  ar  
  3   2   4  ar  
  4   3   5  1   
  5   3   6  ar  
  6   4   7  ar  
  7   4  17  1   
  8   6   8  ar  
  9   6  18  1   
 10   7   8  ar  
 11   7   9  1   
 12   8  19  1   
 13   9  10  1   
 14   9  20  1   
 15   9  21  1   
 16  10  11  1   
 17  10  12  1   
 18  10  22  1   
 19  11  13  1   
 20  11  23  1   
 21  11  24  1   
 22  12  14  1   
 23  12  25  1   
 24  12  26  1   
 25  13  15  1   
 26  13  27  1   
 27  13  28  1   
 28  14  15  1   
 29  14  29  1   
 30  14  30  1   
 31  15  16  1   
 32  15  31  1   
 33  16  32  1   
@<TRIPOS>SUBSTRUCTURE
  1 ****   7 GROUP 4 **** **** 0

# MOE 2024.06 (io_trps.svl 2023.06)
