@<TRIPOS>MOLECULE
NONAME
42 43 1 0 0 
SMALL
USER_CHARGES


@<TRIPOS>ATOM
  1 O        0.6670    -1.3440     0.8080 O.2   1 <1>  -0.5700 
  2 C        0.2290    -2.1350    -0.0070 C.2   1 <1>   0.5440 
  3 N        1.1290    -2.6720    -0.9000 N.am  1 <1>  -0.6600 
  4 C       -1.1650    -2.5490     0.0200 C.ar  1 <1>   0.0860 
  5 C        2.3620    -1.9010    -1.2290 C.3   1 <1>   0.1400 
  6 C        1.3400    -4.1460    -0.9100 C.3   1 <1>   0.1400 
  7 C       -1.9020    -2.5180     1.2040 C.ar  1 <1>  -0.1500 
  8 C       -1.8190    -2.9990    -1.1270 C.ar  1 <1>  -0.1500 
  9 C        3.4710    -2.2470    -0.2190 C.3   1 <1>   0.3430 
 10 C        2.4680    -4.5180     0.0780 C.3   1 <1>   0.3430 
 11 C       -3.2190    -2.9360     1.2460 C.ar  1 <1>  -0.1500 
 12 C       -3.1360    -3.4190    -1.0900 C.ar  1 <1>  -0.1500 
 13 N        3.7350    -3.7310    -0.1600 N.4   1 <1>  -0.9590 
 14 C       -3.8450    -3.3930     0.0980 C.ar  1 <1>  -0.1430 
 15 C        4.7690    -4.0340     0.8510 C.3   1 <1>   0.4810 
 16 C       -5.2930    -3.8550     0.1430 C.3   1 <1>  -0.0170 
 17 C        5.2920    -5.4200     0.5510 C.2   1 <1>  -0.2880 
 18 C       -5.3690    -5.3540     0.4410 C.3   1 <1>  -0.2400 
 19 C        6.4650    -5.6910    -0.0310 C.2   1 <1>  -0.3000 
 20 H        2.1520    -0.8450    -1.1820 H     1 <1>   0.0800 
 21 H        2.6790    -2.1290    -2.2320 H     1 <1>   0.0800 
 22 H        1.5960    -4.4680    -1.9050 H     1 <1>   0.0800 
 23 H        0.4350    -4.6540    -0.6220 H     1 <1>   0.0800 
 24 H       -1.4340    -2.1590     2.1040 H     1 <1>   0.1500 
 25 H       -1.2920    -3.0170    -2.0650 H     1 <1>   0.1500 
 26 H        3.1570    -1.8920     0.7500 H     1 <1>   0.0800 
 27 H        4.3720    -1.7200    -0.4890 H     1 <1>   0.0800 
 28 H        2.6690    -5.5730    -0.0020 H     1 <1>   0.0800 
 29 H        2.1110    -4.3260     1.0770 H     1 <1>   0.0800 
 30 H       -3.7590    -2.9040     2.1770 H     1 <1>   0.1500 
 31 H       -3.6130    -3.7650    -1.9920 H     1 <1>   0.1500 
 32 H        4.1280    -4.0290    -1.0620 H     1 <1>   0.4500 
 33 H        4.3680    -3.9790     1.8510 H     1 <1>   0.0800 
 34 H        5.5800    -3.3280     0.7650 H     1 <1>   0.0800 
 35 H       -5.7690    -3.6500    -0.8000 H     1 <1>   0.0800 
 36 H       -5.8260    -3.3090     0.9010 H     1 <1>   0.0800 
 37 H        4.6220    -6.2020     0.8650 H     1 <1>   0.1500 
 38 H       -4.8550    -5.9110    -0.3220 H     1 <1>   0.0800 
 39 H       -6.3950    -5.6740     0.4730 H     1 <1>   0.0800 
 40 H       -4.9100    -5.5670     1.3910 H     1 <1>   0.0800 
 41 H        6.8190    -6.6910    -0.2290 H     1 <1>   0.1500 
 42 H        7.1820    -4.9550    -0.3590 H     1 <1>   0.1500 
@<TRIPOS>BOND
  1   1   2  2   
  2   2   3  am  
  3   2   4  1   
  4   3   5  1   
  5   3   6  1   
  6   4   7  ar  
  7   4   8  ar  
  8   5   9  1   
  9   5  20  1   
 10   5  21  1   
 11   6  10  1   
 12   6  22  1   
 13   6  23  1   
 14   7  11  ar  
 15   7  24  1   
 16   8  12  ar  
 17   8  25  1   
 18   9  13  1   
 19   9  26  1   
 20   9  27  1   
 21  10  13  1   
 22  10  28  1   
 23  10  29  1   
 24  11  14  ar  
 25  11  30  1   
 26  12  14  ar  
 27  12  31  1   
 28  13  15  1   
 29  13  32  1   
 30  14  16  1   
 31  15  17  1   
 32  15  33  1   
 33  15  34  1   
 34  16  18  1   
 35  16  35  1   
 36  16  36  1   
 37  17  19  2   
 38  17  37  1   
 39  18  38  1   
 40  18  39  1   
 41  18  40  1   
 42  19  41  1   
 43  19  42  1   
@<TRIPOS>SUBSTRUCTURE
  1 ****   2 GROUP 4 **** **** 0

# MOE 2024.06 (io_trps.svl 2023.06)
