@<TRIPOS>MOLECULE
NONAME
24 25 1 0 0 
SMALL
USER_CHARGES


@<TRIPOS>ATOM
  1 O       -0.2110    -0.3530     0.4420 O.3   1 <1>  -0.6500 
  2 N       -1.1030    -1.1720     0.5830 N.2   1 <1>  -0.8000 
  3 C       -0.7310    -2.4080     0.3770 C.2   1 <1>   0.4360 
  4 C        0.5000    -3.0410     0.0830 C.2   1 <1>  -0.1240 
  5 C       -1.7170    -3.5480     0.5470 C.3   1 <1>  -0.1000 
  6 C        0.3080    -4.3190    -0.3300 C.2   1 <1>   0.0250 
  7 C        1.8490    -2.3560     0.2460 C.3   1 <1>  -0.1020 
  8 C       -2.5110    -4.7170     0.0520 C.3   1 <1>  -0.1900 
  9 C       -1.1790    -4.4910    -0.5330 C.3   1 <1>  -0.0600 
 10 C        1.2130    -5.3630    -0.6660 C.1   1 <1>   0.4920 
 11 C       -3.7620    -4.4120    -0.7790 C.3   1 <1>  -0.1450 
 12 C       -2.7020    -5.9380     0.9590 C.3   1 <1>  -0.1450 
 13 N        1.9360    -6.2070    -0.9340 N.1   1 <1>  -0.5570 
 14 H       -1.6780    -3.6780     1.6130 H     1 <1>   0.1000 
 15 H        1.9040    -1.9150     1.2260 H     1 <1>   0.0800 
 16 H        1.9310    -1.5630    -0.4760 H     1 <1>   0.0800 
 17 H        2.6660    -3.0410     0.1170 H     1 <1>   0.0800 
 18 H       -1.3150    -4.2630    -1.5770 H     1 <1>   0.1000 
 19 H       -3.9870    -5.2330    -1.4350 H     1 <1>   0.0800 
 20 H       -3.6130    -3.5250    -1.3700 H     1 <1>   0.0800 
 21 H       -4.6020    -4.2400    -0.1290 H     1 <1>   0.0800 
 22 H       -3.5120    -5.7650     1.6460 H     1 <1>   0.0800 
 23 H       -1.8090    -6.1330     1.5270 H     1 <1>   0.0800 
 24 H       -2.9260    -6.8080     0.3680 H     1 <1>   0.0800 
@<TRIPOS>BOND
  1   1   2  1   
  2   2   3  2   
  3   3   4  1   
  4   3   5  1   
  5   4   6  2   
  6   4   7  1   
  7   5   8  1   
  8   5   9  1   
  9   5  14  1   
 10   6   9  1   
 11   6  10  1   
 12   7  15  1   
 13   7  16  1   
 14   7  17  1   
 15   8   9  1   
 16   8  11  1   
 17   8  12  1   
 18   9  18  1   
 19  10  13  3   
 20  11  19  1   
 21  11  20  1   
 22  11  21  1   
 23  12  22  1   
 24  12  23  1   
 25  12  24  1   
@<TRIPOS>SUBSTRUCTURE
  1 ****   9 GROUP 4 **** **** 0

# MOE 2024.06 (io_trps.svl 2023.06)
