@<TRIPOS>MOLECULE
NONAME
42 43 1 0 0 
SMALL
USER_CHARGES


@<TRIPOS>ATOM
  1 CL       0.8810     0.2570    -2.1310 Cl    1 <1>  -0.1770 
  2 C        2.1700     1.1650    -1.3890 C.ar  1 <1>   0.1770 
  3 C        2.5920     2.3450    -1.9700 C.ar  1 <1>  -0.1500 
  4 C        2.7550     0.6960    -0.2290 C.ar  1 <1>  -0.1500 
  5 C        3.6130     3.0640    -1.3750 C.ar  1 <1>  -0.1500 
  6 C        3.7750     1.4250     0.3560 C.ar  1 <1>  -0.1500 
  7 C        4.2260     2.6280    -0.1940 C.ar  1 <1>   0.0860 
  8 C        5.3010     3.3720     0.4420 C.2   1 <1>   0.5440 
  9 O        6.2010     2.7670     0.9990 O.2   1 <1>  -0.5700 
 10 N        5.3000     4.7690     0.4580 N.am  1 <1>  -0.2980 
 11 N        4.1680     5.5320     0.3890 N.2   1 <1>  -0.5120 
 12 C        6.5010     5.5980     0.7640 C.3   1 <1>   0.5800 
 13 C        4.4160     6.7470     0.7210 C.2   1 <1>   0.3890 
 14 O        7.0410     5.1170     1.9340 O.3   1 <1>  -0.6800 
 15 C        7.5900     5.6400    -0.3890 C.3   1 <1>   0.0000 
 16 C        5.8710     6.9560     1.0800 C.3   1 <1>  -0.0990 
 17 C        3.5280     7.8900     0.7880 C.2   1 <1>   0.7200 
 18 C        6.9960     6.1450    -1.7250 C.3   1 <1>  -0.2400 
 19 C        8.7640     6.5770    -0.0160 C.3   1 <1>  -0.2400 
 20 C        8.2240     4.2620    -0.6850 C.3   1 <1>  -0.2400 
 21 O        3.9460     9.0090     1.0230 O.2   1 <1>  -0.5700 
 22 O        2.1980     7.8130     0.6000 O.3   1 <1>  -0.4300 
 23 C        1.4450     6.6210     0.5100 C.3   1 <1>   0.0400 
 24 H        2.1260     2.6890    -2.8760 H     1 <1>   0.1500 
 25 H        2.4150    -0.2280     0.2050 H     1 <1>   0.1500 
 26 H        3.9440     3.9810    -1.8300 H     1 <1>   0.1500 
 27 H        4.2370     1.0610     1.2590 H     1 <1>   0.1500 
 28 H        7.0280     4.1340     1.8470 H     1 <1>   0.4000 
 29 H        6.2770     7.7560     0.4960 H     1 <1>   0.0800 
 30 H        5.9630     7.2050     2.1220 H     1 <1>   0.0800 
 31 H        6.1870     5.5120    -2.0440 H     1 <1>   0.0800 
 32 H        7.7450     6.1360    -2.4970 H     1 <1>   0.0800 
 33 H        6.6270     7.1500    -1.6440 H     1 <1>   0.0800 
 34 H        8.4440     7.5930     0.1160 H     1 <1>   0.0800 
 35 H        9.5150     6.5730    -0.7870 H     1 <1>   0.0800 
 36 H        9.2280     6.2500     0.8990 H     1 <1>   0.0800 
 37 H        7.5050     3.5820    -1.1020 H     1 <1>   0.0800 
 38 H        8.6290     3.8250     0.2110 H     1 <1>   0.0800 
 39 H        9.0250     4.3530    -1.3970 H     1 <1>   0.0800 
 40 H        0.4020     6.8840     0.4900 H     1 <1>   0.0800 
 41 H        1.6480     6.0060     1.3700 H     1 <1>   0.0800 
 42 H        1.7050     6.1040    -0.3970 H     1 <1>   0.0800 
@<TRIPOS>BOND
  1   1   2  1   
  2   2   3  ar  
  3   2   4  ar  
  4   3   5  ar  
  5   3  24  1   
  6   4   6  ar  
  7   4  25  1   
  8   5   7  ar  
  9   5  26  1   
 10   6   7  ar  
 11   6  27  1   
 12   7   8  1   
 13   8   9  2   
 14   8  10  am  
 15  10  11  1   
 16  10  12  1   
 17  11  13  2   
 18  12  14  1   
 19  12  15  1   
 20  12  16  1   
 21  13  16  1   
 22  13  17  1   
 23  14  28  1   
 24  15  18  1   
 25  15  19  1   
 26  15  20  1   
 27  16  29  1   
 28  16  30  1   
 29  17  21  2   
 30  17  22  1   
 31  18  31  1   
 32  18  32  1   
 33  18  33  1   
 34  19  34  1   
 35  19  35  1   
 36  19  36  1   
 37  20  37  1   
 38  20  38  1   
 39  20  39  1   
 40  22  23  1   
 41  23  40  1   
 42  23  41  1   
 43  23  42  1   
@<TRIPOS>SUBSTRUCTURE
  1 ****  10 GROUP 4 **** **** 0

# MOE 2024.06 (io_trps.svl 2023.06)
