@<TRIPOS>MOLECULE
NONAME
32 32 1 0 0 
SMALL
USER_CHARGES


@<TRIPOS>ATOM
  1 BR       0.2930     0.3620    -1.3860 Br    1 <1>  -0.1110 
  2 C        1.6970    -0.8310    -0.8300 C.ar  1 <1>   0.1110 
  3 C        2.9870    -0.3520    -0.7530 C.ar  1 <1>  -0.1500 
  4 C        1.3710    -2.1380    -0.5220 C.ar  1 <1>  -0.1500 
  5 C        4.0270    -1.1900    -0.3440 C.ar  1 <1>   0.0860 
  6 C        2.3860    -2.9900    -0.1320 C.ar  1 <1>  -0.1500 
  7 C        3.6940    -2.5250    -0.0510 C.ar  1 <1>   0.0830 
  8 C        5.3640    -0.6520    -0.2620 C.2   1 <1>   0.4230 
  9 O        4.6440    -3.4060     0.2990 O.3   1 <1>  -0.5320 
 10 O        5.7920     0.0670    -1.1330 O.2   1 <1>  -0.5700 
 11 C        6.2400    -0.9720     0.9640 C.3   1 <1>   0.2110 
 12 S        7.7620     0.0920     1.0430 S.3   1 <1>  -0.3710 
 13 C        5.5280    -0.7500     2.3060 C.3   1 <1>  -0.2400 
 14 C        9.0970    -1.0630     0.9430 C.2   1 <1>   0.5810 
 15 S       10.1310    -0.9800     2.1710 S.2   1 <1>  -0.3800 
 16 N        9.1770    -1.9310    -0.0920 N.am  1 <1>  -0.6600 
 17 C        8.4000    -1.7910    -1.3580 C.3   1 <1>   0.0600 
 18 C       10.1790    -3.0330    -0.1390 C.3   1 <1>   0.0600 
 19 H        3.1950     0.6730    -1.0100 H     1 <1>   0.1500 
 20 H        0.3510    -2.4730    -0.5930 H     1 <1>   0.1500 
 21 H        2.1520    -4.0130     0.1040 H     1 <1>   0.1500 
 22 H        4.3160    -4.3160     0.4350 H     1 <1>   0.4500 
 23 H        6.5960    -1.9830     0.9010 H     1 <1>   0.0800 
 24 H        4.6790    -1.4020     2.4020 H     1 <1>   0.0800 
 25 H        6.2030    -0.9550     3.1170 H     1 <1>   0.0800 
 26 H        5.1940     0.2700     2.3820 H     1 <1>   0.0800 
 27 H        9.0020    -2.0930    -2.1970 H     1 <1>   0.0800 
 28 H        7.5190    -2.4070    -1.3210 H     1 <1>   0.0800 
 29 H        8.1150    -0.7660    -1.5150 H     1 <1>   0.0800 
 30 H       10.5720    -3.2440     0.8400 H     1 <1>   0.0800 
 31 H       10.9920    -2.7550    -0.7870 H     1 <1>   0.0800 
 32 H        9.7180    -3.9290    -0.5160 H     1 <1>   0.0800 
@<TRIPOS>BOND
  1   1   2  1   
  2   2   3  ar  
  3   2   4  ar  
  4   3   5  ar  
  5   3  19  1   
  6   4   6  ar  
  7   4  20  1   
  8   5   7  ar  
  9   5   8  1   
 10   6   7  ar  
 11   6  21  1   
 12   7   9  1   
 13   8  10  2   
 14   8  11  1   
 15   9  22  1   
 16  11  12  1   
 17  11  13  1   
 18  11  23  1   
 19  12  14  1   
 20  13  24  1   
 21  13  25  1   
 22  13  26  1   
 23  14  15  2   
 24  14  16  am  
 25  16  17  1   
 26  16  18  1   
 27  17  27  1   
 28  17  28  1   
 29  17  29  1   
 30  18  30  1   
 31  18  31  1   
 32  18  32  1   
@<TRIPOS>SUBSTRUCTURE
  1 ****   8 GROUP 4 **** **** 0

# MOE 2024.06 (io_trps.svl 2023.06)
