@<TRIPOS>MOLECULE
NONAME
42 42 1 0 0 
SMALL
USER_CHARGES


@<TRIPOS>ATOM
  1 O       -1.4060    -5.1850    -0.3120 O.3   1 <1>  -0.3630 
  2 C       -2.6950    -4.8720    -0.0290 C.ar  1 <1>   0.0830 
  3 C       -0.7720    -6.2790     0.2990 C.3   1 <1>   0.1200 
  4 C       -3.2580    -3.8350    -0.7530 C.ar  1 <1>  -0.1500 
  5 C       -3.4610    -5.5280     0.9290 C.ar  1 <1>  -0.1500 
  6 C        0.6390    -6.3640    -0.2910 C.3   1 <1>   0.3430 
  7 C       -4.5710    -3.4440    -0.5410 C.ar  1 <1>  -0.1440 
  8 C       -4.7710    -5.1410     1.1440 C.ar  1 <1>  -0.1500 
  9 N        1.4170    -7.5410     0.2210 N.4   1 <1>  -0.9590 
 10 C       -5.3350    -4.1040     0.4160 C.ar  1 <1>  -0.1430 
 11 C       -5.1430    -2.2980    -1.3640 C.3   1 <1>  -0.0970 
 12 C        2.8630    -7.4070    -0.0780 C.3   1 <1>   0.4810 
 13 C        0.8910    -8.8320    -0.2880 C.3   1 <1>   0.4810 
 14 C       -6.7810    -3.7120     0.6860 C.3   1 <1>  -0.0970 
 15 C        3.4170    -6.3800     0.8820 C.2   1 <1>  -0.2880 
 16 C        1.5560    -9.9450     0.4900 C.2   1 <1>  -0.2880 
 17 C        4.1490    -6.6620     1.9650 C.2   1 <1>  -0.3000 
 18 C        2.4030   -10.8470    -0.0190 C.2   1 <1>  -0.3000 
 19 H       -1.3500    -7.1570     0.0750 H     1 <1>   0.0800 
 20 H       -0.7370    -6.0960     1.3580 H     1 <1>   0.0800 
 21 H       -2.6560    -3.3340    -1.4880 H     1 <1>   0.1500 
 22 H       -3.0680    -6.3320     1.5180 H     1 <1>   0.1500 
 23 H        1.1540    -5.4530    -0.0350 H     1 <1>   0.0800 
 24 H        0.5650    -6.4180    -1.3650 H     1 <1>   0.0800 
 25 H       -5.3560    -5.6540     1.8870 H     1 <1>   0.1500 
 26 H        1.3680    -7.5590     1.2470 H     1 <1>   0.4500 
 27 H       -4.4110    -1.9100    -2.0490 H     1 <1>   0.0800 
 28 H       -5.4550    -1.4990    -0.7160 H     1 <1>   0.0800 
 29 H       -5.9880    -2.6400    -1.9330 H     1 <1>   0.0800 
 30 H        3.0280    -7.1110    -1.1020 H     1 <1>   0.0800 
 31 H        3.3650    -8.3460     0.0940 H     1 <1>   0.0800 
 32 H        1.1070    -8.9340    -1.3400 H     1 <1>   0.0800 
 33 H       -0.1760    -8.8910    -0.1510 H     1 <1>   0.0800 
 34 H       -6.8310    -2.6880     1.0090 H     1 <1>   0.0800 
 35 H       -7.2130    -4.3290     1.4530 H     1 <1>   0.0800 
 36 H       -7.3670    -3.8270    -0.2080 H     1 <1>   0.0800 
 37 H        3.1760    -5.3670     0.6100 H     1 <1>   0.1500 
 38 H        1.2720    -9.9560     1.5300 H     1 <1>   0.1500 
 39 H        4.5420    -5.9130     2.6360 H     1 <1>   0.1500 
 40 H        4.4300    -7.6540     2.2840 H     1 <1>   0.1500 
 41 H        2.8580   -11.6340     0.5630 H     1 <1>   0.1500 
 42 H        2.7190   -10.8950    -1.0490 H     1 <1>   0.1500 
@<TRIPOS>BOND
  1   1   2  1   
  2   1   3  1   
  3   2   4  ar  
  4   2   5  ar  
  5   3   6  1   
  6   3  19  1   
  7   3  20  1   
  8   4   7  ar  
  9   4  21  1   
 10   5   8  ar  
 11   5  22  1   
 12   6   9  1   
 13   6  23  1   
 14   6  24  1   
 15   7  10  ar  
 16   7  11  1   
 17   8  10  ar  
 18   8  25  1   
 19   9  12  1   
 20   9  13  1   
 21   9  26  1   
 22  10  14  1   
 23  11  27  1   
 24  11  28  1   
 25  11  29  1   
 26  12  15  1   
 27  12  30  1   
 28  12  31  1   
 29  13  16  1   
 30  13  32  1   
 31  13  33  1   
 32  14  34  1   
 33  14  35  1   
 34  14  36  1   
 35  15  17  2   
 36  15  37  1   
 37  16  18  2   
 38  16  38  1   
 39  17  39  1   
 40  17  40  1   
 41  18  41  1   
 42  18  42  1   
@<TRIPOS>SUBSTRUCTURE
  1 ****   3 GROUP 4 **** **** 0

# MOE 2024.06 (io_trps.svl 2023.06)
