@<TRIPOS>MOLECULE
NONAME
49 51 1 0 0 
SMALL
USER_CHARGES


@<TRIPOS>ATOM
  1 O       -0.1400    -0.3450    -0.3030 O.2   1 <1>  -0.5700 
  2 C       -0.1850     0.6960     0.3180 C.2   1 <1>   0.6900 
  3 N        0.9160     1.4920     0.4610 N.am  1 <1>  -0.5470 
  4 N       -1.3410     1.1240     0.9110 N.am  1 <1>  -0.5470 
  5 C        2.2590     1.2520     0.1280 C.ar  1 <1>   0.1170 
  6 C       -2.6620     0.6880     0.7650 C.ar  1 <1>   0.1170 
  7 C        2.8080    -0.0250     0.0930 C.ar  1 <1>  -0.1500 
  8 C        3.0840     2.3340    -0.1570 C.ar  1 <1>  -0.1500 
  9 C       -3.1130    -0.0220    -0.3440 C.ar  1 <1>  -0.1500 
 10 C       -3.5830     0.9860     1.7630 C.ar  1 <1>  -0.1500 
 11 C        4.1420    -0.2140    -0.2220 C.ar  1 <1>  -0.1500 
 12 C        4.4200     2.1520    -0.4720 C.ar  1 <1>  -0.1500 
 13 C       -4.4330    -0.4150    -0.4490 C.ar  1 <1>  -0.1500 
 14 C       -4.9040     0.5940     1.6540 C.ar  1 <1>  -0.1500 
 15 C        4.9570     0.8690    -0.5060 C.ar  1 <1>   0.0830 
 16 C       -5.3660    -0.1100     0.5410 C.ar  1 <1>   0.0860 
 17 O        6.2550     0.5970    -0.8050 O.3   1 <1>  -0.3630 
 18 C       -6.7510    -0.5150     0.4170 C.2   1 <1>   0.5440 
 19 C        7.1540     1.6290    -1.1450 C.3   1 <1>   0.0400 
 20 O       -7.0070    -1.6890     0.2240 O.2   1 <1>  -0.5700 
 21 N       -7.7910     0.3920     0.5080 N.am  1 <1>  -0.6600 
 22 C       -9.2110    -0.0520     0.5980 C.3   1 <1>   0.1400 
 23 C       -7.6210     1.8630     0.3420 C.3   1 <1>   0.1400 
 24 C       -9.9770     0.4020    -0.6490 C.3   1 <1>  -0.1600 
 25 C       -8.3810     2.3360    -0.9030 C.3   1 <1>  -0.1600 
 26 C       -9.8570     1.9170    -0.8640 C.3   1 <1>  -0.1600 
 27 H        0.7080     2.4510     0.7130 H     1 <1>   0.3700 
 28 H       -1.1900     1.7810     1.6690 H     1 <1>   0.3700 
 29 H        2.1950    -0.8810     0.3130 H     1 <1>   0.1500 
 30 H        2.6820     3.3300    -0.1370 H     1 <1>   0.1500 
 31 H       -2.4290    -0.2740    -1.1350 H     1 <1>   0.1500 
 32 H       -3.2650     1.5250     2.6360 H     1 <1>   0.1500 
 33 H        4.5580    -1.2040    -0.2500 H     1 <1>   0.1500 
 34 H        5.0220     3.0140    -0.6870 H     1 <1>   0.1500 
 35 H       -4.7610    -0.9740    -1.3100 H     1 <1>   0.1500 
 36 H       -5.6000     0.8260     2.4410 H     1 <1>   0.1500 
 37 H        8.1100     1.1830    -1.3540 H     1 <1>   0.0800 
 38 H        7.2410     2.3040    -0.3120 H     1 <1>   0.0800 
 39 H        6.7880     2.1370    -2.0190 H     1 <1>   0.0800 
 40 H       -9.6550     0.3790     1.4780 H     1 <1>   0.0800 
 41 H       -9.2720    -1.1240     0.6900 H     1 <1>   0.0800 
 42 H       -6.5830     2.1240     0.2370 H     1 <1>   0.0800 
 43 H       -8.0070     2.3600     1.2160 H     1 <1>   0.0800 
 44 H      -11.0120     0.1290    -0.5480 H     1 <1>   0.0800 
 45 H       -9.5820    -0.1220    -1.5020 H     1 <1>   0.0800 
 46 H       -7.9090     1.9160    -1.7740 H     1 <1>   0.0800 
 47 H       -8.3120     3.4070    -0.9770 H     1 <1>   0.0800 
 48 H      -10.3550     2.4320    -0.0600 H     1 <1>   0.0800 
 49 H      -10.3390     2.1920    -1.7860 H     1 <1>   0.0800 
@<TRIPOS>BOND
  1   1   2  2   
  2   2   3  am  
  3   2   4  am  
  4   3   5  1   
  5   3  27  1   
  6   4   6  1   
  7   4  28  1   
  8   5   7  ar  
  9   5   8  ar  
 10   6   9  ar  
 11   6  10  ar  
 12   7  11  ar  
 13   7  29  1   
 14   8  12  ar  
 15   8  30  1   
 16   9  13  ar  
 17   9  31  1   
 18  10  14  ar  
 19  10  32  1   
 20  11  15  ar  
 21  11  33  1   
 22  12  15  ar  
 23  12  34  1   
 24  13  16  ar  
 25  13  35  1   
 26  14  16  ar  
 27  14  36  1   
 28  15  17  1   
 29  16  18  1   
 30  17  19  1   
 31  18  20  2   
 32  18  21  am  
 33  19  37  1   
 34  19  38  1   
 35  19  39  1   
 36  21  22  1   
 37  21  23  1   
 38  22  24  1   
 39  22  40  1   
 40  22  41  1   
 41  23  25  1   
 42  23  42  1   
 43  23  43  1   
 44  24  26  1   
 45  24  44  1   
 46  24  45  1   
 47  25  26  1   
 48  25  46  1   
 49  25  47  1   
 50  26  48  1   
 51  26  49  1   
@<TRIPOS>SUBSTRUCTURE
  1 ****   6 GROUP 4 **** **** 0

# MOE 2024.06 (io_trps.svl 2023.06)
