@<TRIPOS>MOLECULE
Structure1692
40 40 1 0 0 
SMALL
USER_CHARGES


@<TRIPOS>ATOM
  1 O        2.9070     0.7770     1.1620 O.2   1 <1>  -0.5700 
  2 C        2.2180    -0.0080     0.5440 C.2   1 <1>   0.7800 
  3 O        1.2240     0.4080    -0.2430 O.3   1 <1>  -0.4300 
  4 N        2.4210    -1.3370     0.6300 N.am  1 <1>  -0.7300 
  5 C        0.7390     1.7180    -0.4030 C.3   1 <1>   0.2800 
  6 C        1.7230    -2.3720    -0.1450 C.3   1 <1>   0.3640 
  7 C        0.2340     2.2590     0.9400 C.3   1 <1>  -0.2400 
  8 C       -0.4400     1.5840    -1.3670 C.3   1 <1>  -0.2400 
  9 C        1.8160     2.6090    -1.0300 C.3   1 <1>  -0.2400 
 10 C        0.2200    -2.3460     0.1440 C.ar  1 <1>  -0.1440 
 11 C        2.3010    -3.7300     0.2110 C.3   1 <1>  -0.2660 
 12 C       -0.6840    -2.3350    -0.9070 C.ar  1 <1>  -0.1500 
 13 C       -0.2620    -2.3220     1.4450 C.ar  1 <1>  -0.1500 
 14 C        3.7400    -3.7580    -0.1870 C.2   1 <1>   0.9060 
 15 C       -2.0500    -2.3010    -0.6730 C.ar  1 <1>  -0.1440 
 16 C       -1.6230    -2.2880     1.6890 C.ar  1 <1>  -0.1500 
 17 O        4.5590    -3.2190     0.5650 O.co2 1 <1>  -0.9000 
 18 O        4.0440    -4.2780    -1.2610 O.co2 1 <1>  -0.9000 
 19 C       -2.5160    -2.2770     0.6310 C.ar  1 <1>  -0.1500 
 20 C       -3.0160    -2.2840    -1.8420 C.3   1 <1>  -0.0970 
 21 H        3.3550    -1.6520     0.9410 H     1 <1>   0.3700 
 22 H        1.8950    -2.1860    -1.1920 H     1 <1>   0.0800 
 23 H        1.0490     2.4220     1.6210 H     1 <1>   0.0800 
 24 H       -0.4600     1.5650     1.3800 H     1 <1>   0.0800 
 25 H       -0.2650     3.1990     0.7950 H     1 <1>   0.0800 
 26 H       -1.1830     0.9270    -0.9510 H     1 <1>   0.0800 
 27 H       -0.1060     1.1810    -2.3060 H     1 <1>   0.0800 
 28 H       -0.8910     2.5420    -1.5460 H     1 <1>   0.0800 
 29 H        2.6290     2.7690    -0.3470 H     1 <1>   0.0800 
 30 H        1.4010     3.5690    -1.2770 H     1 <1>   0.0800 
 31 H        2.1950     2.1570    -1.9280 H     1 <1>   0.0800 
 32 H        1.7840    -4.5000    -0.3260 H     1 <1>   0.0800 
 33 H        2.2180    -3.9210     1.2630 H     1 <1>   0.0800 
 34 H       -0.3180    -2.3500    -1.9180 H     1 <1>   0.1500 
 35 H        0.4320    -2.3250     2.2680 H     1 <1>   0.1500 
 36 H       -1.9850    -2.2680     2.7010 H     1 <1>   0.1500 
 37 H       -3.5720    -2.2480     0.8300 H     1 <1>   0.1500 
 38 H       -2.6910    -2.9740    -2.6000 H     1 <1>   0.0800 
 39 H       -3.0560    -1.2960    -2.2640 H     1 <1>   0.0800 
 40 H       -4.0040    -2.5670    -1.5240 H     1 <1>   0.0800 
@<TRIPOS>BOND
  1   1   2  2   
  2   2   3  1   
  3   2   4  am  
  4   3   5  1   
  5   4   6  1   
  6   4  21  1   
  7   5   7  1   
  8   5   8  1   
  9   5   9  1   
 10   6  10  1   
 11   6  11  1   
 12   6  22  1   
 13   7  23  1   
 14   7  24  1   
 15   7  25  1   
 16   8  26  1   
 17   8  27  1   
 18   8  28  1   
 19   9  29  1   
 20   9  30  1   
 21   9  31  1   
 22  10  12  ar  
 23  10  13  ar  
 24  11  14  1   
 25  11  32  1   
 26  11  33  1   
 27  12  15  ar  
 28  12  34  1   
 29  13  16  ar  
 30  13  35  1   
 31  14  17  ar  
 32  14  18  ar  
 33  15  19  ar  
 34  15  20  1   
 35  16  19  ar  
 36  16  36  1   
 37  19  37  1   
 38  20  38  1   
 39  20  39  1   
 40  20  40  1   
@<TRIPOS>SUBSTRUCTURE
  1 ****  10 GROUP 4 **** **** 0

# MOE 2024.06 (io_trps.svl 2023.06)
