@<TRIPOS>MOLECULE
NONAME
47 50 1 0 0 
SMALL
USER_CHARGES


@<TRIPOS>ATOM
  1 O       -1.3930    -1.4920     1.7390 O.3   1 <1>  -0.4300 
  2 C       -1.4460    -1.1870     0.4400 C.2   1 <1>   0.5390 
  3 C       -0.0850    -1.9050     2.0480 C.3   1 <1>   0.1200 
  4 N       -0.3720    -1.3300    -0.2010 N.2   1 <1>  -0.6960 
  5 C       -2.7950    -0.7000    -0.1000 C.3   1 <1>   0.1220 
  6 C        0.6390    -1.8500     0.7010 C.3   1 <1>   0.3100 
  7 C       -3.8070    -1.8080     0.2100 C.2   1 <1>   0.5390 
  8 C       -2.7510    -0.4620    -1.6280 C.3   1 <1>  -0.2400 
  9 C       -3.1760     0.6380     0.5760 C.3   1 <1>  -0.2400 
 10 C        1.1170    -3.2320     0.2610 C.ar  1 <1>  -0.1440 
 11 O       -3.4940    -3.0410    -0.1970 O.3   1 <1>  -0.4300 
 12 N       -4.9150    -1.6890     0.7960 N.2   1 <1>  -0.6960 
 13 C        2.4730    -3.5270     0.2730 C.ar  1 <1>  -0.1500 
 14 C        0.2190    -4.2140    -0.1400 C.ar  1 <1>  -0.1500 
 15 C       -4.5140    -3.9170     0.2110 C.3   1 <1>   0.1200 
 16 C       -5.5520    -2.9910     0.8480 C.3   1 <1>   0.3090 
 17 C        2.9240    -4.7810    -0.1050 C.ar  1 <1>  -0.1500 
 18 C        0.6680    -5.4670    -0.5180 C.ar  1 <1>  -0.1500 
 19 C       -6.8680    -2.9920     0.0740 C.ar  1 <1>  -0.1440 
 20 C        2.0220    -5.7520    -0.4990 C.ar  1 <1>  -0.1500 
 21 C       -6.9370    -2.5160    -1.2290 C.ar  1 <1>  -0.1500 
 22 C       -8.0200    -3.4850     0.6710 C.ar  1 <1>  -0.1500 
 23 C       -8.1330    -2.5390    -1.9250 C.ar  1 <1>  -0.1500 
 24 C       -9.2170    -3.5090    -0.0240 C.ar  1 <1>  -0.1500 
 25 C       -9.2740    -3.0370    -1.3230 C.ar  1 <1>  -0.1500 
 26 H       -0.1160    -2.9000     2.4540 H     1 <1>   0.0800 
 27 H        0.3410    -1.2180     2.7560 H     1 <1>   0.0800 
 28 H        1.4660    -1.1630     0.7480 H     1 <1>   0.0800 
 29 H       -2.4640    -1.3650    -2.1370 H     1 <1>   0.0800 
 30 H       -2.0330     0.3020    -1.8690 H     1 <1>   0.0800 
 31 H       -3.7170    -0.1580    -1.9890 H     1 <1>   0.0800 
 32 H       -3.2500     0.5090     1.6420 H     1 <1>   0.0800 
 33 H       -4.1280     0.9840     0.2140 H     1 <1>   0.0800 
 34 H       -2.4330     1.3880     0.3730 H     1 <1>   0.0800 
 35 H        3.1880    -2.7820     0.5740 H     1 <1>   0.1500 
 36 H       -0.8360    -4.0020    -0.1630 H     1 <1>   0.1500 
 37 H       -4.1120    -4.6120     0.9260 H     1 <1>   0.0800 
 38 H       -4.9000    -4.4380    -0.6480 H     1 <1>   0.0800 
 39 H       -5.7190    -3.2680     1.8750 H     1 <1>   0.0800 
 40 H        3.9780    -5.0000    -0.0930 H     1 <1>   0.1500 
 41 H       -0.0360    -6.2180    -0.8290 H     1 <1>   0.1500 
 42 H        2.3720    -6.7260    -0.7940 H     1 <1>   0.1500 
 43 H       -6.0560    -2.1210    -1.7040 H     1 <1>   0.1500 
 44 H       -7.9930    -3.8530     1.6810 H     1 <1>   0.1500 
 45 H       -8.1740    -2.1660    -2.9340 H     1 <1>   0.1500 
 46 H      -10.1050    -3.8930     0.4470 H     1 <1>   0.1500 
 47 H      -10.2050    -3.0540    -1.8630 H     1 <1>   0.1500 
@<TRIPOS>BOND
  1   1   2  1   
  2   1   3  1   
  3   2   4  2   
  4   2   5  1   
  5   3   6  1   
  6   3  26  1   
  7   3  27  1   
  8   4   6  1   
  9   5   7  1   
 10   5   8  1   
 11   5   9  1   
 12   6  10  1   
 13   6  28  1   
 14   7  11  1   
 15   7  12  2   
 16   8  29  1   
 17   8  30  1   
 18   8  31  1   
 19   9  32  1   
 20   9  33  1   
 21   9  34  1   
 22  10  13  ar  
 23  10  14  ar  
 24  11  15  1   
 25  12  16  1   
 26  13  17  ar  
 27  13  35  1   
 28  14  18  ar  
 29  14  36  1   
 30  15  16  1   
 31  15  37  1   
 32  15  38  1   
 33  16  19  1   
 34  16  39  1   
 35  17  20  ar  
 36  17  40  1   
 37  18  20  ar  
 38  18  41  1   
 39  19  21  ar  
 40  19  22  ar  
 41  20  42  1   
 42  21  23  ar  
 43  21  43  1   
 44  22  24  ar  
 45  22  44  1   
 46  23  25  ar  
 47  23  45  1   
 48  24  25  ar  
 49  24  46  1   
 50  25  47  1   
@<TRIPOS>SUBSTRUCTURE
  1 ****  11 GROUP 4 **** **** 0

# MOE 2024.06 (io_trps.svl 2023.06)
