@<TRIPOS>MOLECULE
NONAME
40 41 1 0 0 
SMALL
USER_CHARGES


@<TRIPOS>ATOM
  1 O        0.2320    -0.5370     1.6720 O.2   1 <1>  -0.5700 
  2 C       -0.1820    -1.3820     0.9060 C.2   1 <1>   0.7060 
  3 O        0.5930    -1.7590    -0.1140 O.3   1 <1>  -0.4300 
  4 C       -1.4700    -1.9940     1.0240 C.2   1 <1>   0.0790 
  5 C        1.8710    -1.2020    -0.3260 C.3   1 <1>   0.1200 
  6 C       -2.5130    -1.0610     1.2930 C.1   1 <1>   0.4920 
  7 C       -1.7540    -3.3180     0.8860 C.2   1 <1>  -0.1040 
  8 C        2.5090    -1.9320    -1.5030 C.3   1 <1>  -0.2400 
  9 N       -3.3870    -0.3530     1.4810 N.1   1 <1>  -0.5570 
 10 C       -0.8580    -4.4210     0.6880 C.2   1 <1>  -0.0460 
 11 C       -1.1520    -5.6730     0.1030 C.2   1 <1>   0.2880 
 12 C        0.4460    -4.5320     1.0520 C.2   1 <1>  -0.3020 
 13 N       -0.1060    -6.4610     0.1270 N.2   1 <1>  -0.7070 
 14 C       -2.4300    -6.0380    -0.4650 C.2   1 <1>   0.1410 
 15 N        0.8680    -5.7520     0.7050 N.pl3 1 <1>   0.3140 
 16 O       -2.9260    -7.2580    -0.2850 O.3   1 <1>  -0.2800 
 17 C       -3.3120    -5.3190    -1.2120 C.2   1 <1>  -0.1500 
 18 C        2.2130    -6.3160     0.9100 C.3   1 <1>   0.0960 
 19 C       -4.0930    -7.3340    -0.8910 C.2   1 <1>  -0.0400 
 20 C       -4.3920    -6.1610    -1.4850 C.2   1 <1>  -0.1500 
 21 C        2.1250    -7.6750     1.6110 C.3   1 <1>   0.0400 
 22 C       -4.8570    -8.6380    -0.8290 C.3   1 <1>  -0.0600 
 23 C        3.4930    -8.1700     1.9120 C.1   1 <1>   0.3570 
 24 N        4.5530    -8.5090     2.1360 N.1   1 <1>  -0.5570 
 25 H        1.7550    -0.1510    -0.5370 H     1 <1>   0.0800 
 26 H        2.4560    -1.3290     0.5690 H     1 <1>   0.0800 
 27 H       -2.7870    -3.6190     0.9420 H     1 <1>   0.1500 
 28 H        1.9130    -1.7990    -2.3890 H     1 <1>   0.0800 
 29 H        2.5990    -2.9810    -1.2860 H     1 <1>   0.0800 
 30 H        3.4900    -1.5340    -1.6890 H     1 <1>   0.0800 
 31 H        1.0780    -3.8150     1.5420 H     1 <1>   0.1500 
 32 H       -3.2190    -4.3040    -1.5500 H     1 <1>   0.1500 
 33 H        2.6830    -6.4260    -0.0500 H     1 <1>   0.0800 
 34 H        2.7880    -5.6280     1.5030 H     1 <1>   0.0800 
 35 H       -5.2640    -5.9000    -2.0580 H     1 <1>   0.1500 
 36 H        1.6300    -8.3900     0.9790 H     1 <1>   0.0800 
 37 H        1.5810    -7.5840     2.5330 H     1 <1>   0.0800 
 38 H       -5.7830    -8.5540    -1.3670 H     1 <1>   0.0800 
 39 H       -5.0660    -8.8880     0.1950 H     1 <1>   0.0800 
 40 H       -4.2670    -9.4230    -1.2660 H     1 <1>   0.0800 
@<TRIPOS>BOND
  1   1   2  2   
  2   2   3  1   
  3   2   4  1   
  4   3   5  1   
  5   4   6  1   
  6   4   7  2   
  7   5   8  1   
  8   5  25  1   
  9   5  26  1   
 10   6   9  3   
 11   7  10  1   
 12   7  27  1   
 13   8  28  1   
 14   8  29  1   
 15   8  30  1   
 16  10  11  1   
 17  10  12  2   
 18  11  13  2   
 19  11  14  1   
 20  12  15  1   
 21  12  31  1   
 22  13  15  1   
 23  14  16  1   
 24  14  17  2   
 25  15  18  1   
 26  16  19  1   
 27  17  20  1   
 28  17  32  1   
 29  18  21  1   
 30  18  33  1   
 31  18  34  1   
 32  19  20  2   
 33  19  22  1   
 34  20  35  1   
 35  21  23  1   
 36  21  36  1   
 37  21  37  1   
 38  22  38  1   
 39  22  39  1   
 40  22  40  1   
 41  23  24  3   
@<TRIPOS>SUBSTRUCTURE
  1 ****  10 GROUP 4 **** **** 0

# MOE 2024.06 (io_trps.svl 2023.06)
