@<TRIPOS>MOLECULE
NONAME
42 44 1 0 0 
SMALL
USER_CHARGES


@<TRIPOS>ATOM
  1 O        0.2580     0.9240     1.0350 O.2   1 <1>  -0.5700 
  2 C        0.1560     0.8980    -0.1750 C.2   1 <1>   0.6900 
  3 N       -0.9550     1.3180    -0.8200 N.am  1 <1>  -0.7300 
  4 N        1.1760     0.4460    -0.9370 N.am  1 <1>  -0.7300 
  5 C       -2.2040     1.8430    -0.2430 C.3   1 <1>   0.3000 
  6 C        2.4540    -0.0860    -0.4010 C.3   1 <1>   0.1400 
  7 C       -1.9440     3.1300     0.5640 C.3   1 <1>  -0.1600 
  8 C       -3.1480     2.1760    -1.4150 C.3   1 <1>  -0.1600 
  9 C       -2.8820     0.7900     0.6550 C.3   1 <1>  -0.1600 
 10 C        3.3360     1.0510     0.1150 C.3   1 <1>   0.1200 
 11 C       -3.2730     3.6880     1.1100 C.3   1 <1>  -0.0800 
 12 C       -4.4850     2.7330    -0.8870 C.3   1 <1>  -0.0800 
 13 C       -4.2140     1.3410     1.2010 C.3   1 <1>  -0.0800 
 14 O        4.6070     0.5420     0.3780 O.3   1 <1>  -0.5600 
 15 C       -4.2110     4.0090    -0.0680 C.3   1 <1>  -0.1600 
 16 C       -3.9350     2.6250     2.0090 C.3   1 <1>  -0.1600 
 17 C       -5.1450     1.6790     0.0220 C.3   1 <1>  -0.1600 
 18 C        5.4740     1.4690     0.9470 C.3   1 <1>   0.0400 
 19 H       -1.0060     1.1550    -1.8180 H     1 <1>   0.3700 
 20 H        1.1130     0.5390    -1.9470 H     1 <1>   0.3700 
 21 H        2.9700    -0.6180    -1.1820 H     1 <1>   0.0800 
 22 H        2.2450    -0.7660     0.4080 H     1 <1>   0.0800 
 23 H       -1.4700     3.8640    -0.0610 H     1 <1>   0.0800 
 24 H       -1.2890     2.9200     1.3900 H     1 <1>   0.0800 
 25 H       -2.6890     2.9090    -2.0550 H     1 <1>   0.0800 
 26 H       -3.3390     1.2900    -1.9930 H     1 <1>   0.0800 
 27 H       -2.2410     0.5440     1.4820 H     1 <1>   0.0800 
 28 H       -3.0630    -0.1090     0.0930 H     1 <1>   0.0800 
 29 H        2.9230     1.4520     1.0250 H     1 <1>   0.0800 
 30 H        3.4280     1.8230    -0.6280 H     1 <1>   0.0800 
 31 H       -3.0840     4.5810     1.6810 H     1 <1>   0.0800 
 32 H       -5.1370     2.9630    -1.7120 H     1 <1>   0.0800 
 33 H       -4.6790     0.6060     1.8360 H     1 <1>   0.0800 
 34 H       -3.7630     4.7580    -0.6970 H     1 <1>   0.0800 
 35 H       -5.1380     4.4080     0.3040 H     1 <1>   0.0800 
 36 H       -3.2870     2.3970     2.8390 H     1 <1>   0.0800 
 37 H       -4.8560     3.0100     2.4110 H     1 <1>   0.0800 
 38 H       -5.3560     0.7880    -0.5430 H     1 <1>   0.0800 
 39 H       -6.0820     2.0570     0.3950 H     1 <1>   0.0800 
 40 H        6.4220     0.9870     1.1050 H     1 <1>   0.0800 
 41 H        5.0720     1.7980     1.8900 H     1 <1>   0.0800 
 42 H        5.5960     2.3010     0.2750 H     1 <1>   0.0800 
@<TRIPOS>BOND
  1   1   2  2   
  2   2   3  am  
  3   2   4  am  
  4   3   5  1   
  5   3  19  1   
  6   4   6  1   
  7   4  20  1   
  8   5   7  1   
  9   5   8  1   
 10   5   9  1   
 11   6  10  1   
 12   6  21  1   
 13   6  22  1   
 14   7  11  1   
 15   7  23  1   
 16   7  24  1   
 17   8  12  1   
 18   8  25  1   
 19   8  26  1   
 20   9  13  1   
 21   9  27  1   
 22   9  28  1   
 23  10  14  1   
 24  10  29  1   
 25  10  30  1   
 26  11  15  1   
 27  11  16  1   
 28  11  31  1   
 29  12  15  1   
 30  12  17  1   
 31  12  32  1   
 32  13  16  1   
 33  13  17  1   
 34  13  33  1   
 35  14  18  1   
 36  15  34  1   
 37  15  35  1   
 38  16  36  1   
 39  16  37  1   
 40  17  38  1   
 41  17  39  1   
 42  18  40  1   
 43  18  41  1   
 44  18  42  1   
@<TRIPOS>SUBSTRUCTURE
  1 ****   3 GROUP 4 **** **** 0

# MOE 2024.06 (io_trps.svl 2023.06)
