@<TRIPOS>MOLECULE
NONAME
38 39 1 0 0 
SMALL
USER_CHARGES


@<TRIPOS>ATOM
  1 F      -17.1460    -1.5930     1.1020 F     1 <1>  -0.1900 
  2 C      -15.9330    -1.1540     0.9140 C.ar  1 <1>   0.1900 
  3 C      -15.4680    -0.1120     1.6910 C.ar  1 <1>  -0.1500 
  4 C      -15.1490    -1.7480    -0.0560 C.ar  1 <1>  -0.1500 
  5 C      -14.1800     0.3470     1.4810 C.ar  1 <1>  -0.1500 
  6 C      -13.8620    -1.2760    -0.2520 C.ar  1 <1>  -0.1500 
  7 C      -13.3490    -0.2150     0.5050 C.ar  1 <1>   0.0860 
  8 C      -12.0030     0.2960     0.2980 C.2   1 <1>   0.5440 
  9 O      -11.3940     0.8390     1.2010 O.2   1 <1>  -0.5700 
 10 N      -11.3820     0.1910    -0.9180 N.am  1 <1>  -0.7300 
 11 C      -10.0870     0.8260    -1.2340 C.3   1 <1>   0.1400 
 12 C       -8.9540    -0.0270    -0.6560 C.3   1 <1>  -0.1600 
 13 C       -7.6660     0.7860    -0.5670 C.3   1 <1>   0.3430 
 14 N       -6.6580     0.0550     0.2470 N.4   1 <1>  -0.9590 
 15 C       -5.4620     0.8730     0.5590 C.3   1 <1>   0.3430 
 16 C       -6.1490    -1.1940    -0.3710 C.3   1 <1>   0.3430 
 17 C       -4.4080    -0.1430     0.9760 C.3   1 <1>  -0.1600 
 18 C       -4.8480    -1.4780     0.3670 C.3   1 <1>  -0.1600 
 19 H      -16.1030     0.3260     2.4410 H     1 <1>   0.1500 
 20 H      -15.5440    -2.5620    -0.6380 H     1 <1>   0.1500 
 21 H      -13.8030     1.1590     2.0810 H     1 <1>   0.1500 
 22 H      -13.2470    -1.7470    -0.9980 H     1 <1>   0.1500 
 23 H      -11.9290    -0.1380    -1.7170 H     1 <1>   0.3700 
 24 H      -10.0760     1.8090    -0.7900 H     1 <1>   0.0800 
 25 H       -9.9820     0.9340    -2.3010 H     1 <1>   0.0800 
 26 H       -8.8170    -0.8940    -1.2750 H     1 <1>   0.0800 
 27 H       -9.2290    -0.3390     0.3370 H     1 <1>   0.0800 
 28 H       -7.8860     1.7300    -0.0920 H     1 <1>   0.0800 
 29 H       -7.2810     0.9840    -1.5540 H     1 <1>   0.0800 
 30 H       -7.0940    -0.2000     1.1450 H     1 <1>   0.4500 
 31 H       -5.6590     1.5900     1.3420 H     1 <1>   0.0800 
 32 H       -5.1310     1.3910    -0.3270 H     1 <1>   0.0800 
 33 H       -5.9420    -1.0270    -1.4150 H     1 <1>   0.0800 
 34 H       -6.8520    -2.0060    -0.2680 H     1 <1>   0.0800 
 35 H       -4.3760    -0.2140     2.0500 H     1 <1>   0.0800 
 36 H       -3.4360     0.1570     0.6250 H     1 <1>   0.0800 
 37 H       -4.1100    -1.8710    -0.3120 H     1 <1>   0.0800 
 38 H       -5.0190    -2.2070     1.1420 H     1 <1>   0.0800 
@<TRIPOS>BOND
  1   1   2  1   
  2   2   3  ar  
  3   2   4  ar  
  4   3   5  ar  
  5   3  19  1   
  6   4   6  ar  
  7   4  20  1   
  8   5   7  ar  
  9   5  21  1   
 10   6   7  ar  
 11   6  22  1   
 12   7   8  1   
 13   8   9  2   
 14   8  10  am  
 15  10  11  1   
 16  10  23  1   
 17  11  12  1   
 18  11  24  1   
 19  11  25  1   
 20  12  13  1   
 21  12  26  1   
 22  12  27  1   
 23  13  14  1   
 24  13  28  1   
 25  13  29  1   
 26  14  15  1   
 27  14  16  1   
 28  14  30  1   
 29  15  17  1   
 30  15  31  1   
 31  15  32  1   
 32  16  18  1   
 33  16  33  1   
 34  16  34  1   
 35  17  18  1   
 36  17  35  1   
 37  17  36  1   
 38  18  37  1   
 39  18  38  1   
@<TRIPOS>SUBSTRUCTURE
  1 ****   8 GROUP 4 **** **** 0

# MOE 2024.06 (io_trps.svl 2023.06)
