@<TRIPOS>MOLECULE
NONAME
37 38 1 0 0 
SMALL
USER_CHARGES


@<TRIPOS>ATOM
  1 O       -1.8570     0.0110     2.6620 O.2   1 <1>  -0.5700 
  2 C       -2.5220    -0.7020     1.9400 C.2   1 <1>   0.7060 
  3 O       -3.7340    -0.2850     1.5740 O.3   1 <1>  -0.2330 
  4 C       -2.0750    -1.9670     1.4600 C.2   1 <1>  -0.1360 
  5 C       -4.5600    -1.0040     0.7730 C.ar  1 <1>   0.0820 
  6 C       -2.8430    -2.7390     0.6600 C.2   1 <1>  -0.1670 
  7 C       -4.1470    -2.2580     0.2910 C.ar  1 <1>   0.0280 
  8 C       -5.8080    -0.4730     0.4560 C.ar  1 <1>  -0.1440 
  9 C       -2.3460    -4.0870     0.1570 C.3   1 <1>  -0.1020 
 10 C       -5.0370    -2.9620    -0.5230 C.ar  1 <1>  -0.1500 
 11 C       -6.6770    -1.2080    -0.3420 C.ar  1 <1>   0.0830 
 12 C       -6.2080     0.9020     0.9960 C.3   1 <1>  -0.0960 
 13 C       -6.2780    -2.4500    -0.8350 C.ar  1 <1>  -0.1500 
 14 O       -7.8990    -0.6890    -0.6090 O.3   1 <1>  -0.3630 
 15 C       -8.9640    -1.4800    -1.1170 C.3   1 <1>   0.1810 
 16 C      -10.2980    -0.7380    -1.0450 C.2   1 <1>   0.5690 
 17 O      -10.9200    -0.6330    -2.0780 O.2   1 <1>  -0.5700 
 18 N      -10.7860    -0.2390     0.1450 N.am  1 <1>  -0.6600 
 19 C      -10.0830    -0.3500     1.4540 C.3   1 <1>   0.0600 
 20 C      -12.0530     0.5430     0.1990 C.3   1 <1>   0.0600 
 21 H       -1.0920    -2.2550     1.7790 H     1 <1>   0.1500 
 22 H       -2.3130    -4.0930    -0.9180 H     1 <1>   0.0800 
 23 H       -2.9990    -4.8730     0.4950 H     1 <1>   0.0800 
 24 H       -1.3560    -4.2920     0.5250 H     1 <1>   0.0800 
 25 H       -4.7600    -3.9210    -0.9190 H     1 <1>   0.1500 
 26 H       -5.3690     1.5740     0.9760 H     1 <1>   0.0800 
 27 H       -6.5490     0.8070     2.0100 H     1 <1>   0.0800 
 28 H       -6.9890     1.3490     0.4080 H     1 <1>   0.0800 
 29 H       -6.9250    -3.0270    -1.4690 H     1 <1>   0.1500 
 30 H       -9.0310    -2.3810    -0.5370 H     1 <1>   0.0800 
 31 H       -8.7430    -1.7180    -2.1410 H     1 <1>   0.0800 
 32 H       -9.4070    -1.1860     1.4630 H     1 <1>   0.0800 
 33 H      -10.7990    -0.4880     2.2450 H     1 <1>   0.0800 
 34 H       -9.5230     0.5510     1.6380 H     1 <1>   0.0800 
 35 H      -12.4820     0.6510    -0.7820 H     1 <1>   0.0800 
 36 H      -11.8580     1.5240     0.5950 H     1 <1>   0.0800 
 37 H      -12.7640     0.0390     0.8300 H     1 <1>   0.0800 
@<TRIPOS>BOND
  1   1   2  2   
  2   2   3  1   
  3   2   4  1   
  4   3   5  1   
  5   4   6  2   
  6   4  21  1   
  7   5   7  ar  
  8   5   8  ar  
  9   6   7  1   
 10   6   9  1   
 11   7  10  ar  
 12   8  11  ar  
 13   8  12  1   
 14   9  22  1   
 15   9  23  1   
 16   9  24  1   
 17  10  13  ar  
 18  10  25  1   
 19  11  13  ar  
 20  11  14  1   
 21  12  26  1   
 22  12  27  1   
 23  12  28  1   
 24  13  29  1   
 25  14  15  1   
 26  15  16  1   
 27  15  30  1   
 28  15  31  1   
 29  16  17  2   
 30  16  18  am  
 31  18  19  1   
 32  18  20  1   
 33  19  32  1   
 34  19  33  1   
 35  19  34  1   
 36  20  35  1   
 37  20  36  1   
 38  20  37  1   
@<TRIPOS>SUBSTRUCTURE
  1 ****  11 GROUP 4 **** **** 0

# MOE 2024.06 (io_trps.svl 2023.06)
