@<TRIPOS>MOLECULE
NONAME
30 31 1 0 0 
SMALL
USER_CHARGES


@<TRIPOS>ATOM
  1 S        0.6360     0.6610     0.5160 S.3   1 <1>  -0.3320 
  2 C       -1.0930     1.1610     0.4260 C.ar  1 <1>   0.1020 
  3 C        1.4990     1.4740    -0.9220 C.3   1 <1>   0.1310 
  4 C       -1.9380     0.6740     1.4060 C.ar  1 <1>  -0.1500 
  5 C       -1.5720     1.9950    -0.5720 C.ar  1 <1>  -0.1500 
  6 C        2.9810     1.1330    -0.9650 C.2   1 <1>   0.5690 
  7 C       -3.2770     1.0230     1.3900 C.ar  1 <1>  -0.1500 
  8 C       -2.9140     2.3400    -0.5800 C.ar  1 <1>  -0.1500 
  9 O        3.6430     1.6070    -1.8580 O.2   1 <1>  -0.5700 
 10 N        3.5140     0.3180    -0.0150 N.am  1 <1>  -0.5790 
 11 C       -3.7700     1.8580     0.3990 C.ar  1 <1>  -0.1430 
 12 C        4.9180    -0.1030     0.0810 C.3   1 <1>   0.0490 
 13 C       -5.2400     2.2380     0.3840 C.3   1 <1>  -0.0970 
 14 C        5.2030    -1.4780     0.5850 C.3   1 <1>  -0.2000 
 15 C        5.5030    -0.2840     1.4410 C.3   1 <1>  -0.2000 
 16 H        1.3720     2.5350    -0.8130 H     1 <1>   0.0800 
 17 H        1.0200     1.1310    -1.8190 H     1 <1>   0.0800 
 18 H       -1.5510     0.0270     2.1720 H     1 <1>   0.1500 
 19 H       -0.9330     2.3810    -1.3400 H     1 <1>   0.1500 
 20 H       -3.9340     0.6420     2.1530 H     1 <1>   0.1500 
 21 H       -3.2910     2.9850    -1.3540 H     1 <1>   0.1500 
 22 H        2.8910    -0.0460     0.7100 H     1 <1>   0.3700 
 23 H        5.5400     0.3030    -0.7020 H     1 <1>   0.1000 
 24 H       -5.7980     1.5110    -0.1780 H     1 <1>   0.0800 
 25 H       -5.3760     3.2040    -0.0670 H     1 <1>   0.0800 
 26 H       -5.6290     2.2750     1.3860 H     1 <1>   0.0800 
 27 H        6.0300    -2.0200     0.1600 H     1 <1>   0.1000 
 28 H        4.3780    -2.1170     0.8450 H     1 <1>   0.1000 
 29 H        4.8880    -0.0880     2.3010 H     1 <1>   0.1000 
 30 H        6.5330    -0.0160     1.5980 H     1 <1>   0.1000 
@<TRIPOS>BOND
  1   1   2  1   
  2   1   3  1   
  3   2   4  ar  
  4   2   5  ar  
  5   3   6  1   
  6   3  16  1   
  7   3  17  1   
  8   4   7  ar  
  9   4  18  1   
 10   5   8  ar  
 11   5  19  1   
 12   6   9  2   
 13   6  10  am  
 14   7  11  ar  
 15   7  20  1   
 16   8  11  ar  
 17   8  21  1   
 18  10  12  1   
 19  10  22  1   
 20  11  13  1   
 21  12  14  1   
 22  12  15  1   
 23  12  23  1   
 24  13  24  1   
 25  13  25  1   
 26  13  26  1   
 27  14  15  1   
 28  14  27  1   
 29  14  28  1   
 30  15  29  1   
 31  15  30  1   
@<TRIPOS>SUBSTRUCTURE
  1 ****   1 GROUP 4 **** **** 0

# MOE 2024.06 (io_trps.svl 2023.06)
