@<TRIPOS>MOLECULE
NONAME
36 37 1 0 0 
SMALL
USER_CHARGES


@<TRIPOS>ATOM
  1 F        0.9900    -2.0440    -1.6900 F     1 <1>  -0.3400 
  2 C       -0.2950    -2.0570    -1.3450 C.3   1 <1>   1.0200 
  3 F       -0.9260    -2.5560    -2.4080 F     1 <1>  -0.3400 
  4 F       -0.6670    -0.7800    -1.2960 F     1 <1>  -0.3400 
  5 C       -0.6120    -2.8820    -0.0430 C.3   1 <1>   0.4920 
  6 N       -0.1800    -4.3080    -0.2000 N.2   1 <1>  -0.6960 
  7 N       -2.0820    -2.8510     0.2560 N.2   1 <1>  -0.6960 
  8 C        0.2010    -2.1750     1.1030 C.3   1 <1>   1.0200 
  9 C       -1.0010    -5.2590    -0.0780 C.2   1 <1>   0.7500 
 10 C       -2.7860    -3.8970     0.3490 C.2   1 <1>   0.6500 
 11 F       -0.1360    -0.9060     1.3200 F     1 <1>  -0.3400 
 12 F        0.0240    -2.7810     2.2770 F     1 <1>  -0.3400 
 13 F        1.5200    -2.1710     0.9210 F     1 <1>  -0.3400 
 14 O       -2.2870    -5.1150     0.1910 O.3   1 <1>  -0.3000 
 15 O       -0.6580    -6.5460    -0.2100 O.3   1 <1>  -0.4300 
 16 N       -4.1350    -3.8510     0.6240 N.pl3 1 <1>  -0.7880 
 17 C        0.6740    -6.9090    -0.4990 C.3   1 <1>   0.1200 
 18 C       -4.9980    -5.0640     0.7820 C.3   1 <1>   0.2090 
 19 C       -4.8520    -2.5660     0.8960 C.3   1 <1>   0.2090 
 20 C        0.7400    -8.4300    -0.5870 C.3   1 <1>  -0.2400 
 21 C       -6.3470    -4.8730     0.0660 C.3   1 <1>   0.1200 
 22 C       -6.2110    -2.5340     0.1750 C.3   1 <1>   0.1200 
 23 O       -6.9630    -3.6800     0.4650 O.3   1 <1>  -0.5600 
 24 H        1.3090    -6.5420     0.2900 H     1 <1>   0.0800 
 25 H        0.9580    -6.4570    -1.4350 H     1 <1>   0.0800 
 26 H       -5.1780    -5.2350     1.8290 H     1 <1>   0.0800 
 27 H       -4.5160    -5.9380     0.3820 H     1 <1>   0.0800 
 28 H       -4.2680    -1.7230     0.5730 H     1 <1>   0.0800 
 29 H       -5.0130    -2.4700     1.9560 H     1 <1>   0.0800 
 30 H        0.4450    -8.8680     0.3490 H     1 <1>   0.0800 
 31 H        1.7460    -8.7370    -0.8070 H     1 <1>   0.0800 
 32 H        0.0940    -8.7840    -1.3710 H     1 <1>   0.0800 
 33 H       -7.0120    -5.6820     0.3070 H     1 <1>   0.0800 
 34 H       -6.2060    -4.8470    -1.0010 H     1 <1>   0.0800 
 35 H       -6.0690    -2.4750    -0.8900 H     1 <1>   0.0800 
 36 H       -6.7790    -1.6790     0.4940 H     1 <1>   0.0800 
@<TRIPOS>BOND
  1   1   2  1   
  2   2   3  1   
  3   2   4  1   
  4   2   5  1   
  5   5   6  1   
  6   5   7  1   
  7   5   8  1   
  8   6   9  2   
  9   7  10  2   
 10   8  11  1   
 11   8  12  1   
 12   8  13  1   
 13   9  14  1   
 14   9  15  1   
 15  10  14  1   
 16  10  16  1   
 17  15  17  1   
 18  16  18  1   
 19  16  19  1   
 20  17  20  1   
 21  17  24  1   
 22  17  25  1   
 23  18  21  1   
 24  18  26  1   
 25  18  27  1   
 26  19  22  1   
 27  19  28  1   
 28  19  29  1   
 29  20  30  1   
 30  20  31  1   
 31  20  32  1   
 32  21  23  1   
 33  21  33  1   
 34  21  34  1   
 35  22  23  1   
 36  22  35  1   
 37  22  36  1   
@<TRIPOS>SUBSTRUCTURE
  1 ****   7 GROUP 4 **** **** 0

# MOE 2024.06 (io_trps.svl 2023.06)
