@<TRIPOS>MOLECULE
NONAME
53 55 1 0 0 
SMALL
USER_CHARGES


@<TRIPOS>ATOM
  1 O       -0.1870     0.5980     2.9020 O.2   1 <1>  -0.5700 
  2 C       -0.1790     1.8100     2.9370 C.2   1 <1>   0.5690 
  3 N        1.0150     2.5000     2.9600 N.am  1 <1>  -0.6600 
  4 C       -1.5710     2.4830     2.9290 C.3   1 <1>   0.2610 
  5 C        1.1670     3.9640     3.1820 C.3   1 <1>   0.1400 
  6 C        2.2900     1.7950     2.6170 C.3   1 <1>   0.1400 
  7 O       -1.6510     3.6150     2.0710 O.3   1 <1>  -0.3630 
  8 C       -2.0420     2.9150     4.3240 C.3   1 <1>  -0.2400 
  9 C        1.7140     4.6640     1.9270 C.3   1 <1>  -0.1600 
 10 C        3.2100     2.6580     1.7350 C.3   1 <1>  -0.1600 
 11 C       -1.4310     3.5190     0.7310 C.ar  1 <1>   0.0820 
 12 C        2.4200     3.7130     0.9410 C.3   1 <1>  -0.0800 
 13 C       -1.2240     2.3200     0.0520 C.ar  1 <1>  -0.1500 
 14 C       -1.4010     4.7110     0.0230 C.ar  1 <1>  -0.1500 
 15 C        3.2930     4.5050    -0.0470 C.3   1 <1>  -0.0170 
 16 C       -0.9580     2.3240    -1.3060 C.ar  1 <1>  -0.1500 
 17 C       -1.1370     4.7150    -1.3350 C.ar  1 <1>  -0.1500 
 18 C        3.8440     3.6270    -1.1610 C.ar  1 <1>  -0.1440 
 19 C       -0.9080     3.5260    -2.0070 C.ar  1 <1>   0.0820 
 20 C        3.0330     3.2740    -2.2290 C.ar  1 <1>  -0.1500 
 21 C        5.1550     3.1770    -1.1270 C.ar  1 <1>  -0.1500 
 22 O       -0.6390     3.6150    -3.3350 O.3   1 <1>  -0.3630 
 23 C        3.5260     2.4810    -3.2500 C.ar  1 <1>  -0.1500 
 24 C        5.6490     2.3810    -2.1470 C.ar  1 <1>  -0.1500 
 25 C       -0.4340     2.4570    -4.1130 C.3   1 <1>   0.0400 
 26 C        4.8350     2.0330    -3.2090 C.ar  1 <1>  -0.1500 
 27 H       -2.2790     1.7660     2.5550 H     1 <1>   0.0800 
 28 H        1.8610     4.1040     3.9930 H     1 <1>   0.0800 
 29 H        0.2390     4.4190     3.4720 H     1 <1>   0.0800 
 30 H        2.0590     0.8920     2.0770 H     1 <1>   0.0800 
 31 H        2.7990     1.5150     3.5220 H     1 <1>   0.0800 
 32 H       -1.3770     3.6420     4.7490 H     1 <1>   0.0800 
 33 H       -2.0650     2.0580     4.9730 H     1 <1>   0.0800 
 34 H       -3.0330     3.3260     4.2650 H     1 <1>   0.0800 
 35 H        2.3940     5.4320     2.2510 H     1 <1>   0.0800 
 36 H        0.9070     5.1580     1.4200 H     1 <1>   0.0800 
 37 H        3.7440     2.0070     1.0670 H     1 <1>   0.0800 
 38 H        3.9380     3.1460     2.3590 H     1 <1>   0.0800 
 39 H        1.6610     3.2000     0.3730 H     1 <1>   0.0800 
 40 H       -1.2570     1.3720     0.5560 H     1 <1>   0.1500 
 41 H       -1.5780     5.6340     0.5430 H     1 <1>   0.1500 
 42 H        4.1030     4.9790     0.4790 H     1 <1>   0.0800 
 43 H        2.7010     5.2850    -0.4940 H     1 <1>   0.0800 
 44 H       -0.7920     1.3840    -1.7960 H     1 <1>   0.1500 
 45 H       -1.1070     5.6400    -1.8810 H     1 <1>   0.1500 
 46 H        2.0130     3.6180    -2.2660 H     1 <1>   0.1500 
 47 H        5.7970     3.4440    -0.3060 H     1 <1>   0.1500 
 48 H        2.8930     2.2150    -4.0770 H     1 <1>   0.1500 
 49 H        6.6670     2.0350    -2.1130 H     1 <1>   0.1500 
 50 H       -0.2380     2.7640    -5.1240 H     1 <1>   0.0800 
 51 H       -1.3240     1.8540    -4.0800 H     1 <1>   0.0800 
 52 H        0.4110     1.9190    -3.7230 H     1 <1>   0.0800 
 53 H        5.2190     1.4160    -4.0020 H     1 <1>   0.1500 
@<TRIPOS>BOND
  1   1   2  2   
  2   2   3  am  
  3   2   4  1   
  4   3   5  1   
  5   3   6  1   
  6   4   7  1   
  7   4   8  1   
  8   4  27  1   
  9   5   9  1   
 10   5  28  1   
 11   5  29  1   
 12   6  10  1   
 13   6  30  1   
 14   6  31  1   
 15   7  11  1   
 16   8  32  1   
 17   8  33  1   
 18   8  34  1   
 19   9  12  1   
 20   9  35  1   
 21   9  36  1   
 22  10  12  1   
 23  10  37  1   
 24  10  38  1   
 25  11  13  ar  
 26  11  14  ar  
 27  12  15  1   
 28  12  39  1   
 29  13  16  ar  
 30  13  40  1   
 31  14  17  ar  
 32  14  41  1   
 33  15  18  1   
 34  15  42  1   
 35  15  43  1   
 36  16  19  ar  
 37  16  44  1   
 38  17  19  ar  
 39  17  45  1   
 40  18  20  ar  
 41  18  21  ar  
 42  19  22  1   
 43  20  23  ar  
 44  20  46  1   
 45  21  24  ar  
 46  21  47  1   
 47  22  25  1   
 48  23  26  ar  
 49  23  48  1   
 50  24  26  ar  
 51  24  49  1   
 52  25  50  1   
 53  25  51  1   
 54  25  52  1   
 55  26  53  1   
@<TRIPOS>SUBSTRUCTURE
  1 ****  12 GROUP 4 **** **** 0

# MOE 2024.06 (io_trps.svl 2023.06)
