@<TRIPOS>MOLECULE
NONAME
52 54 1 0 0 
SMALL
USER_CHARGES


@<TRIPOS>ATOM
  1 F        0.1350     0.1940    -1.7310 F     1 <1>  -0.1900 
  2 C        0.0110     1.4930    -1.7010 C.ar  1 <1>   0.1900 
  3 C       -1.1260     2.0400    -1.1430 C.ar  1 <1>  -0.1500 
  4 C        1.0260     2.2670    -2.2270 C.ar  1 <1>  -0.1500 
  5 C       -1.2850     3.4250    -1.1030 C.ar  1 <1>   0.0860 
  6 C        0.8850     3.6430    -2.1900 C.ar  1 <1>  -0.1500 
  7 C       -2.4670     4.0220    -0.5090 C.2   1 <1>   0.5440 
  8 C       -0.2540     4.2070    -1.6400 C.ar  1 <1>  -0.1500 
  9 O       -3.0400     3.4690     0.4080 O.2   1 <1>  -0.5700 
 10 N       -2.9240     5.2300    -0.9770 N.am  1 <1>  -0.5470 
 11 C       -3.7710     6.1830    -0.3970 C.ar  1 <1>   0.1170 
 12 C       -3.4810     7.5430    -0.5800 C.ar  1 <1>   0.0860 
 13 C       -4.8880     5.8210     0.3510 C.ar  1 <1>  -0.1500 
 14 C       -2.3140     7.9410    -1.3360 C.2   1 <1>   0.5440 
 15 C       -4.3230     8.4950    -0.0050 C.ar  1 <1>  -0.1500 
 16 C       -5.7090     6.7780     0.9140 C.ar  1 <1>  -0.1500 
 17 O       -2.2000     7.5780    -2.4940 O.2   1 <1>  -0.5700 
 18 N       -1.2870     8.6570    -0.7600 N.am  1 <1>  -0.6600 
 19 C       -5.4270     8.1210     0.7360 C.ar  1 <1>  -0.1500 
 20 C       -0.9550     8.5300     0.6820 C.3   1 <1>   0.1400 
 21 C       -0.1760     9.2080    -1.5790 C.3   1 <1>   0.1400 
 22 C        0.2150     7.5520     0.8240 C.3   1 <1>  -0.1600 
 23 C        1.0190     8.2570    -1.4910 C.3   1 <1>  -0.1600 
 24 C        1.4330     7.9710    -0.0290 C.3   1 <1>  -0.0190 
 25 C        2.5430     6.9250     0.0670 C.2   1 <1>   0.6590 
 26 O        2.7620     6.1270    -0.8100 O.2   1 <1>  -0.5700 
 27 O        3.2470     6.9450     1.1900 O.3   1 <1>  -0.4300 
 28 C        4.2880     6.0250     1.4220 C.3   1 <1>   0.1200 
 29 C        4.8800     6.3160     2.7970 C.3   1 <1>  -0.2400 
 30 H       -1.8880     1.3970    -0.7370 H     1 <1>   0.1500 
 31 H        1.9000     1.8050    -2.6500 H     1 <1>   0.1500 
 32 H        1.6640     4.2780    -2.5820 H     1 <1>   0.1500 
 33 H       -0.3320     5.2800    -1.6200 H     1 <1>   0.1500 
 34 H       -2.4370     5.5840    -1.8100 H     1 <1>   0.3700 
 35 H       -5.1180     4.7800     0.4900 H     1 <1>   0.1500 
 36 H       -4.1020     9.5390    -0.1470 H     1 <1>   0.1500 
 37 H       -6.5680     6.4780     1.4900 H     1 <1>   0.1500 
 38 H       -6.0690     8.8670     1.1720 H     1 <1>   0.1500 
 39 H       -1.7990     8.1710     1.2450 H     1 <1>   0.0800 
 40 H       -0.6820     9.4970     1.0700 H     1 <1>   0.0800 
 41 H        0.0920    10.1810    -1.2050 H     1 <1>   0.0800 
 42 H       -0.4850     9.3180    -2.6050 H     1 <1>   0.0800 
 43 H       -0.1160     6.5720     0.5290 H     1 <1>   0.0800 
 44 H        0.5040     7.4960     1.8600 H     1 <1>   0.0800 
 45 H        1.8500     8.6810    -2.0260 H     1 <1>   0.0800 
 46 H        0.7540     7.3400    -1.9870 H     1 <1>   0.0800 
 47 H        1.8250     8.8840     0.3810 H     1 <1>   0.0800 
 48 H        5.0270     6.1430     0.6480 H     1 <1>   0.0800 
 49 H        3.8770     5.0290     1.3800 H     1 <1>   0.0800 
 50 H        5.2770     7.3150     2.8260 H     1 <1>   0.0800 
 51 H        5.6780     5.6250     3.0000 H     1 <1>   0.0800 
 52 H        4.1280     6.2040     3.5570 H     1 <1>   0.0800 
@<TRIPOS>BOND
  1   1   2  1   
  2   2   3  ar  
  3   2   4  ar  
  4   3   5  ar  
  5   3  30  1   
  6   4   6  ar  
  7   4  31  1   
  8   5   7  1   
  9   5   8  ar  
 10   6   8  ar  
 11   6  32  1   
 12   7   9  2   
 13   7  10  am  
 14   8  33  1   
 15  10  11  1   
 16  10  34  1   
 17  11  12  ar  
 18  11  13  ar  
 19  12  14  1   
 20  12  15  ar  
 21  13  16  ar  
 22  13  35  1   
 23  14  17  2   
 24  14  18  am  
 25  15  19  ar  
 26  15  36  1   
 27  16  19  ar  
 28  16  37  1   
 29  18  20  1   
 30  18  21  1   
 31  19  38  1   
 32  20  22  1   
 33  20  39  1   
 34  20  40  1   
 35  21  23  1   
 36  21  41  1   
 37  21  42  1   
 38  22  24  1   
 39  22  43  1   
 40  22  44  1   
 41  23  24  1   
 42  23  45  1   
 43  23  46  1   
 44  24  25  1   
 45  24  47  1   
 46  25  26  2   
 47  25  27  1   
 48  27  28  1   
 49  28  29  1   
 50  28  48  1   
 51  28  49  1   
 52  29  50  1   
 53  29  51  1   
 54  29  52  1   
@<TRIPOS>SUBSTRUCTURE
  1 ****   8 GROUP 4 **** **** 0

# MOE 2024.06 (io_trps.svl 2023.06)
