@<TRIPOS>MOLECULE
NONAME
36 38 1 0 0 
SMALL
USER_CHARGES


@<TRIPOS>ATOM
  1 CL       0.4420     0.6230     0.5140 Cl    1 <1>  -0.1770 
  2 C        1.8620    -0.2950     0.0840 C.ar  1 <1>   0.1770 
  3 C        1.8560    -1.1260    -1.0330 C.ar  1 <1>   0.1770 
  4 C        2.9920    -0.1810     0.8750 C.ar  1 <1>  -0.1500 
  5 CL       0.4280    -1.2670    -2.0260 Cl    1 <1>  -0.1770 
  6 C        2.9800    -1.8570    -1.3770 C.ar  1 <1>  -0.1500 
  7 C        4.1220    -0.9150     0.5320 C.ar  1 <1>   0.0860 
  8 C        4.1160    -1.7450    -0.5830 C.ar  1 <1>   0.0860 
  9 C        5.4260    -1.0200     1.1220 C.2   1 <1>   0.5440 
 10 C        5.4160    -2.3470    -0.6600 C.2   1 <1>   0.5440 
 11 O        5.8310    -0.4520     2.1130 O.2   1 <1>  -0.5700 
 12 N        6.1760    -1.8960     0.3850 N.am  1 <1>  -0.4200 
 13 O        5.8070    -3.1410    -1.4890 O.2   1 <1>  -0.5700 
 14 C        7.6600    -1.8540     0.3510 C.3   1 <1>   0.2010 
 15 C        8.2070    -0.6180    -0.3770 C.2   1 <1>   0.5690 
 16 O        7.4460     0.0340    -1.0610 O.2   1 <1>  -0.5700 
 17 N        9.5310    -0.2700    -0.2520 N.am  1 <1>  -0.6600 
 18 C       10.0280     0.9890    -0.8910 C.3   1 <1>   0.1400 
 19 C       10.5310    -1.0800     0.5100 C.3   1 <1>   0.1400 
 20 C       11.1900     1.5820    -0.0880 C.3   1 <1>  -0.1600 
 21 C       11.9430    -0.8630    -0.0440 C.3   1 <1>  -0.1600 
 22 C       12.3770     0.6110     0.0280 C.3   1 <1>  -0.1600 
 23 H        3.0020     0.4630     1.7380 H     1 <1>   0.1500 
 24 H        2.9810    -2.4990    -2.2410 H     1 <1>   0.1500 
 25 H        8.0240    -2.7350    -0.1450 H     1 <1>   0.0800 
 26 H        8.0220    -1.8520     1.3620 H     1 <1>   0.0800 
 27 H        9.2310     1.7110    -0.9490 H     1 <1>   0.0800 
 28 H       10.3510     0.7670    -1.8940 H     1 <1>   0.0800 
 29 H       10.2910    -2.1270     0.4440 H     1 <1>   0.0800 
 30 H       10.5030    -0.7860     1.5460 H     1 <1>   0.0800 
 31 H       10.8250     1.8270     0.8950 H     1 <1>   0.0800 
 32 H       11.5150     2.4980    -0.5470 H     1 <1>   0.0800 
 33 H       11.9560    -1.1930    -1.0690 H     1 <1>   0.0800 
 34 H       12.6440    -1.4720     0.4990 H     1 <1>   0.0800 
 35 H       12.8830     0.7960     0.9600 H     1 <1>   0.0800 
 36 H       13.0790     0.8010    -0.7660 H     1 <1>   0.0800 
@<TRIPOS>BOND
  1   1   2  1   
  2   2   3  ar  
  3   2   4  ar  
  4   3   5  1   
  5   3   6  ar  
  6   4   7  ar  
  7   4  23  1   
  8   6   8  ar  
  9   6  24  1   
 10   7   8  ar  
 11   7   9  1   
 12   8  10  1   
 13   9  11  2   
 14   9  12  am  
 15  10  12  am  
 16  10  13  2   
 17  12  14  1   
 18  14  15  1   
 19  14  25  1   
 20  14  26  1   
 21  15  16  2   
 22  15  17  am  
 23  17  18  1   
 24  17  19  1   
 25  18  20  1   
 26  18  27  1   
 27  18  28  1   
 28  19  21  1   
 29  19  29  1   
 30  19  30  1   
 31  20  22  1   
 32  20  31  1   
 33  20  32  1   
 34  21  22  1   
 35  21  33  1   
 36  21  34  1   
 37  22  35  1   
 38  22  36  1   
@<TRIPOS>SUBSTRUCTURE
  1 ****  12 GROUP 4 **** **** 0

# MOE 2024.06 (io_trps.svl 2023.06)
