@<TRIPOS>MOLECULE
NONAME
45 47 1 0 0 
SMALL
USER_CHARGES


@<TRIPOS>ATOM
  1 BR       1.4010    -0.8090     2.6320 Br    1 <1>  -0.1110 
  2 C        0.6170    -2.1670     1.5080 C.ar  1 <1>   0.1110 
  3 C        1.2390    -2.5440     0.3300 C.ar  1 <1>   0.0820 
  4 C       -0.5740    -2.7340     1.9210 C.ar  1 <1>  -0.1500 
  5 O        2.3990    -1.9820    -0.0660 O.3   1 <1>  -0.5330 
  6 C        0.6540    -3.5290    -0.4600 C.ar  1 <1>   0.0830 
  7 C       -1.1710    -3.7050     1.1270 C.ar  1 <1>  -0.1430 
  8 O        1.3070    -3.8770    -1.6040 O.3   1 <1>  -0.3630 
  9 C       -0.5510    -4.1030    -0.0550 C.ar  1 <1>  -0.1500 
 10 C       -2.4930    -4.3190     1.5530 C.3   1 <1>   0.4860 
 11 C        0.9320    -5.0080    -2.3610 C.3   1 <1>   0.0400 
 12 N       -3.5890    -3.6940     0.7650 N.4   1 <1>  -0.9590 
 13 C       -3.7110    -2.2120     1.0400 C.3   1 <1>   0.3430 
 14 C       -4.9080    -4.3900     0.9970 C.3   1 <1>   0.3430 
 15 C       -4.8580    -1.5540     0.2470 C.3   1 <1>   0.2090 
 16 C       -6.0630    -3.7500     0.1990 C.3   1 <1>   0.2090 
 17 N       -6.1460    -2.2820     0.4580 N.pl3 1 <1>  -0.8380 
 18 C       -7.2780    -1.6490    -0.0770 C.ar  1 <1>   0.1000 
 19 C       -7.5250    -1.4890    -1.4470 C.ar  1 <1>   0.1900 
 20 C       -8.2310    -1.1400     0.7960 C.ar  1 <1>  -0.1500 
 21 F       -6.6570    -1.9510    -2.3170 F     1 <1>  -0.1900 
 22 C       -8.6520    -0.8600    -1.9370 C.ar  1 <1>  -0.1500 
 23 C       -9.3690    -0.5050     0.3230 C.ar  1 <1>  -0.1500 
 24 C       -9.5830    -0.3630    -1.0400 C.ar  1 <1>  -0.1500 
 25 H       -1.0080    -2.4060     2.8500 H     1 <1>   0.1500 
 26 H        2.6990    -2.3800    -0.9070 H     1 <1>   0.4500 
 27 H       -1.0080    -4.8640    -0.6610 H     1 <1>   0.1500 
 28 H       -2.6520    -4.1560     2.6070 H     1 <1>   0.0800 
 29 H       -2.4650    -5.3820     1.3740 H     1 <1>   0.0800 
 30 H        1.6470    -5.1300    -3.1560 H     1 <1>   0.0800 
 31 H       -0.0460    -4.8440    -2.7780 H     1 <1>   0.0800 
 32 H        0.9450    -5.8760    -1.7260 H     1 <1>   0.0800 
 33 H       -3.3470    -3.7870    -0.2290 H     1 <1>   0.4500 
 34 H       -2.7880    -1.7130     0.7910 H     1 <1>   0.0800 
 35 H       -3.8990    -2.0530     2.0890 H     1 <1>   0.0800 
 36 H       -5.1620    -4.3400     2.0430 H     1 <1>   0.0800 
 37 H       -4.8310    -5.4290     0.7240 H     1 <1>   0.0800 
 38 H       -4.6130    -1.5400    -0.8010 H     1 <1>   0.0800 
 39 H       -4.9740    -0.5330     0.5690 H     1 <1>   0.0800 
 40 H       -6.9930    -4.2100     0.4880 H     1 <1>   0.0800 
 41 H       -5.9210    -3.9290    -0.8530 H     1 <1>   0.0800 
 42 H       -8.0760    -1.2440     1.8540 H     1 <1>   0.1500 
 43 H       -8.7990    -0.7600    -2.9970 H     1 <1>   0.1500 
 44 H      -10.0940    -0.1180     1.0190 H     1 <1>   0.1500 
 45 H      -10.4690     0.1310    -1.3990 H     1 <1>   0.1500 
@<TRIPOS>BOND
  1   1   2  1   
  2   2   3  ar  
  3   2   4  ar  
  4   3   5  1   
  5   3   6  ar  
  6   4   7  ar  
  7   4  25  1   
  8   5  26  1   
  9   6   8  1   
 10   6   9  ar  
 11   7   9  ar  
 12   7  10  1   
 13   8  11  1   
 14   9  27  1   
 15  10  12  1   
 16  10  28  1   
 17  10  29  1   
 18  11  30  1   
 19  11  31  1   
 20  11  32  1   
 21  12  13  1   
 22  12  14  1   
 23  12  33  1   
 24  13  15  1   
 25  13  34  1   
 26  13  35  1   
 27  14  16  1   
 28  14  36  1   
 29  14  37  1   
 30  15  17  1   
 31  15  38  1   
 32  15  39  1   
 33  16  17  1   
 34  16  40  1   
 35  16  41  1   
 36  17  18  1   
 37  18  19  ar  
 38  18  20  ar  
 39  19  21  1   
 40  19  22  ar  
 41  20  23  ar  
 42  20  42  1   
 43  22  24  ar  
 44  22  43  1   
 45  23  24  ar  
 46  23  44  1   
 47  24  45  1   
@<TRIPOS>SUBSTRUCTURE
  1 ****  13 GROUP 4 **** **** 0

# MOE 2024.06 (io_trps.svl 2023.06)
