@<TRIPOS>MOLECULE
NONAME
39 40 1 0 0 
SMALL
USER_CHARGES


@<TRIPOS>ATOM
  1 I       -1.7320    -2.6420    -2.3930 I     1 <1>  -0.0810 
  2 C       -2.7200    -1.1270    -1.2800 C.ar  1 <1>   0.0810 
  3 C       -3.1590    -1.4160    -0.0020 C.ar  1 <1>  -0.1500 
  4 C       -2.9010     0.1140    -1.8580 C.ar  1 <1>  -0.1500 
  5 C       -3.8020    -0.4210     0.7120 C.ar  1 <1>  -0.1500 
  6 C       -3.5470     1.0940    -1.1240 C.ar  1 <1>  -0.1500 
  7 C       -4.0170     0.8530     0.1730 C.ar  1 <1>   0.0860 
  8 C       -4.6870     1.8770     0.9580 C.2   1 <1>   0.5440 
  9 O       -4.5290     1.8990     2.1690 O.2   1 <1>  -0.5700 
 10 N       -5.5270     2.8180     0.3650 N.am  1 <1>  -0.2980 
 11 N       -6.2200     2.6010    -0.8120 N.2   1 <1>  -0.5120 
 12 C       -6.0050     4.0660     1.0370 C.3   1 <1>   0.5800 
 13 C       -7.1490     3.4520    -0.9430 C.2   1 <1>   0.3280 
 14 O       -6.4760     3.7080     2.2780 O.3   1 <1>  -0.6800 
 15 C       -4.9120     5.2090     1.1550 C.3   1 <1>   0.0000 
 16 C       -7.2260     4.4500     0.1890 C.3   1 <1>  -0.0990 
 17 C       -8.1750     3.5900    -2.0870 C.3   1 <1>   1.0810 
 18 C       -4.3430     5.6050    -0.2270 C.3   1 <1>  -0.2400 
 19 C       -5.5010     6.4860     1.8020 C.3   1 <1>  -0.2400 
 20 C       -3.7020     4.8090     2.0290 C.3   1 <1>  -0.2400 
 21 F       -8.0820     4.7700    -2.6940 F     1 <1>  -0.3400 
 22 F       -8.0480     2.6740    -3.0420 F     1 <1>  -0.3400 
 23 F       -9.4280     3.5020    -1.6530 F     1 <1>  -0.3400 
 24 H       -3.0010    -2.3910     0.4250 H     1 <1>   0.1500 
 25 H       -2.5490     0.3110    -2.8550 H     1 <1>   0.1500 
 26 H       -4.1480    -0.6270     1.7110 H     1 <1>   0.1500 
 27 H       -3.6920     2.0650    -1.5640 H     1 <1>   0.1500 
 28 H       -5.8150     3.0680     2.6360 H     1 <1>   0.4000 
 29 H       -7.1740     5.4470    -0.1960 H     1 <1>   0.0800 
 30 H       -8.1450     4.3300     0.7360 H     1 <1>   0.0800 
 31 H       -5.1010     6.0050    -0.8740 H     1 <1>   0.0800 
 32 H       -3.8980     4.7540    -0.7120 H     1 <1>   0.0800 
 33 H       -3.5800     6.3570    -0.1180 H     1 <1>   0.0800 
 34 H       -5.8900     6.2640     2.7810 H     1 <1>   0.0800 
 35 H       -6.2950     6.9080     1.2150 H     1 <1>   0.0800 
 36 H       -4.7440     7.2420     1.9110 H     1 <1>   0.0800 
 37 H       -4.0220     4.4850     3.0040 H     1 <1>   0.0800 
 38 H       -3.0320     5.6410     2.1620 H     1 <1>   0.0800 
 39 H       -3.1370     4.0170     1.5740 H     1 <1>   0.0800 
@<TRIPOS>BOND
  1   1   2  1   
  2   2   3  ar  
  3   2   4  ar  
  4   3   5  ar  
  5   3  24  1   
  6   4   6  ar  
  7   4  25  1   
  8   5   7  ar  
  9   5  26  1   
 10   6   7  ar  
 11   6  27  1   
 12   7   8  1   
 13   8   9  2   
 14   8  10  am  
 15  10  11  1   
 16  10  12  1   
 17  11  13  2   
 18  12  14  1   
 19  12  15  1   
 20  12  16  1   
 21  13  16  1   
 22  13  17  1   
 23  14  28  1   
 24  15  18  1   
 25  15  19  1   
 26  15  20  1   
 27  16  29  1   
 28  16  30  1   
 29  17  21  1   
 30  17  22  1   
 31  17  23  1   
 32  18  31  1   
 33  18  32  1   
 34  18  33  1   
 35  19  34  1   
 36  19  35  1   
 37  19  36  1   
 38  20  37  1   
 39  20  38  1   
 40  20  39  1   
@<TRIPOS>SUBSTRUCTURE
  1 ****  10 GROUP 4 **** **** 0

# MOE 2024.06 (io_trps.svl 2023.06)
