@<TRIPOS>MOLECULE
NONAME
41 43 1 0 0 
SMALL
USER_CHARGES


@<TRIPOS>ATOM
  1 CL      -0.7150     1.7820     1.6960 Cl    1 <1>  -0.1770 
  2 C        0.4580     2.4200     0.5680 C.ar  1 <1>   0.1770 
  3 C        0.0680     3.0470    -0.6200 C.ar  1 <1>   0.0860 
  4 C        1.7860     2.2580     0.9160 C.ar  1 <1>  -0.1500 
  5 C       -1.3090     3.2500    -1.0300 C.2   1 <1>   0.5440 
  6 C        1.1020     3.4920    -1.4470 C.ar  1 <1>  -0.1500 
  7 C        2.7980     2.7140     0.0790 C.ar  1 <1>  -0.0230 
  8 O       -1.5950     3.2150    -2.2110 O.2   1 <1>  -0.5700 
  9 N       -2.3000     3.5170    -0.1290 N.am  1 <1>  -0.7300 
 10 C        2.4340     3.3330    -1.1110 C.ar  1 <1>  -0.1500 
 11 N        4.1630     2.5500     0.4280 N.pl3 1 <1>   0.3260 
 12 C       -3.7270     3.7140    -0.4410 C.3   1 <1>   0.2200 
 13 C        5.1690     3.4340     0.3600 C.2   1 <1>   0.0360 
 14 C        4.7920     1.4720     0.9190 C.2   1 <1>   0.0360 
 15 C       -4.1260     5.1000     0.0800 C.3   1 <1>  -0.1600 
 16 C       -4.5070     2.5440     0.1740 C.3   1 <1>  -0.1600 
 17 N        6.2870     2.9430     0.7670 N.2   1 <1>  -0.3380 
 18 N        6.0440     1.6820     1.1270 N.2   1 <1>  -0.3380 
 19 C       -5.6150     5.4510    -0.0770 C.3   1 <1>  -0.1600 
 20 C       -5.9490     2.4620    -0.3500 C.3   1 <1>  -0.1600 
 21 C       -6.5060     4.6860     0.9120 C.3   1 <1>  -0.1600 
 22 C       -6.9720     3.3040     0.4290 C.3   1 <1>  -0.1600 
 23 H        2.0250     1.7730     1.8470 H     1 <1>   0.1500 
 24 H        0.8460     3.9710    -2.3790 H     1 <1>   0.1500 
 25 H       -2.0950     3.4460     0.8680 H     1 <1>   0.3700 
 26 H        3.1930     3.6900    -1.7890 H     1 <1>   0.1500 
 27 H       -3.8620     3.6970    -1.5100 H     1 <1>   0.0800 
 28 H        5.0320     4.4380     0.0050 H     1 <1>   0.1500 
 29 H        4.2850     0.5440     1.1060 H     1 <1>   0.1500 
 30 H       -3.5560     5.8270    -0.4710 H     1 <1>   0.0800 
 31 H       -3.8520     5.1890     1.1160 H     1 <1>   0.0800 
 32 H       -4.4980     2.5970     1.2480 H     1 <1>   0.0800 
 33 H       -4.0100     1.6350    -0.1180 H     1 <1>   0.0800 
 34 H       -5.9420     5.2900    -1.0910 H     1 <1>   0.0800 
 35 H       -5.7230     6.5020     0.1280 H     1 <1>   0.0800 
 36 H       -6.2710     1.4350    -0.3100 H     1 <1>   0.0800 
 37 H       -5.9670     2.7470    -1.3880 H     1 <1>   0.0800 
 38 H       -7.3850     5.2760     1.1090 H     1 <1>   0.0800 
 39 H       -5.9910     4.5810     1.8510 H     1 <1>   0.0800 
 40 H       -7.2930     2.7450     1.2910 H     1 <1>   0.0800 
 41 H       -7.8380     3.4320    -0.1990 H     1 <1>   0.0800 
@<TRIPOS>BOND
  1   1   2  1   
  2   2   3  ar  
  3   2   4  ar  
  4   3   5  1   
  5   3   6  ar  
  6   4   7  ar  
  7   4  23  1   
  8   5   8  2   
  9   5   9  am  
 10   6  10  ar  
 11   6  24  1   
 12   7  10  ar  
 13   7  11  1   
 14   9  12  1   
 15   9  25  1   
 16  10  26  1   
 17  11  13  1   
 18  11  14  1   
 19  12  15  1   
 20  12  16  1   
 21  12  27  1   
 22  13  17  2   
 23  13  28  1   
 24  14  18  2   
 25  14  29  1   
 26  15  19  1   
 27  15  30  1   
 28  15  31  1   
 29  16  20  1   
 30  16  32  1   
 31  16  33  1   
 32  17  18  1   
 33  19  21  1   
 34  19  34  1   
 35  19  35  1   
 36  20  22  1   
 37  20  36  1   
 38  20  37  1   
 39  21  22  1   
 40  21  38  1   
 41  21  39  1   
 42  22  40  1   
 43  22  41  1   
@<TRIPOS>SUBSTRUCTURE
  1 ****   3 GROUP 4 **** **** 0

# MOE 2024.06 (io_trps.svl 2023.06)
