@<TRIPOS>MOLECULE
NONAME
26 26 1 0 0 
SMALL
USER_CHARGES


@<TRIPOS>ATOM
  1 BR      -0.0380    -0.2790    -0.1980 Br    1 <1>  -0.1110 
  2 C        1.5330     0.8320    -0.1300 C.ar  1 <1>   0.1110 
  3 C        2.7720     0.2290    -0.0450 C.ar  1 <1>  -0.1500 
  4 C        1.3790     2.2040    -0.1670 C.ar  1 <1>  -0.1500 
  5 C        3.9060     1.0250     0.0070 C.ar  1 <1>  -0.1440 
  6 C        2.5110     2.9990    -0.1200 C.ar  1 <1>  -0.1500 
  7 C        3.7770     2.4150    -0.0350 C.ar  1 <1>   0.0830 
  8 C        5.2770     0.3740     0.1110 C.3   1 <1>   0.2640 
  9 O        4.9220     3.1480     0.0030 O.3   1 <1>  -0.3630 
 10 O        5.9470     0.6020    -1.0720 O.3   1 <1>  -0.6800 
 11 C        4.9040     4.5570    -0.0040 C.3   1 <1>   0.1200 
 12 C        6.3490     5.0520     0.0610 C.3   1 <1>  -0.1600 
 13 C        6.4150     6.5830     0.0590 C.3   1 <1>  -0.2400 
 14 H        2.8420    -0.8440    -0.0220 H     1 <1>   0.1500 
 15 H        0.3970     2.6360    -0.2330 H     1 <1>   0.1500 
 16 H        2.3860     4.0640    -0.1520 H     1 <1>   0.1500 
 17 H        5.2070    -0.6890     0.2580 H     1 <1>   0.0800 
 18 H        5.8460     0.8110     0.9130 H     1 <1>   0.0800 
 19 H        5.8560     1.5550    -1.2760 H     1 <1>   0.4000 
 20 H        4.3480     4.8940     0.8530 H     1 <1>   0.0800 
 21 H        4.4300     4.8880    -0.9120 H     1 <1>   0.0800 
 22 H        6.8920     4.6740    -0.7870 H     1 <1>   0.0800 
 23 H        6.8100     4.6790     0.9590 H     1 <1>   0.0800 
 24 H        5.9740     6.9790    -0.8390 H     1 <1>   0.0800 
 25 H        7.4400     6.9060     0.1060 H     1 <1>   0.0800 
 26 H        5.8920     6.9850     0.9100 H     1 <1>   0.0800 
@<TRIPOS>BOND
  1   1   2  1   
  2   2   3  ar  
  3   2   4  ar  
  4   3   5  ar  
  5   3  14  1   
  6   4   6  ar  
  7   4  15  1   
  8   5   7  ar  
  9   5   8  1   
 10   6   7  ar  
 11   6  16  1   
 12   7   9  1   
 13   8  10  1   
 14   8  17  1   
 15   8  18  1   
 16   9  11  1   
 17  10  19  1   
 18  11  12  1   
 19  11  20  1   
 20  11  21  1   
 21  12  13  1   
 22  12  22  1   
 23  12  23  1   
 24  13  24  1   
 25  13  25  1   
 26  13  26  1   
@<TRIPOS>SUBSTRUCTURE
  1 ****   7 GROUP 4 **** **** 0

# MOE 2024.06 (io_trps.svl 2023.06)
