@<TRIPOS>MOLECULE
NONAME
45 46 1 0 0 
SMALL
USER_CHARGES


@<TRIPOS>ATOM
  1 O       -0.2700     0.2400     1.0820 O.2   1 <1>  -0.5700 
  2 C       -0.6240     1.3190     0.6720 C.2   1 <1>   0.5690 
  3 N        0.1630     2.3480     0.2610 N.am  1 <1>  -0.6600 
  4 C       -2.0800     1.6690     0.5710 C.3   1 <1>  -0.0990 
  5 C        1.6480     2.4230     0.3820 C.3   1 <1>   0.3000 
  6 C       -0.6670     3.5160    -0.1200 C.3   1 <1>   0.1400 
  7 C       -2.0830     2.9400    -0.2890 C.3   1 <1>  -0.0190 
  8 C        2.1890     3.7480    -0.1750 C.3   1 <1>  -0.2400 
  9 C        2.2780     1.2780    -0.4170 C.3   1 <1>  -0.2400 
 10 C        2.0320     2.3250     1.8600 C.3   1 <1>  -0.2400 
 11 C       -3.2080     3.9250     0.0390 C.2   1 <1>   0.5690 
 12 O       -2.8940     4.9760     0.5510 O.2   1 <1>  -0.5700 
 13 N       -4.5270     3.6490    -0.2520 N.am  1 <1>  -0.6600 
 14 C       -4.9980     2.4210    -0.9590 C.3   1 <1>   0.1400 
 15 C       -5.5480     4.7060     0.0370 C.3   1 <1>   0.1400 
 16 C       -5.5450     1.3970     0.0430 C.3   1 <1>  -0.1600 
 17 C       -6.9920     4.2130     0.2060 C.3   1 <1>  -0.1600 
 18 C       -6.9770     1.6790     0.5180 C.3   1 <1>  -0.1600 
 19 C       -7.1530     3.0450     1.1910 C.3   1 <1>  -0.1600 
 20 H       -2.4560     1.8650     1.5580 H     1 <1>   0.0800 
 21 H       -2.6260     0.8660     0.1140 H     1 <1>   0.0800 
 22 H       -0.3320     3.9610    -1.0410 H     1 <1>   0.0800 
 23 H       -0.6210     4.2420     0.6750 H     1 <1>   0.0800 
 24 H       -2.1650     2.6620    -1.3230 H     1 <1>   0.0800 
 25 H        1.7950     4.5850     0.3710 H     1 <1>   0.0800 
 26 H        1.9500     3.8480    -1.2180 H     1 <1>   0.0800 
 27 H        3.2600     3.7750    -0.0820 H     1 <1>   0.0800 
 28 H        1.9560     1.3180    -1.4410 H     1 <1>   0.0800 
 29 H        2.0060     0.3250    -0.0030 H     1 <1>   0.0800 
 30 H        3.3490     1.3510    -0.3920 H     1 <1>   0.0800 
 31 H        1.5550     3.1070     2.4220 H     1 <1>   0.0800 
 32 H        3.0960     2.4180     1.9770 H     1 <1>   0.0800 
 33 H        1.7380     1.3740     2.2680 H     1 <1>   0.0800 
 34 H       -4.1890     1.9730    -1.5040 H     1 <1>   0.0800 
 35 H       -5.7510     2.6780    -1.6830 H     1 <1>   0.0800 
 36 H       -5.5150     5.4370    -0.7520 H     1 <1>   0.0800 
 37 H       -5.2690     5.2100     0.9480 H     1 <1>   0.0800 
 38 H       -4.8930     1.3370     0.8950 H     1 <1>   0.0800 
 39 H       -5.5420     0.4320    -0.4320 H     1 <1>   0.0800 
 40 H       -7.4150     3.9660    -0.7510 H     1 <1>   0.0800 
 41 H       -7.5610     5.0460     0.5810 H     1 <1>   0.0800 
 42 H       -7.2540     0.9140     1.2230 H     1 <1>   0.0800 
 43 H       -7.6540     1.6010    -0.3160 H     1 <1>   0.0800 
 44 H       -8.1480     3.0840     1.6000 H     1 <1>   0.0800 
 45 H       -6.4630     3.1510     2.0110 H     1 <1>   0.0800 
@<TRIPOS>BOND
  1   1   2  2   
  2   2   3  am  
  3   2   4  1   
  4   3   5  1   
  5   3   6  1   
  6   4   7  1   
  7   4  20  1   
  8   4  21  1   
  9   5   8  1   
 10   5   9  1   
 11   5  10  1   
 12   6   7  1   
 13   6  22  1   
 14   6  23  1   
 15   7  11  1   
 16   7  24  1   
 17   8  25  1   
 18   8  26  1   
 19   8  27  1   
 20   9  28  1   
 21   9  29  1   
 22   9  30  1   
 23  10  31  1   
 24  10  32  1   
 25  10  33  1   
 26  11  12  2   
 27  11  13  am  
 28  13  14  1   
 29  13  15  1   
 30  14  16  1   
 31  14  34  1   
 32  14  35  1   
 33  15  17  1   
 34  15  36  1   
 35  15  37  1   
 36  16  18  1   
 37  16  38  1   
 38  16  39  1   
 39  17  19  1   
 40  17  40  1   
 41  17  41  1   
 42  18  19  1   
 43  18  42  1   
 44  18  43  1   
 45  19  44  1   
 46  19  45  1   
@<TRIPOS>SUBSTRUCTURE
  1 ****   7 GROUP 4 **** **** 0

# MOE 2024.06 (io_trps.svl 2023.06)
