@<TRIPOS>MOLECULE
NONAME
46 46 1 0 0 
SMALL
USER_CHARGES


@<TRIPOS>ATOM
  1 O       -1.9370    -0.9720    -2.0980 O.2   1 <1>  -0.5700 
  2 C       -1.6640    -1.5030    -1.0470 C.2   1 <1>   0.4950 
  3 C       -2.5400    -1.4920     0.0900 C.2   1 <1>   0.0290 
  4 C       -0.3280    -2.2230    -1.0130 C.3   1 <1>  -0.0990 
  5 C       -2.0660    -2.1620     1.2710 C.2   1 <1>   0.4950 
  6 C       -3.7410    -0.8070    -0.0330 C.2   1 <1>  -0.0500 
  7 C       -0.3850    -3.4910    -0.1550 C.3   1 <1>   0.0000 
  8 O       -2.5350    -2.0120     2.3740 O.2   1 <1>  -0.5700 
  9 C       -0.8570    -3.0880     1.2480 C.3   1 <1>  -0.0990 
 10 N       -4.8930    -0.7440     0.7000 N.pl3 1 <1>  -0.8690 
 11 C       -1.3400    -4.5290    -0.7740 C.3   1 <1>  -0.2400 
 12 C        1.0150    -4.1190    -0.0680 C.3   1 <1>  -0.2400 
 13 C       -5.3550    -1.5730     1.8670 C.3   1 <1>   0.2090 
 14 C       -6.7760    -2.1130     1.6210 C.3   1 <1>   0.3430 
 15 N       -6.9190    -2.4780     0.1730 N.4   1 <1>  -0.9590 
 16 C       -8.1040    -1.8250    -0.4370 C.3   1 <1>   0.3430 
 17 C       -6.8780    -3.9430    -0.0920 C.3   1 <1>   0.3430 
 18 C       -7.8910    -1.6940    -1.9410 C.3   1 <1>  -0.2400 
 19 C       -5.4870    -4.4970     0.1930 C.3   1 <1>  -0.2400 
 20 H       -0.0410    -2.4780    -2.0180 H     1 <1>   0.0800 
 21 H        0.4110    -1.5420    -0.6290 H     1 <1>   0.0800 
 22 H       -3.7910    -0.1610    -0.9000 H     1 <1>   0.1500 
 23 H       -0.0620    -2.5750     1.7600 H     1 <1>   0.0800 
 24 H       -1.0830    -3.9690     1.8230 H     1 <1>   0.0800 
 25 H       -5.5320     0.0420     0.4980 H     1 <1>   0.4000 
 26 H       -1.0090    -4.7970    -1.7630 H     1 <1>   0.0800 
 27 H       -2.3450    -4.1600    -0.8500 H     1 <1>   0.0800 
 28 H       -1.3580    -5.4260    -0.1780 H     1 <1>   0.0800 
 29 H        1.7240    -3.4250     0.3490 H     1 <1>   0.0800 
 30 H        1.3630    -4.4050    -1.0450 H     1 <1>   0.0800 
 31 H        0.9990    -4.9970     0.5530 H     1 <1>   0.0800 
 32 H       -4.7230    -2.4280     1.9900 H     1 <1>   0.0800 
 33 H       -5.3150    -0.9950     2.7750 H     1 <1>   0.0800 
 34 H       -7.4810    -1.3410     1.8780 H     1 <1>   0.0800 
 35 H       -6.9640    -2.9640     2.2550 H     1 <1>   0.0800 
 36 H       -6.0720    -2.0470    -0.2530 H     1 <1>   0.4500 
 37 H       -8.9960    -2.3960    -0.2310 H     1 <1>   0.0800 
 38 H       -8.2290    -0.8380    -0.0210 H     1 <1>   0.0800 
 39 H       -7.6130    -4.4530     0.5100 H     1 <1>   0.0800 
 40 H       -7.1100    -4.1280    -1.1280 H     1 <1>   0.0800 
 41 H       -7.8480    -2.6550    -2.4200 H     1 <1>   0.0800 
 42 H       -6.9910    -1.1440    -2.1520 H     1 <1>   0.0800 
 43 H       -8.7170    -1.1530    -2.3670 H     1 <1>   0.0800 
 44 H       -5.2760    -4.5010     1.2460 H     1 <1>   0.0800 
 45 H       -4.7390    -3.9310    -0.3320 H     1 <1>   0.0800 
 46 H       -5.4380    -5.5150    -0.1500 H     1 <1>   0.0800 
@<TRIPOS>BOND
  1   1   2  2   
  2   2   3  1   
  3   2   4  1   
  4   3   5  1   
  5   3   6  2   
  6   4   7  1   
  7   4  20  1   
  8   4  21  1   
  9   5   8  2   
 10   5   9  1   
 11   6  10  1   
 12   6  22  1   
 13   7   9  1   
 14   7  11  1   
 15   7  12  1   
 16   9  23  1   
 17   9  24  1   
 18  10  13  1   
 19  10  25  1   
 20  11  26  1   
 21  11  27  1   
 22  11  28  1   
 23  12  29  1   
 24  12  30  1   
 25  12  31  1   
 26  13  14  1   
 27  13  32  1   
 28  13  33  1   
 29  14  15  1   
 30  14  34  1   
 31  14  35  1   
 32  15  16  1   
 33  15  17  1   
 34  15  36  1   
 35  16  18  1   
 36  16  37  1   
 37  16  38  1   
 38  17  19  1   
 39  17  39  1   
 40  17  40  1   
 41  18  41  1   
 42  18  42  1   
 43  18  43  1   
 44  19  44  1   
 45  19  45  1   
 46  19  46  1   
@<TRIPOS>SUBSTRUCTURE
  1 ****   3 GROUP 4 **** **** 0

# MOE 2024.06 (io_trps.svl 2023.06)
