@<TRIPOS>MOLECULE
NONAME
47 49 1 0 0 
SMALL
USER_CHARGES


@<TRIPOS>ATOM
  1 O       -1.1920     0.5280     0.1430 O.2   1 <1>  -0.5700 
  2 C       -1.0750     1.6740    -0.2410 C.2   1 <1>   0.6900 
  3 N       -1.9810     2.2720    -1.0520 N.am  1 <1>  -0.7300 
  4 N       -0.0200     2.4260     0.1450 N.am  1 <1>  -0.7300 
  5 C       -3.2500     1.7420    -1.6210 C.3   1 <1>   0.2200 
  6 C        1.0740     1.9660     1.0250 C.3   1 <1>   0.1400 
  7 C       -4.4670     1.9580    -0.6630 C.3   1 <1>   0.0000 
  8 C       -3.0510     0.3140    -2.1500 C.3   1 <1>  -0.2400 
  9 C        2.4090     2.1630     0.3060 C.3   1 <1>  -0.1600 
 10 C       -5.7810     1.4980    -1.3480 C.3   1 <1>  -0.1600 
 11 C       -4.3340     1.1890     0.6770 C.3   1 <1>  -0.1600 
 12 C       -4.6140     3.4690    -0.3330 C.3   1 <1>  -0.1600 
 13 C        3.5840     1.7060     1.1770 C.3   1 <1>  -0.2400 
 14 C       -7.0050     1.7520    -0.4490 C.3   1 <1>  -0.0800 
 15 C       -5.5520     1.4390     1.5870 C.3   1 <1>  -0.0800 
 16 C       -5.8310     3.7310     0.5740 C.3   1 <1>  -0.0800 
 17 C       -6.8300     0.9730     0.8680 C.3   1 <1>  -0.1600 
 18 C       -7.1080     3.2560    -0.1420 C.3   1 <1>  -0.1600 
 19 C       -5.6600     2.9450     1.8860 C.3   1 <1>  -0.1600 
 20 H       -1.8950     3.2780    -1.1410 H     1 <1>   0.3700 
 21 H        0.1040     3.3410    -0.2750 H     1 <1>   0.3700 
 22 H       -3.4490     2.3400    -2.4940 H     1 <1>   0.0800 
 23 H        0.9400     0.9250     1.2710 H     1 <1>   0.0800 
 24 H        1.0550     2.5350     1.9390 H     1 <1>   0.0800 
 25 H       -3.0040    -0.3980    -1.3480 H     1 <1>   0.0800 
 26 H       -2.1400     0.2580    -2.7170 H     1 <1>   0.0800 
 27 H       -3.8600     0.0370    -2.7980 H     1 <1>   0.0800 
 28 H        2.5370     3.2030     0.0600 H     1 <1>   0.0800 
 29 H        2.4040     1.5900    -0.6060 H     1 <1>   0.0800 
 30 H       -5.9110     2.0170    -2.2810 H     1 <1>   0.0800 
 31 H       -5.7380     0.4450    -1.5630 H     1 <1>   0.0800 
 32 H       -3.4460     1.5020     1.1960 H     1 <1>   0.0800 
 33 H       -4.2400     0.1340     0.4950 H     1 <1>   0.0800 
 34 H       -4.7210     4.0340    -1.2420 H     1 <1>   0.0800 
 35 H       -3.7340     3.8230     0.1730 H     1 <1>   0.0800 
 36 H        3.6200     2.2730     2.0910 H     1 <1>   0.0800 
 37 H        4.5100     1.8480     0.6490 H     1 <1>   0.0800 
 38 H        3.4860     0.6620     1.4200 H     1 <1>   0.0800 
 39 H       -7.8990     1.4220    -0.9490 H     1 <1>   0.0800 
 40 H       -5.4330     0.8930     2.5070 H     1 <1>   0.0800 
 41 H       -5.9060     4.7830     0.7890 H     1 <1>   0.0800 
 42 H       -6.7680    -0.0820     0.6630 H     1 <1>   0.0800 
 43 H       -7.6840     1.1330     1.5020 H     1 <1>   0.0800 
 44 H       -7.9650     3.4430     0.4810 H     1 <1>   0.0800 
 45 H       -7.2410     3.8070    -1.0560 H     1 <1>   0.0800 
 46 H       -6.5000     3.1280     2.5340 H     1 <1>   0.0800 
 47 H       -4.7740     3.2770     2.3980 H     1 <1>   0.0800 
@<TRIPOS>BOND
  1   1   2  2   
  2   2   3  am  
  3   2   4  am  
  4   3   5  1   
  5   3  20  1   
  6   4   6  1   
  7   4  21  1   
  8   5   7  1   
  9   5   8  1   
 10   5  22  1   
 11   6   9  1   
 12   6  23  1   
 13   6  24  1   
 14   7  10  1   
 15   7  11  1   
 16   7  12  1   
 17   8  25  1   
 18   8  26  1   
 19   8  27  1   
 20   9  13  1   
 21   9  28  1   
 22   9  29  1   
 23  10  14  1   
 24  10  30  1   
 25  10  31  1   
 26  11  15  1   
 27  11  32  1   
 28  11  33  1   
 29  12  16  1   
 30  12  34  1   
 31  12  35  1   
 32  13  36  1   
 33  13  37  1   
 34  13  38  1   
 35  14  17  1   
 36  14  18  1   
 37  14  39  1   
 38  15  17  1   
 39  15  19  1   
 40  15  40  1   
 41  16  18  1   
 42  16  19  1   
 43  16  41  1   
 44  17  42  1   
 45  17  43  1   
 46  18  44  1   
 47  18  45  1   
 48  19  46  1   
 49  19  47  1   
@<TRIPOS>SUBSTRUCTURE
  1 ****   7 GROUP 4 **** **** 0

# MOE 2024.06 (io_trps.svl 2023.06)
