@<TRIPOS>MOLECULE
NONAME
31 33 1 0 0 
SMALL
USER_CHARGES


@<TRIPOS>ATOM
  1 S       -0.2170     0.0540     1.2650 S.3   1 <1>  -0.2860 
  2 C       -1.9110     0.0490     0.7040 C.2   1 <1>   0.2420 
  3 C        0.5450     1.4730     0.3410 C.3   1 <1>   0.2110 
  4 N       -2.3960     0.8950    -0.1350 N.2   1 <1>  -0.5650 
  5 N       -2.7690    -0.8860     1.1650 N.pl3 1 <1>   0.0330 
  6 C        2.0540     1.2890     0.1740 C.2   1 <1>   0.4480 
  7 C        0.2070     2.7610     1.1100 C.3   1 <1>  -0.1600 
  8 C       -3.6960     0.4970    -0.2480 C.ar  1 <1>   0.2270 
  9 C       -3.9480    -0.6070     0.5520 C.ar  1 <1>  -0.1520 
 10 O        2.6470     0.2820     0.4290 O.2   1 <1>  -0.5700 
 11 C        2.7880     2.5060    -0.3640 C.3   1 <1>  -0.0990 
 12 C        0.9080     3.9820     0.4940 C.3   1 <1>  -0.1600 
 13 C       -4.7210     1.0390    -1.0210 C.ar  1 <1>  -0.1500 
 14 C       -5.2130    -1.1950     0.6010 C.ar  1 <1>  -0.1500 
 15 C        2.4280     3.7770     0.4210 C.3   1 <1>  -0.1600 
 16 C       -5.9740     0.4660    -0.9780 C.ar  1 <1>  -0.1500 
 17 C       -6.2180    -0.6500    -0.1670 C.ar  1 <1>  -0.1500 
 18 H        0.0900     1.4850    -0.6320 H     1 <1>   0.0800 
 19 H       -2.5530    -1.6330     1.8270 H     1 <1>   0.2700 
 20 H        0.5230     2.6520     2.1330 H     1 <1>   0.0800 
 21 H       -0.8580     2.9150     1.1030 H     1 <1>   0.0800 
 22 H        2.5270     2.6310    -1.3990 H     1 <1>   0.0800 
 23 H        3.8480     2.3310    -0.3070 H     1 <1>   0.0800 
 24 H        0.6910     4.8540     1.0880 H     1 <1>   0.0800 
 25 H        0.5190     4.1570    -0.4960 H     1 <1>   0.0800 
 26 H       -4.5080     1.8950    -1.6350 H     1 <1>   0.1500 
 27 H       -5.3930    -2.0520     1.2270 H     1 <1>   0.1500 
 28 H        2.8880     4.6320    -0.0450 H     1 <1>   0.0800 
 29 H        2.8230     3.6970     1.4210 H     1 <1>   0.0800 
 30 H       -6.7760     0.8730    -1.5690 H     1 <1>   0.1500 
 31 H       -7.2060    -1.0780    -0.1520 H     1 <1>   0.1500 
@<TRIPOS>BOND
  1   1   2  1   
  2   1   3  1   
  3   2   4  2   
  4   2   5  1   
  5   3   6  1   
  6   3   7  1   
  7   3  18  1   
  8   4   8  1   
  9   5   9  1   
 10   5  19  1   
 11   6  10  2   
 12   6  11  1   
 13   7  12  1   
 14   7  20  1   
 15   7  21  1   
 16   8   9  ar  
 17   8  13  ar  
 18   9  14  ar  
 19  11  15  1   
 20  11  22  1   
 21  11  23  1   
 22  12  15  1   
 23  12  24  1   
 24  12  25  1   
 25  13  16  ar  
 26  13  26  1   
 27  14  17  ar  
 28  14  27  1   
 29  15  28  1   
 30  15  29  1   
 31  16  17  ar  
 32  16  30  1   
 33  17  31  1   
@<TRIPOS>SUBSTRUCTURE
  1 ****   4 GROUP 4 **** **** 0

# MOE 2024.06 (io_trps.svl 2023.06)
