@<TRIPOS>MOLECULE
NONAME
44 45 1 0 0 
SMALL
USER_CHARGES


@<TRIPOS>ATOM
  1 I        1.3460     0.8710    -1.1760 I     1 <1>  -0.0810 
  2 C        1.0320    -1.0850    -0.3700 C.ar  1 <1>   0.0810 
  3 C        2.1170    -1.8900    -0.0350 C.ar  1 <1>   0.0830 
  4 C       -0.2790    -1.4950    -0.2060 C.ar  1 <1>  -0.1500 
  5 O        3.3770    -1.4130    -0.2270 O.3   1 <1>  -0.3630 
  6 C        1.8500    -3.1550     0.4860 C.ar  1 <1>  -0.1500 
  7 C       -0.5210    -2.7550     0.3120 C.ar  1 <1>  -0.1500 
  8 C        4.5160    -2.1740     0.0890 C.3   1 <1>   0.1200 
  9 C        0.5400    -3.5780     0.6560 C.ar  1 <1>  -0.1500 
 10 C        5.7390    -1.3230    -0.2580 C.3   1 <1>  -0.1600 
 11 C        7.0550    -2.0560     0.0410 C.3   1 <1>  -0.1600 
 12 C        8.2490    -1.1660    -0.3140 C.3   1 <1>   0.3430 
 13 N        9.5290    -1.8240     0.0680 N.4   1 <1>  -0.9590 
 14 C       10.6370    -0.8260     0.0960 C.3   1 <1>   0.3430 
 15 C        9.8650    -2.9780    -0.8220 C.3   1 <1>   0.3430 
 16 C       11.9100    -1.4810     0.6330 C.3   1 <1>  -0.1600 
 17 C       11.1220    -3.6780    -0.3060 C.3   1 <1>  -0.1600 
 18 C       12.3080    -2.7090    -0.1990 C.3   1 <1>  -0.0800 
 19 C       13.5240    -3.4090     0.4170 C.3   1 <1>  -0.2400 
 20 H       -1.0930    -0.8460    -0.4770 H     1 <1>   0.1500 
 21 H        2.6400    -3.8240     0.7650 H     1 <1>   0.1500 
 22 H       -1.5330    -3.0950     0.4490 H     1 <1>   0.1500 
 23 H        4.4920    -3.0770    -0.4970 H     1 <1>   0.0800 
 24 H        4.4880    -2.4050     1.1400 H     1 <1>   0.0800 
 25 H        0.3430    -4.5570     1.0590 H     1 <1>   0.1500 
 26 H        5.6920    -0.4120     0.3150 H     1 <1>   0.0800 
 27 H        5.6920    -1.0710    -1.3040 H     1 <1>   0.0800 
 28 H        7.0800    -2.9640    -0.5360 H     1 <1>   0.0800 
 29 H        7.0860    -2.3030     1.0880 H     1 <1>   0.0800 
 30 H        8.1510    -0.2340     0.2200 H     1 <1>   0.0800 
 31 H        8.2440    -0.9470    -1.3700 H     1 <1>   0.0800 
 32 H        9.4310    -2.1910     1.0240 H     1 <1>   0.4500 
 33 H       10.3710     0.0060     0.7290 H     1 <1>   0.0800 
 34 H       10.8180    -0.4520    -0.8990 H     1 <1>   0.0800 
 35 H       10.0350    -2.6260    -1.8270 H     1 <1>   0.0800 
 36 H        9.0510    -3.6840    -0.8430 H     1 <1>   0.0800 
 37 H       11.7610    -1.7590     1.6620 H     1 <1>   0.0800 
 38 H       12.7090    -0.7600     0.6070 H     1 <1>   0.0800 
 39 H       11.3750    -4.4770    -0.9820 H     1 <1>   0.0800 
 40 H       10.9140    -4.1220     0.6520 H     1 <1>   0.0800 
 41 H       12.5760    -2.3820    -1.1910 H     1 <1>   0.0800 
 42 H       13.3080    -3.7570     1.4120 H     1 <1>   0.0800 
 43 H       14.3600    -2.7330     0.4660 H     1 <1>   0.0800 
 44 H       13.8140    -4.2540    -0.1830 H     1 <1>   0.0800 
@<TRIPOS>BOND
  1   1   2  1   
  2   2   3  ar  
  3   2   4  ar  
  4   3   5  1   
  5   3   6  ar  
  6   4   7  ar  
  7   4  20  1   
  8   5   8  1   
  9   6   9  ar  
 10   6  21  1   
 11   7   9  ar  
 12   7  22  1   
 13   8  10  1   
 14   8  23  1   
 15   8  24  1   
 16   9  25  1   
 17  10  11  1   
 18  10  26  1   
 19  10  27  1   
 20  11  12  1   
 21  11  28  1   
 22  11  29  1   
 23  12  13  1   
 24  12  30  1   
 25  12  31  1   
 26  13  14  1   
 27  13  15  1   
 28  13  32  1   
 29  14  16  1   
 30  14  33  1   
 31  14  34  1   
 32  15  17  1   
 33  15  35  1   
 34  15  36  1   
 35  16  18  1   
 36  16  37  1   
 37  16  38  1   
 38  17  18  1   
 39  17  39  1   
 40  17  40  1   
 41  18  19  1   
 42  18  41  1   
 43  19  42  1   
 44  19  43  1   
 45  19  44  1   
@<TRIPOS>SUBSTRUCTURE
  1 ****  10 GROUP 4 **** **** 0

# MOE 2024.06 (io_trps.svl 2023.06)
