@<TRIPOS>MOLECULE
NONAME
43 44 1 0 0 
SMALL
USER_CHARGES


@<TRIPOS>ATOM
  1 O        1.0450    -9.0640     1.6460 O.3   1 <1>  -0.5600 
  2 C        2.1740    -9.5960     1.0150 C.3   1 <1>   0.1200 
  3 C        1.0600    -7.6730     1.7920 C.3   1 <1>   0.1200 
  4 C        2.3190    -9.0140    -0.4050 C.3   1 <1>   0.3430 
  5 C        1.1350    -6.9950     0.4120 C.3   1 <1>   0.3430 
  6 N        2.2970    -7.5120    -0.3900 N.4   1 <1>  -0.9590 
  7 C        2.3720    -6.9130    -1.7620 C.3   1 <1>   0.3430 
  8 C        2.7140    -5.4130    -1.7160 C.3   1 <1>   0.1200 
  9 O        3.5060    -5.1540    -0.5720 O.3   1 <1>  -0.3630 
 10 C        4.7090    -4.5630    -0.7580 C.ar  1 <1>   0.0820 
 11 C        5.8650    -5.3360    -0.6600 C.ar  1 <1>  -0.1440 
 12 C        4.7820    -3.1950    -1.0160 C.ar  1 <1>  -0.1440 
 13 C        7.0970    -4.7260    -0.8380 C.ar  1 <1>  -0.1500 
 14 C        5.8090    -6.8340    -0.3780 C.3   1 <1>   0.1220 
 15 C        6.0240    -2.6120    -1.1980 C.ar  1 <1>  -0.1500 
 16 C        3.5410    -2.3150    -1.0850 C.3   1 <1>  -0.0970 
 17 C        7.1760    -3.3730    -1.1100 C.ar  1 <1>  -0.1500 
 18 C        5.2850    -7.1350     1.0200 C.2   1 <1>  -0.2880 
 19 C        5.5860    -8.2280     1.7280 C.2   1 <1>  -0.3000 
 20 H        2.0500   -10.6630     0.9670 H     1 <1>   0.0800 
 21 H        3.0410    -9.3790     1.6150 H     1 <1>   0.0800 
 22 H        1.9000    -7.3960     2.4070 H     1 <1>   0.0800 
 23 H        0.1550    -7.3870     2.2980 H     1 <1>   0.0800 
 24 H        1.5060    -9.3840    -1.0070 H     1 <1>   0.0800 
 25 H        3.2420    -9.3650    -0.8380 H     1 <1>   0.0800 
 26 H        1.2270    -5.9290     0.5470 H     1 <1>   0.0800 
 27 H        0.2130    -7.1880    -0.1120 H     1 <1>   0.0800 
 28 H        3.1480    -7.1850     0.1030 H     1 <1>   0.4500 
 29 H        1.4450    -7.0610    -2.2920 H     1 <1>   0.0800 
 30 H        3.1470    -7.4100    -2.3220 H     1 <1>   0.0800 
 31 H        1.8190    -4.8230    -1.6340 H     1 <1>   0.0800 
 32 H        3.2460    -5.1160    -2.6040 H     1 <1>   0.0800 
 33 H        8.0070    -5.2960    -0.7650 H     1 <1>   0.1500 
 34 H        6.7860    -7.2710    -0.4900 H     1 <1>   0.0800 
 35 H        5.1750    -7.2960    -1.1090 H     1 <1>   0.0800 
 36 H        6.1070    -1.5590    -1.4040 H     1 <1>   0.1500 
 37 H        2.8420    -2.5910    -0.3160 H     1 <1>   0.0800 
 38 H        3.0700    -2.4150    -2.0460 H     1 <1>   0.0800 
 39 H        3.8010    -1.2810    -0.9390 H     1 <1>   0.0800 
 40 H        8.1370    -2.9080    -1.2490 H     1 <1>   0.1500 
 41 H        4.6530    -6.3550     1.4130 H     1 <1>   0.1500 
 42 H        5.2260    -8.4160     2.7270 H     1 <1>   0.1500 
 43 H        6.2280    -9.0210     1.3830 H     1 <1>   0.1500 
@<TRIPOS>BOND
  1   1   2  1   
  2   1   3  1   
  3   2   4  1   
  4   2  20  1   
  5   2  21  1   
  6   3   5  1   
  7   3  22  1   
  8   3  23  1   
  9   4   6  1   
 10   4  24  1   
 11   4  25  1   
 12   5   6  1   
 13   5  26  1   
 14   5  27  1   
 15   6   7  1   
 16   6  28  1   
 17   7   8  1   
 18   7  29  1   
 19   7  30  1   
 20   8   9  1   
 21   8  31  1   
 22   8  32  1   
 23   9  10  1   
 24  10  11  ar  
 25  10  12  ar  
 26  11  13  ar  
 27  11  14  1   
 28  12  15  ar  
 29  12  16  1   
 30  13  17  ar  
 31  13  33  1   
 32  14  18  1   
 33  14  34  1   
 34  14  35  1   
 35  15  17  ar  
 36  15  36  1   
 37  16  37  1   
 38  16  38  1   
 39  16  39  1   
 40  17  40  1   
 41  18  19  2   
 42  18  41  1   
 43  19  42  1   
 44  19  43  1   
@<TRIPOS>SUBSTRUCTURE
  1 ****   9 GROUP 4 **** **** 0

# MOE 2024.06 (io_trps.svl 2023.06)
