@<TRIPOS>MOLECULE
NONAME
43 44 1 0 0 
SMALL
USER_CHARGES


@<TRIPOS>ATOM
  1 S       -0.2000    -0.5240     0.4400 S.o2  1 <1>   1.4470 
  2 O        1.1350     0.0360     0.4950 O.2   1 <1>  -0.6500 
  3 O       -0.7400    -1.1010     1.6510 O.2   1 <1>  -0.6500 
  4 N       -0.2030    -1.7010    -0.7890 N.am  1 <1>  -0.8490 
  5 C       -1.3150     0.7590    -0.1960 C.ar  1 <1>  -0.0090 
  6 C       -1.2640    -2.7170    -0.8550 C.3   1 <1>   0.2760 
  7 C        1.1350    -2.2070    -1.1920 C.3   1 <1>   0.2570 
  8 C       -1.2320     1.1930    -1.5140 C.ar  1 <1>  -0.1500 
  9 C       -2.2730     1.3490     0.6200 C.ar  1 <1>  -0.1500 
 10 C       -2.6730    -2.1060    -0.8100 C.3   1 <1>  -0.1600 
 11 C       -1.1080    -3.8370     0.1900 C.3   1 <1>  -0.1600 
 12 C        1.8350    -1.3710    -2.2760 C.2   1 <1>   0.5690 
 13 C       -2.0800     2.1730    -2.0030 C.ar  1 <1>  -0.1500 
 14 C       -3.1240     2.3290     0.1380 C.ar  1 <1>  -0.1500 
 15 C       -3.7440    -3.1880    -1.0090 C.3   1 <1>  -0.1600 
 16 C       -2.1820    -4.9190    -0.0070 C.3   1 <1>  -0.1600 
 17 O        1.9460    -1.8160    -3.3910 O.2   1 <1>  -0.5700 
 18 N        2.3380    -0.1530    -1.9920 N.am  1 <1>  -0.8000 
 19 C       -3.0330     2.7450    -1.1790 C.ar  1 <1>  -0.1430 
 20 C       -3.5920    -4.3130     0.0240 C.3   1 <1>  -0.1600 
 21 C       -3.9620     3.8200    -1.7120 C.3   1 <1>  -0.0970 
 22 H       -1.1800    -3.1840    -1.8230 H     1 <1>   0.0800 
 23 H        1.0430    -3.2010    -1.5920 H     1 <1>   0.0800 
 24 H        1.7760    -2.2750    -0.3300 H     1 <1>   0.0800 
 25 H       -0.4980     0.7570    -2.1700 H     1 <1>   0.1500 
 26 H       -2.3570     1.0350     1.6470 H     1 <1>   0.1500 
 27 H       -2.7730    -1.3670    -1.5850 H     1 <1>   0.0800 
 28 H       -2.8480    -1.6400     0.1430 H     1 <1>   0.0800 
 29 H       -1.2130    -3.4430     1.1840 H     1 <1>   0.0800 
 30 H       -0.1400    -4.2950     0.1110 H     1 <1>   0.0800 
 31 H       -1.9920     2.4870    -3.0290 H     1 <1>   0.1500 
 32 H       -3.8560     2.7660     0.7940 H     1 <1>   0.1500 
 33 H       -3.6600    -3.5990    -2.0010 H     1 <1>   0.0800 
 34 H       -4.7220    -2.7460    -0.9190 H     1 <1>   0.0800 
 35 H       -2.0930    -5.6590     0.7700 H     1 <1>   0.0800 
 36 H       -2.0260    -5.4120    -0.9510 H     1 <1>   0.0800 
 37 H        2.8080     0.4000    -2.7070 H     1 <1>   0.3700 
 38 H        2.2310     0.2680    -1.0570 H     1 <1>   0.3700 
 39 H       -4.3190    -5.0820    -0.1720 H     1 <1>   0.0800 
 40 H       -3.7870    -3.9200     1.0080 H     1 <1>   0.0800 
 41 H       -3.5080     4.7860    -1.5920 H     1 <1>   0.0800 
 42 H       -4.8970     3.8070    -1.1810 H     1 <1>   0.0800 
 43 H       -4.1640     3.6580    -2.7560 H     1 <1>   0.0800 
@<TRIPOS>BOND
  1   1   2  2   
  2   1   3  2   
  3   1   4  am  
  4   1   5  1   
  5   4   6  1   
  6   4   7  1   
  7   5   8  ar  
  8   5   9  ar  
  9   6  10  1   
 10   6  11  1   
 11   6  22  1   
 12   7  12  1   
 13   7  23  1   
 14   7  24  1   
 15   8  13  ar  
 16   8  25  1   
 17   9  14  ar  
 18   9  26  1   
 19  10  15  1   
 20  10  27  1   
 21  10  28  1   
 22  11  16  1   
 23  11  29  1   
 24  11  30  1   
 25  12  17  2   
 26  12  18  am  
 27  13  19  ar  
 28  13  31  1   
 29  14  19  ar  
 30  14  32  1   
 31  15  20  1   
 32  15  33  1   
 33  15  34  1   
 34  16  20  1   
 35  16  35  1   
 36  16  36  1   
 37  18  37  1   
 38  18  38  1   
 39  19  21  1   
 40  20  39  1   
 41  20  40  1   
 42  21  41  1   
 43  21  42  1   
 44  21  43  1   
@<TRIPOS>SUBSTRUCTURE
  1 ****   4 GROUP 4 **** **** 0

# MOE 2024.06 (io_trps.svl 2023.06)
