@<TRIPOS>MOLECULE
NONAME
44 46 1 0 0 
SMALL
USER_CHARGES


@<TRIPOS>ATOM
  1 O       -0.1230    -0.9820    -0.2990 O.co2 1 <1>  -0.9000 
  2 C        0.2370    -0.4260     0.7440 C.2   1 <1>   0.9060 
  3 O       -0.5230     0.2710     1.4230 O.co2 1 <1>  -0.9000 
  4 C        1.6510    -0.6470     1.2360 C.3   1 <1>  -0.2660 
  5 C        2.6910     0.3860     0.7480 C.3   1 <1>   0.0000 
  6 C        4.0690     0.0320     1.3490 C.3   1 <1>  -0.1600 
  7 C        2.8170     0.3670    -0.7900 C.3   1 <1>  -0.1600 
  8 C        2.3130     1.8130     1.1960 C.3   1 <1>  -0.1600 
  9 C        5.1770     1.0250     0.9080 C.3   1 <1>   0.0000 
 10 C        3.8850     1.3710    -1.2590 C.3   1 <1>  -0.0800 
 11 C        3.3760     2.8240     0.7350 C.3   1 <1>  -0.0800 
 12 C        6.5350     0.6580     1.5890 C.3   1 <1>   0.2200 
 13 C        5.2460     1.0000    -0.6400 C.3   1 <1>  -0.1600 
 14 C        4.7360     2.4460     1.3490 C.3   1 <1>  -0.1600 
 15 C        3.4840     2.7840    -0.7990 C.3   1 <1>  -0.1600 
 16 N        7.6030     1.6560     1.2950 N.am  1 <1>  -0.7300 
 17 C        7.0500    -0.7670     1.3450 C.3   1 <1>  -0.2400 
 18 C        8.4890     1.7070     0.2670 C.2   1 <1>   0.5690 
 19 O        8.5630     0.8840    -0.6100 O.2   1 <1>  -0.5700 
 20 C        9.4240     2.8860     0.2250 C.3   1 <1>  -0.1790 
 21 H        1.9420    -1.6300     0.9220 H     1 <1>   0.0800 
 22 H        1.6120    -0.6430     2.3070 H     1 <1>   0.0800 
 23 H        4.3220    -0.9630     1.0330 H     1 <1>   0.0800 
 24 H        3.9950     0.0260     2.4220 H     1 <1>   0.0800 
 25 H        1.8690     0.6180    -1.2360 H     1 <1>   0.0800 
 26 H        3.0720    -0.6230    -1.1230 H     1 <1>   0.0800 
 27 H        2.2100     1.8450     2.2660 H     1 <1>   0.0800 
 28 H        1.3590     2.0850     0.7770 H     1 <1>   0.0800 
 29 H        3.9550     1.3450    -2.3330 H     1 <1>   0.0800 
 30 H        3.0920     3.8120     1.0530 H     1 <1>   0.0800 
 31 H        6.3620     0.7190     2.6500 H     1 <1>   0.0800 
 32 H        5.5310     0.0230    -0.9860 H     1 <1>   0.0800 
 33 H        5.9880     1.6940    -0.9900 H     1 <1>   0.0800 
 34 H        5.4620     3.1740     1.0370 H     1 <1>   0.0800 
 35 H        4.6620     2.4900     2.4210 H     1 <1>   0.0800 
 36 H        4.2140     3.4990    -1.1360 H     1 <1>   0.0800 
 37 H        2.5360     3.0480    -1.2340 H     1 <1>   0.0800 
 38 H        7.5760     2.4540     1.9260 H     1 <1>   0.3700 
 39 H        7.1170    -0.9860     0.2960 H     1 <1>   0.0800 
 40 H        6.3940    -1.4870     1.7970 H     1 <1>   0.0800 
 41 H        8.0230    -0.8870     1.7860 H     1 <1>   0.0800 
 42 H        9.9710     2.9500     1.1470 H     1 <1>   0.0800 
 43 H        8.8620     3.7880     0.0730 H     1 <1>   0.0800 
 44 H       10.1200     2.7680    -0.5850 H     1 <1>   0.0800 
@<TRIPOS>BOND
  1   1   2  ar  
  2   2   3  ar  
  3   2   4  1   
  4   4   5  1   
  5   4  21  1   
  6   4  22  1   
  7   5   6  1   
  8   5   7  1   
  9   5   8  1   
 10   6   9  1   
 11   6  23  1   
 12   6  24  1   
 13   7  10  1   
 14   7  25  1   
 15   7  26  1   
 16   8  11  1   
 17   8  27  1   
 18   8  28  1   
 19   9  12  1   
 20   9  13  1   
 21   9  14  1   
 22  10  13  1   
 23  10  15  1   
 24  10  29  1   
 25  11  14  1   
 26  11  15  1   
 27  11  30  1   
 28  12  16  1   
 29  12  17  1   
 30  12  31  1   
 31  13  32  1   
 32  13  33  1   
 33  14  34  1   
 34  14  35  1   
 35  15  36  1   
 36  15  37  1   
 37  16  18  am  
 38  16  38  1   
 39  17  39  1   
 40  17  40  1   
 41  17  41  1   
 42  18  19  2   
 43  18  20  1   
 44  20  42  1   
 45  20  43  1   
 46  20  44  1   
@<TRIPOS>SUBSTRUCTURE
  1 ****   9 GROUP 4 **** **** 0

# MOE 2024.06 (io_trps.svl 2023.06)
