@<TRIPOS>MOLECULE
NONAME
32 31 1 0 0 
SMALL
USER_CHARGES


@<TRIPOS>ATOM
  1 F       -1.5370     1.0740     1.3710 F     1 <1>  -0.3400 
  2 C       -0.2120     1.1140     1.4750 C.3   1 <1>   1.0200 
  3 F        0.0530     1.3880     2.7470 F     1 <1>  -0.3400 
  4 F        0.1840    -0.1490     1.3230 F     1 <1>  -0.3400 
  5 C        0.4910     2.0550     0.4440 C.3   1 <1>   0.3000 
  6 N        1.9770     1.6670     0.3270 N.am  1 <1>  -0.7300 
  7 C        0.2320     3.5020     1.0020 C.3   1 <1>   1.0200 
  8 C       -0.1360     1.9030    -0.9850 C.3   1 <1>  -0.1600 
  9 C        2.9480     2.3330    -0.3260 C.2   1 <1>   0.6900 
 10 F        0.4110     4.4650     0.1080 F     1 <1>  -0.3400 
 11 F        1.0200     3.8180     2.0260 F     1 <1>  -0.3400 
 12 F       -1.0100     3.6950     1.4340 F     1 <1>  -0.3400 
 13 C        0.0010     0.5240    -1.6580 C.3   1 <1>  -0.2400 
 14 O        2.7030     3.3400    -0.9510 O.2   1 <1>  -0.5700 
 15 N        4.1970     1.8290    -0.2680 N.am  1 <1>  -0.7300 
 16 C        5.3730     2.4310    -0.9300 C.3   1 <1>   0.1400 
 17 C        6.3330     1.3320    -1.3940 C.3   1 <1>  -0.1600 
 18 C        6.9040     0.4930    -0.2400 C.3   1 <1>  -0.2400 
 19 H        2.2000     0.7180     0.6280 H     1 <1>   0.3700 
 20 H        0.3150     2.6280    -1.6410 H     1 <1>   0.0800 
 21 H       -1.1830     2.1530    -0.9430 H     1 <1>   0.0800 
 22 H        1.0340     0.2330    -1.7420 H     1 <1>   0.0800 
 23 H       -0.4080     0.5700    -2.6530 H     1 <1>   0.0800 
 24 H       -0.5370    -0.2360    -1.1190 H     1 <1>   0.0800 
 25 H        4.4080     1.0900     0.3970 H     1 <1>   0.3700 
 26 H        5.8700     3.0900    -0.2380 H     1 <1>   0.0800 
 27 H        5.0530     3.0130    -1.7780 H     1 <1>   0.0800 
 28 H        7.1500     1.8000    -1.9150 H     1 <1>   0.0800 
 29 H        5.8280     0.6940    -2.0980 H     1 <1>   0.0800 
 30 H        7.3850     1.1280     0.4840 H     1 <1>   0.0800 
 31 H        7.6320    -0.2010    -0.6200 H     1 <1>   0.0800 
 32 H        6.1290    -0.0690     0.2490 H     1 <1>   0.0800 
@<TRIPOS>BOND
  1   1   2  1   
  2   2   3  1   
  3   2   4  1   
  4   2   5  1   
  5   5   6  1   
  6   5   7  1   
  7   5   8  1   
  8   6   9  am  
  9   6  19  1   
 10   7  10  1   
 11   7  11  1   
 12   7  12  1   
 13   8  13  1   
 14   8  20  1   
 15   8  21  1   
 16   9  14  2   
 17   9  15  am  
 18  13  22  1   
 19  13  23  1   
 20  13  24  1   
 21  15  16  1   
 22  15  25  1   
 23  16  17  1   
 24  16  26  1   
 25  16  27  1   
 26  17  18  1   
 27  17  28  1   
 28  17  29  1   
 29  18  30  1   
 30  18  31  1   
 31  18  32  1   
@<TRIPOS>SUBSTRUCTURE
  1 ****   6 GROUP 4 **** **** 0

# MOE 2024.06 (io_trps.svl 2023.06)
