@<TRIPOS>MOLECULE
NONAME
48 50 1 0 0 
SMALL
USER_CHARGES


@<TRIPOS>ATOM
  1 O        0.0170    -2.0340    -0.4610 O.2   1 <1>  -0.5700 
  2 C       -0.7980    -2.3320     0.3910 C.2   1 <1>   0.5440 
  3 N       -0.3320    -2.9360     1.5290 N.am  1 <1>  -0.7300 
  4 C       -2.2120    -2.0500     0.2120 C.ar  1 <1>   0.0860 
  5 C        1.1020    -3.1660     1.8620 C.3   1 <1>   0.1400 
  6 C       -3.2060    -2.7970     0.8480 C.ar  1 <1>  -0.1500 
  7 C       -2.6370    -1.0080    -0.6130 C.ar  1 <1>  -0.1500 
  8 C        1.8110    -4.0150     0.7830 C.3   1 <1>   0.3430 
  9 C       -4.5470    -2.5070     0.6780 C.ar  1 <1>  -0.1500 
 10 C       -3.9780    -0.7190    -0.7830 C.ar  1 <1>  -0.1500 
 11 N        3.1150    -3.4300     0.3220 N.4   1 <1>  -0.9590 
 12 C       -4.9610    -1.4610    -0.1390 C.ar  1 <1>   0.0000 
 13 C        2.8880    -2.1700    -0.4570 C.3   1 <1>   0.3430 
 14 C        3.8640    -4.4240    -0.4980 C.3   1 <1>   0.3430 
 15 C       -6.3630    -1.1570    -0.3120 C.ar  1 <1>   0.0000 
 16 C        4.2320    -1.5450    -0.8340 C.3   1 <1>  -0.1600 
 17 C        5.2360    -3.8580    -0.8710 C.3   1 <1>  -0.1600 
 18 C       -7.2490    -2.1130    -0.8030 C.ar  1 <1>  -0.1500 
 19 C       -6.8690     0.1000     0.0070 C.ar  1 <1>  -0.1500 
 20 C        5.1130    -2.5250    -1.6200 C.3   1 <1>  -0.1600 
 21 C       -8.5920    -1.8250    -0.9680 C.ar  1 <1>  -0.1500 
 22 C       -8.2110     0.3940    -0.1570 C.ar  1 <1>  -0.1500 
 23 C       -9.0760    -0.5700    -0.6440 C.ar  1 <1>  -0.1500 
 24 H       -0.9880    -3.0260     2.3110 H     1 <1>   0.3700 
 25 H        1.1590    -3.6810     2.8060 H     1 <1>   0.0800 
 26 H        1.5820    -2.2100     1.9720 H     1 <1>   0.0800 
 27 H       -2.9350    -3.6240     1.4790 H     1 <1>   0.1500 
 28 H       -1.9010    -0.4150    -1.1290 H     1 <1>   0.1500 
 29 H        1.1530    -4.1150    -0.0650 H     1 <1>   0.0800 
 30 H        1.9830    -4.9990     1.1860 H     1 <1>   0.0800 
 31 H       -5.2920    -3.0970     1.1840 H     1 <1>   0.1500 
 32 H       -4.2730     0.0900    -1.4280 H     1 <1>   0.1500 
 33 H        3.6970    -3.1920     1.1330 H     1 <1>   0.4500 
 34 H        2.3140    -1.4670     0.1250 H     1 <1>   0.0800 
 35 H        2.3250    -2.3910    -1.3500 H     1 <1>   0.0800 
 36 H        3.3100    -4.6450    -1.3970 H     1 <1>   0.0800 
 37 H        3.9930    -5.3400     0.0560 H     1 <1>   0.0800 
 38 H        4.7410    -1.2250     0.0580 H     1 <1>   0.0800 
 39 H        4.0520    -0.6690    -1.4330 H     1 <1>   0.0800 
 40 H        5.7510    -4.5680    -1.4940 H     1 <1>   0.0800 
 41 H        5.8240    -3.7260     0.0200 H     1 <1>   0.0800 
 42 H       -6.8790    -3.0890    -1.0610 H     1 <1>   0.1500 
 43 H       -6.2030     0.8520     0.3900 H     1 <1>   0.1500 
 44 H        6.0900    -2.0970    -1.7750 H     1 <1>   0.0800 
 45 H        4.6750    -2.6980    -2.5900 H     1 <1>   0.0800 
 46 H       -9.2620    -2.5760    -1.3490 H     1 <1>   0.1500 
 47 H       -8.5840     1.3710     0.0960 H     1 <1>   0.1500 
 48 H      -10.1200    -0.3440    -0.7720 H     1 <1>   0.1500 
@<TRIPOS>BOND
  1   1   2  2   
  2   2   3  am  
  3   2   4  1   
  4   3   5  1   
  5   3  24  1   
  6   4   6  ar  
  7   4   7  ar  
  8   5   8  1   
  9   5  25  1   
 10   5  26  1   
 11   6   9  ar  
 12   6  27  1   
 13   7  10  ar  
 14   7  28  1   
 15   8  11  1   
 16   8  29  1   
 17   8  30  1   
 18   9  12  ar  
 19   9  31  1   
 20  10  12  ar  
 21  10  32  1   
 22  11  13  1   
 23  11  14  1   
 24  11  33  1   
 25  12  15  1   
 26  13  16  1   
 27  13  34  1   
 28  13  35  1   
 29  14  17  1   
 30  14  36  1   
 31  14  37  1   
 32  15  18  ar  
 33  15  19  ar  
 34  16  20  1   
 35  16  38  1   
 36  16  39  1   
 37  17  20  1   
 38  17  40  1   
 39  17  41  1   
 40  18  21  ar  
 41  18  42  1   
 42  19  22  ar  
 43  19  43  1   
 44  20  44  1   
 45  20  45  1   
 46  21  23  ar  
 47  21  46  1   
 48  22  23  ar  
 49  22  47  1   
 50  23  48  1   
@<TRIPOS>SUBSTRUCTURE
  1 ****   4 GROUP 4 **** **** 0

# MOE 2024.06 (io_trps.svl 2023.06)
