@<TRIPOS>MOLECULE
NONAME
43 44 1 0 0 
SMALL
USER_CHARGES


@<TRIPOS>ATOM
  1 O        1.0570     0.6870    -0.3250 O.2   1 <1>  -0.5700 
  2 C        0.9950     1.5930     0.4640 C.2   1 <1>   0.5690 
  3 N       -0.0230     1.6420     1.3430 N.am  1 <1>  -0.8000 
  4 C        2.0580     2.6890     0.4770 C.3   1 <1>  -0.0190 
  5 C        1.9280     3.6030    -0.7550 C.3   1 <1>  -0.1600 
  6 C        3.4800     2.0990     0.5460 C.3   1 <1>  -0.1600 
  7 C        3.0080     4.6880    -0.7710 C.3   1 <1>   0.1400 
  8 C        4.5490     3.1930     0.5180 C.3   1 <1>   0.1400 
  9 N        4.3550     4.0580    -0.6810 N.am  1 <1>  -0.6600 
 10 C        5.3240     4.3150    -1.6260 C.2   1 <1>   0.5690 
 11 O        5.1150     5.0520    -2.5630 O.2   1 <1>  -0.5700 
 12 C        6.7000     3.6550    -1.5660 C.3   1 <1>   0.1810 
 13 O        7.4080     4.0340    -0.3950 O.3   1 <1>  -0.3630 
 14 C        8.5640     3.4170    -0.0480 C.ar  1 <1>   0.0820 
 15 C        9.2480     2.5320    -0.8770 C.ar  1 <1>  -0.1500 
 16 C        9.0640     3.6990     1.2130 C.ar  1 <1>  -0.1500 
 17 C       10.4160     1.9300    -0.4380 C.ar  1 <1>  -0.1430 
 18 C       10.2330     3.1030     1.6570 C.ar  1 <1>  -0.1430 
 19 C       10.9010     2.2180     0.8270 C.ar  1 <1>  -0.1500 
 20 C       11.1700     0.9630    -1.3340 C.3   1 <1>  -0.0970 
 21 C       10.7820     3.4100     3.0380 C.3   1 <1>  -0.0970 
 22 H       -0.7280     0.9040     1.3180 H     1 <1>   0.3700 
 23 H       -0.1560     2.3770     2.0350 H     1 <1>   0.3700 
 24 H        1.9080     3.2890     1.3560 H     1 <1>   0.0800 
 25 H        0.9580     4.0690    -0.7610 H     1 <1>   0.0800 
 26 H        2.0130     3.0160    -1.6540 H     1 <1>   0.0800 
 27 H        3.6400     1.4370    -0.2880 H     1 <1>   0.0800 
 28 H        3.5870     1.5190     1.4450 H     1 <1>   0.0800 
 29 H        2.8780     5.3530     0.0650 H     1 <1>   0.0800 
 30 H        2.9170     5.2680    -1.6730 H     1 <1>   0.0800 
 31 H        5.5200     2.7320     0.5210 H     1 <1>   0.0800 
 32 H        4.4740     3.8040     1.4020 H     1 <1>   0.0800 
 33 H        7.2800     3.9570    -2.4180 H     1 <1>   0.0800 
 34 H        6.5790     2.5880    -1.5650 H     1 <1>   0.0800 
 35 H        8.8900     2.3080    -1.8630 H     1 <1>   0.1500 
 36 H        8.5290     4.3880     1.8380 H     1 <1>   0.1500 
 37 H       11.8090     1.7530     1.1680 H     1 <1>   0.1500 
 38 H       10.5280     0.5730    -2.1030 H     1 <1>   0.0800 
 39 H       11.5450     0.1370    -0.7560 H     1 <1>   0.0800 
 40 H       11.9980     1.4680    -1.7970 H     1 <1>   0.0800 
 41 H       10.3090     4.2830     3.4520 H     1 <1>   0.0800 
 42 H       11.8400     3.5920     2.9830 H     1 <1>   0.0800 
 43 H       10.6040     2.5770     3.6930 H     1 <1>   0.0800 
@<TRIPOS>BOND
  1   1   2  2   
  2   2   3  am  
  3   2   4  1   
  4   3  22  1   
  5   3  23  1   
  6   4   5  1   
  7   4   6  1   
  8   4  24  1   
  9   5   7  1   
 10   5  25  1   
 11   5  26  1   
 12   6   8  1   
 13   6  27  1   
 14   6  28  1   
 15   7   9  1   
 16   7  29  1   
 17   7  30  1   
 18   8   9  1   
 19   8  31  1   
 20   8  32  1   
 21   9  10  am  
 22  10  11  2   
 23  10  12  1   
 24  12  13  1   
 25  12  33  1   
 26  12  34  1   
 27  13  14  1   
 28  14  15  ar  
 29  14  16  ar  
 30  15  17  ar  
 31  15  35  1   
 32  16  18  ar  
 33  16  36  1   
 34  17  19  ar  
 35  17  20  1   
 36  18  19  ar  
 37  18  21  1   
 38  19  37  1   
 39  20  38  1   
 40  20  39  1   
 41  20  40  1   
 42  21  41  1   
 43  21  42  1   
 44  21  43  1   
@<TRIPOS>SUBSTRUCTURE
  1 ****   8 GROUP 4 **** **** 0

# MOE 2024.06 (io_trps.svl 2023.06)
