@<TRIPOS>MOLECULE
NONAME
49 50 1 0 0 
SMALL
USER_CHARGES


@<TRIPOS>ATOM
  1 O       -0.2600    -0.2880    -0.1060 O.2   1 <1>  -0.5700 
  2 C        0.5010    -1.2350    -0.1460 C.2   1 <1>   0.6900 
  3 N        1.8460    -1.1060     0.0140 N.am  1 <1>  -0.5470 
  4 N        0.0170    -2.4850    -0.3540 N.am  1 <1>  -0.7300 
  5 C        2.6930    -0.0180     0.2900 C.ar  1 <1>   0.1170 
  6 C       -1.4130    -2.7980    -0.5780 C.3   1 <1>   0.1400 
  7 C        4.0750    -0.2250     0.2000 C.ar  1 <1>   0.0830 
  8 C        2.2280     1.2420     0.6530 C.ar  1 <1>  -0.1500 
  9 C       -2.1140    -3.0340     0.7600 C.3   1 <1>  -0.0170 
 10 O        4.4940    -1.4790    -0.1510 O.3   1 <1>  -0.3630 
 11 C        4.9560     0.8200     0.4650 C.ar  1 <1>  -0.1500 
 12 C        3.1080     2.2760     0.9140 C.ar  1 <1>  -0.1500 
 13 C       -3.5860    -3.3350     0.5330 C.ar  1 <1>  -0.1430 
 14 C        5.8620    -1.7720    -0.3190 C.3   1 <1>   0.1200 
 15 C        4.4710     2.0670     0.8200 C.ar  1 <1>  -0.1500 
 16 C       -4.4770    -2.2950     0.3190 C.ar  1 <1>  -0.1500 
 17 C       -4.0490    -4.6400     0.5320 C.ar  1 <1>  -0.1500 
 18 C        5.9830    -3.2340    -0.7380 C.3   1 <1>  -0.2400 
 19 C       -5.8290    -2.5480     0.1020 C.ar  1 <1>   0.0830 
 20 C       -5.3900    -4.9070     0.3180 C.ar  1 <1>  -0.1500 
 21 O       -6.7350    -1.5500    -0.1140 O.3   1 <1>  -0.3630 
 22 C       -6.2900    -3.8680     0.1010 C.ar  1 <1>   0.0830 
 23 C       -6.3530    -0.1940    -0.1350 C.3   1 <1>   0.0400 
 24 O       -7.6200    -4.0840    -0.1160 O.3   1 <1>  -0.3630 
 25 C       -8.1720    -5.3810    -0.1150 C.3   1 <1>   0.0400 
 26 H        2.3800    -1.9480    -0.1870 H     1 <1>   0.3700 
 27 H        0.6460    -3.2800    -0.2720 H     1 <1>   0.3700 
 28 H       -1.4980    -3.6730    -1.2000 H     1 <1>   0.0800 
 29 H       -1.8850    -1.9760    -1.0900 H     1 <1>   0.0800 
 30 H        1.1730     1.4270     0.7360 H     1 <1>   0.1500 
 31 H       -2.0210    -2.1530     1.3700 H     1 <1>   0.0800 
 32 H       -1.6470    -3.8530     1.2760 H     1 <1>   0.0800 
 33 H        6.0190     0.6890     0.4030 H     1 <1>   0.1500 
 34 H        2.7280     3.2450     1.1920 H     1 <1>   0.1500 
 35 H        6.3660    -1.6020     0.6170 H     1 <1>   0.0800 
 36 H        6.2590    -1.1240    -1.0820 H     1 <1>   0.0800 
 37 H        5.1540     2.8730     1.0240 H     1 <1>   0.1500 
 38 H       -4.0970    -1.2910     0.3250 H     1 <1>   0.1500 
 39 H       -3.3680    -5.4570     0.6970 H     1 <1>   0.1500 
 40 H        5.5720    -3.8720     0.0240 H     1 <1>   0.0800 
 41 H        7.0180    -3.4870    -0.8750 H     1 <1>   0.0800 
 42 H        5.4650    -3.3970    -1.6660 H     1 <1>   0.0800 
 43 H       -5.7110    -5.9310     0.3240 H     1 <1>   0.1500 
 44 H       -7.2320     0.3960    -0.3230 H     1 <1>   0.0800 
 45 H       -5.6370    -0.0440    -0.9230 H     1 <1>   0.0800 
 46 H       -5.9370     0.0660     0.8230 H     1 <1>   0.0800 
 47 H       -9.2270    -5.2930    -0.2980 H     1 <1>   0.0800 
 48 H       -8.0040    -5.8310     0.8470 H     1 <1>   0.0800 
 49 H       -7.7120    -5.9560    -0.8990 H     1 <1>   0.0800 
@<TRIPOS>BOND
  1   1   2  2   
  2   2   3  am  
  3   2   4  am  
  4   3   5  1   
  5   3  26  1   
  6   4   6  1   
  7   4  27  1   
  8   5   7  ar  
  9   5   8  ar  
 10   6   9  1   
 11   6  28  1   
 12   6  29  1   
 13   7  10  1   
 14   7  11  ar  
 15   8  12  ar  
 16   8  30  1   
 17   9  13  1   
 18   9  31  1   
 19   9  32  1   
 20  10  14  1   
 21  11  15  ar  
 22  11  33  1   
 23  12  15  ar  
 24  12  34  1   
 25  13  16  ar  
 26  13  17  ar  
 27  14  18  1   
 28  14  35  1   
 29  14  36  1   
 30  15  37  1   
 31  16  19  ar  
 32  16  38  1   
 33  17  20  ar  
 34  17  39  1   
 35  18  40  1   
 36  18  41  1   
 37  18  42  1   
 38  19  21  1   
 39  19  22  ar  
 40  20  22  ar  
 41  20  43  1   
 42  21  23  1   
 43  22  24  1   
 44  23  44  1   
 45  23  45  1   
 46  23  46  1   
 47  24  25  1   
 48  25  47  1   
 49  25  48  1   
 50  25  49  1   
@<TRIPOS>SUBSTRUCTURE
  1 ****   4 GROUP 4 **** **** 0

# MOE 2024.06 (io_trps.svl 2023.06)
