@<TRIPOS>MOLECULE
NONAME
35 37 1 0 0 
SMALL
USER_CHARGES


@<TRIPOS>ATOM
  1 O        0.5070    -0.5490    -2.2860 O.2   1 <1>  -0.5700 
  2 C        0.9700    -1.2930    -1.4560 C.2   1 <1>   0.6590 
  3 O        0.2650    -2.2910    -0.9500 O.3   1 <1>  -0.4300 
  4 C        2.3940    -1.1110    -0.9340 C.3   1 <1>  -0.0190 
  5 C       -0.8210    -2.8230    -1.6640 C.3   1 <1>   0.2640 
  6 C        3.3990    -2.2950    -1.1660 C.3   1 <1>  -0.1860 
  7 C        2.4470    -0.9080     0.5960 C.3   1 <1>   0.0580 
  8 C       -1.4690    -3.9110    -0.8220 C.ar  1 <1>  -0.1440 
  9 C        2.7980    -3.5240    -1.8350 C.2   1 <1>   0.9060 
 10 C        3.9370    -2.5670     0.2570 C.3   1 <1>   0.0580 
 11 C        3.8290    -0.3490     0.8870 C.2   1 <1>  -0.2880 
 12 C        2.6820    -2.3350     1.0910 C.3   1 <1>  -0.1600 
 13 C       -0.7370    -5.0390    -0.4880 C.ar  1 <1>  -0.1500 
 14 C       -2.7800    -3.7950    -0.3850 C.ar  1 <1>  -0.1500 
 15 O        2.7810    -4.6100    -1.2440 O.co2 1 <1>  -0.9000 
 16 O        2.3480    -3.4010    -2.9770 O.co2 1 <1>  -0.9000 
 17 C        4.7090    -1.3260     0.6780 C.2   1 <1>  -0.2880 
 18 C       -1.3090    -6.0440     0.2720 C.ar  1 <1>  -0.1500 
 19 C       -3.3540    -4.8010     0.3760 C.ar  1 <1>  -0.1500 
 20 C       -2.6180    -5.9270     0.7040 C.ar  1 <1>  -0.1500 
 21 H        2.7840    -0.2330    -1.4140 H     1 <1>   0.0800 
 22 H       -0.4370    -3.2360    -2.5830 H     1 <1>   0.0800 
 23 H       -1.5130    -2.0300    -1.8840 H     1 <1>   0.0800 
 24 H        4.2040    -1.9720    -1.7970 H     1 <1>   0.0800 
 25 H        1.6230    -0.3880     1.0530 H     1 <1>   0.0800 
 26 H        4.4310    -3.5100     0.4230 H     1 <1>   0.0800 
 27 H        3.9620     0.6780     1.1780 H     1 <1>   0.1500 
 28 H        1.8910    -3.0230     0.8470 H     1 <1>   0.0800 
 29 H        2.8860    -2.3740     2.1460 H     1 <1>   0.0800 
 30 H        0.2880    -5.1300    -0.8220 H     1 <1>   0.1500 
 31 H       -3.3560    -2.9220    -0.6350 H     1 <1>   0.1500 
 32 H        5.7820    -1.3480     0.7440 H     1 <1>   0.1500 
 33 H       -0.7250    -6.9120     0.5230 H     1 <1>   0.1500 
 34 H       -4.3710    -4.7060     0.7120 H     1 <1>   0.1500 
 35 H       -3.0610    -6.7090     1.2950 H     1 <1>   0.1500 
@<TRIPOS>BOND
  1   1   2  2   
  2   2   3  1   
  3   2   4  1   
  4   3   5  1   
  5   4   6  1   
  6   4   7  1   
  7   4  21  1   
  8   5   8  1   
  9   5  22  1   
 10   5  23  1   
 11   6   9  1   
 12   6  10  1   
 13   6  24  1   
 14   7  11  1   
 15   7  12  1   
 16   7  25  1   
 17   8  13  ar  
 18   8  14  ar  
 19   9  15  ar  
 20   9  16  ar  
 21  10  12  1   
 22  10  17  1   
 23  10  26  1   
 24  11  17  2   
 25  11  27  1   
 26  12  28  1   
 27  12  29  1   
 28  13  18  ar  
 29  13  30  1   
 30  14  19  ar  
 31  14  31  1   
 32  17  32  1   
 33  18  20  ar  
 34  18  33  1   
 35  19  20  ar  
 36  19  34  1   
 37  20  35  1   
@<TRIPOS>SUBSTRUCTURE
  1 ****   3 GROUP 4 **** **** 0

# MOE 2024.06 (io_trps.svl 2023.06)
