@<TRIPOS>MOLECULE
NONAME
47 50 1 0 0 
SMALL
USER_CHARGES


@<TRIPOS>ATOM
  1 O       -0.3600    -0.3050    -1.0950 O.2   1 <1>  -0.5700 
  2 C       -0.2420    -1.4350    -0.6500 C.2   1 <1>   0.7150 
  3 N        1.0240    -1.8410    -0.2650 N.am  1 <1>  -0.6600 
  4 C       -1.4170    -2.2840    -0.5370 C.2   1 <1>   0.0550 
  5 C        1.2720    -3.0550     0.5760 C.3   1 <1>   0.1400 
  6 C        2.2250    -1.0130    -0.6020 C.3   1 <1>   0.1400 
  7 O       -1.2980    -3.6190    -0.6460 O.3   1 <1>  -0.2800 
  8 C       -2.7300    -1.9730    -0.3460 C.2   1 <1>  -0.1810 
  9 C        2.5510    -2.9320     1.4200 C.3   1 <1>   0.1400 
 10 C        3.5100    -1.8530    -0.6730 C.3   1 <1>   0.1400 
 11 C       -2.5060    -4.1620    -0.5280 C.ar  1 <1>   0.1400 
 12 C       -3.4550    -3.1790    -0.3370 C.ar  1 <1>   0.0000 
 13 C       -3.3910    -0.6160    -0.1690 C.3   1 <1>  -0.0590 
 14 N        3.7560    -2.6380     0.5800 N.am  1 <1>  -0.6600 
 15 C       -2.8380    -5.5100    -0.5800 C.ar  1 <1>  -0.1500 
 16 C       -4.7950    -3.5440    -0.1900 C.ar  1 <1>  -0.1500 
 17 C        4.9920    -3.1410     0.9240 C.2   1 <1>   0.5690 
 18 C       -4.1640    -5.8630    -0.4330 C.ar  1 <1>  -0.1500 
 19 C       -5.1390    -4.8790    -0.2380 C.ar  1 <1>  -0.1500 
 20 O        5.1240    -3.7840     1.9440 O.2   1 <1>  -0.5700 
 21 C        6.2400    -2.8790     0.0380 C.3   1 <1>   0.2610 
 22 O        6.0260    -3.2810    -1.2900 O.3   1 <1>  -0.5600 
 23 C        7.5020    -3.6540     0.4230 C.3   1 <1>  -0.1600 
 24 C        6.3280    -4.6330    -1.4310 C.3   1 <1>   0.1200 
 25 C        7.3670    -4.9510    -0.3590 C.3   1 <1>  -0.1600 
 26 H        1.3580    -3.9150    -0.0650 H     1 <1>   0.0800 
 27 H        0.4380    -3.2140     1.2370 H     1 <1>   0.0800 
 28 H        2.3410    -0.2460     0.1430 H     1 <1>   0.0800 
 29 H        2.0740    -0.5290    -1.5520 H     1 <1>   0.0800 
 30 H        2.6960    -3.8520     1.9600 H     1 <1>   0.0800 
 31 H        2.4260    -2.1440     2.1410 H     1 <1>   0.0800 
 32 H        4.3400    -1.1960    -0.8620 H     1 <1>   0.0800 
 33 H        3.4350    -2.5350    -1.5020 H     1 <1>   0.0800 
 34 H       -2.6600     0.1690    -0.1150 H     1 <1>   0.0800 
 35 H       -3.9680    -0.6060     0.7380 H     1 <1>   0.0800 
 36 H       -4.0440    -0.4190    -1.0000 H     1 <1>   0.0800 
 37 H       -2.0680    -6.2430    -0.7330 H     1 <1>   0.1500 
 38 H       -5.5390    -2.7820    -0.0420 H     1 <1>   0.1500 
 39 H       -4.4570    -6.8980    -0.4680 H     1 <1>   0.1500 
 40 H       -6.1680    -5.1760    -0.1260 H     1 <1>   0.1500 
 41 H        6.4400    -1.8230     0.0390 H     1 <1>   0.0800 
 42 H        7.5950    -3.8110     1.4830 H     1 <1>   0.0800 
 43 H        8.3610    -3.1060     0.0790 H     1 <1>   0.0800 
 44 H        6.7030    -4.8000    -2.4260 H     1 <1>   0.0800 
 45 H        5.4230    -5.1970    -1.2760 H     1 <1>   0.0800 
 46 H        7.0020    -5.7430     0.2730 H     1 <1>   0.0800 
 47 H        8.3030    -5.2530    -0.7960 H     1 <1>   0.0800 
@<TRIPOS>BOND
  1   1   2  2   
  2   2   3  am  
  3   2   4  1   
  4   3   5  1   
  5   3   6  1   
  6   4   7  1   
  7   4   8  2   
  8   5   9  1   
  9   5  26  1   
 10   5  27  1   
 11   6  10  1   
 12   6  28  1   
 13   6  29  1   
 14   7  11  1   
 15   8  12  1   
 16   8  13  1   
 17   9  14  1   
 18   9  30  1   
 19   9  31  1   
 20  10  14  1   
 21  10  32  1   
 22  10  33  1   
 23  11  12  ar  
 24  11  15  ar  
 25  12  16  ar  
 26  13  34  1   
 27  13  35  1   
 28  13  36  1   
 29  14  17  am  
 30  15  18  ar  
 31  15  37  1   
 32  16  19  ar  
 33  16  38  1   
 34  17  20  2   
 35  17  21  1   
 36  18  19  ar  
 37  18  39  1   
 38  19  40  1   
 39  21  22  1   
 40  21  23  1   
 41  21  41  1   
 42  22  24  1   
 43  23  25  1   
 44  23  42  1   
 45  23  43  1   
 46  24  25  1   
 47  24  44  1   
 48  24  45  1   
 49  25  46  1   
 50  25  47  1   
@<TRIPOS>SUBSTRUCTURE
  1 ****   5 GROUP 4 **** **** 0

# MOE 2024.06 (io_trps.svl 2023.06)
