@<TRIPOS>MOLECULE
NONAME
38 40 1 0 0 
SMALL
USER_CHARGES


@<TRIPOS>ATOM
  1 CL       0.2650     0.1800    -0.8600 Cl    1 <1>  -0.1770 
  2 C        2.0060     0.1220    -0.7360 C.ar  1 <1>   0.1770 
  3 C        2.6630     1.0700     0.0270 C.ar  1 <1>  -0.1500 
  4 C        2.7020    -0.8700    -1.4010 C.ar  1 <1>  -0.1500 
  5 C        4.0440     1.0200     0.1230 C.ar  1 <1>  -0.1500 
  6 C        4.0820    -0.9120    -1.2990 C.ar  1 <1>  -0.1500 
  7 C        4.7690     0.0310    -0.5370 C.ar  1 <1>   0.1170 
  8 N        6.1780    -0.0110    -0.4360 N.am  1 <1>  -0.2370 
  9 C        6.8080    -1.0980     0.1670 C.2   1 <1>   0.5690 
 10 C        6.9370     1.0140    -0.9850 C.2   1 <1>   0.5690 
 11 O        6.1870    -2.0470     0.5830 O.2   1 <1>  -0.5700 
 12 C        8.3530    -1.0750     0.3270 C.3   1 <1>   0.0610 
 13 O        6.4630     1.9320    -1.6060 O.2   1 <1>  -0.5700 
 14 C        8.4510     0.9900    -0.7740 C.3   1 <1>  -0.0190 
 15 C        8.9800    -0.4460    -0.9470 C.3   1 <1>   0.0000 
 16 C        8.6730    -0.0380     1.4280 C.3   1 <1>  -0.1600 
 17 C        8.9320    -2.4620     0.6920 C.3   1 <1>  -0.2400 
 18 C        8.7310     1.3180     0.7050 C.3   1 <1>  -0.1600 
 19 C        8.5520    -1.1130    -2.2780 C.3   1 <1>  -0.2400 
 20 C       10.5310    -0.4480    -0.9550 C.3   1 <1>  -0.2400 
 21 H        2.1000     1.8330     0.5330 H     1 <1>   0.1500 
 22 H        2.1680    -1.5970    -1.9860 H     1 <1>   0.1500 
 23 H        4.5640     1.7570     0.7090 H     1 <1>   0.1500 
 24 H        4.6310    -1.6850    -1.8070 H     1 <1>   0.1500 
 25 H        8.9250     1.6900    -1.4400 H     1 <1>   0.0800 
 26 H        9.6260    -0.2440     1.8840 H     1 <1>   0.0800 
 27 H        7.9240    -0.0450     2.2030 H     1 <1>   0.0800 
 28 H        8.7280    -3.1690    -0.0920 H     1 <1>   0.0800 
 29 H        8.4760    -2.8260     1.5960 H     1 <1>   0.0800 
 30 H        9.9940    -2.4200     0.8530 H     1 <1>   0.0800 
 31 H        8.0100     2.0150     1.1020 H     1 <1>   0.0800 
 32 H        9.7110     1.7510     0.8110 H     1 <1>   0.0800 
 33 H        7.4890    -1.1860    -2.4070 H     1 <1>   0.0800 
 34 H        8.9490    -2.1120    -2.3360 H     1 <1>   0.0800 
 35 H        8.9410    -0.5550    -3.1110 H     1 <1>   0.0800 
 36 H       10.9560    -0.0640    -0.0470 H     1 <1>   0.0800 
 37 H       10.8970     0.1550    -1.7670 H     1 <1>   0.0800 
 38 H       10.9080    -1.4450    -1.0960 H     1 <1>   0.0800 
@<TRIPOS>BOND
  1   1   2  1   
  2   2   3  ar  
  3   2   4  ar  
  4   3   5  ar  
  5   3  21  1   
  6   4   6  ar  
  7   4  22  1   
  8   5   7  ar  
  9   5  23  1   
 10   6   7  ar  
 11   6  24  1   
 12   7   8  1   
 13   8   9  am  
 14   8  10  am  
 15   9  11  2   
 16   9  12  1   
 17  10  13  2   
 18  10  14  1   
 19  12  15  1   
 20  12  16  1   
 21  12  17  1   
 22  14  15  1   
 23  14  18  1   
 24  14  25  1   
 25  15  19  1   
 26  15  20  1   
 27  16  18  1   
 28  16  26  1   
 29  16  27  1   
 30  17  28  1   
 31  17  29  1   
 32  17  30  1   
 33  18  31  1   
 34  18  32  1   
 35  19  33  1   
 36  19  34  1   
 37  19  35  1   
 38  20  36  1   
 39  20  37  1   
 40  20  38  1   
@<TRIPOS>SUBSTRUCTURE
  1 ****   8 GROUP 4 **** **** 0

# MOE 2024.06 (io_trps.svl 2023.06)
