@<TRIPOS>MOLECULE
NONAME
51 53 1 0 0 
SMALL
USER_CHARGES


@<TRIPOS>ATOM
  1 O       -0.3150     1.2300    -2.1310 O.2   1 <1>  -0.5700 
  2 C       -0.3030     1.7580    -1.0420 C.2   1 <1>   0.5690 
  3 N        0.7710     1.6470    -0.1960 N.am  1 <1>  -0.5470 
  4 C       -1.5270     2.6060    -0.5960 C.3   1 <1>   0.2050 
  5 C        2.0330     1.0370    -0.3020 C.ar  1 <1>   0.1170 
  6 C       -2.5490     1.6730     0.0990 C.ar  1 <1>  -0.1440 
  7 C       -2.1220     3.3430    -1.8250 C.3   1 <1>  -0.1600 
  8 C       -1.1340     3.7310     0.3980 C.3   1 <1>  -0.1600 
  9 C        3.0100     1.4000     0.6310 C.ar  1 <1>   0.0830 
 10 C        2.3480     0.0940    -1.2730 C.ar  1 <1>  -0.1500 
 11 C       -2.1700     0.9840     1.2480 C.ar  1 <1>  -0.1500 
 12 C       -3.8460     1.4770    -0.3720 C.ar  1 <1>  -0.1500 
 13 C       -1.1390     4.3780    -2.3800 C.3   1 <1>   0.1200 
 14 C       -0.2160     4.7750    -0.2550 C.3   1 <1>   0.1200 
 15 O        2.6570     2.3260     1.5760 O.3   1 <1>  -0.3630 
 16 C        4.2750     0.8250     0.5700 C.ar  1 <1>  -0.1500 
 17 C        3.6070    -0.4790    -1.3330 C.ar  1 <1>  -0.1430 
 18 C       -3.0500     0.1450     1.9060 C.ar  1 <1>  -0.1500 
 19 C       -4.7310     0.6380     0.2840 C.ar  1 <1>  -0.1500 
 20 O       -0.8470     5.3000    -1.3770 O.3   1 <1>  -0.5600 
 21 C        3.5930     2.7860     2.5280 C.3   1 <1>   0.0400 
 22 C        4.5690    -0.1090    -0.4090 C.ar  1 <1>  -0.1500 
 23 C        3.9300    -1.5040    -2.4060 C.3   1 <1>  -0.0970 
 24 C       -4.3370    -0.0340     1.4340 C.ar  1 <1>   0.0830 
 25 O       -5.1400    -0.8720     2.1370 O.3   1 <1>  -0.3620 
 26 C       -6.4600    -1.1400     1.7210 C.3   1 <1>   0.0400 
 27 H        0.7050     2.1820     0.6680 H     1 <1>   0.3700 
 28 H       -3.0210     3.8640    -1.5490 H     1 <1>   0.0800 
 29 H       -2.3690     2.6400    -2.6000 H     1 <1>   0.0800 
 30 H       -0.6560     3.3370     1.2750 H     1 <1>   0.0800 
 31 H       -2.0250     4.2330     0.7330 H     1 <1>   0.0800 
 32 H        1.6040    -0.2010    -1.9900 H     1 <1>   0.1500 
 33 H       -1.1790     1.0840     1.6510 H     1 <1>   0.1500 
 34 H       -4.2020     1.9650    -1.2600 H     1 <1>   0.1500 
 35 H       -1.5820     4.9150    -3.2010 H     1 <1>   0.0800 
 36 H       -0.2210     3.9240    -2.7180 H     1 <1>   0.0800 
 37 H        0.7290     4.3550    -0.5580 H     1 <1>   0.0800 
 38 H       -0.0300     5.5900     0.4240 H     1 <1>   0.0800 
 39 H        5.0460     1.0840     1.2690 H     1 <1>   0.1500 
 40 H       -2.7430    -0.3800     2.7920 H     1 <1>   0.1500 
 41 H       -5.7200     0.5200    -0.1170 H     1 <1>   0.1500 
 42 H        3.1070     3.5150     3.1510 H     1 <1>   0.0800 
 43 H        4.4210     3.2400     2.0130 H     1 <1>   0.0800 
 44 H        3.9200     1.9550     3.1270 H     1 <1>   0.0800 
 45 H        5.5510    -0.5460    -0.4500 H     1 <1>   0.1500 
 46 H        3.0370    -2.0150    -2.7190 H     1 <1>   0.0800 
 47 H        4.6250    -2.2340    -2.0320 H     1 <1>   0.0800 
 48 H        4.3630    -1.0120    -3.2580 H     1 <1>   0.0800 
 49 H       -6.8960    -1.8300     2.4210 H     1 <1>   0.0800 
 50 H       -6.4340    -1.5820     0.7410 H     1 <1>   0.0800 
 51 H       -7.0180    -0.2210     1.7170 H     1 <1>   0.0800 
@<TRIPOS>BOND
  1   1   2  2   
  2   2   3  am  
  3   2   4  1   
  4   3   5  1   
  5   3  27  1   
  6   4   6  1   
  7   4   7  1   
  8   4   8  1   
  9   5   9  ar  
 10   5  10  ar  
 11   6  11  ar  
 12   6  12  ar  
 13   7  13  1   
 14   7  28  1   
 15   7  29  1   
 16   8  14  1   
 17   8  30  1   
 18   8  31  1   
 19   9  15  1   
 20   9  16  ar  
 21  10  17  ar  
 22  10  32  1   
 23  11  18  ar  
 24  11  33  1   
 25  12  19  ar  
 26  12  34  1   
 27  13  20  1   
 28  13  35  1   
 29  13  36  1   
 30  14  20  1   
 31  14  37  1   
 32  14  38  1   
 33  15  21  1   
 34  16  22  ar  
 35  16  39  1   
 36  17  22  ar  
 37  17  23  1   
 38  18  24  ar  
 39  18  40  1   
 40  19  24  ar  
 41  19  41  1   
 42  21  42  1   
 43  21  43  1   
 44  21  44  1   
 45  22  45  1   
 46  23  46  1   
 47  23  47  1   
 48  23  48  1   
 49  24  25  1   
 50  25  26  1   
 51  26  49  1   
 52  26  50  1   
 53  26  51  1   
@<TRIPOS>SUBSTRUCTURE
  1 ****   2 GROUP 4 **** **** 0

# MOE 2024.06 (io_trps.svl 2023.06)
