@<TRIPOS>MOLECULE
NONAME
49 51 1 0 0 
SMALL
USER_CHARGES


@<TRIPOS>ATOM
  1 O        0.2130     1.7150    -2.5380 O.2   1 <1>  -0.5700 
  2 C        0.3220     1.9350    -1.3560 C.2   1 <1>   0.5690 
  3 N        1.5000     1.6930    -0.6950 N.am  1 <1>  -0.6600 
  4 C       -0.9010     2.5070    -0.6500 C.3   1 <1>  -0.0990 
  5 C        2.7090     1.2450    -1.4620 C.3   1 <1>   0.3200 
  6 C        1.7330     1.8970     0.7650 C.3   1 <1>   0.0600 
  7 C       -2.0060     1.4590    -0.4130 C.3   1 <1>  -0.0800 
  8 C        3.8690     2.2200    -1.3170 C.2   1 <1>   0.2980 
  9 C       -3.2690     2.1350     0.1500 C.3   1 <1>  -0.1600 
 10 C       -1.5460     0.3250     0.5230 C.3   1 <1>  -0.1600 
 11 O        3.7530     3.4110    -1.8420 O.3   1 <1>  -0.0190 
 12 N        4.9660     1.9930    -0.7160 N.2   1 <1>  -0.5650 
 13 C       -4.3920     1.1170     0.3920 C.3   1 <1>  -0.1600 
 14 C       -2.6670    -0.6950     0.7600 C.3   1 <1>  -0.1600 
 15 N        4.8730     3.9940    -1.5490 N.2   1 <1>  -0.4100 
 16 C        5.5940     3.1620    -0.8860 C.2   1 <1>   0.4620 
 17 C       -3.9260    -0.0160     1.3140 C.3   1 <1>  -0.1600 
 18 C        6.9280     3.4220    -0.3670 C.ar  1 <1>   0.0540 
 19 C        7.6560     2.4450     0.3160 C.ar  1 <1>  -0.1500 
 20 C        7.5370     4.6670    -0.5340 C.ar  1 <1>  -0.1500 
 21 C        8.9260     2.6900     0.8120 C.ar  1 <1>  -0.1440 
 22 C        8.8040     4.9240    -0.0440 C.ar  1 <1>  -0.1500 
 23 C        9.4990     3.9360     0.6280 C.ar  1 <1>  -0.1500 
 24 C        9.6930     1.6070     1.5500 C.3   1 <1>  -0.0970 
 25 H       -1.2930     3.2780    -1.2880 H     1 <1>   0.0800 
 26 H       -0.6300     2.9810     0.2730 H     1 <1>   0.0800 
 27 H        2.4870     1.1370    -2.5090 H     1 <1>   0.0800 
 28 H        3.0150     0.2820    -1.0950 H     1 <1>   0.0800 
 29 H        0.8340     1.7260     1.3270 H     1 <1>   0.0800 
 30 H        2.0750     2.9030     0.9400 H     1 <1>   0.0800 
 31 H        2.4820     1.2100     1.1200 H     1 <1>   0.0800 
 32 H       -2.2570     1.0250    -1.3680 H     1 <1>   0.0800 
 33 H       -3.6180     2.8840    -0.5400 H     1 <1>   0.0800 
 34 H       -3.0330     2.6260     1.0790 H     1 <1>   0.0800 
 35 H       -1.2470     0.7370     1.4700 H     1 <1>   0.0800 
 36 H       -0.6990    -0.1840     0.0960 H     1 <1>   0.0800 
 37 H       -4.7050     0.7030    -0.5510 H     1 <1>   0.0800 
 38 H       -5.2400     1.6130     0.8310 H     1 <1>   0.0800 
 39 H       -2.3300    -1.4480     1.4500 H     1 <1>   0.0800 
 40 H       -2.9060    -1.1830    -0.1700 H     1 <1>   0.0800 
 41 H       -4.7130    -0.7440     1.4160 H     1 <1>   0.0800 
 42 H       -3.7160     0.3820     2.2910 H     1 <1>   0.0800 
 43 H        7.2160     1.4740     0.4590 H     1 <1>   0.1500 
 44 H        7.0100     5.4470    -1.0550 H     1 <1>   0.1500 
 45 H        9.2510     5.8920    -0.1870 H     1 <1>   0.1500 
 46 H       10.4860     4.1410     1.0060 H     1 <1>   0.1500 
 47 H        9.0350     0.8150     1.8580 H     1 <1>   0.0800 
 48 H       10.1630     2.0170     2.4250 H     1 <1>   0.0800 
 49 H       10.4510     1.1970     0.9070 H     1 <1>   0.0800 
@<TRIPOS>BOND
  1   1   2  2   
  2   2   3  am  
  3   2   4  1   
  4   3   5  1   
  5   3   6  1   
  6   4   7  1   
  7   4  25  1   
  8   4  26  1   
  9   5   8  1   
 10   5  27  1   
 11   5  28  1   
 12   6  29  1   
 13   6  30  1   
 14   6  31  1   
 15   7   9  1   
 16   7  10  1   
 17   7  32  1   
 18   8  11  1   
 19   8  12  2   
 20   9  13  1   
 21   9  33  1   
 22   9  34  1   
 23  10  14  1   
 24  10  35  1   
 25  10  36  1   
 26  11  15  1   
 27  12  16  1   
 28  13  17  1   
 29  13  37  1   
 30  13  38  1   
 31  14  17  1   
 32  14  39  1   
 33  14  40  1   
 34  15  16  2   
 35  16  18  1   
 36  17  41  1   
 37  17  42  1   
 38  18  19  ar  
 39  18  20  ar  
 40  19  21  ar  
 41  19  43  1   
 42  20  22  ar  
 43  20  44  1   
 44  21  23  ar  
 45  21  24  1   
 46  22  23  ar  
 47  22  45  1   
 48  23  46  1   
 49  24  47  1   
 50  24  48  1   
 51  24  49  1   
@<TRIPOS>SUBSTRUCTURE
  1 ****   8 GROUP 4 **** **** 0

# MOE 2024.06 (io_trps.svl 2023.06)
