@<TRIPOS>MOLECULE
NONAME
32 32 1 0 0 
SMALL
USER_CHARGES


@<TRIPOS>ATOM
  1 I       -0.6940     0.3180    -0.1470 I     1 <1>  -0.0810 
  2 C        1.3050     1.0520    -0.1000 C.ar  1 <1>   0.0810 
  3 C        1.5080     2.4180    -0.0500 C.ar  1 <1>  -0.1500 
  4 C        2.3460     0.1420    -0.1210 C.ar  1 <1>  -0.1500 
  5 C        2.8110     2.8850    -0.0190 C.ar  1 <1>  -0.1500 
  6 C        3.6450     0.6220    -0.0900 C.ar  1 <1>  -0.1500 
  7 C        3.8800     1.9980    -0.0390 C.ar  1 <1>   0.0830 
  8 O        5.1210     2.5480    -0.0070 O.3   1 <1>  -0.3630 
  9 C        6.2780     1.7520    -0.0220 C.3   1 <1>   0.1200 
 10 C        7.4750     2.7030     0.0250 C.3   1 <1>  -0.1600 
 11 C        8.7900     1.9320     0.0120 C.3   1 <1>   0.3430 
 12 N        9.9130     2.9000     0.0590 N.4   1 <1>  -0.9060 
 13 C       11.2420     2.2160     0.0500 C.3   1 <1>   0.3430 
 14 C       12.4040     3.2180     0.0990 C.3   1 <1>   0.1200 
 15 O       13.5780     2.4890     0.0860 O.3   1 <1>  -0.6800 
 16 H        0.6760     3.0990    -0.0340 H     1 <1>   0.1500 
 17 H        2.1470    -0.9140    -0.1600 H     1 <1>   0.1500 
 18 H        3.0050     3.9410     0.0200 H     1 <1>   0.1500 
 19 H        4.4490    -0.0880    -0.1070 H     1 <1>   0.1500 
 20 H        6.2730     1.1700    -0.9280 H     1 <1>   0.0800 
 21 H        6.2540     1.1080     0.8410 H     1 <1>   0.0800 
 22 H        7.4050     3.2900     0.9240 H     1 <1>   0.0800 
 23 H        7.4240     3.3520    -0.8330 H     1 <1>   0.0800 
 24 H        8.8530     1.3350    -0.8850 H     1 <1>   0.0800 
 25 H        8.8330     1.2730     0.8660 H     1 <1>   0.0800 
 26 H        9.8250     3.4770     0.9060 H     1 <1>   0.4500 
 27 H        9.8430     3.5350    -0.7470 H     1 <1>   0.4500 
 28 H       11.3400     1.6230    -0.8450 H     1 <1>   0.0800 
 29 H       11.3200     1.5610     0.9030 H     1 <1>   0.0800 
 30 H       12.3830     3.7990     1.0050 H     1 <1>   0.0800 
 31 H       12.4030     3.8620    -0.7640 H     1 <1>   0.0800 
 32 H       14.3710     3.0680     0.1160 H     1 <1>   0.4000 
@<TRIPOS>BOND
  1   1   2  1   
  2   2   3  ar  
  3   2   4  ar  
  4   3   5  ar  
  5   3  16  1   
  6   4   6  ar  
  7   4  17  1   
  8   5   7  ar  
  9   5  18  1   
 10   6   7  ar  
 11   6  19  1   
 12   7   8  1   
 13   8   9  1   
 14   9  10  1   
 15   9  20  1   
 16   9  21  1   
 17  10  11  1   
 18  10  22  1   
 19  10  23  1   
 20  11  12  1   
 21  11  24  1   
 22  11  25  1   
 23  12  13  1   
 24  12  26  1   
 25  12  27  1   
 26  13  14  1   
 27  13  28  1   
 28  13  29  1   
 29  14  15  1   
 30  14  30  1   
 31  14  31  1   
 32  15  32  1   
@<TRIPOS>SUBSTRUCTURE
  1 ****   9 GROUP 4 **** **** 0

# MOE 2024.06 (io_trps.svl 2023.06)
