@<TRIPOS>MOLECULE
NONAME
36 37 1 0 0 
SMALL
USER_CHARGES


@<TRIPOS>ATOM
  1 O        0.0450     0.3260    -0.5830 O.2   1 <1>  -0.5700 
  2 C        0.0090     1.4930    -0.2460 C.2   1 <1>   0.5440 
  3 N       -1.1890     2.0710     0.1220 N.am  1 <1>  -0.5390 
  4 C        1.2250     2.2820    -0.2040 C.ar  1 <1>   0.0860 
  5 C       -2.5070     1.5890     0.0970 C.2   1 <1>  -0.0290 
  6 C        2.4560     1.6790     0.0570 C.ar  1 <1>  -0.1500 
  7 C        1.2210     3.6630    -0.4170 C.ar  1 <1>  -0.1500 
  8 C       -3.6030     2.2380     0.5090 C.2   1 <1>  -0.0730 
  9 C       -2.8330     0.2080    -0.4280 C.3   1 <1>  -0.0220 
 10 C        3.6350     2.4110     0.1200 C.ar  1 <1>   0.0830 
 11 C        2.3830     4.4080    -0.3550 C.ar  1 <1>  -0.1500 
 12 C       -3.7080     3.5500     1.0610 C.1   1 <1>   0.4920 
 13 C       -4.8550     1.4080     0.3390 C.3   1 <1>  -0.0220 
 14 C       -4.3690     0.1320    -0.3690 C.3   1 <1>  -0.1600 
 15 O        4.8420     1.8310     0.3760 O.3   1 <1>  -0.3630 
 16 C        3.6010     3.7930    -0.0820 C.ar  1 <1>   0.0830 
 17 N       -3.7580     4.6040     1.4940 N.1   1 <1>  -0.5570 
 18 C        4.9910     0.4310     0.4680 C.3   1 <1>   0.0400 
 19 O        4.7690     4.4860    -0.0080 O.3   1 <1>  -0.3630 
 20 C        4.8360     5.8790    -0.2100 C.3   1 <1>   0.0400 
 21 H       -1.0820     3.0080     0.5140 H     1 <1>   0.3700 
 22 H        2.4590     0.6160     0.2110 H     1 <1>   0.1500 
 23 H        0.2980     4.1660    -0.6450 H     1 <1>   0.1500 
 24 H       -2.3840    -0.5410     0.2010 H     1 <1>   0.0800 
 25 H       -2.4790     0.0880    -1.4370 H     1 <1>   0.0800 
 26 H        2.3230     5.4670    -0.5240 H     1 <1>   0.1500 
 27 H       -5.5840     1.9260    -0.2600 H     1 <1>   0.0800 
 28 H       -5.2780     1.1740     1.3010 H     1 <1>   0.0800 
 29 H       -4.6870    -0.7490     0.1610 H     1 <1>   0.0800 
 30 H       -4.7650     0.0970    -1.3690 H     1 <1>   0.0800 
 31 H        6.0340     0.2170     0.6160 H     1 <1>   0.0800 
 32 H        4.6520    -0.0170    -0.4490 H     1 <1>   0.0800 
 33 H        4.4220     0.0740     1.3080 H     1 <1>   0.0800 
 34 H        5.8630     6.1810    -0.1020 H     1 <1>   0.0800 
 35 H        4.2320     6.3690     0.5320 H     1 <1>   0.0800 
 36 H        4.4920     6.1050    -1.2030 H     1 <1>   0.0800 
@<TRIPOS>BOND
  1   1   2  2   
  2   2   3  am  
  3   2   4  1   
  4   3   5  1   
  5   3  21  1   
  6   4   6  ar  
  7   4   7  ar  
  8   5   8  2   
  9   5   9  1   
 10   6  10  ar  
 11   6  22  1   
 12   7  11  ar  
 13   7  23  1   
 14   8  12  1   
 15   8  13  1   
 16   9  14  1   
 17   9  24  1   
 18   9  25  1   
 19  10  15  1   
 20  10  16  ar  
 21  11  16  ar  
 22  11  26  1   
 23  12  17  3   
 24  13  14  1   
 25  13  27  1   
 26  13  28  1   
 27  14  29  1   
 28  14  30  1   
 29  15  18  1   
 30  16  19  1   
 31  18  31  1   
 32  18  32  1   
 33  18  33  1   
 34  19  20  1   
 35  20  34  1   
 36  20  35  1   
 37  20  36  1   
@<TRIPOS>SUBSTRUCTURE
  1 ****   4 GROUP 4 **** **** 0

# MOE 2024.06 (io_trps.svl 2023.06)
