@<TRIPOS>MOLECULE
NONAME
55 57 1 0 0 
SMALL
USER_CHARGES


@<TRIPOS>ATOM
  1 S       -0.4470    -0.0600     1.4250 S.o2  1 <1>   1.4470 
  2 O       -1.7450     0.0640     2.0510 O.2   1 <1>  -0.6500 
  3 O        0.7270     0.4950     2.0600 O.2   1 <1>  -0.6500 
  4 N       -0.1690    -1.7640     1.2200 N.am  1 <1>  -0.6930 
  5 C       -0.5440     0.4960    -0.2990 C.ar  1 <1>  -0.0090 
  6 C        1.0740    -2.2690     0.8730 C.ar  1 <1>   0.1990 
  7 C       -1.3650    -2.6360     1.1300 C.3   1 <1>   0.1160 
  8 C        0.6050     0.6370    -1.0680 C.ar  1 <1>  -0.1500 
  9 C       -1.7670     0.7680    -0.9030 C.ar  1 <1>  -0.1500 
 10 C        2.1460    -2.1960     1.7550 C.ar  1 <1>  -0.1500 
 11 C        1.2840    -2.8770    -0.3600 C.ar  1 <1>  -0.1500 
 12 C        0.5400     1.0350    -2.3930 C.ar  1 <1>  -0.1500 
 13 C       -1.8410     1.1670    -2.2260 C.ar  1 <1>  -0.1500 
 14 C        3.3790    -2.7220     1.4220 C.ar  1 <1>  -0.1500 
 15 C        2.5190    -3.4010    -0.6910 C.ar  1 <1>  -0.1500 
 16 C       -0.6860     1.3010    -2.9730 C.ar  1 <1>  -0.1500 
 17 C        3.6020    -3.3380     0.1880 C.ar  1 <1>   0.0860 
 18 C        4.8850    -3.9160    -0.1670 C.2   1 <1>   0.5440 
 19 O        4.9150    -4.9650    -0.7840 O.2   1 <1>  -0.5700 
 20 N        6.0840    -3.3190     0.1640 N.am  1 <1>  -0.6600 
 21 C        6.2740    -1.8370     0.2280 C.3   1 <1>   0.1400 
 22 C        7.3670    -4.0910     0.1460 C.3   1 <1>   0.1400 
 23 C        7.2120    -1.3500    -0.8920 C.3   1 <1>   0.1400 
 24 C        8.2790    -3.6140    -0.9920 C.3   1 <1>   0.1400 
 25 N        8.4810    -2.1370    -0.9130 N.am  1 <1>  -0.6600 
 26 C        9.7250    -1.5800    -0.7860 C.2   1 <1>   0.7800 
 27 O       10.7420    -2.2460    -0.7520 O.2   1 <1>  -0.5700 
 28 O        9.8010    -0.2520    -0.6870 O.3   1 <1>  -0.4300 
 29 C       11.0480     0.3910    -0.5530 C.3   1 <1>   0.1200 
 30 C       10.7990     1.8930    -0.4590 C.3   1 <1>  -0.2400 
 31 H       -1.9650    -2.3500     0.2830 H     1 <1>   0.0800 
 32 H       -1.9530    -2.5380     2.0270 H     1 <1>   0.0800 
 33 H       -1.0700    -3.6660     1.0240 H     1 <1>   0.0800 
 34 H        1.5640     0.4320    -0.6230 H     1 <1>   0.1500 
 35 H       -2.6750     0.6700    -0.3310 H     1 <1>   0.1500 
 36 H        1.9990    -1.7280     2.7130 H     1 <1>   0.1500 
 37 H        0.4720    -2.9390    -1.0610 H     1 <1>   0.1500 
 38 H        1.4430     1.1400    -2.9700 H     1 <1>   0.1500 
 39 H       -2.7980     1.3760    -2.6740 H     1 <1>   0.1500 
 40 H        4.1870    -2.6670     2.1310 H     1 <1>   0.1500 
 41 H        2.6600    -3.8780    -1.6470 H     1 <1>   0.1500 
 42 H       -0.7410     1.6130    -4.0020 H     1 <1>   0.1500 
 43 H        6.6990    -1.5770     1.1820 H     1 <1>   0.0800 
 44 H        5.3310    -1.3290     0.1340 H     1 <1>   0.0800 
 45 H        7.1730    -5.1440     0.0300 H     1 <1>   0.0800 
 46 H        7.8730    -3.9550     1.0850 H     1 <1>   0.0800 
 47 H        7.4120    -0.3020    -0.7540 H     1 <1>   0.0800 
 48 H        6.7160    -1.4660    -1.8400 H     1 <1>   0.0800 
 49 H        7.8250    -3.8610    -1.9350 H     1 <1>   0.0800 
 50 H        9.2220    -4.1300    -0.9330 H     1 <1>   0.0800 
 51 H       11.6490     0.1510    -1.4150 H     1 <1>   0.0800 
 52 H       11.5290     0.0210     0.3370 H     1 <1>   0.0800 
 53 H       10.3110     2.2440    -1.3510 H     1 <1>   0.0800 
 54 H       11.7360     2.4090    -0.3550 H     1 <1>   0.0800 
 55 H       10.1880     2.1140     0.3980 H     1 <1>   0.0800 
@<TRIPOS>BOND
  1   1   2  2   
  2   1   3  2   
  3   1   4  am  
  4   1   5  1   
  5   4   6  1   
  6   4   7  1   
  7   5   8  ar  
  8   5   9  ar  
  9   6  10  ar  
 10   6  11  ar  
 11   7  31  1   
 12   7  32  1   
 13   7  33  1   
 14   8  12  ar  
 15   8  34  1   
 16   9  13  ar  
 17   9  35  1   
 18  10  14  ar  
 19  10  36  1   
 20  11  15  ar  
 21  11  37  1   
 22  12  16  ar  
 23  12  38  1   
 24  13  16  ar  
 25  13  39  1   
 26  14  17  ar  
 27  14  40  1   
 28  15  17  ar  
 29  15  41  1   
 30  16  42  1   
 31  17  18  1   
 32  18  19  2   
 33  18  20  am  
 34  20  21  1   
 35  20  22  1   
 36  21  23  1   
 37  21  43  1   
 38  21  44  1   
 39  22  24  1   
 40  22  45  1   
 41  22  46  1   
 42  23  25  1   
 43  23  47  1   
 44  23  48  1   
 45  24  25  1   
 46  24  49  1   
 47  24  50  1   
 48  25  26  am  
 49  26  27  2   
 50  26  28  1   
 51  28  29  1   
 52  29  30  1   
 53  29  51  1   
 54  29  52  1   
 55  30  53  1   
 56  30  54  1   
 57  30  55  1   
@<TRIPOS>SUBSTRUCTURE
  1 ****  17 GROUP 4 **** **** 0

# MOE 2024.06 (io_trps.svl 2023.06)
