@<TRIPOS>MOLECULE
NONAME
45 47 1 0 0 
SMALL
USER_CHARGES


@<TRIPOS>ATOM
  1 S        0.6400    -0.4640     1.3430 S.o2  1 <1>   1.4470 
  2 O        1.9360    -0.7420     1.9230 O.2   1 <1>  -0.6500 
  3 O       -0.1740     0.5970     1.8920 O.2   1 <1>  -0.6500 
  4 N        0.9000    -0.0870    -0.2890 N.am  1 <1>  -0.8490 
  5 C       -0.3460    -1.9840     1.2560 C.ar  1 <1>  -0.0090 
  6 C        1.3750     1.2950    -0.4530 C.3   1 <1>   0.1960 
  7 C        1.8490    -1.0050    -0.9420 C.3   1 <1>   0.1960 
  8 C       -1.4020    -2.0990     0.3640 C.ar  1 <1>  -0.1500 
  9 C       -0.0750    -3.0680     2.0780 C.ar  1 <1>  -0.1500 
 10 C        1.6080     1.6280    -1.9390 C.3   1 <1>   0.1200 
 11 C        2.0570    -0.6210    -2.4180 C.3   1 <1>   0.1200 
 12 C       -2.1800    -3.2510     0.2550 C.ar  1 <1>   0.0860 
 13 C       -0.8290    -4.2250     2.0010 C.ar  1 <1>  -0.1500 
 14 O        2.4860     0.7070    -2.5220 O.3   1 <1>  -0.5600 
 15 C       -1.8750    -4.3250     1.1000 C.ar  1 <1>  -0.1440 
 16 C       -3.2570    -3.2860    -0.7170 C.2   1 <1>   0.5440 
 17 C       -2.6820    -5.6170     1.0480 C.3   1 <1>  -0.0960 
 18 O       -3.3190    -4.1550    -1.5640 O.2   1 <1>  -0.5700 
 19 N       -4.2160    -2.3210    -0.7060 N.am  1 <1>  -0.7300 
 20 C       -5.3850    -2.2790    -1.6010 C.3   1 <1>   0.3200 
 21 C       -6.5520    -1.6700    -0.8470 C.2   1 <1>  -0.0400 
 22 O       -6.4390    -0.4410    -0.3750 O.3   1 <1>  -0.2800 
 23 C       -7.7640    -2.1820    -0.5430 C.2   1 <1>  -0.1500 
 24 C       -7.5690    -0.1430     0.2340 C.2   1 <1>  -0.0100 
 25 C       -8.4340    -1.1770     0.1670 C.2   1 <1>  -0.1500 
 26 H        2.2950     1.4380     0.0910 H     1 <1>   0.0800 
 27 H        0.6440     1.9800    -0.0560 H     1 <1>   0.0800 
 28 H        1.4730    -2.0130    -0.8930 H     1 <1>   0.0800 
 29 H        2.8030    -0.9790    -0.4400 H     1 <1>   0.0800 
 30 H       -1.6260    -1.2640    -0.2790 H     1 <1>   0.1500 
 31 H        0.7360    -3.0080     2.7860 H     1 <1>   0.1500 
 32 H        2.0440     2.6060    -2.0370 H     1 <1>   0.0800 
 33 H        0.6770     1.6060    -2.4790 H     1 <1>   0.0800 
 34 H        1.1410    -0.7320    -2.9710 H     1 <1>   0.0800 
 35 H        2.8110    -1.2450    -2.8630 H     1 <1>   0.0800 
 36 H       -0.5920    -5.0490     2.6520 H     1 <1>   0.1500 
 37 H       -2.4940    -6.1280     0.1200 H     1 <1>   0.0800 
 38 H       -3.7340    -5.4030     1.1150 H     1 <1>   0.0800 
 39 H       -2.4200    -6.2740     1.8570 H     1 <1>   0.0800 
 40 H       -4.2470    -1.6180     0.0360 H     1 <1>   0.3700 
 41 H       -5.6360    -3.2730    -1.9300 H     1 <1>   0.0800 
 42 H       -5.1550    -1.6760    -2.4620 H     1 <1>   0.0800 
 43 H       -8.1650    -3.1520    -0.7780 H     1 <1>   0.1500 
 44 H       -7.6740     0.8270     0.6890 H     1 <1>   0.1500 
 45 H       -9.4310    -1.2490     0.5640 H     1 <1>   0.1500 
@<TRIPOS>BOND
  1   1   2  2   
  2   1   3  2   
  3   1   4  am  
  4   1   5  1   
  5   4   6  1   
  6   4   7  1   
  7   5   8  ar  
  8   5   9  ar  
  9   6  10  1   
 10   6  26  1   
 11   6  27  1   
 12   7  11  1   
 13   7  28  1   
 14   7  29  1   
 15   8  12  ar  
 16   8  30  1   
 17   9  13  ar  
 18   9  31  1   
 19  10  14  1   
 20  10  32  1   
 21  10  33  1   
 22  11  14  1   
 23  11  34  1   
 24  11  35  1   
 25  12  15  ar  
 26  12  16  1   
 27  13  15  ar  
 28  13  36  1   
 29  15  17  1   
 30  16  18  2   
 31  16  19  am  
 32  17  37  1   
 33  17  38  1   
 34  17  39  1   
 35  19  20  1   
 36  19  40  1   
 37  20  21  1   
 38  20  41  1   
 39  20  42  1   
 40  21  22  1   
 41  21  23  2   
 42  22  24  1   
 43  23  25  1   
 44  23  43  1   
 45  24  25  2   
 46  24  44  1   
 47  25  45  1   
@<TRIPOS>SUBSTRUCTURE
  1 ****   8 GROUP 4 **** **** 0

# MOE 2024.06 (io_trps.svl 2023.06)
