@<TRIPOS>MOLECULE
NONAME
41 44 1 0 0 
SMALL
USER_CHARGES


@<TRIPOS>ATOM
  1 O       -0.3990    -0.6480     1.5310 O.2   1 <1>  -0.5700 
  2 C       -1.1620    -1.1860     0.7710 C.2   1 <1>   0.5690 
  3 N       -0.9480    -2.3190     0.0010 N.am  1 <1>  -0.2370 
  4 C       -2.5400    -0.6740     0.4510 C.3   1 <1>  -0.0190 
  5 C        0.3010    -2.9520    -0.2110 C.ar  1 <1>   0.1170 
  6 C       -2.1620    -2.7290    -0.5280 C.2   1 <1>   0.5690 
  7 C       -3.5180     0.3050     1.1580 C.3   1 <1>   0.0580 
  8 C       -3.2480    -2.0090     0.2210 C.3   1 <1>  -0.0190 
  9 C        0.3970    -4.3380    -0.2910 C.ar  1 <1>  -0.1500 
 10 C        1.4680    -2.2060    -0.3460 C.ar  1 <1>  -0.1500 
 11 O       -2.3600    -3.5290    -1.4060 O.2   1 <1>  -0.5700 
 12 C       -4.5520    -0.4420     2.0080 C.2   1 <1>  -0.2880 
 13 C       -4.4070     0.8150    -0.0140 C.3   1 <1>  -0.1600 
 14 C       -4.7520    -1.7370    -0.0380 C.3   1 <1>   0.0580 
 15 C        1.6160    -4.9570    -0.4940 C.ar  1 <1>  -0.1500 
 16 C        2.6880    -2.8240    -0.5490 C.ar  1 <1>  -0.1500 
 17 C       -5.2190    -1.4280     1.3880 C.2   1 <1>  -0.2880 
 18 C       -4.9710    -0.4090    -0.8200 C.3   1 <1>  -0.1600 
 19 C        2.7780    -4.2080    -0.6180 C.ar  1 <1>   0.1170 
 20 N        4.0020    -4.8540    -0.8240 N.am  1 <1>  -0.5470 
 21 C        5.1780    -4.7500    -0.1540 C.2   1 <1>   0.5690 
 22 O        6.1330    -5.3840    -0.5180 O.2   1 <1>  -0.5700 
 23 C        5.3100    -3.8620     1.0610 C.3   1 <1>  -0.1790 
 24 H       -2.3480    -0.2230    -0.5090 H     1 <1>   0.0800 
 25 H       -3.0230     1.1070     1.6780 H     1 <1>   0.0800 
 26 H       -3.2330    -2.5630     1.1480 H     1 <1>   0.0800 
 27 H       -0.4890    -4.9430    -0.1980 H     1 <1>   0.1500 
 28 H        1.4280    -1.1320    -0.2910 H     1 <1>   0.1500 
 29 H       -4.6950    -0.0970     3.0190 H     1 <1>   0.1500 
 30 H       -3.8520     1.4680    -0.6650 H     1 <1>   0.0800 
 31 H       -5.2250     1.3880     0.3890 H     1 <1>   0.0800 
 32 H       -5.2570    -2.5860    -0.4660 H     1 <1>   0.0800 
 33 H        1.6680    -6.0290    -0.5520 H     1 <1>   0.1500 
 34 H        3.5750    -2.2270    -0.6610 H     1 <1>   0.1500 
 35 H       -6.0130    -2.0340     1.7920 H     1 <1>   0.1500 
 36 H       -4.4910    -0.4780    -1.7810 H     1 <1>   0.0800 
 37 H       -6.0240    -0.2650    -0.9910 H     1 <1>   0.0800 
 38 H        4.0310    -5.5590    -1.5600 H     1 <1>   0.3700 
 39 H        4.4190    -3.9100     1.6580 H     1 <1>   0.0800 
 40 H        5.4840    -2.8500     0.7520 H     1 <1>   0.0800 
 41 H        6.1420    -4.1910     1.6570 H     1 <1>   0.0800 
@<TRIPOS>BOND
  1   1   2  2   
  2   2   3  am  
  3   2   4  1   
  4   3   5  1   
  5   3   6  am  
  6   4   7  1   
  7   4   8  1   
  8   4  24  1   
  9   5   9  ar  
 10   5  10  ar  
 11   6   8  1   
 12   6  11  2   
 13   7  12  1   
 14   7  13  1   
 15   7  25  1   
 16   8  14  1   
 17   8  26  1   
 18   9  15  ar  
 19   9  27  1   
 20  10  16  ar  
 21  10  28  1   
 22  12  17  2   
 23  12  29  1   
 24  13  18  1   
 25  13  30  1   
 26  13  31  1   
 27  14  17  1   
 28  14  18  1   
 29  14  32  1   
 30  15  19  ar  
 31  15  33  1   
 32  16  19  ar  
 33  16  34  1   
 34  17  35  1   
 35  18  36  1   
 36  18  37  1   
 37  19  20  1   
 38  20  21  am  
 39  20  38  1   
 40  21  22  2   
 41  21  23  1   
 42  23  39  1   
 43  23  40  1   
 44  23  41  1   
@<TRIPOS>SUBSTRUCTURE
  1 ****   3 GROUP 4 **** **** 0

# MOE 2024.06 (io_trps.svl 2023.06)
