@<TRIPOS>MOLECULE
22807
27 27 1 0 0 
SMALL
USER_CHARGES


@<TRIPOS>ATOM
  1 BR       2.5820     0.4920     1.0110 Br    1 <1>  -0.1110 
  2 C        1.3160     1.9120     0.7180 C.ar  1 <1>   0.1110 
  3 C        0.1080     1.8760     1.3890 C.ar  1 <1>  -0.1500 
  4 C        1.6480     2.9300    -0.1560 C.ar  1 <1>  -0.1500 
  5 C       -0.8010     2.8990     1.1760 C.ar  1 <1>  -0.1500 
  6 C        0.7330     3.9490    -0.3610 C.ar  1 <1>  -0.1500 
  7 C       -0.4870     3.9400     0.3050 C.ar  1 <1>   0.0830 
  8 O       -1.3390     4.9670     0.0470 O.3   1 <1>  -0.2330 
  9 C       -2.2220     5.5370     0.8710 C.2   1 <1>   0.6590 
 10 O       -2.3220     5.2300     2.0330 O.2   1 <1>  -0.5700 
 11 C       -3.1130     6.6300     0.2280 C.3   1 <1>   0.0610 
 12 C       -4.0990     7.2370     1.2480 C.3   1 <1>  -0.2400 
 13 C       -3.9370     6.0340    -0.9300 C.3   1 <1>  -0.2400 
 14 C       -2.2400     7.7730    -0.3250 C.3   1 <1>  -0.2400 
 15 H       -0.1160     1.0660     2.0610 H     1 <1>   0.1500 
 16 H        2.5970     2.9220    -0.6620 H     1 <1>   0.1500 
 17 H       -1.7470     2.8760     1.6880 H     1 <1>   0.1500 
 18 H        0.9630     4.7530    -1.0370 H     1 <1>   0.1500 
 19 H       -4.7420     6.4720     1.6470 H     1 <1>   0.0800 
 20 H       -4.7110     7.9940     0.7910 H     1 <1>   0.0800 
 21 H       -3.5620     7.6810     2.0680 H     1 <1>   0.0800 
 22 H       -3.2910     5.6420    -1.6960 H     1 <1>   0.0800 
 23 H       -4.5690     6.7840    -1.3740 H     1 <1>   0.0800 
 24 H       -4.5590     5.2330    -0.5710 H     1 <1>   0.0800 
 25 H       -1.5700     7.4090    -1.0840 H     1 <1>   0.0800 
 26 H       -1.6530     8.2090     0.4640 H     1 <1>   0.0800 
 27 H       -2.8520     8.5450    -0.7590 H     1 <1>   0.0800 
@<TRIPOS>BOND
  1   1   2  1   
  2   2   3  ar  
  3   2   4  ar  
  4   3   5  ar  
  5   3  15  1   
  6   4   6  ar  
  7   4  16  1   
  8   5   7  ar  
  9   5  17  1   
 10   6   7  ar  
 11   6  18  1   
 12   7   8  1   
 13   8   9  1   
 14   9  10  2   
 15   9  11  1   
 16  11  12  1   
 17  11  13  1   
 18  11  14  1   
 19  12  19  1   
 20  12  20  1   
 21  12  21  1   
 22  13  22  1   
 23  13  23  1   
 24  13  24  1   
 25  14  25  1   
 26  14  26  1   
 27  14  27  1   
@<TRIPOS>SUBSTRUCTURE
  1 ****   7 GROUP 4 **** **** 0

# MOE 2024.06 (io_trps.svl 2023.06)
