@<TRIPOS>MOLECULE
NONAME
55 58 1 0 0 
SMALL
USER_CHARGES


@<TRIPOS>ATOM
  1 O       -1.6650     0.4250     0.5050 O.2   1 <1>  -0.5700 
  2 C       -2.2590    -0.0060    -0.4630 C.2   1 <1>   0.5440 
  3 N       -2.7410     0.8630    -1.4030 N.am  1 <1>  -0.7300 
  4 C       -2.4470    -1.4360    -0.6340 C.ar  1 <1>   0.0860 
  5 C       -2.8030     2.3760    -1.4330 C.3   1 <1>   0.2810 
  6 C       -3.5820    -1.9600    -1.2590 C.ar  1 <1>  -0.1500 
  7 C       -1.4920    -2.3440    -0.1750 C.ar  1 <1>  -0.1500 
  8 C       -1.4520     3.1150    -1.3000 C.2   1 <1>   0.5690 
  9 C       -3.9530     2.9620    -0.5490 C.3   1 <1>   0.0000 
 10 C       -3.7460    -3.3230    -1.4290 C.ar  1 <1>  -0.1500 
 11 C       -1.6520    -3.7080    -0.3410 C.ar  1 <1>  -0.1500 
 12 O       -1.2070     3.9730    -2.1300 O.2   1 <1>  -0.5700 
 13 N       -0.5970     2.8000    -0.2910 N.am  1 <1>  -0.4210 
 14 C       -3.7120     2.8020     0.9760 C.3   1 <1>  -0.1600 
 15 C       -5.3020     2.2730    -0.8930 C.3   1 <1>  -0.1600 
 16 C       -4.1130     4.4790    -0.8430 C.3   1 <1>  -0.1600 
 17 C       -2.7800    -4.2000    -0.9710 C.ar  1 <1>  -0.1500 
 18 N        0.7010     3.4150     0.0220 N.3   1 <1>  -0.5490 
 19 C       -4.8680     3.4120     1.7920 C.3   1 <1>  -0.0800 
 20 C       -6.4650     2.8770    -0.0850 C.3   1 <1>  -0.0800 
 21 C       -5.2720     5.0940    -0.0390 C.3   1 <1>  -0.0800 
 22 C        1.7050     2.3300    -0.0850 C.3   1 <1>   0.0300 
 23 C        0.6110     3.8720     1.4290 C.3   1 <1>   0.0300 
 24 C       -6.1810     2.7010     1.4180 C.3   1 <1>  -0.1600 
 25 C       -4.9910     4.9100     1.4630 C.3   1 <1>  -0.1600 
 26 C       -6.5820     4.3770    -0.4070 C.3   1 <1>  -0.1600 
 27 H       -3.1140     0.4450    -2.2560 H     1 <1>   0.3700 
 28 H       -3.1020     2.6050    -2.4400 H     1 <1>   0.0800 
 29 H       -4.3520    -1.2970    -1.6080 H     1 <1>   0.1500 
 30 H       -0.6130    -1.9690     0.3200 H     1 <1>   0.1500 
 31 H       -4.6290    -3.7060    -1.9140 H     1 <1>   0.1500 
 32 H       -0.8990    -4.3870     0.0210 H     1 <1>   0.1500 
 33 H       -0.8750     1.9970     0.2990 H     1 <1>   0.3700 
 34 H       -2.7920     3.2790     1.2620 H     1 <1>   0.0800 
 35 H       -3.6380     1.7620     1.2320 H     1 <1>   0.0800 
 36 H       -5.2470     1.2220    -0.6740 H     1 <1>   0.0800 
 37 H       -5.5090     2.3790    -1.9440 H     1 <1>   0.0800 
 38 H       -4.2900     4.6350    -1.8930 H     1 <1>   0.0800 
 39 H       -3.2090     5.0070    -0.5910 H     1 <1>   0.0800 
 40 H       -2.9060    -5.2620    -1.1020 H     1 <1>   0.1500 
 41 H       -4.6740     3.2860     2.8430 H     1 <1>   0.0800 
 42 H       -7.3840     2.3790    -0.3410 H     1 <1>   0.0800 
 43 H       -5.3550     6.1440    -0.2660 H     1 <1>   0.0800 
 44 H        1.7440     1.9850    -1.1040 H     1 <1>   0.0800 
 45 H        1.4460     1.5070     0.5570 H     1 <1>   0.0800 
 46 H        2.6750     2.7070     0.1870 H     1 <1>   0.0800 
 47 H       -0.1520     4.6270     1.5090 H     1 <1>   0.0800 
 48 H        1.5500     4.3010     1.7300 H     1 <1>   0.0800 
 49 H        0.3670     3.0510     2.0810 H     1 <1>   0.0800 
 50 H       -6.9930     3.1110     1.9930 H     1 <1>   0.0800 
 51 H       -6.1080     1.6540     1.6560 H     1 <1>   0.0800 
 52 H       -5.7880     5.3460     2.0390 H     1 <1>   0.0800 
 53 H       -4.0800     5.4180     1.7280 H     1 <1>   0.0800 
 54 H       -7.3990     4.8060     0.1460 H     1 <1>   0.0800 
 55 H       -6.7900     4.5120    -1.4540 H     1 <1>   0.0800 
@<TRIPOS>BOND
  1   1   2  2   
  2   2   3  am  
  3   2   4  1   
  4   3   5  1   
  5   3  27  1   
  6   4   6  ar  
  7   4   7  ar  
  8   5   8  1   
  9   5   9  1   
 10   5  28  1   
 11   6  10  ar  
 12   6  29  1   
 13   7  11  ar  
 14   7  30  1   
 15   8  12  2   
 16   8  13  am  
 17   9  14  1   
 18   9  15  1   
 19   9  16  1   
 20  10  17  ar  
 21  10  31  1   
 22  11  17  ar  
 23  11  32  1   
 24  13  18  1   
 25  13  33  1   
 26  14  19  1   
 27  14  34  1   
 28  14  35  1   
 29  15  20  1   
 30  15  36  1   
 31  15  37  1   
 32  16  21  1   
 33  16  38  1   
 34  16  39  1   
 35  17  40  1   
 36  18  22  1   
 37  18  23  1   
 38  19  24  1   
 39  19  25  1   
 40  19  41  1   
 41  20  24  1   
 42  20  26  1   
 43  20  42  1   
 44  21  25  1   
 45  21  26  1   
 46  21  43  1   
 47  22  44  1   
 48  22  45  1   
 49  22  46  1   
 50  23  47  1   
 51  23  48  1   
 52  23  49  1   
 53  24  50  1   
 54  24  51  1   
 55  25  52  1   
 56  25  53  1   
 57  26  54  1   
 58  26  55  1   
@<TRIPOS>SUBSTRUCTURE
  1 ****   3 GROUP 4 **** **** 0

# MOE 2024.06 (io_trps.svl 2023.06)
