@<TRIPOS>MOLECULE
Structure2451
36 37 1 0 0 
SMALL
USER_CHARGES


@<TRIPOS>ATOM
  1 O        0.0540     1.2320     0.7560 O.3   1 <1>  -0.3630 
  2 C       -1.2390     1.4370     0.4060 C.ar  1 <1>   0.0830 
  3 C        0.9930     1.1650    -0.2900 C.3   1 <1>   0.1200 
  4 C       -1.9870     0.4680    -0.2710 C.ar  1 <1>   0.0820 
  5 C       -1.8160     2.6440     0.7650 C.ar  1 <1>  -0.1500 
  6 C        2.2040     0.3570     0.1950 C.3   1 <1>  -0.0800 
  7 O       -1.3970    -0.7250    -0.5770 O.3   1 <1>  -0.3630 
  8 C       -3.3100     0.7520    -0.6020 C.ar  1 <1>  -0.1500 
  9 C       -3.1330     2.9100     0.4360 C.ar  1 <1>  -0.1500 
 10 C        3.2620     0.3060    -0.9130 C.3   1 <1>   0.3430 
 11 C        1.7960    -1.0660     0.6250 C.3   1 <1>  -0.1600 
 12 C       -2.1800    -1.8490    -0.9190 C.3   1 <1>   0.0400 
 13 C       -3.8770     1.9660    -0.2500 C.ar  1 <1>  -0.1500 
 14 N        4.4310    -0.5130    -0.4770 N.4   1 <1>  -0.9060 
 15 C        3.0250    -1.9130     0.9820 C.3   1 <1>  -0.1600 
 16 C        4.0570    -1.9160    -0.1470 C.3   1 <1>   0.3430 
 17 H        1.2650     2.1750    -0.5440 H     1 <1>   0.0800 
 18 H        0.5380     0.6970    -1.1460 H     1 <1>   0.0800 
 19 H       -1.2330     3.3700     1.3030 H     1 <1>   0.1500 
 20 H        2.6220     0.8790     1.0390 H     1 <1>   0.0800 
 21 H       -3.9170     0.0440    -1.1340 H     1 <1>   0.1500 
 22 H       -3.5770     3.8500     0.7140 H     1 <1>   0.1500 
 23 H        3.5820     1.3080    -1.1510 H     1 <1>   0.0800 
 24 H        2.8260    -0.1280    -1.7990 H     1 <1>   0.0800 
 25 H        1.2510    -1.5430    -0.1740 H     1 <1>   0.0800 
 26 H        1.1350    -1.0180     1.4760 H     1 <1>   0.0800 
 27 H       -1.5330    -2.7050    -0.9710 H     1 <1>   0.0800 
 28 H       -2.6380    -1.6790    -1.8770 H     1 <1>   0.0800 
 29 H       -2.9240    -2.0000    -0.1570 H     1 <1>   0.0800 
 30 H       -4.9000     2.1760    -0.5080 H     1 <1>   0.1500 
 31 H        4.8400    -0.0810     0.3600 H     1 <1>   0.4500 
 32 H        5.1550    -0.5090    -1.2070 H     1 <1>   0.4500 
 33 H        2.7120    -2.9250     1.1750 H     1 <1>   0.0800 
 34 H        3.4770    -1.5410     1.8850 H     1 <1>   0.0800 
 35 H        4.9280    -2.4720     0.1610 H     1 <1>   0.0800 
 36 H        3.6350    -2.3960    -1.0160 H     1 <1>   0.0800 
@<TRIPOS>BOND
  1   1   2  1   
  2   1   3  1   
  3   2   4  ar  
  4   2   5  ar  
  5   3   6  1   
  6   3  17  1   
  7   3  18  1   
  8   4   7  1   
  9   4   8  ar  
 10   5   9  ar  
 11   5  19  1   
 12   6  10  1   
 13   6  11  1   
 14   6  20  1   
 15   7  12  1   
 16   8  13  ar  
 17   8  21  1   
 18   9  13  ar  
 19   9  22  1   
 20  10  14  1   
 21  10  23  1   
 22  10  24  1   
 23  11  15  1   
 24  11  25  1   
 25  11  26  1   
 26  12  27  1   
 27  12  28  1   
 28  12  29  1   
 29  13  30  1   
 30  14  16  1   
 31  14  31  1   
 32  14  32  1   
 33  15  16  1   
 34  15  33  1   
 35  15  34  1   
 36  16  35  1   
 37  16  36  1   
@<TRIPOS>SUBSTRUCTURE
  1 ****   1 GROUP 4 **** **** 0

# MOE 2024.06 (io_trps.svl 2023.06)
