@<TRIPOS>MOLECULE
NONAME
46 46 1 0 0 
SMALL
USER_CHARGES


@<TRIPOS>ATOM
  1 O        1.2440    -0.0700    -1.7970 O.3   1 <1>  -0.3630 
  2 C        0.7500    -1.0890    -1.0490 C.ar  1 <1>   0.0830 
  3 C        2.0370     0.9030    -1.1510 C.3   1 <1>   0.1200 
  4 C        1.2780    -2.3670    -1.2290 C.ar  1 <1>  -0.1440 
  5 C       -0.2680    -0.8720    -0.1190 C.ar  1 <1>  -0.1440 
  6 C        3.3860     0.2900    -0.7640 C.3   1 <1>  -0.1600 
  7 C        0.8400    -3.4020    -0.4210 C.ar  1 <1>  -0.1500 
  8 C        2.3180    -2.6670    -2.3010 C.3   1 <1>  -0.0960 
  9 C       -0.6850    -1.9250     0.6790 C.ar  1 <1>  -0.1500 
 10 C       -0.9750     0.4680     0.0400 C.3   1 <1>  -0.0970 
 11 C        4.2490     1.3080    -0.0240 C.3   1 <1>   0.3430 
 12 C       -0.1300    -3.1850     0.5430 C.ar  1 <1>  -0.1440 
 13 N        5.5700     0.7140     0.3360 N.4   1 <1>  -0.9590 
 14 C       -0.6020    -4.3270     1.4250 C.3   1 <1>  -0.0970 
 15 C        5.4460    -0.3270     1.3970 C.3   1 <1>   0.3430 
 16 C        6.5250     1.7880     0.7210 C.3   1 <1>   0.3430 
 17 C        5.8800    -1.6650     0.8140 C.3   1 <1>  -0.2400 
 18 C        7.9520     1.2550     0.6760 C.3   1 <1>  -0.2400 
 19 H        1.5110     1.2610    -0.2850 H     1 <1>   0.0800 
 20 H        2.1670     1.7160    -1.8440 H     1 <1>   0.0800 
 21 H        3.8860    -0.0320    -1.6590 H     1 <1>   0.0800 
 22 H        3.2010    -0.5550    -0.1260 H     1 <1>   0.0800 
 23 H        1.2500    -4.3890    -0.5450 H     1 <1>   0.1500 
 24 H        2.1840    -2.0200    -3.1490 H     1 <1>   0.0800 
 25 H        2.2180    -3.6820    -2.6430 H     1 <1>   0.0800 
 26 H        3.3060    -2.5320    -1.9060 H     1 <1>   0.0800 
 27 H       -1.4600    -1.7670     1.4090 H     1 <1>   0.1500 
 28 H       -0.5270     1.0320     0.8370 H     1 <1>   0.0800 
 29 H       -2.0130     0.3120     0.2730 H     1 <1>   0.0800 
 30 H       -0.9260     1.0350    -0.8720 H     1 <1>   0.0800 
 31 H        3.7410     1.6410     0.8670 H     1 <1>   0.0800 
 32 H        4.4000     2.1620    -0.6650 H     1 <1>   0.0800 
 33 H        5.9470     0.2520    -0.5020 H     1 <1>   0.4500 
 34 H        0.1840    -5.0480     1.5620 H     1 <1>   0.0800 
 35 H       -1.4440    -4.8140     0.9680 H     1 <1>   0.0800 
 36 H       -0.8960    -3.9590     2.3910 H     1 <1>   0.0800 
 37 H        4.4260    -0.3940     1.7430 H     1 <1>   0.0800 
 38 H        6.0710    -0.0800     2.2410 H     1 <1>   0.0800 
 39 H        6.2960     2.1560     1.7090 H     1 <1>   0.0800 
 40 H        6.4430     2.6110     0.0280 H     1 <1>   0.0800 
 41 H        5.2510    -1.9510    -0.0090 H     1 <1>   0.0800 
 42 H        5.7950    -2.4230     1.5720 H     1 <1>   0.0800 
 43 H        6.9060    -1.6310     0.4930 H     1 <1>   0.0800 
 44 H        8.1110     0.4900     1.4140 H     1 <1>   0.0800 
 45 H        8.6340     2.0590     0.8900 H     1 <1>   0.0800 
 46 H        8.1890     0.8730    -0.3010 H     1 <1>   0.0800 
@<TRIPOS>BOND
  1   1   2  1   
  2   1   3  1   
  3   2   4  ar  
  4   2   5  ar  
  5   3   6  1   
  6   3  19  1   
  7   3  20  1   
  8   4   7  ar  
  9   4   8  1   
 10   5   9  ar  
 11   5  10  1   
 12   6  11  1   
 13   6  21  1   
 14   6  22  1   
 15   7  12  ar  
 16   7  23  1   
 17   8  24  1   
 18   8  25  1   
 19   8  26  1   
 20   9  12  ar  
 21   9  27  1   
 22  10  28  1   
 23  10  29  1   
 24  10  30  1   
 25  11  13  1   
 26  11  31  1   
 27  11  32  1   
 28  12  14  1   
 29  13  15  1   
 30  13  16  1   
 31  13  33  1   
 32  14  34  1   
 33  14  35  1   
 34  14  36  1   
 35  15  17  1   
 36  15  37  1   
 37  15  38  1   
 38  16  18  1   
 39  16  39  1   
 40  16  40  1   
 41  17  41  1   
 42  17  42  1   
 43  17  43  1   
 44  18  44  1   
 45  18  45  1   
 46  18  46  1   
@<TRIPOS>SUBSTRUCTURE
  1 ****   6 GROUP 4 **** **** 0

# MOE 2024.06 (io_trps.svl 2023.06)
