@<TRIPOS>MOLECULE
NONAME
46 49 1 0 0 
SMALL
USER_CHARGES


@<TRIPOS>ATOM
  1 O       -0.1270    -0.9110     0.9280 O.2   1 <1>  -0.5700 
  2 C        0.7140    -1.7330     0.6730 C.2   1 <1>   0.5690 
  3 N        2.0560    -1.5110     0.6550 N.am  1 <1>  -0.4200 
  4 C        0.3960    -3.1770     0.3350 C.3   1 <1>  -0.0190 
  5 C        2.7410    -2.6450     0.3500 C.2   1 <1>   0.5690 
  6 C        2.6750    -0.1790     0.8810 C.3   1 <1>   0.1400 
  7 C        1.7970    -3.8040     0.1020 C.3   1 <1>  -0.0190 
  8 C       -0.6120    -3.2950    -0.8250 C.3   1 <1>  -0.0220 
  9 O        3.9420    -2.7390     0.3020 O.2   1 <1>  -0.5700 
 10 C        3.4980    -0.1560     2.1770 C.3   1 <1>  -0.0990 
 11 C        2.0340    -4.4630    -1.2710 C.3   1 <1>  -0.0220 
 12 C       -0.4330    -4.6030    -1.5700 C.2   1 <1>  -0.2880 
 13 C        4.9420     0.1910     1.8910 C.2   1 <1>   0.5690 
 14 C        0.7720    -5.1350    -1.7730 C.2   1 <1>  -0.2880 
 15 O        5.3310     1.2890     2.2000 O.2   1 <1>  -0.5700 
 16 N        5.7110    -0.7530     1.2750 N.am  1 <1>  -0.5470 
 17 C        7.0500    -0.7450     0.8550 C.ar  1 <1>   0.1170 
 18 C        7.4500    -1.7120    -0.0590 C.ar  1 <1>  -0.1500 
 19 C        7.9940     0.1700     1.3170 C.ar  1 <1>  -0.1500 
 20 C        8.7560    -1.7630    -0.5090 C.ar  1 <1>   0.0820 
 21 C        9.3030     0.1300     0.8670 C.ar  1 <1>  -0.1500 
 22 O        9.1080    -2.7320    -1.3930 O.3   1 <1>  -0.3630 
 23 C        9.6890    -0.8300    -0.0510 C.ar  1 <1>   0.0820 
 24 C       10.4930    -2.9480    -1.5850 C.3   1 <1>   0.1200 
 25 O       10.9750    -0.8420    -0.4930 O.3   1 <1>  -0.3630 
 26 C       11.2360    -1.6070    -1.6540 C.3   1 <1>   0.1200 
 27 H       -0.0390    -3.6340     1.2060 H     1 <1>   0.0800 
 28 H        1.9040     0.5710     0.9370 H     1 <1>   0.0800 
 29 H        3.2970     0.0610     0.0340 H     1 <1>   0.0800 
 30 H        1.9680    -4.5440     0.8630 H     1 <1>   0.0800 
 31 H       -0.4820    -2.4850    -1.5230 H     1 <1>   0.0800 
 32 H       -1.6110    -3.2280    -0.4290 H     1 <1>   0.0800 
 33 H        3.4570    -1.0970     2.6930 H     1 <1>   0.0800 
 34 H        3.0950     0.5950     2.8320 H     1 <1>   0.0800 
 35 H        2.8280    -5.1850    -1.1820 H     1 <1>   0.0800 
 36 H        2.3390    -3.7270    -1.9960 H     1 <1>   0.0800 
 37 H       -1.3510    -5.0380    -1.9320 H     1 <1>   0.1500 
 38 H        0.9410    -6.0500    -2.3190 H     1 <1>   0.1500 
 39 H        5.1990    -1.5980     0.9860 H     1 <1>   0.3700 
 40 H        6.7450    -2.4340    -0.4270 H     1 <1>   0.1500 
 41 H        7.7130     0.9200     2.0320 H     1 <1>   0.1500 
 42 H       10.0250     0.8420     1.2230 H     1 <1>   0.1500 
 43 H       10.6180    -3.5020    -2.4980 H     1 <1>   0.0800 
 44 H       10.8570    -3.5360    -0.7610 H     1 <1>   0.0800 
 45 H       10.9090    -1.0410    -2.5080 H     1 <1>   0.0800 
 46 H       12.2980    -1.7610    -1.7170 H     1 <1>   0.0800 
@<TRIPOS>BOND
  1   1   2  2   
  2   2   3  am  
  3   2   4  1   
  4   3   5  am  
  5   3   6  1   
  6   4   7  1   
  7   4   8  1   
  8   4  27  1   
  9   5   7  1   
 10   5   9  2   
 11   6  10  1   
 12   6  28  1   
 13   6  29  1   
 14   7  11  1   
 15   7  30  1   
 16   8  12  1   
 17   8  31  1   
 18   8  32  1   
 19  10  13  1   
 20  10  33  1   
 21  10  34  1   
 22  11  14  1   
 23  11  35  1   
 24  11  36  1   
 25  12  14  2   
 26  12  37  1   
 27  13  15  2   
 28  13  16  am  
 29  14  38  1   
 30  16  17  1   
 31  16  39  1   
 32  17  18  ar  
 33  17  19  ar  
 34  18  20  ar  
 35  18  40  1   
 36  19  21  ar  
 37  19  41  1   
 38  20  22  1   
 39  20  23  ar  
 40  21  23  ar  
 41  21  42  1   
 42  22  24  1   
 43  23  25  1   
 44  24  26  1   
 45  24  43  1   
 46  24  44  1   
 47  25  26  1   
 48  26  45  1   
 49  26  46  1   
@<TRIPOS>SUBSTRUCTURE
  1 ****   9 GROUP 4 **** **** 0

# MOE 2024.06 (io_trps.svl 2023.06)
