@<TRIPOS>MOLECULE
NONAME
53 54 1 0 0 
SMALL
USER_CHARGES


@<TRIPOS>ATOM
  1 S       -0.0110    -0.9350     0.3540 S.o2  1 <1>   1.4470 
  2 O        0.5510    -2.0070     1.1420 O.2   1 <1>  -0.6500 
  3 O        0.7110    -0.4520    -0.8030 O.2   1 <1>  -0.6500 
  4 N       -0.1180     0.4220     1.4220 N.am  1 <1>  -0.6930 
  5 C       -1.7480    -1.2870    -0.0310 C.ar  1 <1>  -0.0090 
  6 C       -0.8560     1.5490     1.0860 C.ar  1 <1>   0.1990 
  7 C        0.9770     0.5740     2.4320 C.3   1 <1>   0.2570 
  8 C       -2.4560    -2.2630     0.6620 C.ar  1 <1>  -0.1500 
  9 C       -2.4260    -0.5670    -1.0100 C.ar  1 <1>  -0.1500 
 10 C       -0.5160     2.3530     0.0050 C.ar  1 <1>  -0.1500 
 11 C       -1.9730     1.8870     1.8370 C.ar  1 <1>  -0.1500 
 12 C        2.2610     1.2400     1.9190 C.2   1 <1>   0.5690 
 13 C       -3.7890    -2.5170     0.3860 C.ar  1 <1>  -0.1500 
 14 C       -3.7580    -0.8140    -1.2920 C.ar  1 <1>  -0.1500 
 15 C       -1.2770     3.4600    -0.3190 C.ar  1 <1>  -0.1500 
 16 C       -2.7350     2.9950     1.5150 C.ar  1 <1>  -0.1500 
 17 O        2.9020     1.9050     2.6980 O.2   1 <1>  -0.5700 
 18 N        2.6670     1.0900     0.6270 N.am  1 <1>  -0.7300 
 19 C       -4.4410    -1.7910    -0.5930 C.ar  1 <1>  -0.1500 
 20 C       -2.3960     3.7930     0.4320 C.ar  1 <1>  -0.1430 
 21 C        3.8910     1.6930     0.0440 C.3   1 <1>   0.1400 
 22 C       -3.2500     5.0120     0.0870 C.3   1 <1>   0.0630 
 23 C        3.6510     3.1660    -0.2840 C.3   1 <1>   0.1200 
 24 C       -3.8870     4.8570    -1.2980 C.3   1 <1>  -0.2400 
 25 C       -2.4240     6.3000     0.1660 C.3   1 <1>  -0.2400 
 26 O        4.7560     3.6540    -0.9790 O.3   1 <1>  -0.5600 
 27 C        4.6830     5.0140    -1.2610 C.3   1 <1>   0.0400 
 28 H        1.2350    -0.3850     2.8410 H     1 <1>   0.0800 
 29 H        0.6060     1.1730     3.2440 H     1 <1>   0.0800 
 30 H       -1.9590    -2.8340     1.4290 H     1 <1>   0.1500 
 31 H       -1.9050     0.1990    -1.5600 H     1 <1>   0.1500 
 32 H        0.3480     2.1130    -0.5870 H     1 <1>   0.1500 
 33 H       -2.2470     1.2730     2.6750 H     1 <1>   0.1500 
 34 H       -4.3170    -3.2790     0.9330 H     1 <1>   0.1500 
 35 H       -4.2630    -0.2450    -2.0540 H     1 <1>   0.1500 
 36 H       -0.9940     4.0640    -1.1630 H     1 <1>   0.1500 
 37 H       -3.5980     3.2320     2.1130 H     1 <1>   0.1500 
 38 H        2.0900     0.5470    -0.0330 H     1 <1>   0.3700 
 39 H       -5.4780    -1.9860    -0.8100 H     1 <1>   0.1500 
 40 H        4.1540     1.1590    -0.8530 H     1 <1>   0.0800 
 41 H        4.7000     1.6140     0.7500 H     1 <1>   0.0800 
 42 H       -4.0470     5.0910     0.8070 H     1 <1>   0.0800 
 43 H        3.5330     3.7290     0.6260 H     1 <1>   0.0800 
 44 H        2.7820     3.2740    -0.9090 H     1 <1>   0.0800 
 45 H       -3.1340     4.8210    -2.0640 H     1 <1>   0.0800 
 46 H       -4.5450     5.6840    -1.5000 H     1 <1>   0.0800 
 47 H       -4.4590     3.9480    -1.3360 H     1 <1>   0.0800 
 48 H       -1.6420     6.3020    -0.5710 H     1 <1>   0.0800 
 49 H       -1.9770     6.3870     1.1410 H     1 <1>   0.0800 
 50 H       -3.0530     7.1560     0.0020 H     1 <1>   0.0800 
 51 H        5.5740     5.2920    -1.7970 H     1 <1>   0.0800 
 52 H        4.6270     5.5650    -0.3390 H     1 <1>   0.0800 
 53 H        3.8180     5.2040    -1.8720 H     1 <1>   0.0800 
@<TRIPOS>BOND
  1   1   2  2   
  2   1   3  2   
  3   1   4  am  
  4   1   5  1   
  5   4   6  1   
  6   4   7  1   
  7   5   8  ar  
  8   5   9  ar  
  9   6  10  ar  
 10   6  11  ar  
 11   7  12  1   
 12   7  28  1   
 13   7  29  1   
 14   8  13  ar  
 15   8  30  1   
 16   9  14  ar  
 17   9  31  1   
 18  10  15  ar  
 19  10  32  1   
 20  11  16  ar  
 21  11  33  1   
 22  12  17  2   
 23  12  18  am  
 24  13  19  ar  
 25  13  34  1   
 26  14  19  ar  
 27  14  35  1   
 28  15  20  ar  
 29  15  36  1   
 30  16  20  ar  
 31  16  37  1   
 32  18  21  1   
 33  18  38  1   
 34  19  39  1   
 35  20  22  1   
 36  21  23  1   
 37  21  40  1   
 38  21  41  1   
 39  22  24  1   
 40  22  25  1   
 41  22  42  1   
 42  23  26  1   
 43  23  43  1   
 44  23  44  1   
 45  24  45  1   
 46  24  46  1   
 47  24  47  1   
 48  25  48  1   
 49  25  49  1   
 50  25  50  1   
 51  26  27  1   
 52  27  51  1   
 53  27  52  1   
 54  27  53  1   
@<TRIPOS>SUBSTRUCTURE
  1 ****   6 GROUP 4 **** **** 0

# MOE 2024.06 (io_trps.svl 2023.06)
