@<TRIPOS>MOLECULE
NONAME
48 50 1 0 0 
SMALL
USER_CHARGES


@<TRIPOS>ATOM
  1 S       -0.3980     0.0650    -0.3140 S.o2  1 <1>   1.5010 
  2 O       -1.0570    -0.3020    -1.5490 O.2   1 <1>  -0.6500 
  3 O       -0.3060    -0.8990     0.7610 O.2   1 <1>  -0.6500 
  4 N       -1.2290     1.4090     0.2960 N.am  1 <1>  -0.8490 
  5 C        1.2310     0.7340    -0.6690 C.2   1 <1>  -0.0630 
  6 C       -2.5010     1.0060     0.9240 C.3   1 <1>   0.1960 
  7 C       -1.4900     2.4270    -0.7420 C.3   1 <1>   0.1960 
  8 C        1.8030     0.7570    -1.9340 C.2   1 <1>   0.1390 
  9 C        2.1660     1.3230     0.1180 C.2   1 <1>  -0.3020 
 10 C       -3.2730     2.1940     1.5350 C.3   1 <1>   0.2090 
 11 C       -2.1990     3.6750    -0.1820 C.3   1 <1>   0.2090 
 12 N        2.9760     1.3140    -1.9440 N.2   1 <1>  -0.7070 
 13 N        3.2040     1.6610    -0.6670 N.pl3 1 <1>   0.3140 
 14 N       -3.4350     3.3280     0.5770 N.pl3 1 <1>  -0.8380 
 15 C        4.4550     2.3250    -0.2450 C.3   1 <1>   0.0960 
 16 C       -4.6660     3.4930    -0.0610 C.ar  1 <1>   0.1000 
 17 C        4.2440     3.8320    -0.0550 C.3   1 <1>  -0.2400 
 18 C       -5.5010     4.5710     0.2500 C.ar  1 <1>  -0.1430 
 19 C       -5.0700     2.5780    -1.0260 C.ar  1 <1>  -0.1500 
 20 C       -6.7180     4.7200    -0.4120 C.ar  1 <1>  -0.1430 
 21 C       -5.0310     5.5590     1.3190 C.3   1 <1>  -0.0970 
 22 C       -6.2770     2.7220    -1.6780 C.ar  1 <1>  -0.1500 
 23 C       -7.0970     3.7910    -1.3710 C.ar  1 <1>  -0.1500 
 24 C       -7.6680     5.8760    -0.1270 C.3   1 <1>  -0.0970 
 25 H       -2.3050     0.2960     1.7110 H     1 <1>   0.0800 
 26 H       -3.1280     0.5180     0.1970 H     1 <1>   0.0800 
 27 H       -2.1020     2.0090    -1.5240 H     1 <1>   0.0800 
 28 H       -0.5600     2.7380    -1.1860 H     1 <1>   0.0800 
 29 H        1.3270     0.3600    -2.8170 H     1 <1>   0.1500 
 30 H        2.1350     1.5140     1.1750 H     1 <1>   0.1500 
 31 H       -2.7420     2.5470     2.4000 H     1 <1>   0.0800 
 32 H       -4.2430     1.8600     1.8590 H     1 <1>   0.0800 
 33 H       -2.4530     4.3360    -0.9920 H     1 <1>   0.0800 
 34 H       -1.5260     4.1990     0.4730 H     1 <1>   0.0800 
 35 H        5.1990     2.1500    -1.0020 H     1 <1>   0.0800 
 36 H        4.7870     1.8750     0.6720 H     1 <1>   0.0800 
 37 H        3.9170     4.2770    -0.9790 H     1 <1>   0.0800 
 38 H        5.1700     4.2950     0.2370 H     1 <1>   0.0800 
 39 H        3.5120     4.0180     0.7110 H     1 <1>   0.0800 
 40 H       -4.4340     1.7500    -1.2690 H     1 <1>   0.1500 
 41 H       -4.7600     5.0210     2.2100 H     1 <1>   0.0800 
 42 H       -5.7770     6.2790     1.5880 H     1 <1>   0.0800 
 43 H       -4.1630     6.0820     0.9630 H     1 <1>   0.0800 
 44 H       -6.5790     2.0080    -2.4220 H     1 <1>   0.1500 
 45 H       -8.0350     3.8940    -1.8870 H     1 <1>   0.1500 
 46 H       -7.1630     6.8120    -0.2840 H     1 <1>   0.0800 
 47 H       -8.0120     5.8240     0.8900 H     1 <1>   0.0800 
 48 H       -8.5240     5.8450    -0.7750 H     1 <1>   0.0800 
@<TRIPOS>BOND
  1   1   2  2   
  2   1   3  2   
  3   1   4  am  
  4   1   5  1   
  5   4   6  1   
  6   4   7  1   
  7   5   8  1   
  8   5   9  2   
  9   6  10  1   
 10   6  25  1   
 11   6  26  1   
 12   7  11  1   
 13   7  27  1   
 14   7  28  1   
 15   8  12  2   
 16   8  29  1   
 17   9  13  1   
 18   9  30  1   
 19  10  14  1   
 20  10  31  1   
 21  10  32  1   
 22  11  14  1   
 23  11  33  1   
 24  11  34  1   
 25  12  13  1   
 26  13  15  1   
 27  14  16  1   
 28  15  17  1   
 29  15  35  1   
 30  15  36  1   
 31  16  18  ar  
 32  16  19  ar  
 33  17  37  1   
 34  17  38  1   
 35  17  39  1   
 36  18  20  ar  
 37  18  21  1   
 38  19  22  ar  
 39  19  40  1   
 40  20  23  ar  
 41  20  24  1   
 42  21  41  1   
 43  21  42  1   
 44  21  43  1   
 45  22  23  ar  
 46  22  44  1   
 47  23  45  1   
 48  24  46  1   
 49  24  47  1   
 50  24  48  1   
@<TRIPOS>SUBSTRUCTURE
  1 ****   7 GROUP 4 **** **** 0

# MOE 2024.06 (io_trps.svl 2023.06)
