@<TRIPOS>MOLECULE
NONAME
36 37 1 0 0 
SMALL
USER_CHARGES


@<TRIPOS>ATOM
  1 CL      -0.9400     0.8800    -1.6810 Cl    1 <1>  -0.1770 
  2 C       -2.4880     0.3230    -1.0970 C.ar  1 <1>   0.1770 
  3 C       -3.6280     1.0410    -1.4060 C.ar  1 <1>  -0.1500 
  4 C       -2.5490    -0.8280    -0.3330 C.ar  1 <1>  -0.1500 
  5 C       -4.8530     0.5950    -0.9400 C.ar  1 <1>  -0.1500 
  6 C       -3.7760    -1.2730     0.1320 C.ar  1 <1>  -0.1500 
  7 C       -4.9350    -0.5600    -0.1740 C.ar  1 <1>   0.0830 
  8 O       -6.1750    -0.9260     0.2340 O.3   1 <1>  -0.3630 
  9 C       -6.3840    -2.1180     0.9790 C.3   1 <1>   0.1810 
 10 C       -7.8650    -2.3410     1.2880 C.2   1 <1>   0.5690 
 11 O       -8.1560    -2.5230     2.4480 O.2   1 <1>  -0.5700 
 12 N       -8.8260    -2.3670     0.2970 N.am  1 <1>  -0.6600 
 13 C      -10.2710    -2.4700     0.6670 C.3   1 <1>   0.2200 
 14 C       -8.4830    -2.2420    -1.1550 C.3   1 <1>   0.0600 
 15 C      -10.8580    -3.8290     0.2900 C.3   1 <1>  -0.0550 
 16 C      -11.1280    -1.3680     0.0280 C.3   1 <1>  -0.1600 
 17 S      -12.6070    -3.5890     0.0570 S.o2  1 <1>   1.0900 
 18 C      -12.5760    -1.8140     0.2400 C.3   1 <1>  -0.0550 
 19 O      -12.9270    -3.9080    -1.3150 O.2   1 <1>  -0.6500 
 20 O      -13.3360    -4.1630     1.1630 O.2   1 <1>  -0.6500 
 21 H       -3.5530     1.9340    -2.0000 H     1 <1>   0.1500 
 22 H       -1.6450    -1.3640    -0.1070 H     1 <1>   0.1500 
 23 H       -5.7500     1.1410    -1.1680 H     1 <1>   0.1500 
 24 H       -3.8030    -2.1660     0.7270 H     1 <1>   0.1500 
 25 H       -5.8410    -2.0320     1.9030 H     1 <1>   0.0800 
 26 H       -6.0080    -2.9480     0.4120 H     1 <1>   0.0800 
 27 H      -10.3810    -2.3640     1.7340 H     1 <1>   0.0800 
 28 H       -8.4560    -1.2010    -1.4290 H     1 <1>   0.0800 
 29 H       -9.2110    -2.7450    -1.7670 H     1 <1>   0.0800 
 30 H       -7.5200    -2.6760    -1.3590 H     1 <1>   0.0800 
 31 H      -10.6680    -4.5410     1.0690 H     1 <1>   0.0800 
 32 H      -10.4260    -4.1840    -0.6240 H     1 <1>   0.0800 
 33 H      -10.9490    -1.2990    -1.0300 H     1 <1>   0.0800 
 34 H      -10.9420    -0.4130     0.4880 H     1 <1>   0.0800 
 35 H      -13.2420    -1.3360    -0.4530 H     1 <1>   0.0800 
 36 H      -12.8770    -1.5580     1.2390 H     1 <1>   0.0800 
@<TRIPOS>BOND
  1   1   2  1   
  2   2   3  ar  
  3   2   4  ar  
  4   3   5  ar  
  5   3  21  1   
  6   4   6  ar  
  7   4  22  1   
  8   5   7  ar  
  9   5  23  1   
 10   6   7  ar  
 11   6  24  1   
 12   7   8  1   
 13   8   9  1   
 14   9  10  1   
 15   9  25  1   
 16   9  26  1   
 17  10  11  2   
 18  10  12  am  
 19  12  13  1   
 20  12  14  1   
 21  13  15  1   
 22  13  16  1   
 23  13  27  1   
 24  14  28  1   
 25  14  29  1   
 26  14  30  1   
 27  15  17  1   
 28  15  31  1   
 29  15  32  1   
 30  16  18  1   
 31  16  33  1   
 32  16  34  1   
 33  17  18  1   
 34  17  19  2   
 35  17  20  2   
 36  18  35  1   
 37  18  36  1   
@<TRIPOS>SUBSTRUCTURE
  1 ****  12 GROUP 4 **** **** 0

# MOE 2024.06 (io_trps.svl 2023.06)
