@<TRIPOS>MOLECULE
NONAME
47 48 1 0 0 
SMALL
USER_CHARGES


@<TRIPOS>ATOM
  1 O        0.5870     0.0890    -0.5750 O.3   1 <1>  -0.3630 
  2 C        1.6120     0.8980    -0.2150 C.ar  1 <1>   0.0830 
  3 C       -0.2910     0.4290    -1.6250 C.3   1 <1>   0.0400 
  4 C        2.3750     0.4910     0.8670 C.ar  1 <1>  -0.1500 
  5 C        1.9260     2.0900    -0.8600 C.ar  1 <1>  -0.1500 
  6 C        3.4430     1.2530     1.3030 C.ar  1 <1>  -0.1500 
  7 C        2.9950     2.8540    -0.4260 C.ar  1 <1>  -0.1500 
  8 C        3.7630     2.4370     0.6530 C.ar  1 <1>  -0.1430 
  9 C        4.9450     3.2560     1.1120 C.3   1 <1>   0.4860 
 10 N        6.1150     2.7230     0.3740 N.4   1 <1>  -0.9060 
 11 C        7.4270     3.3250     0.7110 C.3   1 <1>   0.4230 
 12 C        7.5120     4.7640     0.1920 C.3   1 <1>  -0.1600 
 13 C        8.5320     2.4720     0.0860 C.3   1 <1>  -0.1600 
 14 C        8.9040     5.3570     0.4320 C.3   1 <1>   0.3430 
 15 C        9.9130     3.0850     0.3300 C.3   1 <1>   0.3430 
 16 N        9.9480     4.4880    -0.1810 N.4   1 <1>  -0.9590 
 17 C       11.2960     5.1060     0.0220 C.3   1 <1>   0.3430 
 18 C       12.3210     4.4880    -0.9310 C.3   1 <1>  -0.1600 
 19 C       13.6720     5.2010    -0.8100 C.3   1 <1>  -0.2400 
 20 H       -1.0260    -0.3500    -1.7110 H     1 <1>   0.0800 
 21 H        0.2690     0.5030    -2.5410 H     1 <1>   0.0800 
 22 H       -0.7730     1.3610    -1.3900 H     1 <1>   0.0800 
 23 H        2.1160    -0.4290     1.3630 H     1 <1>   0.1500 
 24 H        1.3450     2.4320    -1.6970 H     1 <1>   0.1500 
 25 H        4.0040     0.9060     2.1540 H     1 <1>   0.1500 
 26 H        3.2080     3.7750    -0.9430 H     1 <1>   0.1500 
 27 H        5.0760     3.1450     2.1770 H     1 <1>   0.0800 
 28 H        4.7820     4.2970     0.8820 H     1 <1>   0.0800 
 29 H        5.9010     2.8000    -0.6270 H     1 <1>   0.4500 
 30 H        6.1190     1.7110     0.5590 H     1 <1>   0.4500 
 31 H        7.5550     3.3250     1.7830 H     1 <1>   0.0800 
 32 H        6.7980     5.3850     0.7040 H     1 <1>   0.0800 
 33 H        7.2970     4.8030    -0.8610 H     1 <1>   0.0800 
 34 H        8.3830     2.3700    -0.9750 H     1 <1>   0.0800 
 35 H        8.5220     1.4880     0.5220 H     1 <1>   0.0800 
 36 H        9.0840     5.4480     1.4930 H     1 <1>   0.0800 
 37 H        8.9520     6.3470     0.0030 H     1 <1>   0.0800 
 38 H       10.6600     2.4890    -0.1710 H     1 <1>   0.0800 
 39 H       10.1360     3.0770     1.3860 H     1 <1>   0.0800 
 40 H        9.8060     4.4720    -1.2030 H     1 <1>   0.4500 
 41 H       11.6200     4.9770     1.0430 H     1 <1>   0.0800 
 42 H       11.2430     6.1650    -0.1790 H     1 <1>   0.0800 
 43 H       11.9810     4.5780    -1.9480 H     1 <1>   0.0800 
 44 H       12.4730     3.4470    -0.7050 H     1 <1>   0.0800 
 45 H       13.5810     6.2450    -1.0590 H     1 <1>   0.0800 
 46 H       14.3830     4.7590    -1.4880 H     1 <1>   0.0800 
 47 H       14.0660     5.1170     0.1880 H     1 <1>   0.0800 
@<TRIPOS>BOND
  1   1   2  1   
  2   1   3  1   
  3   2   4  ar  
  4   2   5  ar  
  5   3  20  1   
  6   3  21  1   
  7   3  22  1   
  8   4   6  ar  
  9   4  23  1   
 10   5   7  ar  
 11   5  24  1   
 12   6   8  ar  
 13   6  25  1   
 14   7   8  ar  
 15   7  26  1   
 16   8   9  1   
 17   9  10  1   
 18   9  27  1   
 19   9  28  1   
 20  10  11  1   
 21  10  29  1   
 22  10  30  1   
 23  11  12  1   
 24  11  13  1   
 25  11  31  1   
 26  12  14  1   
 27  12  32  1   
 28  12  33  1   
 29  13  15  1   
 30  13  34  1   
 31  13  35  1   
 32  14  16  1   
 33  14  36  1   
 34  14  37  1   
 35  15  16  1   
 36  15  38  1   
 37  15  39  1   
 38  16  17  1   
 39  16  40  1   
 40  17  18  1   
 41  17  41  1   
 42  17  42  1   
 43  18  19  1   
 44  18  43  1   
 45  18  44  1   
 46  19  45  1   
 47  19  46  1   
 48  19  47  1   
@<TRIPOS>SUBSTRUCTURE
  1 ****  10 GROUP 4 **** **** 0

# MOE 2024.06 (io_trps.svl 2023.06)
