@<TRIPOS>MOLECULE
NONAME
39 40 1 0 0 
SMALL
USER_CHARGES


@<TRIPOS>ATOM
  1 CL       0.0390    -0.2620     1.1290 Cl    1 <1>  -0.1770 
  2 C       -0.8370    -1.7690     0.9440 C.ar  1 <1>   0.1770 
  3 C       -0.1260    -2.9440     0.7090 C.ar  1 <1>   0.1170 
  4 C       -2.2130    -1.7420     1.0400 C.ar  1 <1>  -0.1500 
  5 N        1.2820    -2.8960     0.6180 N.am  1 <1>  -0.5470 
  6 C       -0.8640    -4.1180     0.5880 C.ar  1 <1>  -0.1500 
  7 C       -2.9360    -2.9170     0.9010 C.ar  1 <1>   0.1170 
  8 C        2.1980    -3.7950     0.1450 C.2   1 <1>   0.5690 
  9 C       -2.2450    -4.1030     0.6840 C.ar  1 <1>  -0.1500 
 10 N       -4.3330    -2.8890     0.9970 N.am  1 <1>  -0.5470 
 11 O        1.8960    -4.8690    -0.3150 O.2   1 <1>  -0.5700 
 12 C        3.6740    -3.3930     0.1970 C.3   1 <1>  -0.0190 
 13 C       -5.2850    -3.3690     0.1570 C.2   1 <1>   0.5690 
 14 C        4.2520    -3.2130    -1.2200 C.3   1 <1>  -0.1600 
 15 C        4.5100    -4.4110     0.9970 C.3   1 <1>  -0.1600 
 16 O       -6.4470    -3.2630     0.4490 O.2   1 <1>  -0.5700 
 17 C       -4.9170    -4.0190    -1.1560 C.3   1 <1>  -0.1790 
 18 C        5.7350    -2.8150    -1.1780 C.3   1 <1>  -0.1600 
 19 C        5.9920    -4.0130     1.0410 C.3   1 <1>  -0.1600 
 20 C        6.5580    -3.8300    -0.3730 C.3   1 <1>  -0.1600 
 21 H       -2.7190    -0.8110     1.2170 H     1 <1>   0.1500 
 22 H        1.6750    -1.9970     0.9010 H     1 <1>   0.3700 
 23 H       -0.3670    -5.0570     0.4220 H     1 <1>   0.1500 
 24 H       -2.7890    -5.0270     0.5960 H     1 <1>   0.1500 
 25 H       -4.7320    -2.3980     1.7980 H     1 <1>   0.3700 
 26 H        3.7470    -2.4470     0.7020 H     1 <1>   0.0800 
 27 H        3.6930    -2.4600    -1.7470 H     1 <1>   0.0800 
 28 H        4.1490    -4.1380    -1.7640 H     1 <1>   0.0800 
 29 H        4.4190    -5.3830     0.5400 H     1 <1>   0.0800 
 30 H        4.1270    -4.4850     2.0000 H     1 <1>   0.0800 
 31 H       -4.0890    -3.5070    -1.6090 H     1 <1>   0.0800 
 32 H       -5.7570    -3.9750    -1.8250 H     1 <1>   0.0800 
 33 H       -4.6600    -5.0470    -0.9910 H     1 <1>   0.0800 
 34 H        5.8330    -1.8410    -0.7300 H     1 <1>   0.0800 
 35 H        6.1190    -2.7560    -2.1810 H     1 <1>   0.0800 
 36 H        6.5540    -4.7730     1.5570 H     1 <1>   0.0800 
 37 H        6.1010    -3.0930     1.5910 H     1 <1>   0.0800 
 38 H        7.5800    -3.4990    -0.3130 H     1 <1>   0.0800 
 39 H        6.5490    -4.7780    -0.8840 H     1 <1>   0.0800 
@<TRIPOS>BOND
  1   1   2  1   
  2   2   3  ar  
  3   2   4  ar  
  4   3   5  1   
  5   3   6  ar  
  6   4   7  ar  
  7   4  21  1   
  8   5   8  am  
  9   5  22  1   
 10   6   9  ar  
 11   6  23  1   
 12   7   9  ar  
 13   7  10  1   
 14   8  11  2   
 15   8  12  1   
 16   9  24  1   
 17  10  13  am  
 18  10  25  1   
 19  12  14  1   
 20  12  15  1   
 21  12  26  1   
 22  13  16  2   
 23  13  17  1   
 24  14  18  1   
 25  14  27  1   
 26  14  28  1   
 27  15  19  1   
 28  15  29  1   
 29  15  30  1   
 30  17  31  1   
 31  17  32  1   
 32  17  33  1   
 33  18  20  1   
 34  18  34  1   
 35  18  35  1   
 36  19  20  1   
 37  19  36  1   
 38  19  37  1   
 39  20  38  1   
 40  20  39  1   
@<TRIPOS>SUBSTRUCTURE
  1 ****   3 GROUP 4 **** **** 0

# MOE 2024.06 (io_trps.svl 2023.06)
