@<TRIPOS>MOLECULE
NONAME
43 45 1 0 0 
SMALL
USER_CHARGES


@<TRIPOS>ATOM
  1 CL      -2.4280     1.3400     2.1200 Cl    1 <1>  -0.1770 
  2 C       -1.2580     2.2550     1.1920 C.ar  1 <1>   0.1770 
  3 C       -0.1810     2.8530     1.8270 C.ar  1 <1>   0.1770 
  4 C       -1.4310     2.3800    -0.1800 C.ar  1 <1>  -0.1440 
  5 CL       0.0270     2.7030     3.5550 Cl    1 <1>  -0.1770 
  6 C        0.7410     3.5830     1.1020 C.ar  1 <1>  -0.1500 
  7 C       -0.4990     3.1130    -0.9060 C.ar  1 <1>  -0.1500 
  8 C       -2.6120     1.7240    -0.8700 C.3   1 <1>   0.4870 
  9 C        0.5780     3.7100    -0.2680 C.ar  1 <1>  -0.1500 
 10 N       -3.8710     2.3960    -0.4550 N.4   1 <1>  -0.9590 
 11 C       -5.0730     1.6850    -0.9680 C.3   1 <1>   0.4860 
 12 C       -3.9240     3.8450    -0.8150 C.3   1 <1>   0.3430 
 13 C       -6.3370     2.3740    -0.4850 C.ar  1 <1>  -0.1430 
 14 C       -5.0690     4.5270    -0.0620 C.3   1 <1>  -0.0170 
 15 C       -6.3470     3.7000    -0.0730 C.ar  1 <1>  -0.1430 
 16 C       -7.5190     1.6520    -0.4650 C.ar  1 <1>  -0.1500 
 17 C       -7.5330     4.2800     0.3480 C.ar  1 <1>  -0.1500 
 18 C       -8.7110     2.2170    -0.0470 C.ar  1 <1>   0.0830 
 19 C       -8.7260     3.5600     0.3690 C.ar  1 <1>   0.0830 
 20 O       -9.7680     1.3540    -0.0960 O.3   1 <1>  -0.3620 
 21 O       -9.8890     4.1430     0.7840 O.3   1 <1>  -0.3620 
 22 C      -11.0780     1.6960     0.2960 C.3   1 <1>   0.0400 
 23 C       -9.9680     5.4880     1.2030 C.3   1 <1>   0.0400 
 24 H        1.5750     4.0420     1.6040 H     1 <1>   0.1500 
 25 H       -0.5920     3.2260    -1.9750 H     1 <1>   0.1500 
 26 H       -2.6440     0.6810    -0.5950 H     1 <1>   0.0800 
 27 H       -2.4930     1.7880    -1.9400 H     1 <1>   0.0800 
 28 H        1.2990     4.2760    -0.8390 H     1 <1>   0.1500 
 29 H       -3.9270     2.3350     0.5730 H     1 <1>   0.4500 
 30 H       -5.0730     0.6640    -0.6210 H     1 <1>   0.0800 
 31 H       -5.0680     1.6790    -2.0460 H     1 <1>   0.0800 
 32 H       -4.0860     3.9480    -1.8760 H     1 <1>   0.0800 
 33 H       -2.9970     4.3340    -0.5630 H     1 <1>   0.0800 
 34 H       -5.2540     5.4890    -0.5070 H     1 <1>   0.0800 
 35 H       -4.7690     4.6950     0.9580 H     1 <1>   0.0800 
 36 H       -7.5420     0.6230    -0.7790 H     1 <1>   0.1500 
 37 H       -7.5100     5.3050     0.6640 H     1 <1>   0.1500 
 38 H      -11.7040     0.8320     0.1660 H     1 <1>   0.0800 
 39 H      -11.4300     2.4990    -0.3260 H     1 <1>   0.0800 
 40 H      -11.0680     1.9870     1.3320 H     1 <1>   0.0800 
 41 H      -10.9890     5.6940     1.4700 H     1 <1>   0.0800 
 42 H       -9.6700     6.1260     0.3900 H     1 <1>   0.0800 
 43 H       -9.3340     5.6260     2.0610 H     1 <1>   0.0800 
@<TRIPOS>BOND
  1   1   2  1   
  2   2   3  ar  
  3   2   4  ar  
  4   3   5  1   
  5   3   6  ar  
  6   4   7  ar  
  7   4   8  1   
  8   6   9  ar  
  9   6  24  1   
 10   7   9  ar  
 11   7  25  1   
 12   8  10  1   
 13   8  26  1   
 14   8  27  1   
 15   9  28  1   
 16  10  11  1   
 17  10  12  1   
 18  10  29  1   
 19  11  13  1   
 20  11  30  1   
 21  11  31  1   
 22  12  14  1   
 23  12  32  1   
 24  12  33  1   
 25  13  15  ar  
 26  13  16  ar  
 27  14  15  1   
 28  14  34  1   
 29  14  35  1   
 30  15  17  ar  
 31  16  18  ar  
 32  16  36  1   
 33  17  19  ar  
 34  17  37  1   
 35  18  19  ar  
 36  18  20  1   
 37  19  21  1   
 38  20  22  1   
 39  21  23  1   
 40  22  38  1   
 41  22  39  1   
 42  22  40  1   
 43  23  41  1   
 44  23  42  1   
 45  23  43  1   
@<TRIPOS>SUBSTRUCTURE
  1 ****  10 GROUP 4 **** **** 0

# MOE 2024.06 (io_trps.svl 2023.06)
