@<TRIPOS>MOLECULE
NONAME
41 42 1 0 0 
SMALL
USER_CHARGES


@<TRIPOS>ATOM
  1 O       -0.5480    -0.2870    -0.6790 O.3   1 <1>  -0.3630 
  2 C       -1.8620    -0.4450    -0.3820 C.ar  1 <1>   0.0830 
  3 C        0.4590    -0.7220     0.2030 C.3   1 <1>   0.1200 
  4 C       -2.3270    -1.0350     0.7910 C.ar  1 <1>  -0.1500 
  5 C       -2.7730     0.0180    -1.3180 C.ar  1 <1>  -0.1500 
  6 C        1.8150    -0.3990    -0.4240 C.3   1 <1>  -0.1600 
  7 C       -3.6890    -1.1560     1.0130 C.ar  1 <1>  -0.1500 
  8 C       -4.1330    -0.1030    -1.0950 C.ar  1 <1>  -0.1500 
  9 C        2.9700    -0.8380     0.4860 C.3   1 <1>  -0.1600 
 10 C       -4.5920    -0.6910     0.0720 C.ar  1 <1>  -0.1500 
 11 C        4.3260    -0.5070    -0.1490 C.3   1 <1>  -0.1600 
 12 C        5.4920    -0.9320     0.7500 C.3   1 <1>   0.0210 
 13 C        6.8170    -0.5800     0.0960 C.2   1 <1>  -0.1810 
 14 C        7.5110     0.6240     0.2190 C.2   1 <1>   0.1080 
 15 C        7.5840    -1.3350    -0.7210 C.2   1 <1>  -0.3320 
 16 N        8.6150     0.6270    -0.4570 N.2   1 <1>  -0.7070 
 17 C        7.0720     1.8190     1.0350 C.3   1 <1>  -0.0590 
 18 N        8.6600    -0.5850    -1.0370 N.pl3 1 <1>   0.3000 
 19 C        7.3740    -2.7450    -1.2460 C.3   1 <1>  -0.0600 
 20 H        0.3490    -1.7830     0.3460 H     1 <1>   0.0800 
 21 H        0.3380    -0.2030     1.1380 H     1 <1>   0.0800 
 22 H       -1.6510    -1.4050     1.5370 H     1 <1>   0.1500 
 23 H       -2.4080     0.4730    -2.2210 H     1 <1>   0.1500 
 24 H        1.8760     0.6620    -0.5950 H     1 <1>   0.0800 
 25 H        1.8910    -0.9050    -1.3710 H     1 <1>   0.0800 
 26 H       -4.0480    -1.6120     1.9190 H     1 <1>   0.1500 
 27 H       -4.8330     0.2590    -1.8280 H     1 <1>   0.1500 
 28 H        2.9050    -1.8990     0.6600 H     1 <1>   0.0800 
 29 H        2.8870    -0.3360     1.4350 H     1 <1>   0.0800 
 30 H       -5.6490    -0.7860     0.2470 H     1 <1>   0.1500 
 31 H        4.3910     0.5510    -0.3340 H     1 <1>   0.0800 
 32 H        4.4160    -1.0110    -1.0970 H     1 <1>   0.0800 
 33 H        5.4510    -1.9920     0.9230 H     1 <1>   0.0800 
 34 H        5.4220    -0.4420     1.7040 H     1 <1>   0.0800 
 35 H        6.0600     2.0800     0.7910 H     1 <1>   0.0800 
 36 H        7.7080     2.6580     0.8200 H     1 <1>   0.0800 
 37 H        7.1420     1.5870     2.0810 H     1 <1>   0.0800 
 38 H        9.4370    -0.8670    -1.6450 H     1 <1>   0.2700 
 39 H        6.4350    -3.1410    -0.9050 H     1 <1>   0.0800 
 40 H        8.1630    -3.3900    -0.9010 H     1 <1>   0.0800 
 41 H        7.3690    -2.7420    -2.3220 H     1 <1>   0.0800 
@<TRIPOS>BOND
  1   1   2  1   
  2   1   3  1   
  3   2   4  ar  
  4   2   5  ar  
  5   3   6  1   
  6   3  20  1   
  7   3  21  1   
  8   4   7  ar  
  9   4  22  1   
 10   5   8  ar  
 11   5  23  1   
 12   6   9  1   
 13   6  24  1   
 14   6  25  1   
 15   7  10  ar  
 16   7  26  1   
 17   8  10  ar  
 18   8  27  1   
 19   9  11  1   
 20   9  28  1   
 21   9  29  1   
 22  10  30  1   
 23  11  12  1   
 24  11  31  1   
 25  11  32  1   
 26  12  13  1   
 27  12  33  1   
 28  12  34  1   
 29  13  14  1   
 30  13  15  2   
 31  14  16  2   
 32  14  17  1   
 33  15  18  1   
 34  15  19  1   
 35  16  18  1   
 36  17  35  1   
 37  17  36  1   
 38  17  37  1   
 39  18  38  1   
 40  19  39  1   
 41  19  40  1   
 42  19  41  1   
@<TRIPOS>SUBSTRUCTURE
  1 ****   6 GROUP 4 **** **** 0

# MOE 2024.06 (io_trps.svl 2023.06)
