@<TRIPOS>MOLECULE
NONAME
48 50 1 0 0 
SMALL
USER_CHARGES


@<TRIPOS>ATOM
  1 O        0.1320    -0.6110    -0.1280 O.3   1 <1>  -0.5600 
  2 C        0.3210    -2.0000    -0.1090 C.3   1 <1>   0.1200 
  3 C        1.2340     0.0930    -0.6310 C.3   1 <1>   0.1200 
  4 C        1.5150    -2.3850     0.7820 C.3   1 <1>   0.2090 
  5 C        2.4940    -0.1570     0.2180 C.3   1 <1>   0.2090 
  6 N        2.7410    -1.6240     0.3870 N.pl3 1 <1>  -0.8380 
  7 C        3.9960    -2.1900     0.3050 C.ar  1 <1>   0.7200 
  8 N        5.0140    -1.3760     0.2010 N.ar  1 <1>  -0.6200 
  9 N        4.0740    -3.4960     0.3370 N.ar  1 <1>  -0.6200 
 10 C        6.1730    -1.9700     0.1270 C.ar  1 <1>   0.7200 
 11 C        5.2870    -3.9520     0.2510 C.ar  1 <1>   0.7200 
 12 N        6.3840    -3.2540     0.1340 N.ar  1 <1>  -0.6200 
 13 N        7.3080    -1.2200     0.0060 N.pl3 1 <1>  -0.6000 
 14 N        5.3840    -5.3010     0.2780 N.pl3 1 <1>  -0.8690 
 15 C        7.5420     0.1590     0.0520 C.ar  1 <1>   0.1000 
 16 C        6.5620    -6.0680    -0.1630 C.3   1 <1>   0.2090 
 17 C        8.5590     0.6970    -0.7270 C.ar  1 <1>  -0.1500 
 18 C        6.8130     1.0170     0.8680 C.ar  1 <1>  -0.1500 
 19 C        6.3530    -7.5410     0.1860 C.3   1 <1>  -0.1600 
 20 C        8.8350     2.0520    -0.6980 C.ar  1 <1>  -0.1500 
 21 C        7.0860     2.3720     0.8980 C.ar  1 <1>  -0.1500 
 22 C        7.5530    -8.3950    -0.2400 C.3   1 <1>  -0.2400 
 23 C        8.1000     2.8990     0.1160 C.ar  1 <1>  -0.1430 
 24 C        8.4000     4.3870     0.1470 C.3   1 <1>  -0.0970 
 25 H        0.4830    -2.3400    -1.1160 H     1 <1>   0.0800 
 26 H       -0.5800    -2.4480     0.2670 H     1 <1>   0.0800 
 27 H        0.9870     1.1390    -0.6250 H     1 <1>   0.0800 
 28 H        1.4050    -0.2150    -1.6480 H     1 <1>   0.0800 
 29 H        1.6710    -3.4460     0.7090 H     1 <1>   0.0800 
 30 H        1.2770    -2.1580     1.8070 H     1 <1>   0.0800 
 31 H        2.3640     0.2930     1.1860 H     1 <1>   0.0800 
 32 H        3.3280     0.3250    -0.2620 H     1 <1>   0.0800 
 33 H        8.1100    -1.8120    -0.1850 H     1 <1>   0.4000 
 34 H        4.4820    -5.7690     0.2090 H     1 <1>   0.4000 
 35 H        7.4420    -5.6930     0.3330 H     1 <1>   0.0800 
 36 H        6.6880    -5.9500    -1.2270 H     1 <1>   0.0800 
 37 H        9.1350     0.0530    -1.3640 H     1 <1>   0.1500 
 38 H        6.0300     0.6210     1.4880 H     1 <1>   0.1500 
 39 H        5.4700    -7.9040    -0.3090 H     1 <1>   0.0800 
 40 H        6.2150    -7.6340     1.2500 H     1 <1>   0.0800 
 41 H        9.6250     2.4460    -1.3130 H     1 <1>   0.1500 
 42 H        6.5050     3.0140     1.5360 H     1 <1>   0.1500 
 43 H        7.7020    -8.3320    -1.3040 H     1 <1>   0.0800 
 44 H        7.3810    -9.4250     0.0200 H     1 <1>   0.0800 
 45 H        8.4470    -8.0620     0.2580 H     1 <1>   0.0800 
 46 H        9.4390     4.5660    -0.0630 H     1 <1>   0.0800 
 47 H        8.1750     4.7940     1.1160 H     1 <1>   0.0800 
 48 H        7.8040     4.8930    -0.5900 H     1 <1>   0.0800 
@<TRIPOS>BOND
  1   1   2  1   
  2   1   3  1   
  3   2   4  1   
  4   2  25  1   
  5   2  26  1   
  6   3   5  1   
  7   3  27  1   
  8   3  28  1   
  9   4   6  1   
 10   4  29  1   
 11   4  30  1   
 12   5   6  1   
 13   5  31  1   
 14   5  32  1   
 15   6   7  1   
 16   7   8  ar  
 17   7   9  ar  
 18   8  10  ar  
 19   9  11  ar  
 20  10  12  ar  
 21  10  13  1   
 22  11  12  ar  
 23  11  14  1   
 24  13  15  1   
 25  13  33  1   
 26  14  16  1   
 27  14  34  1   
 28  15  17  ar  
 29  15  18  ar  
 30  16  19  1   
 31  16  35  1   
 32  16  36  1   
 33  17  20  ar  
 34  17  37  1   
 35  18  21  ar  
 36  18  38  1   
 37  19  22  1   
 38  19  39  1   
 39  19  40  1   
 40  20  23  ar  
 41  20  41  1   
 42  21  23  ar  
 43  21  42  1   
 44  22  43  1   
 45  22  44  1   
 46  22  45  1   
 47  23  24  1   
 48  24  46  1   
 49  24  47  1   
 50  24  48  1   
@<TRIPOS>SUBSTRUCTURE
  1 ****   8 GROUP 4 **** **** 0

# MOE 2024.06 (io_trps.svl 2023.06)
