@<TRIPOS>MOLECULE
NONAME
58 59 1 0 0 
SMALL
USER_CHARGES


@<TRIPOS>ATOM
  1 S        1.5640     0.3610     0.3580 S.o2  1 <1>   1.4470 
  2 O        2.3230     1.4160     1.0000 O.2   1 <1>  -0.6500 
  3 O        2.0210    -1.0010     0.5370 O.2   1 <1>  -0.6500 
  4 N        1.6100     0.6890    -1.3080 N.am  1 <1>  -0.8490 
  5 C       -0.1950     0.5150     0.7720 C.ar  1 <1>  -0.0090 
  6 C        2.8960     1.2840    -1.7570 C.3   1 <1>   0.2570 
  7 C        1.2420    -0.4620    -2.1420 C.3   1 <1>   0.1160 
  8 C       -0.9040    -0.5460     1.3240 C.ar  1 <1>  -0.1500 
  9 C       -0.8810     1.7010     0.5410 C.ar  1 <1>  -0.1500 
 10 C        4.1600     0.4590    -1.4580 C.2   1 <1>   0.5690 
 11 C       -2.2480    -0.4270     1.6340 C.ar  1 <1>  -0.1500 
 12 C       -2.2250     1.8270     0.8480 C.ar  1 <1>  -0.1500 
 13 O        4.5890    -0.2830    -2.3120 O.2   1 <1>  -0.5700 
 14 N        4.7510     0.5780    -0.2330 N.am  1 <1>  -0.7300 
 15 C       -2.9160     0.7620     1.3980 C.ar  1 <1>  -0.1430 
 16 C        5.8140    -0.2600     0.3510 C.3   1 <1>   0.2200 
 17 C       -4.3900     0.8950     1.7370 C.3   1 <1>  -0.0970 
 18 C        7.1020    -0.1440    -0.4670 C.3   1 <1>  -0.1600 
 19 C        5.3430    -1.7130     0.4240 C.3   1 <1>  -0.1600 
 20 C        8.2150    -1.0590     0.0550 C.3   1 <1>   0.5030 
 21 C        6.4210    -2.6600     0.9580 C.3   1 <1>   0.5030 
 22 N        7.7080    -2.4210     0.2860 N.4   1 <1>  -0.9060 
 23 C        8.8720    -0.5050     1.3220 C.3   1 <1>  -0.2400 
 24 C        9.2980    -1.2050    -1.0130 C.3   1 <1>  -0.2400 
 25 C        6.5780    -2.5570     2.4780 C.3   1 <1>  -0.2400 
 26 C        6.0460    -4.1020     0.6190 C.3   1 <1>  -0.2400 
 27 H        3.0110     2.2490    -1.2960 H     1 <1>   0.0800 
 28 H        2.8520     1.4530    -2.8190 H     1 <1>   0.0800 
 29 H        0.2750    -0.8360    -1.8480 H     1 <1>   0.0800 
 30 H        1.9650    -1.2550    -2.0400 H     1 <1>   0.0800 
 31 H        1.1900    -0.1700    -3.1770 H     1 <1>   0.0800 
 32 H       -0.4010    -1.4790     1.5150 H     1 <1>   0.1500 
 33 H       -0.3560     2.5380     0.1130 H     1 <1>   0.1500 
 34 H       -2.7720    -1.2660     2.0590 H     1 <1>   0.1500 
 35 H       -2.7290     2.7580     0.6570 H     1 <1>   0.1500 
 36 H        4.2220     1.1260     0.4650 H     1 <1>   0.3700 
 37 H        5.9960     0.1030     1.3480 H     1 <1>   0.0800 
 38 H       -4.9850     0.6050     0.8900 H     1 <1>   0.0800 
 39 H       -4.6260     1.9110     1.9960 H     1 <1>   0.0800 
 40 H       -4.6430     0.2650     2.5710 H     1 <1>   0.0800 
 41 H        7.4400     0.8770    -0.4560 H     1 <1>   0.0800 
 42 H        6.9020    -0.4030    -1.4900 H     1 <1>   0.0800 
 43 H        5.0470    -2.0420    -0.5550 H     1 <1>   0.0800 
 44 H        4.4750    -1.7740     1.0560 H     1 <1>   0.0800 
 45 H        8.4300    -2.9600     0.7670 H     1 <1>   0.4500 
 46 H        7.6070    -2.8350    -0.6430 H     1 <1>   0.4500 
 47 H        8.1550    -0.2100     2.0610 H     1 <1>   0.0800 
 48 H        9.4330     0.3800     1.0790 H     1 <1>   0.0800 
 49 H        9.5550    -1.2160     1.7510 H     1 <1>   0.0800 
 50 H        8.8990    -1.6180    -1.9230 H     1 <1>   0.0800 
 51 H       10.1050    -1.8270    -0.6680 H     1 <1>   0.0800 
 52 H        9.7100    -0.2400    -1.2520 H     1 <1>   0.0800 
 53 H        6.6660    -1.5440     2.8130 H     1 <1>   0.0800 
 54 H        7.4230    -3.1240     2.8230 H     1 <1>   0.0800 
 55 H        5.7000    -2.9550     2.9570 H     1 <1>   0.0800 
 56 H        5.9490    -4.2420    -0.4440 H     1 <1>   0.0800 
 57 H        5.0950    -4.3450     1.0620 H     1 <1>   0.0800 
 58 H        6.7720    -4.7960     1.0030 H     1 <1>   0.0800 
@<TRIPOS>BOND
  1   1   2  2   
  2   1   3  2   
  3   1   4  am  
  4   1   5  1   
  5   4   6  1   
  6   4   7  1   
  7   5   8  ar  
  8   5   9  ar  
  9   6  10  1   
 10   6  27  1   
 11   6  28  1   
 12   7  29  1   
 13   7  30  1   
 14   7  31  1   
 15   8  11  ar  
 16   8  32  1   
 17   9  12  ar  
 18   9  33  1   
 19  10  13  2   
 20  10  14  am  
 21  11  15  ar  
 22  11  34  1   
 23  12  15  ar  
 24  12  35  1   
 25  14  16  1   
 26  14  36  1   
 27  15  17  1   
 28  16  18  1   
 29  16  19  1   
 30  16  37  1   
 31  17  38  1   
 32  17  39  1   
 33  17  40  1   
 34  18  20  1   
 35  18  41  1   
 36  18  42  1   
 37  19  21  1   
 38  19  43  1   
 39  19  44  1   
 40  20  22  1   
 41  20  23  1   
 42  20  24  1   
 43  21  22  1   
 44  21  25  1   
 45  21  26  1   
 46  22  45  1   
 47  22  46  1   
 48  23  47  1   
 49  23  48  1   
 50  23  49  1   
 51  24  50  1   
 52  24  51  1   
 53  24  52  1   
 54  25  53  1   
 55  25  54  1   
 56  25  55  1   
 57  26  56  1   
 58  26  57  1   
 59  26  58  1   
@<TRIPOS>SUBSTRUCTURE
  1 ****   3 GROUP 4 **** **** 0

# MOE 2024.06 (io_trps.svl 2023.06)
