@<TRIPOS>MOLECULE
NONAME
36 37 1 0 0 
SMALL
USER_CHARGES


@<TRIPOS>ATOM
  1 CL      -1.1770     0.5410    -2.6030 Cl    1 <1>  -0.1770 
  2 C       -2.0730     0.9110    -1.1490 C.ar  1 <1>   0.1770 
  3 C       -1.4290     1.4240    -0.0350 C.ar  1 <1>   0.1770 
  4 C       -3.4350     0.6840    -1.1290 C.ar  1 <1>  -0.1500 
  5 CL       0.2910     1.7200    -0.0450 Cl    1 <1>  -0.1770 
  6 C       -2.1520     1.7080     1.1080 C.ar  1 <1>  -0.1500 
  7 C       -4.1950     0.9690     0.0100 C.ar  1 <1>   0.0860 
  8 C       -3.5190     1.4790     1.1240 C.ar  1 <1>  -0.1500 
  9 C       -5.6320     0.7350     0.0250 C.2   1 <1>   0.5440 
 10 O       -6.1670     0.0450    -0.8210 O.2   1 <1>  -0.5700 
 11 N       -6.4570     1.3200     0.9540 N.am  1 <1>  -0.6600 
 12 C       -6.7430     2.7760     0.8200 C.3   1 <1>   0.1400 
 13 C       -7.6300     0.5370     1.4460 C.3   1 <1>   0.1400 
 14 C       -7.9610     2.9950    -0.1040 C.3   1 <1>   0.3430 
 15 C       -8.8410     0.7460     0.5160 C.3   1 <1>   0.3430 
 16 N       -9.1690     2.2080     0.3360 N.4   1 <1>  -0.9590 
 17 C      -10.2960     2.3980    -0.6020 C.3   1 <1>   0.4810 
 18 C      -11.5530     1.9940     0.1310 C.2   1 <1>  -0.2880 
 19 C      -12.4570     2.8410     0.6340 C.2   1 <1>  -0.3000 
 20 H       -3.9110     0.2800    -2.0060 H     1 <1>   0.1500 
 21 H       -1.6450     2.1010     1.9720 H     1 <1>   0.1500 
 22 H       -4.0680     1.6950     2.0250 H     1 <1>   0.1500 
 23 H       -5.8860     3.2790     0.4040 H     1 <1>   0.0800 
 24 H       -6.9330     3.1980     1.7920 H     1 <1>   0.0800 
 25 H       -7.8730     0.8360     2.4500 H     1 <1>   0.0800 
 26 H       -7.3780    -0.5110     1.4660 H     1 <1>   0.0800 
 27 H       -7.6820     2.6920    -1.1010 H     1 <1>   0.0800 
 28 H       -8.1980     4.0460    -0.1330 H     1 <1>   0.0800 
 29 H       -9.6910     0.2230     0.9220 H     1 <1>   0.0800 
 30 H       -8.6060     0.3050    -0.4400 H     1 <1>   0.0800 
 31 H       -9.4950     2.5720     1.2400 H     1 <1>   0.4500 
 32 H      -10.1630     1.8110    -1.4980 H     1 <1>   0.0800 
 33 H      -10.3710     3.4380    -0.8770 H     1 <1>   0.0800 
 34 H      -11.6710     0.9260     0.2110 H     1 <1>   0.1500 
 35 H      -13.3520     2.5250     1.1490 H     1 <1>   0.1500 
 36 H      -12.4010     3.9160     0.5790 H     1 <1>   0.1500 
@<TRIPOS>BOND
  1   1   2  1   
  2   2   3  ar  
  3   2   4  ar  
  4   3   5  1   
  5   3   6  ar  
  6   4   7  ar  
  7   4  20  1   
  8   6   8  ar  
  9   6  21  1   
 10   7   8  ar  
 11   7   9  1   
 12   8  22  1   
 13   9  10  2   
 14   9  11  am  
 15  11  12  1   
 16  11  13  1   
 17  12  14  1   
 18  12  23  1   
 19  12  24  1   
 20  13  15  1   
 21  13  25  1   
 22  13  26  1   
 23  14  16  1   
 24  14  27  1   
 25  14  28  1   
 26  15  16  1   
 27  15  29  1   
 28  15  30  1   
 29  16  17  1   
 30  16  31  1   
 31  17  18  1   
 32  17  32  1   
 33  17  33  1   
 34  18  19  2   
 35  18  34  1   
 36  19  35  1   
 37  19  36  1   
@<TRIPOS>SUBSTRUCTURE
  1 ****   9 GROUP 4 **** **** 0

# MOE 2024.06 (io_trps.svl 2023.06)
