@<TRIPOS>MOLECULE
NONAME
46 48 1 0 0 
SMALL
USER_CHARGES


@<TRIPOS>ATOM
  1 CL      -1.2950    -0.0580    -2.3590 Cl    1 <1>  -0.1770 
  2 C       -2.7530    -0.6450    -1.5950 C.ar  1 <1>   0.1770 
  3 C       -3.9670    -0.5600    -2.2530 C.ar  1 <1>   0.1600 
  4 C       -2.6890    -1.1940    -0.3340 C.ar  1 <1>  -0.1500 
  5 N       -5.1210    -0.9780    -1.7490 N.ar  1 <1>  -0.6200 
  6 C       -3.8820    -1.6320     0.1980 C.ar  1 <1>  -0.1500 
  7 C       -5.0660    -1.5060    -0.5330 C.ar  1 <1>   0.4270 
  8 N       -6.2940    -1.9220    -0.0700 N.am  1 <1>  -0.5470 
  9 C       -6.7600    -2.3130     1.1470 C.2   1 <1>   0.5690 
 10 O       -6.0750    -2.4020     2.1360 O.2   1 <1>  -0.5700 
 11 C       -8.2520    -2.6470     1.2370 C.3   1 <1>   0.1710 
 12 N       -9.0720    -2.0400     0.1480 N.3   1 <1>  -0.8100 
 13 C      -10.4020    -2.6840     0.0650 C.3   1 <1>   0.1100 
 14 C       -9.2520    -0.5800     0.3620 C.3   1 <1>   0.1100 
 15 C      -11.2800    -2.0870    -1.0560 C.3   1 <1>   0.2090 
 16 C      -10.0700     0.0790    -0.7650 C.3   1 <1>   0.2090 
 17 N      -11.3860    -0.6010    -0.9480 N.pl3 1 <1>  -0.8380 
 18 C      -12.5290     0.0210    -0.4420 C.ar  1 <1>   0.1000 
 19 C      -12.9340     1.2390    -0.9690 C.ar  1 <1>  -0.1500 
 20 C      -13.2830    -0.5350     0.5880 C.ar  1 <1>  -0.1500 
 21 C      -14.0520     1.8990    -0.4900 C.ar  1 <1>   0.0820 
 22 C      -14.4060     0.1110     1.0740 C.ar  1 <1>  -0.1500 
 23 O      -14.3580     3.0880    -1.0710 O.3   1 <1>  -0.3620 
 24 C      -14.7940     1.3280     0.5410 C.ar  1 <1>  -0.1500 
 25 C      -15.4950     3.8210    -0.6760 C.3   1 <1>   0.0400 
 26 H       -3.9830    -0.1280    -3.2380 H     1 <1>   0.1500 
 27 H       -1.7560    -1.2720     0.1970 H     1 <1>   0.1500 
 28 H       -3.8950    -2.0740     1.1760 H     1 <1>   0.1500 
 29 H       -7.0360    -1.8350    -0.7680 H     1 <1>   0.3700 
 30 H       -8.6220    -2.3330     2.1970 H     1 <1>   0.0800 
 31 H       -8.3340    -3.7180     1.1870 H     1 <1>   0.0800 
 32 H      -10.9170    -2.5760     1.0030 H     1 <1>   0.0800 
 33 H      -10.2770    -3.7360    -0.1270 H     1 <1>   0.0800 
 34 H       -8.2930    -0.0950     0.4120 H     1 <1>   0.0800 
 35 H       -9.7600    -0.4060     1.2950 H     1 <1>   0.0800 
 36 H      -12.2620    -2.5240    -1.0240 H     1 <1>   0.0800 
 37 H      -10.8450    -2.3320    -2.0080 H     1 <1>   0.0800 
 38 H       -9.5150     0.0280    -1.6850 H     1 <1>   0.0800 
 39 H      -10.2250     1.1180    -0.5280 H     1 <1>   0.0800 
 40 H      -12.3700     1.6760    -1.7700 H     1 <1>   0.1500 
 41 H      -12.9870    -1.4710     1.0160 H     1 <1>   0.1500 
 42 H      -14.9780    -0.3320     1.8700 H     1 <1>   0.1500 
 43 H      -15.6670     1.8100     0.9360 H     1 <1>   0.1500 
 44 H      -15.5420     4.7130    -1.2750 H     1 <1>   0.0800 
 45 H      -15.3980     4.0830     0.3630 H     1 <1>   0.0800 
 46 H      -16.3720     3.2210    -0.8430 H     1 <1>   0.0800 
@<TRIPOS>BOND
  1   1   2  1   
  2   2   3  ar  
  3   2   4  ar  
  4   3   5  ar  
  5   3  26  1   
  6   4   6  ar  
  7   4  27  1   
  8   5   7  ar  
  9   6   7  ar  
 10   6  28  1   
 11   7   8  1   
 12   8   9  am  
 13   8  29  1   
 14   9  10  2   
 15   9  11  1   
 16  11  12  1   
 17  11  30  1   
 18  11  31  1   
 19  12  13  1   
 20  12  14  1   
 21  13  15  1   
 22  13  32  1   
 23  13  33  1   
 24  14  16  1   
 25  14  34  1   
 26  14  35  1   
 27  15  17  1   
 28  15  36  1   
 29  15  37  1   
 30  16  17  1   
 31  16  38  1   
 32  16  39  1   
 33  17  18  1   
 34  18  19  ar  
 35  18  20  ar  
 36  19  21  ar  
 37  19  40  1   
 38  20  22  ar  
 39  20  41  1   
 40  21  23  1   
 41  21  24  ar  
 42  22  24  ar  
 43  22  42  1   
 44  23  25  1   
 45  24  43  1   
 46  25  44  1   
 47  25  45  1   
 48  25  46  1   
@<TRIPOS>SUBSTRUCTURE
  1 ****  14 GROUP 4 **** **** 0

# MOE 2024.06 (io_trps.svl 2023.06)
