@<TRIPOS>MOLECULE
NONAME
35 35 1 0 0 
SMALL
USER_CHARGES


@<TRIPOS>ATOM
  1 O       -0.6450    -0.3800    -0.7810 O.2   1 <1>  -0.5700 
  2 C       -1.3690     0.5440    -0.4950 C.2   1 <1>   0.4950 
  3 C       -0.9270     1.9010    -0.3260 C.2   1 <1>   0.0290 
  4 C       -2.8370     0.1620    -0.3740 C.3   1 <1>  -0.0990 
  5 C       -1.9090     2.9050    -0.6500 C.2   1 <1>   0.4950 
  6 C        0.3520     2.2370     0.1050 C.2   1 <1>  -0.0380 
  7 C       -3.7450     1.3050     0.0980 C.3   1 <1>   0.0000 
  8 O       -1.6730     4.0700    -0.8880 O.2   1 <1>  -0.5700 
  9 C       -3.3870     2.5520    -0.7210 C.3   1 <1>  -0.0990 
 10 N        0.8050     3.5160     0.1190 N.pl3 1 <1>  -0.8690 
 11 C        1.3570     1.1990     0.6060 C.3   1 <1>  -0.1020 
 12 C       -5.2150     0.9320    -0.1460 C.3   1 <1>  -0.2400 
 13 C       -3.5590     1.5650     1.6060 C.3   1 <1>  -0.2400 
 14 C        2.1200     4.0770     0.4710 C.3   1 <1>   0.3470 
 15 C        1.9820     5.5830     0.4350 C.2   1 <1>  -0.2880 
 16 C        2.6430     6.4080    -0.3840 C.2   1 <1>  -0.3000 
 17 H       -3.1540    -0.1740    -1.3450 H     1 <1>   0.0800 
 18 H       -2.9220    -0.6750     0.2960 H     1 <1>   0.0800 
 19 H       -3.9600     3.3910    -0.3670 H     1 <1>   0.0800 
 20 H       -3.6390     2.4030    -1.7550 H     1 <1>   0.0800 
 21 H        0.1700     4.2510    -0.2470 H     1 <1>   0.4000 
 22 H        1.9410     1.5830     1.4190 H     1 <1>   0.0800 
 23 H        2.0160     0.9180    -0.1960 H     1 <1>   0.0800 
 24 H        0.8730     0.3170     0.9800 H     1 <1>   0.0800 
 25 H       -5.4760     0.0430     0.4020 H     1 <1>   0.0800 
 26 H       -5.3990     0.7490    -1.1900 H     1 <1>   0.0800 
 27 H       -5.8660     1.7270     0.1740 H     1 <1>   0.0800 
 28 H       -2.5440     1.8160     1.8550 H     1 <1>   0.0800 
 29 H       -3.8320     0.6930     2.1740 H     1 <1>   0.0800 
 30 H       -4.1870     2.3790     1.9260 H     1 <1>   0.0800 
 31 H        2.4100     3.7610     1.4570 H     1 <1>   0.0800 
 32 H        2.8550     3.7460    -0.2430 H     1 <1>   0.0800 
 33 H        1.2680     5.9350     1.1600 H     1 <1>   0.1500 
 34 H        2.5180     7.4770    -0.3850 H     1 <1>   0.1500 
 35 H        3.3570     6.0870    -1.1220 H     1 <1>   0.1500 
@<TRIPOS>BOND
  1   1   2  2   
  2   2   3  1   
  3   2   4  1   
  4   3   5  1   
  5   3   6  2   
  6   4   7  1   
  7   4  17  1   
  8   4  18  1   
  9   5   8  2   
 10   5   9  1   
 11   6  10  1   
 12   6  11  1   
 13   7   9  1   
 14   7  12  1   
 15   7  13  1   
 16   9  19  1   
 17   9  20  1   
 18  10  14  1   
 19  10  21  1   
 20  11  22  1   
 21  11  23  1   
 22  11  24  1   
 23  12  25  1   
 24  12  26  1   
 25  12  27  1   
 26  13  28  1   
 27  13  29  1   
 28  13  30  1   
 29  14  15  1   
 30  14  31  1   
 31  14  32  1   
 32  15  16  2   
 33  15  33  1   
 34  16  34  1   
 35  16  35  1   
@<TRIPOS>SUBSTRUCTURE
  1 ****   3 GROUP 4 **** **** 0

# MOE 2024.06 (io_trps.svl 2023.06)
