@<TRIPOS>MOLECULE
NONAME
39 40 1 0 0 
SMALL
USER_CHARGES


@<TRIPOS>ATOM
  1 BR      -0.9840     0.7230    -2.4170 Br    1 <1>  -0.1110 
  2 C        0.2580     2.1320    -1.9940 C.ar  1 <1>   0.1110 
  3 C        0.3340     2.6680    -0.7150 C.ar  1 <1>  -0.0090 
  4 C        1.0480     2.5760    -3.0370 C.ar  1 <1>  -0.1500 
  5 S       -0.6540     2.0800     0.6850 S.o2  1 <1>   1.2040 
  6 C        1.2280     3.7220    -0.5420 C.ar  1 <1>  -0.1500 
  7 C        1.9410     3.6070    -2.8130 C.ar  1 <1>  -0.1500 
  8 O       -0.1510     2.7450     1.8670 O.2   1 <1>  -0.6500 
  9 O       -2.0600     2.1590     0.3690 O.2   1 <1>  -0.6500 
 10 C       -0.2180     0.3600     0.8870 C.3   1 <1>  -0.1350 
 11 C        2.0420     4.2060    -1.5620 C.ar  1 <1>  -0.0090 
 12 S        3.2090     5.5710    -1.2690 S.o2  1 <1>   1.4470 
 13 O        2.7060     6.4690    -0.2560 O.2   1 <1>  -0.6500 
 14 O        3.6620     6.0990    -2.5360 O.2   1 <1>  -0.6500 
 15 N        4.5670     4.8230    -0.5660 N.am  1 <1>  -0.8490 
 16 C        5.7890     5.6270    -0.8160 C.3   1 <1>   0.1960 
 17 C        4.4080     4.5900     0.8900 C.3   1 <1>   0.1960 
 18 C        7.0490     5.0860    -0.0930 C.3   1 <1>   0.3430 
 19 C        5.6240     3.8610     1.5170 C.3   1 <1>   0.3430 
 20 N        6.7870     3.7600     0.5660 N.4   1 <1>  -0.9590 
 21 C        8.0080     3.1760     1.2000 C.3   1 <1>   0.2630 
 22 H        0.9590     2.1260    -4.0120 H     1 <1>   0.1500 
 23 H        1.2830     4.1970     0.4250 H     1 <1>   0.1500 
 24 H        2.5590     3.9590    -3.6250 H     1 <1>   0.1500 
 25 H        0.8450     0.2480     0.9750 H     1 <1>   0.0800 
 26 H       -0.5650    -0.2330     0.0670 H     1 <1>   0.0800 
 27 H       -0.6710    -0.0210     1.7810 H     1 <1>   0.0800 
 28 H        5.6250     6.6490    -0.5140 H     1 <1>   0.0800 
 29 H        5.9920     5.6420    -1.8750 H     1 <1>   0.0800 
 30 H        3.5240     4.0040     1.0760 H     1 <1>   0.0800 
 31 H        4.2760     5.5320     1.4000 H     1 <1>   0.0800 
 32 H        7.3590     5.8050     0.6480 H     1 <1>   0.0800 
 33 H        7.8490     4.9940    -0.8090 H     1 <1>   0.0800 
 34 H        5.3180     2.8720     1.8170 H     1 <1>   0.0800 
 35 H        5.9210     4.3900     2.4080 H     1 <1>   0.0800 
 36 H        6.4600     3.1460    -0.1980 H     1 <1>   0.4500 
 37 H        8.3580     3.8120     1.9970 H     1 <1>   0.0800 
 38 H        8.7950     3.0730     0.4700 H     1 <1>   0.0800 
 39 H        7.7900     2.2020     1.6060 H     1 <1>   0.0800 
@<TRIPOS>BOND
  1   1   2  1   
  2   2   3  ar  
  3   2   4  ar  
  4   3   5  1   
  5   3   6  ar  
  6   4   7  ar  
  7   4  22  1   
  8   5   8  2   
  9   5   9  2   
 10   5  10  1   
 11   6  11  ar  
 12   6  23  1   
 13   7  11  ar  
 14   7  24  1   
 15  10  25  1   
 16  10  26  1   
 17  10  27  1   
 18  11  12  1   
 19  12  13  2   
 20  12  14  2   
 21  12  15  am  
 22  15  16  1   
 23  15  17  1   
 24  16  18  1   
 25  16  28  1   
 26  16  29  1   
 27  17  19  1   
 28  17  30  1   
 29  17  31  1   
 30  18  20  1   
 31  18  32  1   
 32  18  33  1   
 33  19  20  1   
 34  19  34  1   
 35  19  35  1   
 36  20  21  1   
 37  20  36  1   
 38  21  37  1   
 39  21  38  1   
 40  21  39  1   
@<TRIPOS>SUBSTRUCTURE
  1 ****  11 GROUP 4 **** **** 0

# MOE 2024.06 (io_trps.svl 2023.06)
