@<TRIPOS>MOLECULE
NONAME
41 42 1 0 0 
SMALL
USER_CHARGES


@<TRIPOS>ATOM
  1 O       -0.1600     4.2390     2.1220 O.2   1 <1>  -0.5700 
  2 C       -0.0270     3.7720     1.0090 C.2   1 <1>   0.5440 
  3 N       -1.1390     3.7110     0.1890 N.am  1 <1>  -0.6600 
  4 C        1.2590     3.2550     0.5710 C.ar  1 <1>   0.0860 
  5 C       -1.2090     2.8480    -1.0280 C.3   1 <1>   0.1400 
  6 C       -2.4450     4.3120     0.5950 C.3   1 <1>   0.1400 
  7 C        2.0420     3.9650    -0.3480 C.ar  1 <1>  -0.1440 
  8 C        1.7290     2.0180     1.0290 C.ar  1 <1>  -0.1440 
  9 C       -2.2880     1.7610    -0.8500 C.3   1 <1>   0.3430 
 10 C       -3.4970     3.2060     0.7850 C.3   1 <1>   0.3430 
 11 C        3.2290     3.4290    -0.8170 C.ar  1 <1>  -0.1500 
 12 C        1.6150     5.3430    -0.8410 C.3   1 <1>  -0.0970 
 13 C        2.9190     1.4990     0.5500 C.ar  1 <1>  -0.1500 
 14 C        0.9500     1.2230     2.0710 C.3   1 <1>  -0.0960 
 15 N       -3.6240     2.3320    -0.4410 N.4   1 <1>  -0.9590 
 16 C        3.6700     2.1940    -0.3790 C.ar  1 <1>  -0.1440 
 17 C       -4.6260     1.2460    -0.2180 C.3   1 <1>   0.2630 
 18 C        4.9750     1.6170    -0.8980 C.3   1 <1>  -0.0970 
 19 H       -0.2630     2.3730    -1.2190 H     1 <1>   0.0800 
 20 H       -1.4420     3.4590    -1.8830 H     1 <1>   0.0800 
 21 H       -2.7690     5.0050    -0.1610 H     1 <1>   0.0800 
 22 H       -2.3440     4.8650     1.5140 H     1 <1>   0.0800 
 23 H       -1.9460     1.0720    -0.0950 H     1 <1>   0.0800 
 24 H       -2.3900     1.2130    -1.7720 H     1 <1>   0.0800 
 25 H       -4.4470     3.6610     1.0130 H     1 <1>   0.0800 
 26 H       -3.2050     2.6070     1.6320 H     1 <1>   0.0800 
 27 H        3.8240     3.9770    -1.5260 H     1 <1>   0.1500 
 28 H        0.7520     5.2620    -1.4750 H     1 <1>   0.0800 
 29 H        2.4050     5.8150    -1.3970 H     1 <1>   0.0800 
 30 H        1.3760     5.9760    -0.0040 H     1 <1>   0.0800 
 31 H        3.2750     0.5480     0.9050 H     1 <1>   0.1500 
 32 H       -0.0370     0.9980     1.7120 H     1 <1>   0.0800 
 33 H        0.8680     1.7970     2.9770 H     1 <1>   0.0800 
 34 H        1.4470     0.2990     2.3060 H     1 <1>   0.0800 
 35 H       -3.9530     2.9320    -1.2110 H     1 <1>   0.4500 
 36 H       -4.3090     0.6040     0.5880 H     1 <1>   0.0800 
 37 H       -4.7390     0.6510    -1.1090 H     1 <1>   0.0800 
 38 H       -5.5860     1.6680     0.0360 H     1 <1>   0.0800 
 39 H        5.1640     1.9550    -1.9010 H     1 <1>   0.0800 
 40 H        4.9360     0.5430    -0.9050 H     1 <1>   0.0800 
 41 H        5.7870     1.9310    -0.2670 H     1 <1>   0.0800 
@<TRIPOS>BOND
  1   1   2  2   
  2   2   3  am  
  3   2   4  1   
  4   3   5  1   
  5   3   6  1   
  6   4   7  ar  
  7   4   8  ar  
  8   5   9  1   
  9   5  19  1   
 10   5  20  1   
 11   6  10  1   
 12   6  21  1   
 13   6  22  1   
 14   7  11  ar  
 15   7  12  1   
 16   8  13  ar  
 17   8  14  1   
 18   9  15  1   
 19   9  23  1   
 20   9  24  1   
 21  10  15  1   
 22  10  25  1   
 23  10  26  1   
 24  11  16  ar  
 25  11  27  1   
 26  12  28  1   
 27  12  29  1   
 28  12  30  1   
 29  13  16  ar  
 30  13  31  1   
 31  14  32  1   
 32  14  33  1   
 33  14  34  1   
 34  15  17  1   
 35  15  35  1   
 36  16  18  1   
 37  17  36  1   
 38  17  37  1   
 39  17  38  1   
 40  18  39  1   
 41  18  40  1   
 42  18  41  1   
@<TRIPOS>SUBSTRUCTURE
  1 ****   4 GROUP 4 **** **** 0

# MOE 2024.06 (io_trps.svl 2023.06)
