@<TRIPOS>MOLECULE
NONAME
35 38 1 0 0 
SMALL
USER_CHARGES


@<TRIPOS>ATOM
  1 F       -0.5740     0.5570    -0.4990 F     1 <1>  -0.1900 
  2 C       -1.7150     1.1900    -0.4160 C.ar  1 <1>   0.1900 
  3 C       -1.7070     2.5660    -0.2890 C.ar  1 <1>  -0.1500 
  4 C       -2.8870     0.4620    -0.4580 C.ar  1 <1>  -0.1500 
  5 C       -2.9190     3.2290    -0.2010 C.ar  1 <1>  -0.1500 
  6 C       -4.0910     1.1400    -0.3700 C.ar  1 <1>  -0.1500 
  7 C       -4.1260     2.5290    -0.2400 C.ar  1 <1>   0.1170 
  8 N       -5.3610     3.2150    -0.1510 N.am  1 <1>  -0.2370 
  9 C       -6.5010     2.7580     0.4970 C.2   1 <1>   0.5690 
 10 C       -5.6410     4.4590    -0.6970 C.2   1 <1>   0.5690 
 11 O       -6.6060     1.8350     1.2610 O.2   1 <1>  -0.5700 
 12 C       -7.6460     3.6050     0.0320 C.3   1 <1>  -0.0190 
 13 O       -5.0020     5.0890    -1.4990 O.2   1 <1>  -0.5700 
 14 C       -6.9080     4.9330    -0.0640 C.3   1 <1>  -0.0190 
 15 C       -9.0330     4.1020     0.4810 C.3   1 <1>   0.4180 
 16 C       -8.0780     5.8970    -0.2210 C.3   1 <1>   0.4180 
 17 O       -8.7750     5.4090     0.8810 O.3   1 <1>  -0.5600 
 18 C       -9.7360     4.4510    -0.8140 C.2   1 <1>  -0.2880 
 19 C       -9.8140     3.3350     1.5350 C.3   1 <1>  -0.2400 
 20 C       -9.1010     5.5250    -1.2790 C.2   1 <1>  -0.2880 
 21 C       -7.8080     7.3850    -0.0480 C.3   1 <1>  -0.2400 
 22 H       -0.7740     3.1000    -0.2620 H     1 <1>   0.1500 
 23 H       -2.8540    -0.6080    -0.5550 H     1 <1>   0.1500 
 24 H       -2.9210     4.3010    -0.1050 H     1 <1>   0.1500 
 25 H       -5.0090     0.5780    -0.3980 H     1 <1>   0.1500 
 26 H       -7.8060     3.1960    -0.9540 H     1 <1>   0.0800 
 27 H       -6.5370     5.2020     0.9150 H     1 <1>   0.0800 
 28 H      -10.5420     3.8520    -1.1990 H     1 <1>   0.1500 
 29 H       -9.2280     3.2460     2.4310 H     1 <1>   0.0800 
 30 H      -10.0430     2.3500     1.1740 H     1 <1>   0.0800 
 31 H      -10.7330     3.8480     1.7530 H     1 <1>   0.0800 
 32 H       -9.2090     6.1040    -2.1790 H     1 <1>   0.1500 
 33 H       -7.2410     7.7480    -0.8850 H     1 <1>   0.0800 
 34 H       -7.2510     7.5650     0.8530 H     1 <1>   0.0800 
 35 H       -8.7390     7.9200    -0.0030 H     1 <1>   0.0800 
@<TRIPOS>BOND
  1   1   2  1   
  2   2   3  ar  
  3   2   4  ar  
  4   3   5  ar  
  5   3  22  1   
  6   4   6  ar  
  7   4  23  1   
  8   5   7  ar  
  9   5  24  1   
 10   6   7  ar  
 11   6  25  1   
 12   7   8  1   
 13   8   9  am  
 14   8  10  am  
 15   9  11  2   
 16   9  12  1   
 17  10  13  2   
 18  10  14  1   
 19  12  14  1   
 20  12  15  1   
 21  12  26  1   
 22  14  16  1   
 23  14  27  1   
 24  15  17  1   
 25  15  18  1   
 26  15  19  1   
 27  16  17  1   
 28  16  20  1   
 29  16  21  1   
 30  18  20  2   
 31  18  28  1   
 32  19  29  1   
 33  19  30  1   
 34  19  31  1   
 35  20  32  1   
 36  21  33  1   
 37  21  34  1   
 38  21  35  1   
@<TRIPOS>SUBSTRUCTURE
  1 ****   8 GROUP 4 **** **** 0

# MOE 2024.06 (io_trps.svl 2023.06)
