@<TRIPOS>MOLECULE
NONAME
38 39 1 0 0 
SMALL
USER_CHARGES


@<TRIPOS>ATOM
  1 S        0.0760     0.2780     0.6090 S.o2  1 <1>   1.5760 
  2 O       -0.0040     1.0670     1.8130 O.2   1 <1>  -0.6500 
  3 O       -0.1330     0.8340    -0.7060 O.2   1 <1>  -0.6500 
  4 N        1.5310    -0.5740     0.6010 N.am  1 <1>  -0.8490 
  5 N       -0.9630    -1.0510     0.8700 N.am  1 <1>  -0.7570 
  6 C        2.6470     0.3350     0.8750 C.3   1 <1>   0.1960 
  7 C        1.6920    -1.3320    -0.6470 C.3   1 <1>   0.1960 
  8 C       -2.3040    -1.0900     0.5240 C.ar  1 <1>   0.1990 
  9 C        3.9890    -0.3810     1.0840 C.3   1 <1>  -0.1600 
 10 C        2.6110    -2.5370    -0.4290 C.3   1 <1>  -0.1600 
 11 C       -2.7410    -0.8170    -0.7670 C.ar  1 <1>  -0.1500 
 12 C       -3.2480    -1.4290     1.4850 C.ar  1 <1>  -0.1500 
 13 C        4.6160    -0.8920    -0.2210 C.3   1 <1>  -0.1600 
 14 C        4.1060    -2.2700    -0.6640 C.3   1 <1>  -0.1600 
 15 C       -4.0860    -0.8720    -1.0860 C.ar  1 <1>  -0.1500 
 16 C       -4.5940    -1.4860     1.1680 C.ar  1 <1>  -0.1500 
 17 C       -5.0210    -1.2050    -0.1190 C.ar  1 <1>  -0.1430 
 18 C       -6.4970    -1.2650    -0.4700 C.3   1 <1>  -0.0970 
 19 H       -0.7400    -1.3950     1.7930 H     1 <1>   0.4200 
 20 H        2.4360     0.8750     1.7830 H     1 <1>   0.0800 
 21 H        2.7330     1.0600     0.0820 H     1 <1>   0.0800 
 22 H        2.0500    -0.6990    -1.4420 H     1 <1>   0.0800 
 23 H        0.7340    -1.7190    -0.9530 H     1 <1>   0.0800 
 24 H        3.8810    -1.1730     1.8040 H     1 <1>   0.0800 
 25 H        4.6650     0.3400     1.5070 H     1 <1>   0.0800 
 26 H        2.3090    -3.3180    -1.1040 H     1 <1>   0.0800 
 27 H        2.4570    -2.9130     0.5680 H     1 <1>   0.0800 
 28 H       -2.0280    -0.5640    -1.5290 H     1 <1>   0.1500 
 29 H       -2.9310    -1.6470     2.4870 H     1 <1>   0.1500 
 30 H        5.6830    -0.9600    -0.0910 H     1 <1>   0.0800 
 31 H        4.4430    -0.1740    -1.0040 H     1 <1>   0.0800 
 32 H        4.3220    -2.3830    -1.7120 H     1 <1>   0.0800 
 33 H        4.6640    -3.0310    -0.1450 H     1 <1>   0.0800 
 34 H       -4.4010    -0.6540    -2.0910 H     1 <1>   0.1500 
 35 H       -5.3090    -1.7500     1.9280 H     1 <1>   0.1500 
 36 H       -6.7270    -0.5570    -1.2460 H     1 <1>   0.0800 
 37 H       -7.0980    -1.0310     0.3900 H     1 <1>   0.0800 
 38 H       -6.7490    -2.2520    -0.8130 H     1 <1>   0.0800 
@<TRIPOS>BOND
  1   1   2  2   
  2   1   3  2   
  3   1   4  am  
  4   1   5  am  
  5   4   6  1   
  6   4   7  1   
  7   5   8  1   
  8   5  19  1   
  9   6   9  1   
 10   6  20  1   
 11   6  21  1   
 12   7  10  1   
 13   7  22  1   
 14   7  23  1   
 15   8  11  ar  
 16   8  12  ar  
 17   9  13  1   
 18   9  24  1   
 19   9  25  1   
 20  10  14  1   
 21  10  26  1   
 22  10  27  1   
 23  11  15  ar  
 24  11  28  1   
 25  12  16  ar  
 26  12  29  1   
 27  13  14  1   
 28  13  30  1   
 29  13  31  1   
 30  14  32  1   
 31  14  33  1   
 32  15  17  ar  
 33  15  34  1   
 34  16  17  ar  
 35  16  35  1   
 36  17  18  1   
 37  18  36  1   
 38  18  37  1   
 39  18  38  1   
@<TRIPOS>SUBSTRUCTURE
  1 ****   5 GROUP 4 **** **** 0

# MOE 2024.06 (io_trps.svl 2023.06)
