@<TRIPOS>MOLECULE
NONAME
35 37 1 0 0 
SMALL
USER_CHARGES


@<TRIPOS>ATOM
  1 O        0.1610    -0.1940     0.5560 O.2   1 <1>  -0.5700 
  2 C        0.2060    -1.2700    -0.0100 C.2   1 <1>   0.7800 
  3 O        1.3870    -1.8020    -0.3610 O.3   1 <1>  -0.2330 
  4 N       -0.9300    -1.9840    -0.3110 N.am  1 <1>  -0.6600 
  5 C        2.6090    -1.2140    -0.2660 C.ar  1 <1>   0.0820 
  6 C       -0.9170    -3.2990    -1.0080 C.3   1 <1>   0.1400 
  7 C       -2.2830    -1.5000     0.0760 C.3   1 <1>   0.1400 
  8 C        3.6790    -2.0170     0.0870 C.ar  1 <1>  -0.1500 
  9 C        2.8160     0.1320    -0.5370 C.ar  1 <1>  -0.1500 
 10 C       -1.5890    -4.3560    -0.1240 C.3   1 <1>  -0.1600 
 11 C       -2.9680    -2.5440     0.9650 C.3   1 <1>  -0.1600 
 12 C        4.9750    -1.5090     0.1930 C.ar  1 <1>   0.0530 
 13 C        4.0890     0.6610    -0.4370 C.ar  1 <1>  -0.1500 
 14 C       -3.0020    -3.9260     0.2970 C.3   1 <1>  -0.1600 
 15 C        6.0850    -2.3630     0.5670 C.2   1 <1>   0.4250 
 16 C        5.1510    -0.1490    -0.0770 C.ar  1 <1>  -0.1500 
 17 O        7.2930    -1.8590     0.6800 O.3   1 <1>  -0.2800 
 18 N        6.0370    -3.6290     0.8150 N.2   1 <1>  -0.3380 
 19 C        7.9540    -2.9260     1.0160 C.2   1 <1>   0.3280 
 20 N        7.2640    -3.9910     1.1090 N.2   1 <1>  -0.3380 
 21 H        0.0870    -3.6090    -1.2380 H     1 <1>   0.0800 
 22 H       -1.4560    -3.2060    -1.9360 H     1 <1>   0.0800 
 23 H       -2.8650    -1.3390    -0.8150 H     1 <1>   0.0800 
 24 H       -2.2180    -0.5640     0.6060 H     1 <1>   0.0800 
 25 H        3.5000    -3.0590     0.2850 H     1 <1>   0.1500 
 26 H        1.9960     0.7660    -0.8240 H     1 <1>   0.1500 
 27 H       -0.9810    -4.5130     0.7500 H     1 <1>   0.0800 
 28 H       -1.6390    -5.2870    -0.6600 H     1 <1>   0.0800 
 29 H       -3.9710    -2.2220     1.1820 H     1 <1>   0.0800 
 30 H       -2.4350    -2.6050     1.8990 H     1 <1>   0.0800 
 31 H        4.2500     1.7060    -0.6410 H     1 <1>   0.1500 
 32 H       -3.4150    -4.6500     0.9780 H     1 <1>   0.0800 
 33 H       -3.6370    -3.8870    -0.5720 H     1 <1>   0.0800 
 34 H        6.1320     0.2860    -0.0050 H     1 <1>   0.1500 
 35 H        9.0130    -2.8480     1.1900 H     1 <1>   0.1500 
@<TRIPOS>BOND
  1   1   2  2   
  2   2   3  1   
  3   2   4  am  
  4   3   5  1   
  5   4   6  1   
  6   4   7  1   
  7   5   8  ar  
  8   5   9  ar  
  9   6  10  1   
 10   6  21  1   
 11   6  22  1   
 12   7  11  1   
 13   7  23  1   
 14   7  24  1   
 15   8  12  ar  
 16   8  25  1   
 17   9  13  ar  
 18   9  26  1   
 19  10  14  1   
 20  10  27  1   
 21  10  28  1   
 22  11  14  1   
 23  11  29  1   
 24  11  30  1   
 25  12  15  1   
 26  12  16  ar  
 27  13  16  ar  
 28  13  31  1   
 29  14  32  1   
 30  14  33  1   
 31  15  17  1   
 32  15  18  2   
 33  16  34  1   
 34  17  19  1   
 35  18  20  1   
 36  19  20  2   
 37  19  35  1   
@<TRIPOS>SUBSTRUCTURE
  1 ****   5 GROUP 4 **** **** 0

# MOE 2024.06 (io_trps.svl 2023.06)
