@<TRIPOS>MOLECULE
NONAME
49 51 1 0 0 
SMALL
USER_CHARGES


@<TRIPOS>ATOM
  1 S        1.0330    -0.5080     1.0090 S.o2  1 <1>   1.4470 
  2 O        1.5290    -0.9190     2.3060 O.2   1 <1>  -0.6500 
  3 O        0.9810     0.8990     0.6790 O.2   1 <1>  -0.6500 
  4 N        2.0190    -1.2500    -0.1520 N.am  1 <1>  -0.8490 
  5 C       -0.5930    -1.2530     0.6950 C.ar  1 <1>  -0.0090 
  6 C        2.2850    -2.6660     0.1560 C.3   1 <1>   0.1960 
  7 C        3.2970    -0.5340    -0.3000 C.3   1 <1>   0.1960 
  8 C       -1.2850    -1.9250     1.7010 C.ar  1 <1>  -0.1500 
  9 C       -1.1780    -1.1680    -0.5670 C.ar  1 <1>  -0.1500 
 10 C        3.1630    -3.3230    -0.9260 C.3   1 <1>   0.1100 
 11 C        4.1910    -1.1850    -1.3710 C.3   1 <1>   0.1100 
 12 C       -2.5220    -2.5010     1.4610 C.ar  1 <1>  -0.1500 
 13 C       -2.4140    -1.7370    -0.8280 C.ar  1 <1>  -0.1500 
 14 N        4.4480    -2.6140    -1.0760 N.3   1 <1>  -0.8100 
 15 C       -3.0650    -2.3950     0.1960 C.ar  1 <1>   0.1900 
 16 C        5.2870    -3.2410    -2.1420 C.3   1 <1>   0.1710 
 17 F       -4.2290    -2.9360    -0.0390 F     1 <1>  -0.1900 
 18 C        6.7410    -2.7560    -2.1720 C.2   1 <1>   0.5690 
 19 O        7.3570    -2.7820    -3.2100 O.2   1 <1>  -0.5700 
 20 N        7.2810    -2.3030    -1.0140 N.am  1 <1>  -0.7300 
 21 C        8.6220    -1.7350    -0.8290 C.3   1 <1>   0.2200 
 22 C        9.2440    -2.3510     0.4170 C.3   1 <1>  -0.1600 
 23 C        8.4800    -0.2640    -0.4580 C.3   1 <1>  -0.1600 
 24 C        8.6590    -1.5760     1.6050 C.3   1 <1>  -0.1600 
 25 C        8.1440    -0.2460     1.0380 C.3   1 <1>  -0.1600 
 26 H        1.3540    -3.2030     0.2190 H     1 <1>   0.0800 
 27 H        2.7860    -2.7540     1.1060 H     1 <1>   0.0800 
 28 H        3.8230    -0.5220     0.6410 H     1 <1>   0.0800 
 29 H        3.1080     0.4870    -0.5870 H     1 <1>   0.0800 
 30 H       -0.8510    -1.9970     2.6860 H     1 <1>   0.1500 
 31 H       -0.6540    -0.6490    -1.3530 H     1 <1>   0.1500 
 32 H        2.6280    -3.3220    -1.8610 H     1 <1>   0.0800 
 33 H        3.3520    -4.3450    -0.6470 H     1 <1>   0.0800 
 34 H        5.1240    -0.6490    -1.4130 H     1 <1>   0.0800 
 35 H        3.7090    -1.0880    -2.3300 H     1 <1>   0.0800 
 36 H       -3.0580    -3.0190     2.2360 H     1 <1>   0.1500 
 37 H       -2.8660    -1.6710    -1.8010 H     1 <1>   0.1500 
 38 H        4.8470    -3.0620    -3.1070 H     1 <1>   0.0800 
 39 H        5.3170    -4.3040    -1.9870 H     1 <1>   0.0800 
 40 H        6.6600    -2.2630    -0.2020 H     1 <1>   0.3700 
 41 H        9.2230    -1.8840    -1.7110 H     1 <1>   0.0800 
 42 H       10.3070    -2.1850     0.3820 H     1 <1>   0.0800 
 43 H        9.0650    -3.4100     0.4810 H     1 <1>   0.0800 
 44 H        7.7410     0.2370    -1.0590 H     1 <1>   0.0800 
 45 H        9.4300     0.2170    -0.6100 H     1 <1>   0.0800 
 46 H        9.4070    -1.4160     2.3620 H     1 <1>   0.0800 
 47 H        7.8410    -2.1270     2.0360 H     1 <1>   0.0800 
 48 H        7.0780    -0.1860     1.1710 H     1 <1>   0.0800 
 49 H        8.6030     0.5970     1.5260 H     1 <1>   0.0800 
@<TRIPOS>BOND
  1   1   2  2   
  2   1   3  2   
  3   1   4  am  
  4   1   5  1   
  5   4   6  1   
  6   4   7  1   
  7   5   8  ar  
  8   5   9  ar  
  9   6  10  1   
 10   6  26  1   
 11   6  27  1   
 12   7  11  1   
 13   7  28  1   
 14   7  29  1   
 15   8  12  ar  
 16   8  30  1   
 17   9  13  ar  
 18   9  31  1   
 19  10  14  1   
 20  10  32  1   
 21  10  33  1   
 22  11  14  1   
 23  11  34  1   
 24  11  35  1   
 25  12  15  ar  
 26  12  36  1   
 27  13  15  ar  
 28  13  37  1   
 29  14  16  1   
 30  15  17  1   
 31  16  18  1   
 32  16  38  1   
 33  16  39  1   
 34  18  19  2   
 35  18  20  am  
 36  20  21  1   
 37  20  40  1   
 38  21  22  1   
 39  21  23  1   
 40  21  41  1   
 41  22  24  1   
 42  22  42  1   
 43  22  43  1   
 44  23  25  1   
 45  23  44  1   
 46  23  45  1   
 47  24  25  1   
 48  24  46  1   
 49  24  47  1   
 50  25  48  1   
 51  25  49  1   
@<TRIPOS>SUBSTRUCTURE
  1 ****   4 GROUP 4 **** **** 0

# MOE 2024.06 (io_trps.svl 2023.06)
