@<TRIPOS>MOLECULE
NONAME
28 27 1 0 0 
SMALL
USER_CHARGES


@<TRIPOS>ATOM
  1 O       -0.0060    -0.5620     1.0580 O.2   1 <1>  -0.5700 
  2 C        0.0880    -1.6750     0.5420 C.2   1 <1>   0.5690 
  3 N        1.2620    -2.1600     0.1420 N.am  1 <1>  -0.7300 
  4 C       -1.1730    -2.5700     0.3250 C.3   1 <1>   0.2510 
  5 C        2.5660    -1.4700     0.2090 C.3   1 <1>   0.0340 
  6 N       -1.0060    -3.5830    -0.7390 N.3   1 <1>  -0.9900 
  7 C       -2.4270    -1.7330     0.0040 C.3   1 <1>  -0.1600 
  8 C        3.7270    -2.2240    -0.4710 C.2   1 <1>   0.9060 
  9 C       -3.7480    -2.5140    -0.1700 C.3   1 <1>  -0.0800 
 10 O        3.4600    -3.3140    -1.0310 O.co2 1 <1>  -0.9000 
 11 O        4.8570    -1.6920    -0.4160 O.co2 1 <1>  -0.9000 
 12 C       -4.8750    -1.5270    -0.5010 C.3   1 <1>  -0.2400 
 13 C       -4.1290    -3.2950     1.0960 C.3   1 <1>  -0.2400 
 14 H        1.2950    -3.0810    -0.2890 H     1 <1>   0.3700 
 15 H       -1.3350    -3.1000     1.2640 H     1 <1>   0.0800 
 16 H        2.8450    -1.3170     1.2500 H     1 <1>   0.0800 
 17 H        2.4900    -0.4960    -0.2700 H     1 <1>   0.0800 
 18 H       -0.6050    -3.1240    -1.5480 H     1 <1>   0.3600 
 19 H       -1.9140    -3.9570    -0.9670 H     1 <1>   0.3600 
 20 H       -2.2270    -1.1700    -0.9090 H     1 <1>   0.0800 
 21 H       -2.5600    -1.0070     0.8080 H     1 <1>   0.0800 
 22 H       -3.6560    -3.2130    -1.0040 H     1 <1>   0.0800 
 23 H       -5.0080    -0.8160     0.3160 H     1 <1>   0.0800 
 24 H       -5.8100    -2.0670    -0.6580 H     1 <1>   0.0800 
 25 H       -4.6340    -0.9790    -1.4130 H     1 <1>   0.0800 
 26 H       -4.1870    -2.6220     1.9520 H     1 <1>   0.0800 
 27 H       -3.3900    -4.0710     1.2980 H     1 <1>   0.0800 
 28 H       -5.0980    -3.7770     0.9580 H     1 <1>   0.0800 
@<TRIPOS>BOND
  1   1   2  2   
  2   2   3  am  
  3   2   4  1   
  4   3   5  1   
  5   3  14  1   
  6   4   6  1   
  7   4   7  1   
  8   4  15  1   
  9   5   8  1   
 10   5  16  1   
 11   5  17  1   
 12   6  18  1   
 13   6  19  1   
 14   7   9  1   
 15   7  20  1   
 16   7  21  1   
 17   8  10  ar  
 18   8  11  ar  
 19   9  12  1   
 20   9  13  1   
 21   9  22  1   
 22  12  23  1   
 23  12  24  1   
 24  12  25  1   
 25  13  26  1   
 26  13  27  1   
 27  13  28  1   
@<TRIPOS>SUBSTRUCTURE
  1 ****   2 GROUP 4 **** **** 0

# MOE 2024.06 (io_trps.svl 2023.06)
