@<TRIPOS>MOLECULE
NONAME
48 49 1 0 0 
SMALL
USER_CHARGES


@<TRIPOS>ATOM
  1 S       -0.3180     0.3480     0.8480 S.o2  1 <1>   1.4470 
  2 O       -0.8960    -0.7490     0.1080 O.2   1 <1>  -0.6500 
  3 O       -0.7500     0.6170     2.2000 O.2   1 <1>  -0.6500 
  4 N       -0.7170     1.6930    -0.0620 N.am  1 <1>  -0.9140 
  5 C        1.4920     0.2930     0.7590 C.ar  1 <1>  -0.0090 
  6 C       -2.0600     2.1290     0.2060 C.3   1 <1>   0.3340 
  7 C        2.1650    -0.8640     0.3820 C.ar  1 <1>  -0.1500 
  8 C        2.2600     1.4080     1.0740 C.ar  1 <1>  -0.1500 
  9 C       -2.4100     3.1230    -0.8760 C.2   1 <1>  -0.2880 
 10 C        3.5460    -0.9030     0.3150 C.ar  1 <1>  -0.1500 
 11 C        3.6410     1.3730     1.0090 C.ar  1 <1>  -0.1500 
 12 C       -3.3800     2.9740    -1.7850 C.2   1 <1>  -0.3000 
 13 C        4.3090     0.2160     0.6240 C.ar  1 <1>   0.1170 
 14 N        5.7070     0.1250     0.5510 N.am  1 <1>  -0.5470 
 15 C        6.6570     1.0980     0.3880 C.2   1 <1>   0.5690 
 16 O        6.3890     2.2640     0.2320 O.2   1 <1>  -0.5700 
 17 C        8.1220     0.6590     0.3860 C.3   1 <1>  -0.0190 
 18 C        9.0410     1.6760     1.0950 C.3   1 <1>  -0.1600 
 19 C        8.6210     0.4140    -1.0500 C.3   1 <1>  -0.1600 
 20 C       10.5070     1.2370     1.0540 C.3   1 <1>   0.1400 
 21 C       10.0930    -0.0090    -1.0740 C.3   1 <1>   0.1400 
 22 N       10.9160     1.0040    -0.3590 N.am  1 <1>  -0.6600 
 23 C       11.9380     1.6580    -1.0010 C.2   1 <1>   0.5690 
 24 O       12.2500     1.4040    -2.1390 O.2   1 <1>  -0.5700 
 25 C       12.7260     2.7380    -0.2980 C.3   1 <1>  -0.1790 
 26 H       -0.7360     1.3500    -1.0190 H     1 <1>   0.4200 
 27 H       -2.1160     2.5920     1.1780 H     1 <1>   0.0800 
 28 H       -2.7430     1.2930     0.1760 H     1 <1>   0.0800 
 29 H        1.5960    -1.7460     0.1350 H     1 <1>   0.1500 
 30 H        1.7680     2.3180     1.3740 H     1 <1>   0.1500 
 31 H       -1.7760     3.9930    -0.8400 H     1 <1>   0.1500 
 32 H        4.0310    -1.8140     0.0160 H     1 <1>   0.1500 
 33 H        4.1980     2.2560     1.2650 H     1 <1>   0.1500 
 34 H       -3.6040     3.7020    -2.5460 H     1 <1>   0.1500 
 35 H       -4.0300     2.1180    -1.8490 H     1 <1>   0.1500 
 36 H        6.0680    -0.8260     0.5780 H     1 <1>   0.3700 
 37 H        8.1910    -0.2680     0.9270 H     1 <1>   0.0800 
 38 H        8.7300     1.7920     2.1180 H     1 <1>   0.0800 
 39 H        8.9570     2.6380     0.6190 H     1 <1>   0.0800 
 40 H        8.5130     1.3150    -1.6300 H     1 <1>   0.0800 
 41 H        8.0280    -0.3490    -1.5220 H     1 <1>   0.0800 
 42 H       10.6300     0.3220     1.6070 H     1 <1>   0.0800 
 43 H       11.1160     1.9890     1.5220 H     1 <1>   0.0800 
 44 H       10.4170    -0.1130    -2.0960 H     1 <1>   0.0800 
 45 H       10.2150    -0.9630    -0.5910 H     1 <1>   0.0800 
 46 H       13.2370     2.3250     0.5500 H     1 <1>   0.0800 
 47 H       12.0670     3.5250     0.0140 H     1 <1>   0.0800 
 48 H       13.4560     3.1490    -0.9720 H     1 <1>   0.0800 
@<TRIPOS>BOND
  1   1   2  2   
  2   1   3  2   
  3   1   4  am  
  4   1   5  1   
  5   4   6  1   
  6   4  26  1   
  7   5   7  ar  
  8   5   8  ar  
  9   6   9  1   
 10   6  27  1   
 11   6  28  1   
 12   7  10  ar  
 13   7  29  1   
 14   8  11  ar  
 15   8  30  1   
 16   9  12  2   
 17   9  31  1   
 18  10  13  ar  
 19  10  32  1   
 20  11  13  ar  
 21  11  33  1   
 22  12  34  1   
 23  12  35  1   
 24  13  14  1   
 25  14  15  am  
 26  14  36  1   
 27  15  16  2   
 28  15  17  1   
 29  17  18  1   
 30  17  19  1   
 31  17  37  1   
 32  18  20  1   
 33  18  38  1   
 34  18  39  1   
 35  19  21  1   
 36  19  40  1   
 37  19  41  1   
 38  20  22  1   
 39  20  42  1   
 40  20  43  1   
 41  21  22  1   
 42  21  44  1   
 43  21  45  1   
 44  22  23  am  
 45  23  24  2   
 46  23  25  1   
 47  25  46  1   
 48  25  47  1   
 49  25  48  1   
@<TRIPOS>SUBSTRUCTURE
  1 ****  13 GROUP 4 **** **** 0

# MOE 2024.06 (io_trps.svl 2023.06)
