@<TRIPOS>MOLECULE
Structure2247
31 32 1 0 0 
SMALL
USER_CHARGES


@<TRIPOS>ATOM
  1 F        0.2820    -0.3240    -1.0630 F     1 <1>  -0.3400 
  2 C       -0.1720    -1.4220    -0.4740 C.3   1 <1>   1.1640 
  3 F        0.3350    -1.4250     0.7540 F     1 <1>  -0.3400 
  4 F        0.3890    -2.4450    -1.1080 F     1 <1>  -0.3400 
  5 C       -1.7080    -1.4830    -0.4810 C.ar  1 <1>  -0.1440 
  6 C       -2.4470    -0.8930     0.5380 C.ar  1 <1>  -0.1500 
  7 C       -2.3940    -2.1200    -1.5090 C.ar  1 <1>  -0.1500 
  8 C       -3.8300    -0.9430     0.5310 C.ar  1 <1>  -0.1500 
  9 C       -3.7770    -2.1690    -1.5150 C.ar  1 <1>  -0.1500 
 10 C       -4.5100    -1.5820    -0.4950 C.ar  1 <1>  -0.1430 
 11 C       -6.0330    -1.6500    -0.5230 C.3   1 <1>   0.0640 
 12 C       -6.6480    -0.2450    -0.6060 C.3   1 <1>  -0.1600 
 13 C       -6.5760    -2.4090     0.6960 C.3   1 <1>  -0.1600 
 14 C       -8.1750    -0.3040    -0.5800 C.3   1 <1>   0.3430 
 15 C       -8.1030    -2.4340     0.7010 C.3   1 <1>   0.3430 
 16 N       -8.6250    -1.0410     0.6330 N.4   1 <1>  -0.9060 
 17 H       -1.9460    -0.3870     1.3470 H     1 <1>   0.1500 
 18 H       -1.8540    -2.5850    -2.3180 H     1 <1>   0.1500 
 19 H       -4.3620    -0.4740     1.3390 H     1 <1>   0.1500 
 20 H       -4.2710    -2.6730    -2.3280 H     1 <1>   0.1500 
 21 H       -6.3300    -2.1910    -1.4060 H     1 <1>   0.0800 
 22 H       -6.3290     0.2250    -1.5200 H     1 <1>   0.0800 
 23 H       -6.3020     0.3690     0.2060 H     1 <1>   0.0800 
 24 H       -6.2250    -1.9630     1.6090 H     1 <1>   0.0800 
 25 H       -6.2070    -3.4200     0.6730 H     1 <1>   0.0800 
 26 H       -8.5300    -0.8070    -1.4660 H     1 <1>   0.0800 
 27 H       -8.5760     0.6980    -0.5780 H     1 <1>   0.0800 
 28 H       -8.4550    -2.9200     1.5990 H     1 <1>   0.0800 
 29 H       -8.4570    -2.9980    -0.1480 H     1 <1>   0.0800 
 30 H       -9.6530    -1.0560     0.6650 H     1 <1>   0.4500 
 31 H       -8.3130    -0.5280     1.4680 H     1 <1>   0.4500 
@<TRIPOS>BOND
  1   1   2  1   
  2   2   3  1   
  3   2   4  1   
  4   2   5  1   
  5   5   6  ar  
  6   5   7  ar  
  7   6   8  ar  
  8   6  17  1   
  9   7   9  ar  
 10   7  18  1   
 11   8  10  ar  
 12   8  19  1   
 13   9  10  ar  
 14   9  20  1   
 15  10  11  1   
 16  11  12  1   
 17  11  13  1   
 18  11  21  1   
 19  12  14  1   
 20  12  22  1   
 21  12  23  1   
 22  13  15  1   
 23  13  24  1   
 24  13  25  1   
 25  14  16  1   
 26  14  26  1   
 27  14  27  1   
 28  15  16  1   
 29  15  28  1   
 30  15  29  1   
 31  16  30  1   
 32  16  31  1   
@<TRIPOS>SUBSTRUCTURE
  1 ****  10 GROUP 4 **** **** 0

# MOE 2024.06 (io_trps.svl 2023.06)
