@<TRIPOS>MOLECULE
NONAME
40 42 1 0 0 
SMALL
USER_CHARGES


@<TRIPOS>ATOM
  1 CL      -1.9640     2.2790     2.4270 Cl    1 <1>  -0.1770 
  2 C       -1.0370     3.0060     1.1300 C.ar  1 <1>   0.1770 
  3 C        0.0810     3.7700     1.4210 C.ar  1 <1>   0.1770 
  4 C       -1.4460     2.8190    -0.1830 C.ar  1 <1>  -0.1440 
  5 CL       0.5850     4.0150     3.0760 Cl    1 <1>  -0.1770 
  6 C        0.8110     4.3570     0.4040 C.ar  1 <1>  -0.1500 
  7 C       -0.7080     3.4080    -1.2030 C.ar  1 <1>  -0.1500 
  8 C       -2.6730     1.9830    -0.4980 C.3   1 <1>   0.4870 
  9 C        0.4120     4.1720    -0.9100 C.ar  1 <1>  -0.1500 
 10 N       -3.8890     2.6760     0.0080 N.4   1 <1>  -0.9590 
 11 C       -5.1190     1.8100    -0.1170 C.3   1 <1>   0.3430 
 12 C       -4.1010     4.0230    -0.6480 C.3   1 <1>   0.3430 
 13 C       -6.3920     2.5120     0.4030 C.3   1 <1>   0.2090 
 14 C       -5.3670     4.7390    -0.1320 C.3   1 <1>   0.2090 
 15 N       -6.5580     3.8470    -0.2410 N.pl3 1 <1>  -0.8380 
 16 C       -7.7970     4.4560    -0.0750 C.ar  1 <1>   0.1000 
 17 C       -8.1990     4.9570     1.1620 C.ar  1 <1>  -0.1500 
 18 C       -8.6520     4.5660    -1.1670 C.ar  1 <1>  -0.1500 
 19 C       -9.4360     5.5600     1.3090 C.ar  1 <1>  -0.1500 
 20 C       -9.8930     5.1660    -1.0350 C.ar  1 <1>  -0.1500 
 21 C      -10.2610     5.6530     0.2040 C.ar  1 <1>   0.1900 
 22 F      -11.4320     6.2220     0.3370 F     1 <1>  -0.1900 
 23 H        1.6800     4.9480     0.6400 H     1 <1>   0.1500 
 24 H       -0.9880     3.2790    -2.2370 H     1 <1>   0.1500 
 25 H       -2.5740     1.0200    -0.0220 H     1 <1>   0.0800 
 26 H       -2.7500     1.8290    -1.5620 H     1 <1>   0.0800 
 27 H        0.9820     4.6250    -1.7070 H     1 <1>   0.1500 
 28 H       -3.7330     2.8460     1.0120 H     1 <1>   0.4500 
 29 H       -4.9800     0.8910     0.4290 H     1 <1>   0.0800 
 30 H       -5.2800     1.5590    -1.1530 H     1 <1>   0.0800 
 31 H       -4.2040     3.8930    -1.7120 H     1 <1>   0.0800 
 32 H       -3.2470     4.6570    -0.4740 H     1 <1>   0.0800 
 33 H       -6.3370     2.6270     1.4720 H     1 <1>   0.0800 
 34 H       -7.2520     1.9030     0.1800 H     1 <1>   0.0800 
 35 H       -5.5370     5.6290    -0.7150 H     1 <1>   0.0800 
 36 H       -5.2270     5.0370     0.8930 H     1 <1>   0.0800 
 37 H       -7.5440     4.8760     2.0090 H     1 <1>   0.1500 
 38 H       -8.3390     4.1790    -2.1190 H     1 <1>   0.1500 
 39 H       -9.7610     5.9520     2.2560 H     1 <1>   0.1500 
 40 H      -10.5630     5.2580    -1.8710 H     1 <1>   0.1500 
@<TRIPOS>BOND
  1   1   2  1   
  2   2   3  ar  
  3   2   4  ar  
  4   3   5  1   
  5   3   6  ar  
  6   4   7  ar  
  7   4   8  1   
  8   6   9  ar  
  9   6  23  1   
 10   7   9  ar  
 11   7  24  1   
 12   8  10  1   
 13   8  25  1   
 14   8  26  1   
 15   9  27  1   
 16  10  11  1   
 17  10  12  1   
 18  10  28  1   
 19  11  13  1   
 20  11  29  1   
 21  11  30  1   
 22  12  14  1   
 23  12  31  1   
 24  12  32  1   
 25  13  15  1   
 26  13  33  1   
 27  13  34  1   
 28  14  15  1   
 29  14  35  1   
 30  14  36  1   
 31  15  16  1   
 32  16  17  ar  
 33  16  18  ar  
 34  17  19  ar  
 35  17  37  1   
 36  18  20  ar  
 37  18  38  1   
 38  19  21  ar  
 39  19  39  1   
 40  20  21  ar  
 41  20  40  1   
 42  21  22  1   
@<TRIPOS>SUBSTRUCTURE
  1 ****  12 GROUP 4 **** **** 0

# MOE 2024.06 (io_trps.svl 2023.06)
