@<TRIPOS>MOLECULE
NONAME
43 45 1 0 0 
SMALL
USER_CHARGES


@<TRIPOS>ATOM
  1 S       -0.0410     1.5860    -1.4120 S.o2  1 <1>   1.4470 
  2 O       -0.3240     2.7610    -2.2060 O.2   1 <1>  -0.6500 
  3 O        0.0100     0.2890    -2.0500 O.2   1 <1>  -0.6500 
  4 N       -1.2150     1.5000    -0.1950 N.am  1 <1>  -0.8490 
  5 C        1.4940     1.8310    -0.4720 C.ar  1 <1>  -0.0090 
  6 C       -2.4800     0.9570    -0.7270 C.3   1 <1>   0.1960 
  7 C       -1.4850     2.8190     0.4120 C.3   1 <1>   0.1960 
  8 C        1.8200     0.9800     0.5810 C.ar  1 <1>  -0.1500 
  9 C        2.3760     2.8680    -0.7860 C.ar  1 <1>  -0.1500 
 10 C       -3.5810     0.8160     0.3450 C.3   1 <1>   0.2090 
 11 C       -2.5190     2.7520     1.5540 C.3   1 <1>   0.2090 
 12 C        2.9890     1.1770     1.2910 C.ar  1 <1>   0.1900 
 13 C        3.5510     3.0680    -0.0750 C.ar  1 <1>  -0.1500 
 14 N       -3.7780     2.0490     1.1680 N.pl3 1 <1>  -0.8380 
 15 F        3.2700     0.3670     2.2790 F     1 <1>  -0.1900 
 16 C        3.8480     2.2120     0.9680 C.ar  1 <1>   0.1900 
 17 C       -4.9200     2.8280     0.9300 C.ar  1 <1>   0.1000 
 18 F        4.9530     2.3970     1.6430 F     1 <1>  -0.1900 
 19 C       -5.1200     3.6200    -0.2160 C.ar  1 <1>   0.0830 
 20 C       -5.9100     2.8070     1.9020 C.ar  1 <1>  -0.1500 
 21 O       -4.1410     3.6380    -1.1700 O.3   1 <1>  -0.3630 
 22 C       -6.2930     4.3560    -0.3500 C.ar  1 <1>  -0.1500 
 23 C       -7.0730     3.5420     1.7630 C.ar  1 <1>  -0.1500 
 24 C       -4.2420     4.4320    -2.3310 C.3   1 <1>   0.0400 
 25 C       -7.2650     4.3180     0.6350 C.ar  1 <1>  -0.1500 
 26 H       -2.3030    -0.0190    -1.1470 H     1 <1>   0.0800 
 27 H       -2.8400     1.5850    -1.5230 H     1 <1>   0.0800 
 28 H       -1.8430     3.5050    -0.3360 H     1 <1>   0.0800 
 29 H       -0.5730     3.2250     0.8100 H     1 <1>   0.0800 
 30 H        1.1630     0.1680     0.8460 H     1 <1>   0.1500 
 31 H        2.1370     3.5310    -1.6030 H     1 <1>   0.1500 
 32 H       -3.3200     0.0060     1.0020 H     1 <1>   0.0800 
 33 H       -4.5080     0.5590    -0.1370 H     1 <1>   0.0800 
 34 H       -2.7560     3.7530     1.8730 H     1 <1>   0.0800 
 35 H       -2.0820     2.2370     2.3910 H     1 <1>   0.0800 
 36 H        4.2250     3.8700    -0.3230 H     1 <1>   0.1500 
 37 H       -5.7550     2.2020     2.7760 H     1 <1>   0.1500 
 38 H       -6.4750     4.9680    -1.2120 H     1 <1>   0.1500 
 39 H       -7.8250     3.5090     2.5320 H     1 <1>   0.1500 
 40 H       -3.3460     4.2880    -2.9100 H     1 <1>   0.0800 
 41 H       -4.3280     5.4640    -2.0420 H     1 <1>   0.0800 
 42 H       -5.0980     4.1140    -2.8980 H     1 <1>   0.0800 
 43 H       -8.1690     4.8910     0.5240 H     1 <1>   0.1500 
@<TRIPOS>BOND
  1   1   2  2   
  2   1   3  2   
  3   1   4  am  
  4   1   5  1   
  5   4   6  1   
  6   4   7  1   
  7   5   8  ar  
  8   5   9  ar  
  9   6  10  1   
 10   6  26  1   
 11   6  27  1   
 12   7  11  1   
 13   7  28  1   
 14   7  29  1   
 15   8  12  ar  
 16   8  30  1   
 17   9  13  ar  
 18   9  31  1   
 19  10  14  1   
 20  10  32  1   
 21  10  33  1   
 22  11  14  1   
 23  11  34  1   
 24  11  35  1   
 25  12  15  1   
 26  12  16  ar  
 27  13  16  ar  
 28  13  36  1   
 29  14  17  1   
 30  16  18  1   
 31  17  19  ar  
 32  17  20  ar  
 33  19  21  1   
 34  19  22  ar  
 35  20  23  ar  
 36  20  37  1   
 37  21  24  1   
 38  22  25  ar  
 39  22  38  1   
 40  23  25  ar  
 41  23  39  1   
 42  24  40  1   
 43  24  41  1   
 44  24  42  1   
 45  25  43  1   
@<TRIPOS>SUBSTRUCTURE
  1 ****   7 GROUP 4 **** **** 0

# MOE 2024.06 (io_trps.svl 2023.06)
