@<TRIPOS>MOLECULE
NONAME
40 43 1 0 0 
SMALL
USER_CHARGES


@<TRIPOS>ATOM
  1 I        1.2840     0.4900     2.2200 I     1 <1>  -0.0810 
  2 C        0.6490     1.8770     0.7270 C.ar  1 <1>   0.0810 
  3 C        1.4580     2.1640    -0.3750 C.ar  1 <1>   0.0860 
  4 C       -0.5980     2.4470     0.9190 C.ar  1 <1>  -0.1500 
  5 C        2.7730     1.6020    -0.5890 C.2   1 <1>   0.5440 
  6 C        0.9320     3.0570    -1.3090 C.ar  1 <1>  -0.1500 
  7 C       -1.0800     3.3370    -0.0240 C.ar  1 <1>  -0.1500 
  8 O        2.9610     0.8420    -1.5170 O.2   1 <1>  -0.5700 
  9 N        3.8080     1.9660     0.2280 N.am  1 <1>  -0.7300 
 10 C       -0.3140     3.6370    -1.1380 C.ar  1 <1>  -0.1500 
 11 C        5.1970     1.4760     0.2400 C.3   1 <1>   0.3000 
 12 C        5.9200     1.8350    -1.0730 C.3   1 <1>  -0.1600 
 13 C        5.2440    -0.0480     0.4650 C.3   1 <1>  -0.1600 
 14 C        5.9190     2.1710     1.4100 C.3   1 <1>  -0.1600 
 15 C        7.3860     1.3620    -1.0130 C.3   1 <1>  -0.0800 
 16 C        6.7080    -0.5260     0.5280 C.3   1 <1>  -0.0800 
 17 C        7.3870     1.7080     1.4870 C.3   1 <1>  -0.0800 
 18 C        7.4150    -0.1640    -0.7930 C.3   1 <1>  -0.1600 
 19 C        8.0950     2.0560     0.1650 C.3   1 <1>  -0.1600 
 20 C        7.4230     0.1820     1.6950 C.3   1 <1>  -0.1600 
 21 H       -1.1870     2.1990     1.7840 H     1 <1>   0.1500 
 22 H        1.5160     3.2920    -2.1830 H     1 <1>   0.1500 
 23 H       -2.0480     3.7910     0.1050 H     1 <1>   0.1500 
 24 H        3.6030     2.5980     0.9990 H     1 <1>   0.3700 
 25 H       -0.6910     4.3250    -1.8770 H     1 <1>   0.1500 
 26 H        5.8860     2.8980    -1.2300 H     1 <1>   0.0800 
 27 H        5.4320     1.3570    -1.9030 H     1 <1>   0.0800 
 28 H        4.7470    -0.5550    -0.3420 H     1 <1>   0.0800 
 29 H        4.7400    -0.2990     1.3800 H     1 <1>   0.0800 
 30 H        5.4250     1.9340     2.3350 H     1 <1>   0.0800 
 31 H        5.8920     3.2370     1.2730 H     1 <1>   0.0800 
 32 H        7.8840     1.6060    -1.9360 H     1 <1>   0.0800 
 33 H        6.7350    -1.5930     0.6760 H     1 <1>   0.0800 
 34 H        7.8830     2.1990     2.3070 H     1 <1>   0.0800 
 35 H        8.4340    -0.5080    -0.7670 H     1 <1>   0.0800 
 36 H        6.9240    -0.6580    -1.6140 H     1 <1>   0.0800 
 37 H        8.0890     3.1220     0.0160 H     1 <1>   0.0800 
 38 H        9.1230     1.7390     0.2080 H     1 <1>   0.0800 
 39 H        8.4440    -0.1540     1.7530 H     1 <1>   0.0800 
 40 H        6.9430    -0.0730     2.6240 H     1 <1>   0.0800 
@<TRIPOS>BOND
  1   1   2  1   
  2   2   3  ar  
  3   2   4  ar  
  4   3   5  1   
  5   3   6  ar  
  6   4   7  ar  
  7   4  21  1   
  8   5   8  2   
  9   5   9  am  
 10   6  10  ar  
 11   6  22  1   
 12   7  10  ar  
 13   7  23  1   
 14   9  11  1   
 15   9  24  1   
 16  10  25  1   
 17  11  12  1   
 18  11  13  1   
 19  11  14  1   
 20  12  15  1   
 21  12  26  1   
 22  12  27  1   
 23  13  16  1   
 24  13  28  1   
 25  13  29  1   
 26  14  17  1   
 27  14  30  1   
 28  14  31  1   
 29  15  18  1   
 30  15  19  1   
 31  15  32  1   
 32  16  18  1   
 33  16  20  1   
 34  16  33  1   
 35  17  19  1   
 36  17  20  1   
 37  17  34  1   
 38  18  35  1   
 39  18  36  1   
 40  19  37  1   
 41  19  38  1   
 42  20  39  1   
 43  20  40  1   
@<TRIPOS>SUBSTRUCTURE
  1 ****   9 GROUP 4 **** **** 0

# MOE 2024.06 (io_trps.svl 2023.06)
