@<TRIPOS>MOLECULE
NONAME
46 47 1 0 0 
SMALL
USER_CHARGES


@<TRIPOS>ATOM
  1 O        0.5140    -0.2210    -0.6330 O.3   1 <1>  -0.6800 
  2 C        1.5510     0.6620    -0.8900 C.3   1 <1>   0.1200 
  3 C        2.8200     0.1190    -0.2250 C.3   1 <1>   0.1100 
  4 N        3.9820     1.0130    -0.4390 N.3   1 <1>  -0.8100 
  5 C        5.2420     0.2740    -0.2450 C.3   1 <1>   0.1100 
  6 C        3.9330     2.2040     0.4310 C.3   1 <1>   0.1100 
  7 C        6.4690     1.1740    -0.4920 C.3   1 <1>   0.3430 
  8 C        5.1470     3.1260     0.1940 C.3   1 <1>   0.3430 
  9 N        6.4650     2.4100     0.3790 N.4   1 <1>  -0.9590 
 10 C        7.6450     3.3050     0.1570 C.3   1 <1>   0.4230 
 11 C        8.9570     2.5010     0.2640 C.3   1 <1>  -0.1600 
 12 C        7.6090     4.4370     1.1920 C.3   1 <1>  -0.2400 
 13 C       10.2410     3.3330     0.1040 C.3   1 <1>  -0.0170 
 14 C       11.4330     2.3990    -0.0030 C.ar  1 <1>  -0.1440 
 15 C       12.0430     1.9120     1.1420 C.ar  1 <1>  -0.1500 
 16 C       11.9170     2.0180    -1.2460 C.ar  1 <1>  -0.1500 
 17 C       13.1210     1.0500     1.0480 C.ar  1 <1>  -0.1500 
 18 C       12.9960     1.1560    -1.3410 C.ar  1 <1>  -0.1500 
 19 C       13.5980     0.6710    -0.1950 C.ar  1 <1>  -0.1500 
 20 H       -0.3040     0.0580    -1.0910 H     1 <1>   0.4000 
 21 H        1.2760     1.6210    -0.4890 H     1 <1>   0.0800 
 22 H        1.6850     0.7270    -1.9560 H     1 <1>   0.0800 
 23 H        3.0230    -0.8430    -0.6650 H     1 <1>   0.0800 
 24 H        2.6470    -0.0200     0.8290 H     1 <1>   0.0800 
 25 H        5.2780    -0.5490    -0.9390 H     1 <1>   0.0800 
 26 H        5.2840    -0.1330     0.7510 H     1 <1>   0.0800 
 27 H        3.9020     1.9060     1.4660 H     1 <1>   0.0800 
 28 H        3.0380     2.7640     0.2230 H     1 <1>   0.0800 
 29 H        6.4750     1.4620    -1.5300 H     1 <1>   0.0800 
 30 H        7.3540     0.5900    -0.3040 H     1 <1>   0.0800 
 31 H        5.0750     3.9550     0.8760 H     1 <1>   0.0800 
 32 H        5.0860     3.5140    -0.8090 H     1 <1>   0.0800 
 33 H        6.5030     2.0900     1.3530 H     1 <1>   0.4500 
 34 H        7.5850     3.7330    -0.8320 H     1 <1>   0.0800 
 35 H        8.9890     1.7640    -0.5170 H     1 <1>   0.0800 
 36 H        9.0000     1.9920     1.2110 H     1 <1>   0.0800 
 37 H        7.6670     4.0470     2.1920 H     1 <1>   0.0800 
 38 H        6.7290     5.0450     1.0930 H     1 <1>   0.0800 
 39 H        8.4380     5.1040     1.0460 H     1 <1>   0.0800 
 40 H       10.3900     3.9830     0.9480 H     1 <1>   0.0800 
 41 H       10.1850     3.9440    -0.7810 H     1 <1>   0.0800 
 42 H       11.6860     2.1990     2.1160 H     1 <1>   0.1500 
 43 H       11.4620     2.3890    -2.1480 H     1 <1>   0.1500 
 44 H       13.5930     0.6750     1.9400 H     1 <1>   0.1500 
 45 H       13.3700     0.8650    -2.3080 H     1 <1>   0.1500 
 46 H       14.4370     0.0010    -0.2680 H     1 <1>   0.1500 
@<TRIPOS>BOND
  1   1   2  1   
  2   1  20  1   
  3   2   3  1   
  4   2  21  1   
  5   2  22  1   
  6   3   4  1   
  7   3  23  1   
  8   3  24  1   
  9   4   5  1   
 10   4   6  1   
 11   5   7  1   
 12   5  25  1   
 13   5  26  1   
 14   6   8  1   
 15   6  27  1   
 16   6  28  1   
 17   7   9  1   
 18   7  29  1   
 19   7  30  1   
 20   8   9  1   
 21   8  31  1   
 22   8  32  1   
 23   9  10  1   
 24   9  33  1   
 25  10  11  1   
 26  10  12  1   
 27  10  34  1   
 28  11  13  1   
 29  11  35  1   
 30  11  36  1   
 31  12  37  1   
 32  12  38  1   
 33  12  39  1   
 34  13  14  1   
 35  13  40  1   
 36  13  41  1   
 37  14  15  ar  
 38  14  16  ar  
 39  15  17  ar  
 40  15  42  1   
 41  16  18  ar  
 42  16  43  1   
 43  17  19  ar  
 44  17  44  1   
 45  18  19  ar  
 46  18  45  1   
 47  19  46  1   
@<TRIPOS>SUBSTRUCTURE
  1 ****   7 GROUP 4 **** **** 0

# MOE 2024.06 (io_trps.svl 2023.06)
