@<TRIPOS>MOLECULE
NONAME
27 27 1 0 0 
SMALL
USER_CHARGES


@<TRIPOS>ATOM
  1 CL      -0.5900     0.6640     0.0630 Cl    1 <1>  -0.1770 
  2 C       -1.8770    -0.4740    -0.2790 C.ar  1 <1>   0.1770 
  3 C       -1.5880    -1.7530    -0.7440 C.ar  1 <1>   0.0830 
  4 C       -3.1820    -0.0670    -0.0840 C.ar  1 <1>  -0.1500 
  5 O       -0.3190    -2.1820    -0.9450 O.3   1 <1>  -0.3630 
  6 C       -2.6310    -2.6170    -1.0320 C.ar  1 <1>  -0.1500 
  7 C       -4.2350    -0.9360    -0.3570 C.ar  1 <1>   0.1170 
  8 C        0.3950    -2.5650     0.2090 C.3   1 <1>   0.0400 
  9 C       -3.9400    -2.2080    -0.8380 C.ar  1 <1>  -0.1500 
 10 N       -5.5820    -0.5830    -0.1820 N.am  1 <1>  -0.5470 
 11 C       -6.1930     0.4280     0.5050 C.2   1 <1>   0.5690 
 12 O       -5.6020     1.2670     1.1430 O.2   1 <1>  -0.5700 
 13 C       -7.7170     0.4820     0.4640 C.3   1 <1>   0.1810 
 14 O       -8.2540    -0.5990    -0.2670 O.3   1 <1>  -0.5600 
 15 C       -9.6450    -0.5960    -0.3310 C.3   1 <1>   0.0400 
 16 H       -3.3660     0.9270     0.2750 H     1 <1>   0.1500 
 17 H       -2.4130    -3.6010    -1.4070 H     1 <1>   0.1500 
 18 H        1.3650    -2.9120    -0.0960 H     1 <1>   0.0800 
 19 H       -0.1420    -3.3560     0.7030 H     1 <1>   0.0800 
 20 H        0.4980    -1.7170     0.8620 H     1 <1>   0.0800 
 21 H       -4.7420    -2.8890    -1.0610 H     1 <1>   0.1500 
 22 H       -6.2720    -1.2030    -0.6170 H     1 <1>   0.3700 
 23 H       -8.0240     1.4010    -0.0020 H     1 <1>   0.0800 
 24 H       -8.0970     0.4420     1.4690 H     1 <1>   0.0800 
 25 H       -9.9570    -1.4520    -0.9050 H     1 <1>   0.0800 
 26 H       -9.9790     0.3050    -0.8160 H     1 <1>   0.0800 
 27 H      -10.0490    -0.6630     0.6650 H     1 <1>   0.0800 
@<TRIPOS>BOND
  1   1   2  1   
  2   2   3  ar  
  3   2   4  ar  
  4   3   5  1   
  5   3   6  ar  
  6   4   7  ar  
  7   4  16  1   
  8   5   8  1   
  9   6   9  ar  
 10   6  17  1   
 11   7   9  ar  
 12   7  10  1   
 13   8  18  1   
 14   8  19  1   
 15   8  20  1   
 16   9  21  1   
 17  10  11  am  
 18  10  22  1   
 19  11  12  2   
 20  11  13  1   
 21  13  14  1   
 22  13  23  1   
 23  13  24  1   
 24  14  15  1   
 25  15  25  1   
 26  15  26  1   
 27  15  27  1   
@<TRIPOS>SUBSTRUCTURE
  1 ****   7 GROUP 4 **** **** 0

# MOE 2024.06 (io_trps.svl 2023.06)
