@<TRIPOS>MOLECULE
NONAME
34 36 1 0 0 
SMALL
USER_CHARGES


@<TRIPOS>ATOM
  1 O       -0.4830    -0.7380    -0.3850 O.2   1 <1>  -0.5700 
  2 C       -0.3430    -1.8540     0.0640 C.2   1 <1>   0.6160 
  3 N       -1.4430    -2.6480     0.0140 N.am  1 <1>  -0.7300 
  4 C        0.9260    -2.2600     0.6220 C.2   1 <1>  -0.1360 
  5 C       -1.6230    -4.1090    -0.0310 C.3   1 <1>   0.3000 
  6 C        2.0960    -1.5970     0.5600 C.2   1 <1>  -0.3000 
  7 C       -0.5560    -4.7980    -0.9070 C.3   1 <1>  -0.1600 
  8 C       -1.6120    -4.7000     1.3920 C.3   1 <1>  -0.1600 
  9 C       -3.0080    -4.3680    -0.6560 C.3   1 <1>  -0.1600 
 10 C       -0.8230    -6.3150    -0.9660 C.3   1 <1>  -0.0800 
 11 C       -1.8760    -6.2180     1.3340 C.3   1 <1>  -0.0800 
 12 C       -3.2960    -5.8810    -0.7240 C.3   1 <1>  -0.0800 
 13 C       -0.7940    -6.8900     0.4640 C.3   1 <1>  -0.1600 
 14 C       -2.2130    -6.5610    -1.5810 C.3   1 <1>  -0.1600 
 15 C       -3.2570    -6.4660     0.7000 C.3   1 <1>  -0.1600 
 16 H       -2.2550    -2.1470    -0.3430 H     1 <1>   0.3700 
 17 H        0.8900    -3.1920     1.1430 H     1 <1>   0.1500 
 18 H        3.0150    -1.9440     0.9980 H     1 <1>   0.1500 
 19 H        2.2100    -0.6500     0.0590 H     1 <1>   0.1500 
 20 H        0.4270    -4.6450    -0.5080 H     1 <1>   0.0800 
 21 H       -0.5820    -4.3880    -1.9010 H     1 <1>   0.0800 
 22 H       -2.3710    -4.2250     1.9880 H     1 <1>   0.0800 
 23 H       -0.6640    -4.5320     1.8650 H     1 <1>   0.0800 
 24 H       -3.0420    -3.9570    -1.6500 H     1 <1>   0.0800 
 25 H       -3.7710    -3.8910    -0.0670 H     1 <1>   0.0800 
 26 H       -0.0700    -6.7940    -1.5680 H     1 <1>   0.0800 
 27 H       -1.8530    -6.6300     2.3280 H     1 <1>   0.0800 
 28 H       -4.2660    -6.0490    -1.1610 H     1 <1>   0.0800 
 29 H        0.1770    -6.7310     0.9020 H     1 <1>   0.0800 
 30 H       -0.9640    -7.9520     0.4310 H     1 <1>   0.0800 
 31 H       -2.4050    -7.6190    -1.6370 H     1 <1>   0.0800 
 32 H       -2.2430    -6.1720    -2.5840 H     1 <1>   0.0800 
 33 H       -4.0230    -6.0100     1.3030 H     1 <1>   0.0800 
 34 H       -3.4570    -7.5230     0.6650 H     1 <1>   0.0800 
@<TRIPOS>BOND
  1   1   2  2   
  2   2   3  am  
  3   2   4  1   
  4   3   5  1   
  5   3  16  1   
  6   4   6  2   
  7   4  17  1   
  8   5   7  1   
  9   5   8  1   
 10   5   9  1   
 11   6  18  1   
 12   6  19  1   
 13   7  10  1   
 14   7  20  1   
 15   7  21  1   
 16   8  11  1   
 17   8  22  1   
 18   8  23  1   
 19   9  12  1   
 20   9  24  1   
 21   9  25  1   
 22  10  13  1   
 23  10  14  1   
 24  10  26  1   
 25  11  13  1   
 26  11  15  1   
 27  11  27  1   
 28  12  14  1   
 29  12  15  1   
 30  12  28  1   
 31  13  29  1   
 32  13  30  1   
 33  14  31  1   
 34  14  32  1   
 35  15  33  1   
 36  15  34  1   
@<TRIPOS>SUBSTRUCTURE
  1 ****   5 GROUP 4 **** **** 0

# MOE 2024.06 (io_trps.svl 2023.06)
