@<TRIPOS>MOLECULE
NONAME
37 38 1 0 0 
SMALL
USER_CHARGES


@<TRIPOS>ATOM
  1 BR      -1.2000     2.1640     2.8460 Br    1 <1>  -0.1110 
  2 C       -0.6590     2.8200     1.1110 C.ar  1 <1>   0.1110 
  3 C       -1.4910     2.5970     0.0160 C.ar  1 <1>   0.1170 
  4 C        0.5460     3.4910     1.0270 C.ar  1 <1>  -0.1500 
  5 N       -2.7010     1.8990     0.1960 N.am  1 <1>  -0.5470 
  6 C       -1.0500     3.0860    -1.2120 C.ar  1 <1>  -0.1500 
  7 C        0.9540     3.9680    -0.2060 C.ar  1 <1>  -0.1500 
  8 C       -3.7800     1.6990    -0.6200 C.2   1 <1>   0.5690 
  9 C        0.1550     3.7630    -1.3200 C.ar  1 <1>  -0.1500 
 10 O       -3.8640     2.1490    -1.7370 O.2   1 <1>  -0.5700 
 11 C       -4.9380     0.8750    -0.0550 C.3   1 <1>  -0.0190 
 12 C       -5.6370     0.0140    -1.1210 C.3   1 <1>  -0.1600 
 13 C       -5.9810     1.7770     0.6240 C.3   1 <1>  -0.1600 
 14 C       -6.8180    -0.7510    -0.5210 C.3   1 <1>   0.1960 
 15 C       -7.1670     0.9670     1.1570 C.3   1 <1>   0.1960 
 16 N       -7.7780     0.1820     0.0790 N.am  1 <1>  -0.8490 
 17 S       -9.1940    -0.5950     0.5920 S.o2  1 <1>   1.3330 
 18 O       -9.8830     0.2720     1.5200 O.2   1 <1>  -0.6500 
 19 O       -8.8400    -1.9390     0.9890 O.2   1 <1>  -0.6500 
 20 C      -10.1580    -0.6610    -0.9020 C.3   1 <1>  -0.1350 
 21 H        1.1510     3.6380     1.9040 H     1 <1>   0.1500 
 22 H       -2.7990     1.5100     1.1340 H     1 <1>   0.3700 
 23 H       -1.6410     2.9430    -2.0970 H     1 <1>   0.1500 
 24 H        1.8880     4.4960    -0.3010 H     1 <1>   0.1500 
 25 H        0.4720     4.1330    -2.2810 H     1 <1>   0.1500 
 26 H       -4.5370     0.2080     0.6870 H     1 <1>   0.0800 
 27 H       -4.9350    -0.6830    -1.5430 H     1 <1>   0.0800 
 28 H       -6.0000     0.6370    -1.9210 H     1 <1>   0.0800 
 29 H       -6.3470     2.5010    -0.0830 H     1 <1>   0.0800 
 30 H       -5.5270     2.3150     1.4370 H     1 <1>   0.0800 
 31 H       -6.4630    -1.4450     0.2250 H     1 <1>   0.0800 
 32 H       -7.2990    -1.3180    -1.3000 H     1 <1>   0.0800 
 33 H       -7.8900     1.6560     1.5620 H     1 <1>   0.0800 
 34 H       -6.8490     0.3100     1.9500 H     1 <1>   0.0800 
 35 H      -10.3240     0.3310    -1.2740 H     1 <1>   0.0800 
 36 H      -11.1080    -1.1180    -0.7040 H     1 <1>   0.0800 
 37 H       -9.6500    -1.2320    -1.6520 H     1 <1>   0.0800 
@<TRIPOS>BOND
  1   1   2  1   
  2   2   3  ar  
  3   2   4  ar  
  4   3   5  1   
  5   3   6  ar  
  6   4   7  ar  
  7   4  21  1   
  8   5   8  am  
  9   5  22  1   
 10   6   9  ar  
 11   6  23  1   
 12   7   9  ar  
 13   7  24  1   
 14   8  10  2   
 15   8  11  1   
 16   9  25  1   
 17  11  12  1   
 18  11  13  1   
 19  11  26  1   
 20  12  14  1   
 21  12  27  1   
 22  12  28  1   
 23  13  15  1   
 24  13  29  1   
 25  13  30  1   
 26  14  16  1   
 27  14  31  1   
 28  14  32  1   
 29  15  16  1   
 30  15  33  1   
 31  15  34  1   
 32  16  17  am  
 33  17  18  2   
 34  17  19  2   
 35  17  20  1   
 36  20  35  1   
 37  20  36  1   
 38  20  37  1   
@<TRIPOS>SUBSTRUCTURE
  1 ****  11 GROUP 4 **** **** 0

# MOE 2024.06 (io_trps.svl 2023.06)
