@<TRIPOS>MOLECULE
NONAME
44 46 1 0 0 
SMALL
USER_CHARGES


@<TRIPOS>ATOM
  1 CL       5.9290    -0.9410     3.1950 Cl    1 <1>  -0.1770 
  2 C        5.8700     0.5990     2.3760 C.ar  1 <1>   0.1770 
  3 C        5.7120     0.6280     1.0040 C.ar  1 <1>  -0.1500 
  4 C        5.9820     1.7600     3.1190 C.ar  1 <1>  -0.1500 
  5 C        5.6710     1.8580     0.3540 C.ar  1 <1>   0.0830 
  6 C        5.9290     2.9830     2.4720 C.ar  1 <1>  -0.1500 
  7 O        5.5490     2.0060    -0.9890 O.3   1 <1>  -0.3630 
  8 C        5.7710     3.0270     1.0970 C.ar  1 <1>  -0.1500 
  9 C        5.6080     0.9070    -1.8910 C.3   1 <1>   0.2610 
 10 C        6.9410     0.1300    -1.8280 C.2   1 <1>   0.5690 
 11 C        5.3010     1.4450    -3.2930 C.3   1 <1>  -0.2400 
 12 O        6.8420    -1.0770    -1.7960 O.2   1 <1>  -0.5700 
 13 N        8.1820     0.7300    -1.8020 N.am  1 <1>  -0.6600 
 14 C        8.4590     2.2020    -1.8250 C.3   1 <1>   0.1400 
 15 C        9.4220    -0.0660    -1.5230 C.3   1 <1>   0.1400 
 16 C        9.1250     2.6590    -0.5140 C.3   1 <1>   0.2090 
 17 C       10.0920     0.3980    -0.2190 C.3   1 <1>   0.2090 
 18 N       10.3600     1.8710    -0.2390 N.pl3 1 <1>  -0.8380 
 19 C       11.1930     2.3810     0.7360 C.ar  1 <1>   0.4100 
 20 N       11.1270     1.8340     1.9440 N.ar  1 <1>  -0.6200 
 21 C       12.0410     3.4390     0.4220 C.ar  1 <1>  -0.1500 
 22 C       11.9270     2.3560     2.8580 C.ar  1 <1>   0.1600 
 23 C       12.8670     3.9740     1.3820 C.ar  1 <1>  -0.1500 
 24 C       12.8000     3.4070     2.6390 C.ar  1 <1>  -0.1500 
 25 H        5.6270    -0.3070     0.4830 H     1 <1>   0.1500 
 26 H        6.1080     1.7020     4.1850 H     1 <1>   0.1500 
 27 H        6.0110     3.8960     3.0370 H     1 <1>   0.1500 
 28 H        5.7270     3.9740     0.5900 H     1 <1>   0.1500 
 29 H        4.8170     0.2350    -1.6120 H     1 <1>   0.0800 
 30 H        6.0600     2.1330    -3.6140 H     1 <1>   0.0800 
 31 H        4.3440     1.9360    -3.2980 H     1 <1>   0.0800 
 32 H        5.2690     0.6270    -3.9900 H     1 <1>   0.0800 
 33 H        7.5660     2.7720    -1.9870 H     1 <1>   0.0800 
 34 H        9.1280     2.4160    -2.6400 H     1 <1>   0.0800 
 35 H       10.1130     0.0590    -2.3370 H     1 <1>   0.0800 
 36 H        9.1950    -1.1150    -1.4440 H     1 <1>   0.0800 
 37 H        8.4360     2.5320     0.3030 H     1 <1>   0.0800 
 38 H        9.3710     3.7040    -0.5830 H     1 <1>   0.0800 
 39 H       11.0200    -0.1300    -0.0820 H     1 <1>   0.0800 
 40 H        9.4500     0.1610     0.6130 H     1 <1>   0.0800 
 41 H       12.0390     3.8200    -0.5810 H     1 <1>   0.1500 
 42 H       11.8840     1.9210     3.8410 H     1 <1>   0.1500 
 43 H       13.5340     4.7910     1.1670 H     1 <1>   0.1500 
 44 H       13.4180     3.7750     3.4380 H     1 <1>   0.1500 
@<TRIPOS>BOND
  1   1   2  1   
  2   2   3  ar  
  3   2   4  ar  
  4   3   5  ar  
  5   3  25  1   
  6   4   6  ar  
  7   4  26  1   
  8   5   7  1   
  9   5   8  ar  
 10   6   8  ar  
 11   6  27  1   
 12   7   9  1   
 13   8  28  1   
 14   9  10  1   
 15   9  11  1   
 16   9  29  1   
 17  10  12  2   
 18  10  13  am  
 19  11  30  1   
 20  11  31  1   
 21  11  32  1   
 22  13  14  1   
 23  13  15  1   
 24  14  16  1   
 25  14  33  1   
 26  14  34  1   
 27  15  17  1   
 28  15  35  1   
 29  15  36  1   
 30  16  18  1   
 31  16  37  1   
 32  16  38  1   
 33  17  18  1   
 34  17  39  1   
 35  17  40  1   
 36  18  19  1   
 37  19  20  ar  
 38  19  21  ar  
 39  20  22  ar  
 40  21  23  ar  
 41  21  41  1   
 42  22  24  ar  
 43  22  42  1   
 44  23  24  ar  
 45  23  43  1   
 46  24  44  1   
@<TRIPOS>SUBSTRUCTURE
  1 ****  16 GROUP 4 **** **** 0

# MOE 2024.06 (io_trps.svl 2023.06)
