@<TRIPOS>MOLECULE
NONAME
32 33 1 0 0 
SMALL
USER_CHARGES


@<TRIPOS>ATOM
  1 CL      -0.8600     1.6300    -1.9510 Cl    1 <1>  -0.1770 
  2 C        0.4080     2.2910    -0.9440 C.ar  1 <1>   0.1770 
  3 C        0.1180     2.9930     0.2350 C.ar  1 <1>   0.0860 
  4 C        1.7030     2.0700    -1.3720 C.ar  1 <1>  -0.1500 
  5 C       -1.2260     3.2560     0.7140 C.2   1 <1>   0.5440 
  6 C        1.2100     3.4560     0.9800 C.ar  1 <1>  -0.1500 
  7 C        2.7390     2.5560    -0.6030 C.ar  1 <1>   0.1900 
  8 O       -1.4510     3.2550     1.9080 O.2   1 <1>  -0.5700 
  9 N       -2.2500     3.5460    -0.1410 N.am  1 <1>  -0.7300 
 10 C        2.5160     3.2460     0.5720 C.ar  1 <1>  -0.1500 
 11 F        3.9650     2.3550    -0.9950 F     1 <1>  -0.1900 
 12 C       -3.6480     3.8010     0.2410 C.3   1 <1>   0.2200 
 13 C       -4.5070     2.6190    -0.2190 C.3   1 <1>  -0.1600 
 14 C       -4.1070     5.1090    -0.4110 C.3   1 <1>  -0.1600 
 15 C       -5.9970     2.8760     0.0510 C.3   1 <1>  -0.1600 
 16 C       -5.5960     5.3720    -0.1410 C.3   1 <1>  -0.1600 
 17 C       -6.4600     4.1880    -0.5980 C.3   1 <1>  -0.1600 
 18 H        1.9030     1.5300    -2.2800 H     1 <1>   0.1500 
 19 H        1.0220     3.9900     1.8980 H     1 <1>   0.1500 
 20 H       -2.1010     3.4390    -1.1450 H     1 <1>   0.3700 
 21 H        3.3470     3.6070     1.1510 H     1 <1>   0.1500 
 22 H       -3.7250     3.8970     1.3130 H     1 <1>   0.0800 
 23 H       -4.1980     1.7330     0.3080 H     1 <1>   0.0800 
 24 H       -4.3650     2.4570    -1.2730 H     1 <1>   0.0800 
 25 H       -3.9490     5.0570    -1.4740 H     1 <1>   0.0800 
 26 H       -3.5250     5.9240    -0.0170 H     1 <1>   0.0800 
 27 H       -6.1610     2.9280     1.1140 H     1 <1>   0.0800 
 28 H       -6.5800     2.0570    -0.3330 H     1 <1>   0.0800 
 29 H       -5.9040     6.2650    -0.6560 H     1 <1>   0.0800 
 30 H       -5.7420     5.5320     0.9140 H     1 <1>   0.0800 
 31 H       -7.4890     4.3730    -0.3420 H     1 <1>   0.0800 
 32 H       -6.4000     4.0960    -1.6690 H     1 <1>   0.0800 
@<TRIPOS>BOND
  1   1   2  1   
  2   2   3  ar  
  3   2   4  ar  
  4   3   5  1   
  5   3   6  ar  
  6   4   7  ar  
  7   4  18  1   
  8   5   8  2   
  9   5   9  am  
 10   6  10  ar  
 11   6  19  1   
 12   7  10  ar  
 13   7  11  1   
 14   9  12  1   
 15   9  20  1   
 16  10  21  1   
 17  12  13  1   
 18  12  14  1   
 19  12  22  1   
 20  13  15  1   
 21  13  23  1   
 22  13  24  1   
 23  14  16  1   
 24  14  25  1   
 25  14  26  1   
 26  15  17  1   
 27  15  27  1   
 28  15  28  1   
 29  16  17  1   
 30  16  29  1   
 31  16  30  1   
 32  17  31  1   
 33  17  32  1   
@<TRIPOS>SUBSTRUCTURE
  1 ****   5 GROUP 4 **** **** 0

# MOE 2024.06 (io_trps.svl 2023.06)
