@<TRIPOS>MOLECULE
NONAME
35 36 1 0 0 
SMALL
USER_CHARGES


@<TRIPOS>ATOM
  1 CL      -0.2980     0.3890     0.6000 Cl    1 <1>  -0.1770 
  2 C        1.4380     0.3340     0.4420 C.ar  1 <1>   0.1770 
  3 C        2.1150     1.1690    -0.4360 C.ar  1 <1>  -0.0090 
  4 C        2.1100    -0.5700     1.2420 C.ar  1 <1>  -0.1500 
  5 S        1.2370     2.3620    -1.4730 S.o2  1 <1>   1.4470 
  6 C        3.5020     1.0690    -0.4730 C.ar  1 <1>  -0.1500 
  7 C        3.4860    -0.6420     1.1780 C.ar  1 <1>   0.1770 
  8 O        0.1470     1.7060    -2.1590 O.2   1 <1>  -0.6500 
  9 O        2.1950     3.1130    -2.2550 O.2   1 <1>  -0.6500 
 10 N        0.5810     3.4370    -0.3390 N.am  1 <1>  -0.8490 
 11 C        4.2270     0.1750     0.3210 C.ar  1 <1>   0.0860 
 12 CL       4.2590    -1.7960     2.2370 Cl    1 <1>  -0.1770 
 13 C        1.5590     4.4190     0.1600 C.3   1 <1>   0.1960 
 14 C       -0.5960     4.1420    -0.8660 C.3   1 <1>   0.1960 
 15 C        5.6730     0.1590     0.2290 C.2   1 <1>   0.5440 
 16 C        0.9150     5.3570     1.1960 C.3   1 <1>   0.1200 
 17 C       -1.1830     5.1030     0.1850 C.3   1 <1>   0.1200 
 18 O        6.2710     1.2060     0.0820 O.2   1 <1>  -0.5700 
 19 N        6.3900    -1.0050     0.2670 N.am  1 <1>  -0.7300 
 20 O       -0.2050     5.9920     0.6480 O.3   1 <1>  -0.5600 
 21 C        7.8670    -1.1160     0.1560 C.3   1 <1>   0.0600 
 22 H        1.5620    -1.2070     1.9130 H     1 <1>   0.1500 
 23 H        4.0540     1.7120    -1.1420 H     1 <1>   0.1500 
 24 H        1.9400     5.0150    -0.6520 H     1 <1>   0.0800 
 25 H        2.3890     3.9070     0.6170 H     1 <1>   0.0800 
 26 H       -1.3550     3.4270    -1.1390 H     1 <1>   0.0800 
 27 H       -0.3300     4.6990    -1.7490 H     1 <1>   0.0800 
 28 H        1.6120     6.1200     1.4940 H     1 <1>   0.0800 
 29 H        0.6070     4.8060     2.0680 H     1 <1>   0.0800 
 30 H       -1.5710     4.5510     1.0230 H     1 <1>   0.0800 
 31 H       -1.9790     5.6850    -0.2450 H     1 <1>   0.0800 
 32 H        5.9030    -1.8750     0.5040 H     1 <1>   0.3700 
 33 H        8.2990    -0.1630    -0.1020 H     1 <1>   0.0800 
 34 H        8.1220    -1.8280    -0.6100 H     1 <1>   0.0800 
 35 H        8.2800    -1.4400     1.0950 H     1 <1>   0.0800 
@<TRIPOS>BOND
  1   1   2  1   
  2   2   3  ar  
  3   2   4  ar  
  4   3   5  1   
  5   3   6  ar  
  6   4   7  ar  
  7   4  22  1   
  8   5   8  2   
  9   5   9  2   
 10   5  10  am  
 11   6  11  ar  
 12   6  23  1   
 13   7  11  ar  
 14   7  12  1   
 15  10  13  1   
 16  10  14  1   
 17  11  15  1   
 18  13  16  1   
 19  13  24  1   
 20  13  25  1   
 21  14  17  1   
 22  14  26  1   
 23  14  27  1   
 24  15  18  2   
 25  15  19  am  
 26  16  20  1   
 27  16  28  1   
 28  16  29  1   
 29  17  20  1   
 30  17  30  1   
 31  17  31  1   
 32  19  21  1   
 33  19  32  1   
 34  21  33  1   
 35  21  34  1   
 36  21  35  1   
@<TRIPOS>SUBSTRUCTURE
  1 ****   3 GROUP 4 **** **** 0

# MOE 2024.06 (io_trps.svl 2023.06)
