@<TRIPOS>MOLECULE
NONAME
39 40 1 0 0 
SMALL
USER_CHARGES


@<TRIPOS>ATOM
  1 N       -0.4690     0.2690     0.9090 N.1   1 <1>  -0.5570 
  2 C       -1.3910     0.8210     0.5250 C.1   1 <1>   0.4840 
  3 C       -2.5270     1.5530     0.0610 C.ar  1 <1>   0.0730 
  4 C       -2.4230     2.9340    -0.1400 C.ar  1 <1>   0.4100 
  5 C       -3.7440     0.9310    -0.1910 C.ar  1 <1>   0.0000 
  6 N       -3.4120     3.7100    -0.5430 N.ar  1 <1>  -0.6200 
  7 N       -1.2730     3.6380     0.0700 N.pl3 1 <1>  -0.9000 
  8 C       -3.9710    -0.4850    -0.0230 C.ar  1 <1>   0.0000 
  9 C       -4.7720     1.7560    -0.6200 C.ar  1 <1>  -0.1500 
 10 C       -4.5660     3.1130    -0.7760 C.ar  1 <1>   0.1670 
 11 C       -4.7990    -0.9560     0.9910 C.ar  1 <1>  -0.1500 
 12 C       -3.3770    -1.4180    -0.8670 C.ar  1 <1>  -0.1500 
 13 C       -5.7150     3.9930    -1.2470 C.3   1 <1>  -0.0170 
 14 C       -5.0260    -2.3100     1.1560 C.ar  1 <1>  -0.1500 
 15 C       -3.6010    -2.7720    -0.7040 C.ar  1 <1>  -0.1500 
 16 C       -6.7550     4.2690    -0.1430 C.3   1 <1>  -0.0800 
 17 C       -4.4290    -3.2280     0.3080 C.ar  1 <1>  -0.1430 
 18 C       -7.9400     5.0590    -0.7150 C.3   1 <1>  -0.2400 
 19 C       -6.1440     5.0410     1.0350 C.3   1 <1>  -0.2400 
 20 C       -4.6710    -4.7160     0.4900 C.3   1 <1>  -0.0970 
 21 H       -1.3990     4.6520     0.0300 H     1 <1>   0.4000 
 22 H       -0.5920     3.3200     0.7630 H     1 <1>   0.4000 
 23 H       -5.7350     1.3280    -0.8310 H     1 <1>   0.1500 
 24 H       -5.2680    -0.2550     1.6580 H     1 <1>   0.1500 
 25 H       -2.7330    -1.0810    -1.6600 H     1 <1>   0.1500 
 26 H       -6.1960     3.5060    -2.0760 H     1 <1>   0.0800 
 27 H       -5.3200     4.9250    -1.6130 H     1 <1>   0.0800 
 28 H       -5.6690    -2.6490     1.9500 H     1 <1>   0.1500 
 29 H       -3.1250    -3.4730    -1.3680 H     1 <1>   0.1500 
 30 H       -7.1260     3.3270     0.2240 H     1 <1>   0.0800 
 31 H       -7.6150     6.0140    -1.0890 H     1 <1>   0.0800 
 32 H       -8.6810     5.2260     0.0480 H     1 <1>   0.0800 
 33 H       -8.4030     4.5140    -1.5180 H     1 <1>   0.0800 
 34 H       -5.7370     5.9790     0.7020 H     1 <1>   0.0800 
 35 H       -5.3540     4.4710     1.4920 H     1 <1>   0.0800 
 36 H       -6.8910     5.2360     1.7840 H     1 <1>   0.0800 
 37 H       -5.6380    -4.8900     0.9280 H     1 <1>   0.0800 
 38 H       -3.9180    -5.1300     1.1360 H     1 <1>   0.0800 
 39 H       -4.6330    -5.2210    -0.4580 H     1 <1>   0.0800 
@<TRIPOS>BOND
  1   1   2  3   
  2   2   3  1   
  3   3   4  ar  
  4   3   5  ar  
  5   4   6  ar  
  6   4   7  1   
  7   5   8  1   
  8   5   9  ar  
  9   6  10  ar  
 10   7  21  1   
 11   7  22  1   
 12   8  11  ar  
 13   8  12  ar  
 14   9  10  ar  
 15   9  23  1   
 16  10  13  1   
 17  11  14  ar  
 18  11  24  1   
 19  12  15  ar  
 20  12  25  1   
 21  13  16  1   
 22  13  26  1   
 23  13  27  1   
 24  14  17  ar  
 25  14  28  1   
 26  15  17  ar  
 27  15  29  1   
 28  16  18  1   
 29  16  19  1   
 30  16  30  1   
 31  17  20  1   
 32  18  31  1   
 33  18  32  1   
 34  18  33  1   
 35  19  34  1   
 36  19  35  1   
 37  19  36  1   
 38  20  37  1   
 39  20  38  1   
 40  20  39  1   
@<TRIPOS>SUBSTRUCTURE
  1 ****   5 GROUP 4 **** **** 0

# MOE 2024.06 (io_trps.svl 2023.06)
