@<TRIPOS>MOLECULE
NONAME
43 44 1 0 0 
SMALL
USER_CHARGES


@<TRIPOS>ATOM
  1 S       -0.8480     0.5140    -0.9390 S.o2  1 <1>   1.3330 
  2 O       -1.1010     1.9300    -0.8740 O.2   1 <1>  -0.6500 
  3 O        0.2440    -0.0960    -0.2240 O.2   1 <1>  -0.6500 
  4 N       -2.3140    -0.2010    -0.4040 N.am  1 <1>  -0.7570 
  5 C       -0.7980     0.0320    -2.6520 C.3   1 <1>  -0.1350 
  6 C       -2.5590    -1.4760     0.0970 C.ar  1 <1>   0.1990 
  7 C       -3.7270    -1.7390     0.8450 C.ar  1 <1>   0.0860 
  8 C       -1.6620    -2.5170    -0.1430 C.ar  1 <1>  -0.1500 
  9 C       -4.7330    -0.7220     1.1070 C.2   1 <1>   0.5440 
 10 C       -3.9140    -3.0330     1.3410 C.ar  1 <1>  -0.1500 
 11 C       -1.8820    -3.7880     0.3450 C.ar  1 <1>  -0.1500 
 12 O       -4.4560     0.4640     1.1640 O.2   1 <1>  -0.5700 
 13 N       -6.0640    -1.0430     1.2630 N.am  1 <1>  -0.6600 
 14 C       -3.0130    -4.0470     1.0950 C.ar  1 <1>  -0.1500 
 15 C       -6.9380    -0.1530     2.0850 C.3   1 <1>   0.1400 
 16 C       -6.7910    -1.7580     0.1750 C.3   1 <1>   0.1400 
 17 C       -7.6570     0.8620     1.1790 C.3   1 <1>   0.3430 
 18 C       -7.5540    -0.7500    -0.7130 C.3   1 <1>   0.3430 
 19 N       -8.4410     0.1810     0.0830 N.4   1 <1>  -0.9590 
 20 C       -9.1020     1.1970    -0.7780 C.3   1 <1>   0.3430 
 21 C      -10.1740     0.5300    -1.6320 C.3   1 <1>  -0.2400 
 22 H       -2.8890     0.5390     0.0190 H     1 <1>   0.4200 
 23 H       -1.6710     0.3890    -3.1610 H     1 <1>   0.0800 
 24 H       -0.7560    -1.0350    -2.7390 H     1 <1>   0.0800 
 25 H        0.0690     0.4500    -3.1230 H     1 <1>   0.0800 
 26 H       -0.7680    -2.3430    -0.7110 H     1 <1>   0.1500 
 27 H       -4.7820    -3.2510     1.9390 H     1 <1>   0.1500 
 28 H       -1.1720    -4.5740     0.1510 H     1 <1>   0.1500 
 29 H       -3.1800    -5.0370     1.4880 H     1 <1>   0.1500 
 30 H       -6.3410     0.3760     2.8090 H     1 <1>   0.0800 
 31 H       -7.6550    -0.7460     2.6240 H     1 <1>   0.0800 
 32 H       -7.4790    -2.4640     0.6060 H     1 <1>   0.0800 
 33 H       -6.0950    -2.3080    -0.4350 H     1 <1>   0.0800 
 34 H       -6.9110     1.5100     0.7460 H     1 <1>   0.0800 
 35 H       -8.3140     1.4690     1.7800 H     1 <1>   0.0800 
 36 H       -8.1440    -1.2950    -1.4310 H     1 <1>   0.0800 
 37 H       -6.8290    -0.1690    -1.2600 H     1 <1>   0.0800 
 38 H       -9.1770    -0.3820     0.5290 H     1 <1>   0.4500 
 39 H       -8.3740     1.6850    -1.4070 H     1 <1>   0.0800 
 40 H       -9.5690     1.9480    -0.1590 H     1 <1>   0.0800 
 41 H       -9.7470    -0.1590    -2.3380 H     1 <1>   0.0800 
 42 H      -10.6930     1.2870    -2.1930 H     1 <1>   0.0800 
 43 H      -10.8960     0.0230    -1.0170 H     1 <1>   0.0800 
@<TRIPOS>BOND
  1   1   2  2   
  2   1   3  2   
  3   1   4  am  
  4   1   5  1   
  5   4   6  1   
  6   4  22  1   
  7   5  23  1   
  8   5  24  1   
  9   5  25  1   
 10   6   7  ar  
 11   6   8  ar  
 12   7   9  1   
 13   7  10  ar  
 14   8  11  ar  
 15   8  26  1   
 16   9  12  2   
 17   9  13  am  
 18  10  14  ar  
 19  10  27  1   
 20  11  14  ar  
 21  11  28  1   
 22  13  15  1   
 23  13  16  1   
 24  14  29  1   
 25  15  17  1   
 26  15  30  1   
 27  15  31  1   
 28  16  18  1   
 29  16  32  1   
 30  16  33  1   
 31  17  19  1   
 32  17  34  1   
 33  17  35  1   
 34  18  19  1   
 35  18  36  1   
 36  18  37  1   
 37  19  20  1   
 38  19  38  1   
 39  20  21  1   
 40  20  39  1   
 41  20  40  1   
 42  21  41  1   
 43  21  42  1   
 44  21  43  1   
@<TRIPOS>SUBSTRUCTURE
  1 ****   9 GROUP 4 **** **** 0

# MOE 2024.06 (io_trps.svl 2023.06)
