@<TRIPOS>MOLECULE
NONAME
44 45 1 0 0 
SMALL
USER_CHARGES


@<TRIPOS>ATOM
  1 O        0.1420     0.3660     0.8200 O.2   1 <1>  -0.5700 
  2 C       -0.4560     1.3100     0.3350 C.2   1 <1>   0.6340 
  3 O       -1.7660     1.1680     0.1060 O.3   1 <1>  -0.4300 
  4 C        0.1570     2.5820    -0.0080 C.ar  1 <1>   0.0860 
  5 C       -2.4530    -0.0270     0.4050 C.3   1 <1>   0.1200 
  6 C        1.5570     2.7600    -0.0700 C.ar  1 <1>   0.1170 
  7 C       -0.6520     3.6890    -0.2940 C.ar  1 <1>  -0.1500 
  8 C       -3.9180     0.1620     0.0230 C.3   1 <1>  -0.2400 
  9 N        2.4180     1.6840     0.2030 N.am  1 <1>  -0.5470 
 10 C        2.0710     4.0140    -0.3930 C.ar  1 <1>  -0.1500 
 11 C       -0.1240     4.9210    -0.6200 C.ar  1 <1>  -0.1500 
 12 C        3.7320     1.4330    -0.0780 C.2   1 <1>   0.5690 
 13 C        1.2470     5.0850    -0.6680 C.ar  1 <1>  -0.1500 
 14 O        4.4580     2.1950    -0.6660 O.2   1 <1>  -0.5700 
 15 C        4.2910     0.0990     0.3780 C.3   1 <1>  -0.0990 
 16 C        3.6580    -1.0880    -0.3710 C.3   1 <1>  -0.1600 
 17 C        4.1950    -2.4430     0.1180 C.3   1 <1>  -0.0800 
 18 C        5.6860    -2.6570    -0.1410 C.3   1 <1>  -0.1600 
 19 C        3.5390    -3.6210    -0.5950 C.3   1 <1>  -0.1600 
 20 C        5.8820    -4.1750    -0.1660 C.3   1 <1>  -0.1600 
 21 C        4.4930    -4.7920    -0.3650 C.3   1 <1>  -0.1600 
 22 H       -2.3510    -0.2260     1.4590 H     1 <1>   0.0800 
 23 H       -2.0070    -0.8290    -0.1600 H     1 <1>   0.0800 
 24 H       -1.7240     3.5890    -0.2600 H     1 <1>   0.1500 
 25 H       -4.3470     0.9700     0.5870 H     1 <1>   0.0800 
 26 H       -4.4680    -0.7360     0.2390 H     1 <1>   0.0800 
 27 H       -4.0030     0.3700    -1.0280 H     1 <1>   0.0800 
 28 H        1.9300     0.8810     0.6210 H     1 <1>   0.3700 
 29 H        3.1340     4.1670    -0.4300 H     1 <1>   0.1500 
 30 H       -0.7720     5.7530    -0.8350 H     1 <1>   0.1500 
 31 H        1.6690     6.0430    -0.9190 H     1 <1>   0.1500 
 32 H        4.1210    -0.0010     1.4350 H     1 <1>   0.0800 
 33 H        5.3530     0.1080     0.2160 H     1 <1>   0.0800 
 34 H        3.8500    -0.9810    -1.4260 H     1 <1>   0.0800 
 35 H        2.5910    -1.0740    -0.2310 H     1 <1>   0.0800 
 36 H        4.0100    -2.5440     1.1750 H     1 <1>   0.0800 
 37 H        6.2960    -2.1900     0.6120 H     1 <1>   0.0800 
 38 H        5.9490    -2.2540    -1.1050 H     1 <1>   0.0800 
 39 H        3.4760    -3.4200    -1.6510 H     1 <1>   0.0800 
 40 H        2.5520    -3.8250    -0.2150 H     1 <1>   0.0800 
 41 H        6.2980    -4.5120     0.7680 H     1 <1>   0.0800 
 42 H        6.5480    -4.4550    -0.9640 H     1 <1>   0.0800 
 43 H        4.4770    -5.4770    -1.1950 H     1 <1>   0.0800 
 44 H        4.2060    -5.3200     0.5280 H     1 <1>   0.0800 
@<TRIPOS>BOND
  1   1   2  2   
  2   2   3  1   
  3   2   4  1   
  4   3   5  1   
  5   4   6  ar  
  6   4   7  ar  
  7   5   8  1   
  8   5  22  1   
  9   5  23  1   
 10   6   9  1   
 11   6  10  ar  
 12   7  11  ar  
 13   7  24  1   
 14   8  25  1   
 15   8  26  1   
 16   8  27  1   
 17   9  12  am  
 18   9  28  1   
 19  10  13  ar  
 20  10  29  1   
 21  11  13  ar  
 22  11  30  1   
 23  12  14  2   
 24  12  15  1   
 25  13  31  1   
 26  15  16  1   
 27  15  32  1   
 28  15  33  1   
 29  16  17  1   
 30  16  34  1   
 31  16  35  1   
 32  17  18  1   
 33  17  19  1   
 34  17  36  1   
 35  18  20  1   
 36  18  37  1   
 37  18  38  1   
 38  19  21  1   
 39  19  39  1   
 40  19  40  1   
 41  20  21  1   
 42  20  41  1   
 43  20  42  1   
 44  21  43  1   
 45  21  44  1   
@<TRIPOS>SUBSTRUCTURE
  1 ****   9 GROUP 4 **** **** 0

# MOE 2024.06 (io_trps.svl 2023.06)
