@<TRIPOS>MOLECULE
NONAME
43 44 1 0 0 
SMALL
USER_CHARGES


@<TRIPOS>ATOM
  1 S        0.4420     0.3520    -1.5900 S.3   1 <1>  -0.3320 
  2 C       -0.8770     1.0840    -0.6190 C.ar  1 <1>   0.4120 
  3 C        0.5940    -1.3800    -0.9290 C.3   1 <1>   0.1310 
  4 N       -1.3950     0.2770     0.2940 N.ar  1 <1>  -0.6200 
  5 C       -1.2600     2.3990    -0.8720 C.ar  1 <1>   0.0730 
  6 C        1.7750    -2.1040    -1.5600 C.2   1 <1>   0.5690 
  7 C       -2.3650     0.7990     1.0200 C.ar  1 <1>   0.1660 
  8 C       -0.6180     3.1720    -1.8940 C.1   1 <1>   0.4840 
  9 C       -2.2870     2.9210    -0.0950 C.ar  1 <1>  -0.1440 
 10 O        1.5150    -2.9990    -2.3320 O.2   1 <1>  -0.5700 
 11 N        3.0740    -1.7750    -1.2460 N.am  1 <1>  -0.6600 
 12 C       -2.8360     2.0930     0.8660 C.ar  1 <1>  -0.1500 
 13 C       -2.9630    -0.1100     2.0730 C.3   1 <1>  -0.0960 
 14 N       -0.1600     3.8140    -2.7190 N.1   1 <1>  -0.5570 
 15 C       -2.7850     4.3480    -0.2670 C.3   1 <1>   0.2630 
 16 C        3.4800    -0.6670    -0.3330 C.3   1 <1>   0.1400 
 17 C        4.2230    -2.4970    -1.8610 C.3   1 <1>   0.1400 
 18 O       -1.8360     5.1860     0.3020 O.3   1 <1>  -0.5600 
 19 C        4.3740    -1.2190     0.7830 C.3   1 <1>  -0.1600 
 20 C        5.1260    -3.0660    -0.7610 C.3   1 <1>  -0.1600 
 21 C       -2.0350     6.5380     0.0410 C.3   1 <1>   0.0400 
 22 C        5.5840    -1.9750     0.2170 C.3   1 <1>  -0.1600 
 23 H       -0.3240    -1.8860    -1.1640 H     1 <1>   0.0800 
 24 H        0.7100    -1.3200     0.1360 H     1 <1>   0.0800 
 25 H       -3.6250     2.4540     1.5000 H     1 <1>   0.1500 
 26 H       -2.1970    -0.4150     2.7620 H     1 <1>   0.0800 
 27 H       -3.3730    -0.9850     1.6020 H     1 <1>   0.0800 
 28 H       -3.7430     0.3870     2.6200 H     1 <1>   0.0800 
 29 H       -3.7220     4.5000     0.2400 H     1 <1>   0.0800 
 30 H       -2.8950     4.5930    -1.3100 H     1 <1>   0.0800 
 31 H        2.6270    -0.1830     0.1050 H     1 <1>   0.0800 
 32 H        4.0210     0.0700    -0.9020 H     1 <1>   0.0800 
 33 H        4.7790    -1.8090    -2.4740 H     1 <1>   0.0800 
 34 H        3.8770    -3.2990    -2.4920 H     1 <1>   0.0800 
 35 H        3.7910    -1.8790     1.4010 H     1 <1>   0.0800 
 36 H        4.7130    -0.4060     1.4000 H     1 <1>   0.0800 
 37 H        5.9830    -3.5310    -1.2130 H     1 <1>   0.0800 
 38 H        4.5820    -3.8280    -0.2300 H     1 <1>   0.0800 
 39 H       -1.2640     7.0930     0.5470 H     1 <1>   0.0800 
 40 H       -3.0000     6.8370     0.4130 H     1 <1>   0.0800 
 41 H       -1.9640     6.7100    -1.0200 H     1 <1>   0.0800 
 42 H        6.1460    -2.4190     1.0210 H     1 <1>   0.0800 
 43 H        6.2280    -1.2830    -0.2980 H     1 <1>   0.0800 
@<TRIPOS>BOND
  1   1   2  1   
  2   1   3  1   
  3   2   4  ar  
  4   2   5  ar  
  5   3   6  1   
  6   3  23  1   
  7   3  24  1   
  8   4   7  ar  
  9   5   8  1   
 10   5   9  ar  
 11   6  10  2   
 12   6  11  am  
 13   7  12  ar  
 14   7  13  1   
 15   8  14  3   
 16   9  12  ar  
 17   9  15  1   
 18  11  16  1   
 19  11  17  1   
 20  12  25  1   
 21  13  26  1   
 22  13  27  1   
 23  13  28  1   
 24  15  18  1   
 25  15  29  1   
 26  15  30  1   
 27  16  19  1   
 28  16  31  1   
 29  16  32  1   
 30  17  20  1   
 31  17  33  1   
 32  17  34  1   
 33  18  21  1   
 34  19  22  1   
 35  19  35  1   
 36  19  36  1   
 37  20  22  1   
 38  20  37  1   
 39  20  38  1   
 40  21  39  1   
 41  21  40  1   
 42  21  41  1   
 43  22  42  1   
 44  22  43  1   
@<TRIPOS>SUBSTRUCTURE
  1 ****   1 GROUP 4 **** **** 0

# MOE 2024.06 (io_trps.svl 2023.06)
