@<TRIPOS>MOLECULE
NONAME
53 55 1 0 0 
SMALL
USER_CHARGES


@<TRIPOS>ATOM
  1 N        0.7360    -0.3240    -0.6730 N.4   1 <1>  -0.9590 
  2 C        1.8930     0.3490     0.0060 C.3   1 <1>   0.3430 
  3 C       -0.3030     0.6720    -1.0930 C.3   1 <1>   0.2630 
  4 C        0.1000    -1.3710     0.1920 C.3   1 <1>   0.2630 
  5 C        3.2800    -0.1670    -0.4730 C.3   1 <1>   0.0000 
  6 C        4.3580     0.6170     0.3240 C.3   1 <1>   0.3430 
  7 C        3.4280    -1.6840    -0.2150 C.3   1 <1>  -0.2400 
  8 C        3.4470     0.1000    -1.9870 C.3   1 <1>  -0.2400 
  9 N        5.7490     0.2280    -0.0500 N.4   1 <1>  -0.9060 
 10 C        6.7980     1.0280     0.6500 C.3   1 <1>   0.4230 
 11 C        6.7140     2.8130     0.3480 C.3   1 <1>  -0.0800 
 12 C        8.4170     0.3540     0.2820 C.3   1 <1>  -0.0800 
 13 C        8.1440     3.8110     0.5590 C.3   1 <1>  -0.1600 
 14 C        6.7520     2.7530    -1.1140 C.3   1 <1>  -0.1600 
 15 C        9.9310     1.3100     0.1560 C.3   1 <1>  -0.1600 
 16 C        8.3930     1.3210     0.8100 C.3   1 <1>  -0.1600 
 17 C        9.6050     3.0680    -0.0670 C.3   1 <1>  -0.0800 
 18 C        8.0660     1.9870    -1.0390 C.3   1 <1>  -0.0800 
 19 C        9.1810     2.9320    -1.4580 C.3   1 <1>  -0.1600 
 20 H        1.0860    -0.7860    -1.5280 H     1 <1>   0.4500 
 21 H        1.8040     0.2160     1.0730 H     1 <1>   0.0800 
 22 H        1.8420     1.4080    -0.1900 H     1 <1>   0.0800 
 23 H       -0.7090     1.1790    -0.2330 H     1 <1>   0.0800 
 24 H       -1.1100     0.1760    -1.6090 H     1 <1>   0.0800 
 25 H        0.1240     1.4060    -1.7580 H     1 <1>   0.0800 
 26 H       -0.3050    -0.9260     1.0870 H     1 <1>   0.0800 
 27 H        0.8210    -2.1200     0.4770 H     1 <1>   0.0800 
 28 H       -0.7030    -1.8580    -0.3390 H     1 <1>   0.0800 
 29 H        4.2170     0.4440     1.3790 H     1 <1>   0.0800 
 30 H        4.2290     1.6720     0.1430 H     1 <1>   0.0800 
 31 H        3.3100    -1.9110     0.8310 H     1 <1>   0.0800 
 32 H        4.3890    -2.0480    -0.5310 H     1 <1>   0.0800 
 33 H        2.6930    -2.2460    -0.7650 H     1 <1>   0.0800 
 34 H        3.3710     1.1530    -2.2040 H     1 <1>   0.0800 
 35 H        2.6950    -0.4110    -2.5630 H     1 <1>   0.0800 
 36 H        4.3990    -0.2490    -2.3480 H     1 <1>   0.0800 
 37 H        5.9050     0.3560    -1.0560 H     1 <1>   0.4500 
 38 H        5.9190    -0.7640     0.1520 H     1 <1>   0.4500 
 39 H        6.5940     0.8970     1.7100 H     1 <1>   0.0800 
 40 H        5.8230     3.2820     0.7260 H     1 <1>   0.0800 
 41 H        8.3340    -0.2160    -0.6320 H     1 <1>   0.0800 
 42 H        7.9970     4.7650     0.0810 H     1 <1>   0.0800 
 43 H        8.2780     4.0430     1.6030 H     1 <1>   0.0800 
 44 H        6.7940     3.7260    -1.5760 H     1 <1>   0.0800 
 45 H        5.9490     2.2040    -1.5650 H     1 <1>   0.0800 
 46 H       10.5140     0.9220    -0.6670 H     1 <1>   0.0800 
 47 H       10.6170     1.1830     0.9990 H     1 <1>   0.0800 
 48 H        8.6130     0.5740     1.6400 H     1 <1>   0.0800 
 49 H        8.5120     1.9500     1.7270 H     1 <1>   0.0800 
 50 H       10.4830     3.6860     0.0230 H     1 <1>   0.0800 
 51 H        8.0140     1.2840    -1.8620 H     1 <1>   0.0800 
 52 H        8.8900     3.8670    -1.9080 H     1 <1>   0.0800 
 53 H        9.9310     2.4660    -2.0760 H     1 <1>   0.0800 
@<TRIPOS>BOND
  1   1   2  1   
  2   1   3  1   
  3   1   4  1   
  4   1  20  1   
  5   2   5  1   
  6   2  21  1   
  7   2  22  1   
  8   3  23  1   
  9   3  24  1   
 10   3  25  1   
 11   4  26  1   
 12   4  27  1   
 13   4  28  1   
 14   5   6  1   
 15   5   7  1   
 16   5   8  1   
 17   6   9  1   
 18   6  29  1   
 19   6  30  1   
 20   7  31  1   
 21   7  32  1   
 22   7  33  1   
 23   8  34  1   
 24   8  35  1   
 25   8  36  1   
 26   9  10  1   
 27   9  37  1   
 28   9  38  1   
 29  10  11  1   
 30  10  12  1   
 31  10  39  1   
 32  11  13  1   
 33  11  14  1   
 34  11  40  1   
 35  12  15  1   
 36  12  16  1   
 37  12  41  1   
 38  13  17  1   
 39  13  42  1   
 40  13  43  1   
 41  14  18  1   
 42  14  44  1   
 43  14  45  1   
 44  15  17  1   
 45  15  46  1   
 46  15  47  1   
 47  16  18  1   
 48  16  48  1   
 49  16  49  1   
 50  17  19  1   
 51  17  50  1   
 52  18  19  1   
 53  18  51  1   
 54  19  52  1   
 55  19  53  1   
@<TRIPOS>SUBSTRUCTURE
  1 ****   9 GROUP 4 **** **** 0

# MOE 2024.06 (io_trps.svl 2023.06)
