@<TRIPOS>MOLECULE
NONAME
41 42 1 0 0 
SMALL
USER_CHARGES


@<TRIPOS>ATOM
  1 F       -7.5000    -1.4030     0.2750 F     1 <1>  -0.1900 
  2 C       -6.2040    -1.5690     0.2500 C.ar  1 <1>   0.1900 
  3 C       -5.6680    -2.5200    -0.5960 C.ar  1 <1>  -0.1500 
  4 C       -5.4140    -0.7860     1.0690 C.ar  1 <1>  -0.1500 
  5 C       -4.2940    -2.6900    -0.6180 C.ar  1 <1>  -0.1500 
  6 C       -4.0420    -0.9680     1.0370 C.ar  1 <1>  -0.1500 
  7 C       -3.4640    -1.9210     0.1990 C.ar  1 <1>   0.1170 
  8 N       -2.0650    -2.0510     0.2030 N.am  1 <1>  -0.5470 
  9 C       -1.2760    -3.1120    -0.1420 C.2   1 <1>   0.5690 
 10 O       -1.7000    -4.1780    -0.5130 O.2   1 <1>  -0.5700 
 11 C        0.2250    -2.9440    -0.0450 C.3   1 <1>  -0.0990 
 12 C        0.9060    -4.3000    -0.2530 C.3   1 <1>   0.3430 
 13 N        2.3930    -4.1970    -0.1550 N.4   1 <1>  -0.9590 
 14 C        2.9950    -3.5370    -1.3440 C.3   1 <1>   0.3430 
 15 C        2.9860    -5.5510     0.0180 C.3   1 <1>   0.3430 
 16 C        4.0950    -2.5670    -0.9100 C.3   1 <1>  -0.1600 
 17 C        4.3380    -5.4740     0.7330 C.3   1 <1>  -0.1600 
 18 C        5.0510    -3.0690     0.1880 C.3   1 <1>  -0.1600 
 19 C        5.3990    -4.5620     0.0890 C.3   1 <1>  -0.1600 
 20 H       -6.3120    -3.1120    -1.2210 H     1 <1>   0.1500 
 21 H       -5.8690    -0.0550     1.7130 H     1 <1>   0.1500 
 22 H       -3.8750    -3.4250    -1.2800 H     1 <1>   0.1500 
 23 H       -3.4220    -0.3640     1.6740 H     1 <1>   0.1500 
 24 H       -1.5820    -1.2280     0.5580 H     1 <1>   0.3700 
 25 H        0.4680    -2.5600     0.9280 H     1 <1>   0.0800 
 26 H        0.5310    -2.2450    -0.8000 H     1 <1>   0.0800 
 27 H        0.6250    -4.7010    -1.2150 H     1 <1>   0.0800 
 28 H        0.5380    -4.9800     0.4990 H     1 <1>   0.0800 
 29 H        2.6500    -3.6480     0.6740 H     1 <1>   0.4500 
 30 H        2.2480    -2.9950    -1.9000 H     1 <1>   0.0800 
 31 H        3.4150    -4.2830    -2.0000 H     1 <1>   0.0800 
 32 H        3.1070    -6.0260    -0.9420 H     1 <1>   0.0800 
 33 H        2.3260    -6.1660     0.6090 H     1 <1>   0.0800 
 34 H        3.6480    -1.6430    -0.5910 H     1 <1>   0.0800 
 35 H        4.6760    -2.3360    -1.7870 H     1 <1>   0.0800 
 36 H        4.7380    -6.4730     0.7680 H     1 <1>   0.0800 
 37 H        4.1800    -5.1770     1.7560 H     1 <1>   0.0800 
 38 H        4.6430    -2.8580     1.1620 H     1 <1>   0.0800 
 39 H        5.9640    -2.4990     0.1140 H     1 <1>   0.0800 
 40 H        5.5800    -4.8450    -0.9350 H     1 <1>   0.0800 
 41 H        6.3240    -4.7180     0.6210 H     1 <1>   0.0800 
@<TRIPOS>BOND
  1   1   2  1   
  2   2   3  ar  
  3   2   4  ar  
  4   3   5  ar  
  5   3  20  1   
  6   4   6  ar  
  7   4  21  1   
  8   5   7  ar  
  9   5  22  1   
 10   6   7  ar  
 11   6  23  1   
 12   7   8  1   
 13   8   9  am  
 14   8  24  1   
 15   9  10  2   
 16   9  11  1   
 17  11  12  1   
 18  11  25  1   
 19  11  26  1   
 20  12  13  1   
 21  12  27  1   
 22  12  28  1   
 23  13  14  1   
 24  13  15  1   
 25  13  29  1   
 26  14  16  1   
 27  14  30  1   
 28  14  31  1   
 29  15  17  1   
 30  15  32  1   
 31  15  33  1   
 32  16  18  1   
 33  16  34  1   
 34  16  35  1   
 35  17  19  1   
 36  17  36  1   
 37  17  37  1   
 38  18  19  1   
 39  18  38  1   
 40  18  39  1   
 41  19  40  1   
 42  19  41  1   
@<TRIPOS>SUBSTRUCTURE
  1 ****   9 GROUP 4 **** **** 0

# MOE 2024.06 (io_trps.svl 2023.06)
