@<TRIPOS>MOLECULE
NONAME
32 33 1 0 0 
SMALL
USER_CHARGES


@<TRIPOS>ATOM
  1 O       -0.4850    -0.6370     0.6280 O.3   1 <1>  -0.5600 
  2 C       -1.2260    -1.5490     1.3820 C.3   1 <1>   0.1200 
  3 C       -1.2420     0.4500     0.1900 C.3   1 <1>   0.1200 
  4 C       -2.4050    -2.0980     0.5610 C.3   1 <1>   0.1100 
  5 C       -2.4220    -0.0270    -0.6750 C.3   1 <1>   0.1100 
  6 N       -3.2770    -1.0070     0.0470 N.3   1 <1>  -0.8100 
  7 C       -4.4730    -1.4870    -0.7420 C.3   1 <1>   0.4700 
  8 C       -4.0710    -2.2320    -1.9960 C.1   1 <1>   0.3570 
  9 C       -5.3760    -0.2890    -1.1360 C.3   1 <1>  -0.1600 
 10 C       -5.3580    -2.4140     0.1320 C.3   1 <1>  -0.1600 
 11 N       -3.7770    -2.7950    -2.9430 N.1   1 <1>  -0.5570 
 12 C       -5.9320     0.4710     0.0820 C.3   1 <1>  -0.1600 
 13 C       -5.9150    -1.7090     1.3830 C.3   1 <1>  -0.1600 
 14 C       -6.7320    -0.4690     0.9950 C.3   1 <1>  -0.1600 
 15 H       -1.5810    -1.0550     2.2700 H     1 <1>   0.0800 
 16 H       -0.5670    -2.3480     1.6690 H     1 <1>   0.0800 
 17 H       -0.5940     1.0900    -0.3830 H     1 <1>   0.0800 
 18 H       -1.5980     0.9920     1.0480 H     1 <1>   0.0800 
 19 H       -2.9620    -2.7500     1.2070 H     1 <1>   0.0800 
 20 H       -2.0130    -2.6820    -0.2550 H     1 <1>   0.0800 
 21 H       -2.0310    -0.4630    -1.5800 H     1 <1>   0.0800 
 22 H       -2.9910     0.8450    -0.9380 H     1 <1>   0.0800 
 23 H       -6.2110    -0.6640    -1.7020 H     1 <1>   0.0800 
 24 H       -4.8590     0.3850    -1.7920 H     1 <1>   0.0800 
 25 H       -4.8290    -3.3050     0.4090 H     1 <1>   0.0800 
 26 H       -6.1940    -2.7440    -0.4610 H     1 <1>   0.0800 
 27 H       -6.5660     1.2750    -0.2490 H     1 <1>   0.0800 
 28 H       -5.1200     0.9030     0.6420 H     1 <1>   0.0800 
 29 H       -5.1010    -1.4120     2.0230 H     1 <1>   0.0800 
 30 H       -6.5370    -2.3900     1.9380 H     1 <1>   0.0800 
 31 H       -7.6280    -0.7800     0.4860 H     1 <1>   0.0800 
 32 H       -7.0290     0.0600     1.8850 H     1 <1>   0.0800 
@<TRIPOS>BOND
  1   1   2  1   
  2   1   3  1   
  3   2   4  1   
  4   2  15  1   
  5   2  16  1   
  6   3   5  1   
  7   3  17  1   
  8   3  18  1   
  9   4   6  1   
 10   4  19  1   
 11   4  20  1   
 12   5   6  1   
 13   5  21  1   
 14   5  22  1   
 15   6   7  1   
 16   7   8  1   
 17   7   9  1   
 18   7  10  1   
 19   8  11  3   
 20   9  12  1   
 21   9  23  1   
 22   9  24  1   
 23  10  13  1   
 24  10  25  1   
 25  10  26  1   
 26  12  14  1   
 27  12  27  1   
 28  12  28  1   
 29  13  14  1   
 30  13  29  1   
 31  13  30  1   
 32  14  31  1   
 33  14  32  1   
@<TRIPOS>SUBSTRUCTURE
  1 ****   6 GROUP 4 **** **** 0

# MOE 2024.06 (io_trps.svl 2023.06)
