@<TRIPOS>MOLECULE
NONAME
39 40 1 0 0 
SMALL
USER_CHARGES


@<TRIPOS>ATOM
  1 O       -0.1700     0.8460    -2.0170 O.co2 1 <1>  -0.9000 
  2 C       -1.0020     0.5900    -1.1370 C.2   1 <1>   0.9060 
  3 O       -1.0080    -0.4950    -0.5540 O.co2 1 <1>  -0.9000 
  4 C       -2.0410     1.6420    -0.7730 C.3   1 <1>  -0.1860 
  5 C       -1.7020     3.0880    -1.2410 C.3   1 <1>  -0.0190 
  6 C       -2.3700     1.6280     0.7310 C.3   1 <1>  -0.0220 
  7 C       -0.4520     3.6980    -0.5750 C.2   1 <1>   0.5690 
  8 C       -2.9610     3.9710    -1.0680 C.3   1 <1>  -0.0220 
  9 C       -3.3420     2.7420     1.0900 C.2   1 <1>  -0.2880 
 10 O       -0.5370     4.7180     0.0740 O.2   1 <1>  -0.5700 
 11 N        0.7440     3.0780    -0.7950 N.am  1 <1>  -0.5470 
 12 C       -3.6220     3.7790     0.2950 C.2   1 <1>  -0.2760 
 13 C        2.0530     3.3190    -0.3560 C.ar  1 <1>   0.1170 
 14 C       -4.6110     4.8690     0.6650 C.3   1 <1>  -0.1020 
 15 C        2.4790     4.5340     0.1710 C.ar  1 <1>  -0.1500 
 16 C        2.9750     2.2870    -0.4670 C.ar  1 <1>  -0.1500 
 17 C        3.7890     4.7150     0.5770 C.ar  1 <1>  -0.1500 
 18 C        4.2870     2.4600    -0.0640 C.ar  1 <1>  -0.1500 
 19 C        4.7060     3.6730     0.4600 C.ar  1 <1>   0.0830 
 20 O        6.0110     3.7650     0.8330 O.3   1 <1>  -0.3630 
 21 C        6.5240     4.9600     1.3770 C.3   1 <1>   0.0400 
 22 H       -2.9290     1.3370    -1.2930 H     1 <1>   0.0800 
 23 H       -1.4890     3.0540    -2.2940 H     1 <1>   0.0800 
 24 H       -1.4680     1.7390     1.3080 H     1 <1>   0.0800 
 25 H       -2.8050     0.6750     0.9820 H     1 <1>   0.0800 
 26 H       -3.6770     3.7150    -1.8280 H     1 <1>   0.0800 
 27 H       -2.6940     5.0030    -1.2100 H     1 <1>   0.0800 
 28 H       -3.7820     2.6090     2.0630 H     1 <1>   0.1500 
 29 H        0.6340     2.1950    -1.3330 H     1 <1>   0.3700 
 30 H       -4.1080     5.8190     0.7090 H     1 <1>   0.0800 
 31 H       -5.0480     4.6700     1.6270 H     1 <1>   0.0800 
 32 H       -5.3970     4.9200    -0.0660 H     1 <1>   0.0800 
 33 H        1.7820     5.3460     0.2620 H     1 <1>   0.1500 
 34 H        2.6530     1.3420    -0.8720 H     1 <1>   0.1500 
 35 H        4.0720     5.6680     0.9790 H     1 <1>   0.1500 
 36 H        4.9910     1.6540    -0.1530 H     1 <1>   0.1500 
 37 H        7.5650     4.8070     1.5970 H     1 <1>   0.0800 
 38 H        5.9880     5.1890     2.2810 H     1 <1>   0.0800 
 39 H        6.4150     5.7480     0.6530 H     1 <1>   0.0800 
@<TRIPOS>BOND
  1   1   2  ar  
  2   2   3  ar  
  3   2   4  1   
  4   4   5  1   
  5   4   6  1   
  6   4  22  1   
  7   5   7  1   
  8   5   8  1   
  9   5  23  1   
 10   6   9  1   
 11   6  24  1   
 12   6  25  1   
 13   7  10  2   
 14   7  11  am  
 15   8  12  1   
 16   8  26  1   
 17   8  27  1   
 18   9  12  2   
 19   9  28  1   
 20  11  13  1   
 21  11  29  1   
 22  12  14  1   
 23  13  15  ar  
 24  13  16  ar  
 25  14  30  1   
 26  14  31  1   
 27  14  32  1   
 28  15  17  ar  
 29  15  33  1   
 30  16  18  ar  
 31  16  34  1   
 32  17  19  ar  
 33  17  35  1   
 34  18  19  ar  
 35  18  36  1   
 36  19  20  1   
 37  20  21  1   
 38  21  37  1   
 39  21  38  1   
 40  21  39  1   
@<TRIPOS>SUBSTRUCTURE
  1 ****  11 GROUP 4 **** **** 0

# MOE 2024.06 (io_trps.svl 2023.06)
