@<TRIPOS>MOLECULE
NONAME
46 48 1 0 0 
SMALL
USER_CHARGES


@<TRIPOS>ATOM
  1 S        0.0910    -0.0080    -0.5300 S.o2  1 <1>   1.4470 
  2 O       -0.2400     0.1370    -1.9310 O.2   1 <1>  -0.6500 
  3 O       -0.5670    -1.0280     0.2560 O.2   1 <1>  -0.6500 
  4 N       -0.2420     1.4780     0.2140 N.am  1 <1>  -0.8490 
  5 C        1.8860    -0.1730    -0.3330 C.ar  1 <1>  -0.0090 
  6 C       -1.6770     1.6210     0.5060 C.3   1 <1>   0.1960 
  7 C        0.2040     2.6300    -0.5880 C.3   1 <1>   0.1960 
  8 C        2.4820    -0.0280     0.9150 C.ar  1 <1>  -0.1500 
  9 C        2.7080    -0.4540    -1.4190 C.ar  1 <1>  -0.1500 
 10 C       -1.9790     2.9750     1.1730 C.3   1 <1>   0.1200 
 11 C       -0.1350     3.9570     0.1150 C.3   1 <1>   0.1200 
 12 C        3.8500    -0.1570     1.0730 C.ar  1 <1>  -0.1500 
 13 C        4.0780    -0.5850    -1.2720 C.ar  1 <1>  -0.1500 
 14 O       -1.5060     4.0320     0.3860 O.3   1 <1>  -0.5600 
 15 C        4.6570    -0.4370    -0.0160 C.ar  1 <1>   0.0830 
 16 O        5.9840    -0.5530     0.2230 O.3   1 <1>  -0.3630 
 17 C        6.8870    -0.9450    -0.8010 C.3   1 <1>   0.1810 
 18 C        8.3070    -1.0960    -0.2680 C.2   1 <1>   0.5690 
 19 O        8.8250    -2.1860    -0.3570 O.2   1 <1>  -0.5700 
 20 N        8.9860    -0.0260     0.2540 N.am  1 <1>  -0.6600 
 21 C        8.4570     1.3430     0.4440 C.3   1 <1>   0.1400 
 22 C       10.3730    -0.1360     0.7510 C.3   1 <1>   0.1400 
 23 C        9.5170     2.0580     1.2760 C.3   1 <1>  -0.1600 
 24 C       10.8130     1.3040     0.9900 C.3   1 <1>  -0.1600 
 25 H       -1.9920     0.8320     1.1680 H     1 <1>   0.0800 
 26 H       -2.2490     1.5380    -0.4040 H     1 <1>   0.0800 
 27 H       -0.2740     2.6220    -1.5550 H     1 <1>   0.0800 
 28 H        1.2680     2.5750    -0.7410 H     1 <1>   0.0800 
 29 H        1.8640     0.1850     1.7710 H     1 <1>   0.1500 
 30 H        2.2670    -0.5740    -2.3950 H     1 <1>   0.1500 
 31 H       -1.5110     3.0300     2.1400 H     1 <1>   0.0800 
 32 H       -3.0400     3.1040     1.2920 H     1 <1>   0.0800 
 33 H        0.1210     4.7900    -0.5150 H     1 <1>   0.0800 
 34 H        0.4050     4.0430     1.0420 H     1 <1>   0.0800 
 35 H        4.2990    -0.0460     2.0440 H     1 <1>   0.1500 
 36 H        4.6690    -0.8040    -2.1410 H     1 <1>   0.1500 
 37 H        6.8720    -0.1990    -1.5720 H     1 <1>   0.0800 
 38 H        6.5570    -1.8880    -1.1950 H     1 <1>   0.0800 
 39 H        7.5100     1.3290     0.9550 H     1 <1>   0.0800 
 40 H        8.3510     1.8180    -0.5160 H     1 <1>   0.0800 
 41 H       11.0010    -0.6340     0.0310 H     1 <1>   0.0800 
 42 H       10.3700    -0.6920     1.6730 H     1 <1>   0.0800 
 43 H        9.2630     1.9620     2.3180 H     1 <1>   0.0800 
 44 H        9.5850     3.1020     1.0270 H     1 <1>   0.0800 
 45 H       11.2670     1.6830     0.0910 H     1 <1>   0.0800 
 46 H       11.5190     1.3760     1.7980 H     1 <1>   0.0800 
@<TRIPOS>BOND
  1   1   2  2   
  2   1   3  2   
  3   1   4  am  
  4   1   5  1   
  5   4   6  1   
  6   4   7  1   
  7   5   8  ar  
  8   5   9  ar  
  9   6  10  1   
 10   6  25  1   
 11   6  26  1   
 12   7  11  1   
 13   7  27  1   
 14   7  28  1   
 15   8  12  ar  
 16   8  29  1   
 17   9  13  ar  
 18   9  30  1   
 19  10  14  1   
 20  10  31  1   
 21  10  32  1   
 22  11  14  1   
 23  11  33  1   
 24  11  34  1   
 25  12  15  ar  
 26  12  35  1   
 27  13  15  ar  
 28  13  36  1   
 29  15  16  1   
 30  16  17  1   
 31  17  18  1   
 32  17  37  1   
 33  17  38  1   
 34  18  19  2   
 35  18  20  am  
 36  20  21  1   
 37  20  22  1   
 38  21  23  1   
 39  21  39  1   
 40  21  40  1   
 41  22  24  1   
 42  22  41  1   
 43  22  42  1   
 44  23  24  1   
 45  23  43  1   
 46  23  44  1   
 47  24  45  1   
 48  24  46  1   
@<TRIPOS>SUBSTRUCTURE
  1 ****  12 GROUP 4 **** **** 0

# MOE 2024.06 (io_trps.svl 2023.06)
