@<TRIPOS>MOLECULE
NONAME
47 48 1 0 0 
SMALL
USER_CHARGES


@<TRIPOS>ATOM
  1 O       -1.6540     0.7960    -0.3650 O.2   1 <1>  -0.5700 
  2 C       -0.8520    -0.0880    -0.1780 C.2   1 <1>   0.5690 
  3 N       -0.9250    -0.9630     0.8570 N.am  1 <1>  -0.7300 
  4 C        0.2790    -0.2610    -1.1790 C.3   1 <1>   0.0450 
  5 C       -1.9290    -1.1360     1.9240 C.3   1 <1>   0.3640 
  6 C        1.6310    -0.5460    -0.5200 C.ar  1 <1>  -0.1440 
  7 C       -2.9880    -2.1330     1.4660 C.ar  1 <1>  -0.1440 
  8 C       -2.5420     0.1840     2.3930 C.3   1 <1>  -0.2400 
  9 C        1.9760    -1.8280    -0.0960 C.ar  1 <1>   0.0830 
 10 C        2.5300     0.4950    -0.3460 C.ar  1 <1>  -0.1500 
 11 C       -3.7550    -1.8840     0.3370 C.ar  1 <1>  -0.1500 
 12 C       -3.1960    -3.3070     2.1750 C.ar  1 <1>  -0.1500 
 13 O        1.0580    -2.8170    -0.2620 O.3   1 <1>  -0.3630 
 14 C        3.2220    -2.0510     0.4860 C.ar  1 <1>  -0.1500 
 15 C        3.7650     0.2680     0.2350 C.ar  1 <1>  -0.1500 
 16 C       -4.7180    -2.7920    -0.0930 C.ar  1 <1>   0.0830 
 17 C       -4.1520    -4.2190     1.7620 C.ar  1 <1>  -0.1500 
 18 C        1.3730    -4.1720    -0.0280 C.3   1 <1>   0.0400 
 19 C        4.1110    -1.0050     0.6490 C.ar  1 <1>  -0.1500 
 20 O       -5.4830    -2.5740    -1.2030 O.3   1 <1>  -0.3630 
 21 C       -4.9200    -3.9720     0.6270 C.ar  1 <1>   0.0830 
 22 C       -5.3380    -1.4060    -1.9800 C.3   1 <1>   0.0400 
 23 O       -5.8720    -4.8430     0.1830 O.3   1 <1>  -0.3630 
 24 C       -6.1710    -6.0350     0.8730 C.3   1 <1>   0.0400 
 25 H       -0.2370    -1.7240     0.8240 H     1 <1>   0.3700 
 26 H        0.3470     0.6320    -1.7720 H     1 <1>   0.0800 
 27 H        0.0200    -1.0620    -1.8450 H     1 <1>   0.0800 
 28 H       -1.4120    -1.5560     2.7700 H     1 <1>   0.0800 
 29 H       -3.1700     0.6110     1.6340 H     1 <1>   0.0800 
 30 H       -1.7660     0.8820     2.6480 H     1 <1>   0.0800 
 31 H       -3.1470     0.0070     3.2620 H     1 <1>   0.0800 
 32 H        2.2740     1.4920    -0.6610 H     1 <1>   0.1500 
 33 H       -3.5820    -0.9710    -0.1990 H     1 <1>   0.1500 
 34 H       -2.6150    -3.5190     3.0540 H     1 <1>   0.1500 
 35 H        3.5170    -3.0270     0.8200 H     1 <1>   0.1500 
 36 H        4.4560     1.0840     0.3650 H     1 <1>   0.1500 
 37 H       -4.2820    -5.1140     2.3370 H     1 <1>   0.1500 
 38 H        0.5160    -4.7650    -0.2930 H     1 <1>   0.0800 
 39 H        1.6000    -4.3050     1.0150 H     1 <1>   0.0800 
 40 H        2.2120    -4.4470    -0.6430 H     1 <1>   0.0800 
 41 H        5.0730    -1.1790     1.0990 H     1 <1>   0.1500 
 42 H       -6.0380    -1.4580    -2.7930 H     1 <1>   0.0800 
 43 H       -4.3340    -1.3630    -2.3620 H     1 <1>   0.0800 
 44 H       -5.5530    -0.5490    -1.3660 H     1 <1>   0.0800 
 45 H       -6.9590    -6.5360     0.3430 H     1 <1>   0.0800 
 46 H       -6.4970    -5.7890     1.8680 H     1 <1>   0.0800 
 47 H       -5.2920    -6.6550     0.8940 H     1 <1>   0.0800 
@<TRIPOS>BOND
  1   1   2  2   
  2   2   3  am  
  3   2   4  1   
  4   3   5  1   
  5   3  25  1   
  6   4   6  1   
  7   4  26  1   
  8   4  27  1   
  9   5   7  1   
 10   5   8  1   
 11   5  28  1   
 12   6   9  ar  
 13   6  10  ar  
 14   7  11  ar  
 15   7  12  ar  
 16   8  29  1   
 17   8  30  1   
 18   8  31  1   
 19   9  13  1   
 20   9  14  ar  
 21  10  15  ar  
 22  10  32  1   
 23  11  16  ar  
 24  11  33  1   
 25  12  17  ar  
 26  12  34  1   
 27  13  18  1   
 28  14  19  ar  
 29  14  35  1   
 30  15  19  ar  
 31  15  36  1   
 32  16  20  1   
 33  16  21  ar  
 34  17  21  ar  
 35  17  37  1   
 36  18  38  1   
 37  18  39  1   
 38  18  40  1   
 39  19  41  1   
 40  20  22  1   
 41  21  23  1   
 42  22  42  1   
 43  22  43  1   
 44  22  44  1   
 45  23  24  1   
 46  24  45  1   
 47  24  46  1   
 48  24  47  1   
@<TRIPOS>SUBSTRUCTURE
  1 ****   3 GROUP 4 **** **** 0

# MOE 2024.06 (io_trps.svl 2023.06)
