@<TRIPOS>MOLECULE
NONAME
43 44 1 0 0 
SMALL
USER_CHARGES


@<TRIPOS>ATOM
  1 BR      -0.3270     0.7590     0.3480 Br    1 <1>  -0.1110 
  2 C       -1.9310    -0.3060     0.3300 C.ar  1 <1>   0.1110 
  3 C       -2.7730    -0.2590     1.4240 C.ar  1 <1>  -0.1500 
  4 C       -2.2000    -1.0910    -0.7780 C.ar  1 <1>  -0.1500 
  5 C       -3.9130    -1.0360     1.3720 C.ar  1 <1>   0.1900 
  6 C       -3.3530    -1.8600    -0.7950 C.ar  1 <1>  -0.1500 
  7 F       -4.7250    -0.9960     2.4000 F     1 <1>  -0.1900 
  8 C       -4.2390    -1.8480     0.2830 C.ar  1 <1>   0.1170 
  9 N       -5.4140    -2.6250     0.3020 N.am  1 <1>  -0.5470 
 10 C       -6.2310    -3.0430    -0.7130 C.2   1 <1>   0.5690 
 11 O       -5.9830    -2.8350    -1.8770 O.2   1 <1>  -0.5700 
 12 C       -7.5200    -3.8070    -0.3730 C.3   1 <1>   0.2570 
 13 N       -8.6050    -2.9680     0.2070 N.am  1 <1>  -0.8490 
 14 S       -8.4780    -2.6620     1.8740 S.o2  1 <1>   1.3330 
 15 C       -9.9150    -3.1970    -0.4200 C.3   1 <1>   0.2760 
 16 O       -9.6840    -3.0440     2.5660 O.2   1 <1>  -0.6500 
 17 O       -7.2110    -3.2040     2.3160 O.2   1 <1>  -0.6500 
 18 C       -8.3310    -0.8880     1.9190 C.3   1 <1>  -0.1350 
 19 C      -10.8920    -2.0350    -0.1890 C.3   1 <1>  -0.1600 
 20 C      -10.5370    -4.5540    -0.0460 C.3   1 <1>  -0.1600 
 21 C      -12.2030    -2.2670    -0.9570 C.3   1 <1>  -0.1600 
 22 C      -11.8530    -4.7780    -0.8080 C.3   1 <1>  -0.1600 
 23 C      -12.8310    -3.6170    -0.5800 C.3   1 <1>  -0.1600 
 24 H       -2.5500     0.3550     2.2770 H     1 <1>   0.1500 
 25 H       -1.5190    -1.0990    -1.6110 H     1 <1>   0.1500 
 26 H       -3.5620    -2.4740    -1.6530 H     1 <1>   0.1500 
 27 H       -5.7800    -2.8210     1.2480 H     1 <1>   0.3700 
 28 H       -7.2880    -4.6210     0.2920 H     1 <1>   0.0800 
 29 H       -7.8580    -4.2490    -1.2930 H     1 <1>   0.0800 
 30 H       -9.7490    -3.2200    -1.4850 H     1 <1>   0.0800 
 31 H       -9.2220    -0.4290     1.5430 H     1 <1>   0.0800 
 32 H       -7.4990    -0.5710     1.3220 H     1 <1>   0.0800 
 33 H       -8.1740    -0.5610     2.9280 H     1 <1>   0.0800 
 34 H      -10.4450    -1.1180    -0.5270 H     1 <1>   0.0800 
 35 H      -11.1330    -1.9430     0.8530 H     1 <1>   0.0800 
 36 H      -10.7510    -4.5940     1.0060 H     1 <1>   0.0800 
 37 H       -9.8590    -5.3530    -0.2830 H     1 <1>   0.0800 
 38 H      -12.0090    -2.2460    -2.0160 H     1 <1>   0.0800 
 39 H      -12.8960    -1.4740    -0.7330 H     1 <1>   0.0800 
 40 H      -12.3060    -5.6980    -0.4800 H     1 <1>   0.0800 
 41 H      -11.6480    -4.8690    -1.8610 H     1 <1>   0.0800 
 42 H      -13.7210    -3.7750    -1.1650 H     1 <1>   0.0800 
 43 H      -13.1200    -3.5960     0.4580 H     1 <1>   0.0800 
@<TRIPOS>BOND
  1   1   2  1   
  2   2   3  ar  
  3   2   4  ar  
  4   3   5  ar  
  5   3  24  1   
  6   4   6  ar  
  7   4  25  1   
  8   5   7  1   
  9   5   8  ar  
 10   6   8  ar  
 11   6  26  1   
 12   8   9  1   
 13   9  10  am  
 14   9  27  1   
 15  10  11  2   
 16  10  12  1   
 17  12  13  1   
 18  12  28  1   
 19  12  29  1   
 20  13  14  am  
 21  13  15  1   
 22  14  16  2   
 23  14  17  2   
 24  14  18  1   
 25  15  19  1   
 26  15  20  1   
 27  15  30  1   
 28  18  31  1   
 29  18  32  1   
 30  18  33  1   
 31  19  21  1   
 32  19  34  1   
 33  19  35  1   
 34  20  22  1   
 35  20  36  1   
 36  20  37  1   
 37  21  23  1   
 38  21  38  1   
 39  21  39  1   
 40  22  23  1   
 41  22  40  1   
 42  22  41  1   
 43  23  42  1   
 44  23  43  1   
@<TRIPOS>SUBSTRUCTURE
  1 ****  10 GROUP 4 **** **** 0

# MOE 2024.06 (io_trps.svl 2023.06)
