@<TRIPOS>MOLECULE
NONAME
39 41 1 0 0 
SMALL
USER_CHARGES


@<TRIPOS>ATOM
  1 S       -0.1900    -0.1780     0.8950 S.3   1 <1>  -0.1970 
  2 C       -1.5950     0.8140     0.6020 C.2   1 <1>   0.2420 
  3 C        0.8540     1.1930     0.4080 C.2   1 <1>   0.5050 
  4 N       -2.8700     0.6720     0.6850 N.2   1 <1>  -0.3380 
  5 N       -1.1880     2.0000     0.1940 N.pl3 1 <1>   0.5050 
  6 N        0.1810     2.2390     0.0760 N.2   1 <1>  -0.6520 
  7 C        2.2920     1.0160     0.4280 C.ar  1 <1>   0.0860 
  8 N       -3.3650     1.8650     0.2990 N.2   1 <1>  -0.3380 
  9 C       -2.3590     2.6350     0.0140 C.2   1 <1>   0.0060 
 10 C        3.1330     2.0750     0.0770 C.ar  1 <1>  -0.1500 
 11 C        2.9170    -0.1810     0.7870 C.ar  1 <1>  -0.1500 
 12 C       -2.4620     4.0700    -0.4640 C.3   1 <1>  -0.0600 
 13 C        4.5130     1.9660     0.0810 C.ar  1 <1>  -0.1430 
 14 C        4.2920    -0.3030     0.7940 C.ar  1 <1>  -0.1500 
 15 C        5.1170     0.7620     0.4490 C.ar  1 <1>   0.1170 
 16 C        5.3480     3.1800    -0.3130 C.3   1 <1>  -0.0960 
 17 N        6.5150     0.6540     0.4430 N.am  1 <1>  -0.5470 
 18 C        7.3640    -0.2220     1.0610 C.2   1 <1>   0.5690 
 19 O        7.0050    -1.1070     1.7970 O.2   1 <1>  -0.5700 
 20 C        8.8490    -0.0480     0.8070 C.3   1 <1>  -0.0990 
 21 C        9.2500    -0.4640    -0.6180 C.3   1 <1>  -0.1600 
 22 C       10.7530    -0.2770    -0.8490 C.3   1 <1>  -0.2400 
 23 H        2.6800     3.0100    -0.2070 H     1 <1>   0.1500 
 24 H        2.3380    -1.0420     1.0680 H     1 <1>   0.1500 
 25 H       -1.9620     4.7240     0.2270 H     1 <1>   0.0800 
 26 H       -3.4950     4.3610    -0.5320 H     1 <1>   0.0800 
 27 H       -2.0080     4.1680    -1.4330 H     1 <1>   0.0800 
 28 H        4.7250    -1.2470     1.0710 H     1 <1>   0.1500 
 29 H        4.7230     4.0340    -0.5020 H     1 <1>   0.0800 
 30 H        5.9070     2.9700    -1.2070 H     1 <1>   0.0800 
 31 H        6.0280     3.4350     0.4800 H     1 <1>   0.0800 
 32 H        6.9830     1.3780    -0.0940 H     1 <1>   0.3700 
 33 H        9.3880    -0.6500     1.5190 H     1 <1>   0.0800 
 34 H        9.1140     0.9780     0.9830 H     1 <1>   0.0800 
 35 H        8.7060     0.1200    -1.3400 H     1 <1>   0.0800 
 36 H        8.9940    -1.4990    -0.7690 H     1 <1>   0.0800 
 37 H       11.0320     0.7540    -0.7230 H     1 <1>   0.0800 
 38 H       11.0110    -0.5810    -1.8490 H     1 <1>   0.0800 
 39 H       11.3170    -0.8770    -0.1560 H     1 <1>   0.0800 
@<TRIPOS>BOND
  1   1   2  1   
  2   1   3  1   
  3   2   4  2   
  4   2   5  1   
  5   3   6  2   
  6   3   7  1   
  7   4   8  1   
  8   5   6  1   
  9   5   9  1   
 10   7  10  ar  
 11   7  11  ar  
 12   8   9  2   
 13   9  12  1   
 14  10  13  ar  
 15  10  23  1   
 16  11  14  ar  
 17  11  24  1   
 18  12  25  1   
 19  12  26  1   
 20  12  27  1   
 21  13  15  ar  
 22  13  16  1   
 23  14  15  ar  
 24  14  28  1   
 25  15  17  1   
 26  16  29  1   
 27  16  30  1   
 28  16  31  1   
 29  17  18  am  
 30  17  32  1   
 31  18  19  2   
 32  18  20  1   
 33  20  21  1   
 34  20  33  1   
 35  20  34  1   
 36  21  22  1   
 37  21  35  1   
 38  21  36  1   
 39  22  37  1   
 40  22  38  1   
 41  22  39  1   
@<TRIPOS>SUBSTRUCTURE
  1 ****   7 GROUP 4 **** **** 0

# MOE 2024.06 (io_trps.svl 2023.06)
