@<TRIPOS>MOLECULE
NONAME
48 49 1 0 0 
SMALL
USER_CHARGES


@<TRIPOS>ATOM
  1 O       -2.8960     1.1390     0.1090 O.3   1 <1>  -0.5600 
  2 C       -3.6040     2.0070     0.9520 C.3   1 <1>   0.1200 
  3 C       -3.2000     1.2870    -1.2530 C.3   1 <1>   0.1200 
  4 C       -5.1300     1.7950     0.8160 C.3   1 <1>   0.3430 
  5 C       -4.7150     1.1120    -1.5150 C.3   1 <1>   0.3430 
  6 N       -5.4560     0.7840    -0.2510 N.4   1 <1>  -0.9590 
  7 C       -6.9120     0.5850    -0.4820 C.3   1 <1>   0.3430 
  8 C       -7.5600    -0.0990     0.7240 C.3   1 <1>  -0.1600 
  9 C       -9.0400    -0.3890     0.4400 C.3   1 <1>  -0.1600 
 10 C       -9.7220    -1.0940     1.6220 C.3   1 <1>   0.1200 
 11 O      -11.0590    -1.3900     1.2810 O.3   1 <1>  -0.3630 
 12 C      -11.9910    -0.4240     1.0640 C.ar  1 <1>   0.0820 
 13 C      -13.0060    -0.6560     0.1310 C.ar  1 <1>  -0.1440 
 14 C      -11.9480     0.7830     1.7570 C.ar  1 <1>  -0.1500 
 15 C      -13.9400     0.3460    -0.0980 C.ar  1 <1>  -0.1500 
 16 C      -13.1580    -1.9620    -0.6620 C.3   1 <1>   0.0630 
 17 C      -12.8880     1.7670     1.5150 C.ar  1 <1>  -0.1500 
 18 C      -13.8830     1.5490     0.5830 C.ar  1 <1>  -0.1500 
 19 C      -13.4400    -3.1590     0.2540 C.3   1 <1>  -0.2400 
 20 C      -11.9610    -2.2310    -1.5810 C.3   1 <1>  -0.2400 
 21 H       -3.3360     3.0210     0.7070 H     1 <1>   0.0800 
 22 H       -3.2910     1.8120     1.9630 H     1 <1>   0.0800 
 23 H       -2.6420     0.5430    -1.7940 H     1 <1>   0.0800 
 24 H       -2.8660     2.2580    -1.5780 H     1 <1>   0.0800 
 25 H       -5.5950     2.7390     0.5860 H     1 <1>   0.0800 
 26 H       -5.5190     1.4660     1.7660 H     1 <1>   0.0800 
 27 H       -4.8550     0.3290    -2.2410 H     1 <1>   0.0800 
 28 H       -5.1010     2.0230    -1.9420 H     1 <1>   0.0800 
 29 H       -5.0370    -0.0990     0.0780 H     1 <1>   0.4500 
 30 H       -7.0560    -0.0390    -1.3500 H     1 <1>   0.0800 
 31 H       -7.3920     1.5320    -0.6680 H     1 <1>   0.0800 
 32 H       -7.4950     0.5330     1.5920 H     1 <1>   0.0800 
 33 H       -7.0550    -1.0280     0.9270 H     1 <1>   0.0800 
 34 H       -9.1250    -1.0230    -0.4260 H     1 <1>   0.0800 
 35 H       -9.5530     0.5350     0.2360 H     1 <1>   0.0800 
 36 H       -9.7050    -0.5040     2.5200 H     1 <1>   0.0800 
 37 H       -9.2380    -2.0330     1.8250 H     1 <1>   0.0800 
 38 H      -11.1980     0.9710     2.4980 H     1 <1>   0.1500 
 39 H      -14.7300     0.1990    -0.8130 H     1 <1>   0.1500 
 40 H      -14.0160    -1.8620    -1.3040 H     1 <1>   0.0800 
 41 H      -12.8500     2.6990     2.0520 H     1 <1>   0.1500 
 42 H      -14.6180     2.3120     0.3900 H     1 <1>   0.1500 
 43 H      -12.5920    -3.3740     0.8790 H     1 <1>   0.0800 
 44 H      -13.6620    -4.0320    -0.3320 H     1 <1>   0.0800 
 45 H      -14.2830    -2.9440     0.8850 H     1 <1>   0.0800 
 46 H      -11.0850    -2.4720    -1.0090 H     1 <1>   0.0800 
 47 H      -11.7590    -1.3620    -2.1810 H     1 <1>   0.0800 
 48 H      -12.1760    -3.0580    -2.2330 H     1 <1>   0.0800 
@<TRIPOS>BOND
  1   1   2  1   
  2   1   3  1   
  3   2   4  1   
  4   2  21  1   
  5   2  22  1   
  6   3   5  1   
  7   3  23  1   
  8   3  24  1   
  9   4   6  1   
 10   4  25  1   
 11   4  26  1   
 12   5   6  1   
 13   5  27  1   
 14   5  28  1   
 15   6   7  1   
 16   6  29  1   
 17   7   8  1   
 18   7  30  1   
 19   7  31  1   
 20   8   9  1   
 21   8  32  1   
 22   8  33  1   
 23   9  10  1   
 24   9  34  1   
 25   9  35  1   
 26  10  11  1   
 27  10  36  1   
 28  10  37  1   
 29  11  12  1   
 30  12  13  ar  
 31  12  14  ar  
 32  13  15  ar  
 33  13  16  1   
 34  14  17  ar  
 35  14  38  1   
 36  15  18  ar  
 37  15  39  1   
 38  16  19  1   
 39  16  20  1   
 40  16  40  1   
 41  17  18  ar  
 42  17  41  1   
 43  18  42  1   
 44  19  43  1   
 45  19  44  1   
 46  19  45  1   
 47  20  46  1   
 48  20  47  1   
 49  20  48  1   
@<TRIPOS>SUBSTRUCTURE
  1 ****   9 GROUP 4 **** **** 0

# MOE 2024.06 (io_trps.svl 2023.06)
