@<TRIPOS>MOLECULE
NONAME
34 36 1 0 0 
SMALL
USER_CHARGES


@<TRIPOS>ATOM
  1 S       -2.5480     5.3320    -1.0440 S.3   1 <1>  -0.3610 
  2 C       -2.4080     6.9960    -0.5290 C.cat 1 <1>   0.8400 
  3 C       -1.8590     4.2980     0.3350 C.3   1 <1>   0.1310 
  4 N       -2.8130     7.9690    -1.2890 N.pl3 1 <1>  -0.7940 
  5 N       -1.9080     7.3900     0.6090 N.pl3 1 <1>  -0.7940 
  6 C       -1.7390     2.8510    -0.1120 C.2   1 <1>   0.4480 
  7 C       -2.5870     9.2850    -0.6420 C.3   1 <1>   0.3290 
  8 C       -1.9430     8.8750     0.7080 C.3   1 <1>   0.3290 
  9 O       -0.6630     2.3340    -0.1840 O.2   1 <1>  -0.5700 
 10 C       -3.0310     2.1180    -0.4540 C.3   1 <1>   0.2610 
 11 O       -4.0200     2.4280     0.5220 O.3   1 <1>  -0.3630 
 12 C       -2.8350     0.5940    -0.5310 C.3   1 <1>   0.1200 
 13 C       -5.1270     1.6430     0.5470 C.ar  1 <1>   0.0830 
 14 O       -4.0700    -0.0490    -0.7870 O.3   1 <1>  -0.3630 
 15 C       -5.1560     0.4150    -0.1180 C.ar  1 <1>   0.0830 
 16 C       -6.2420     2.0790     1.2410 C.ar  1 <1>  -0.1500 
 17 C       -6.3070    -0.3540    -0.0990 C.ar  1 <1>  -0.1500 
 18 C       -7.3900     1.3030     1.2620 C.ar  1 <1>  -0.1500 
 19 C       -7.4230     0.0910     0.5910 C.ar  1 <1>  -0.1500 
 20 H       -2.5180     4.3880     1.1790 H     1 <1>   0.0800 
 21 H       -0.8860     4.6850     0.5760 H     1 <1>   0.0800 
 22 H       -3.2320     7.8580    -2.2180 H     1 <1>   0.4500 
 23 H       -1.5270     6.8100     1.3590 H     1 <1>   0.4500 
 24 H       -3.5170     9.8050    -0.4880 H     1 <1>   0.0800 
 25 H       -1.9150     9.8930    -1.2260 H     1 <1>   0.0800 
 26 H       -0.9490     9.2800     0.8010 H     1 <1>   0.0800 
 27 H       -2.5490     9.1940     1.5390 H     1 <1>   0.0800 
 28 H       -3.3920     2.4720    -1.4030 H     1 <1>   0.0800 
 29 H       -2.4440     0.2170     0.3970 H     1 <1>   0.0800 
 30 H       -2.1570     0.3370    -1.3250 H     1 <1>   0.0800 
 31 H       -6.2140     3.0200     1.7590 H     1 <1>   0.1500 
 32 H       -6.3230    -1.2940    -0.6200 H     1 <1>   0.1500 
 33 H       -8.2580     1.6420     1.8000 H     1 <1>   0.1500 
 34 H       -8.3170    -0.5080     0.6070 H     1 <1>   0.1500 
@<TRIPOS>BOND
  1   1   2  1   
  2   1   3  1   
  3   2   4  ar  
  4   2   5  ar  
  5   3   6  1   
  6   3  20  1   
  7   3  21  1   
  8   4   7  1   
  9   4  22  1   
 10   5   8  1   
 11   5  23  1   
 12   6   9  2   
 13   6  10  1   
 14   7   8  1   
 15   7  24  1   
 16   7  25  1   
 17   8  26  1   
 18   8  27  1   
 19  10  11  1   
 20  10  12  1   
 21  10  28  1   
 22  11  13  1   
 23  12  14  1   
 24  12  29  1   
 25  12  30  1   
 26  13  15  ar  
 27  13  16  ar  
 28  14  15  1   
 29  15  17  ar  
 30  16  18  ar  
 31  16  31  1   
 32  17  19  ar  
 33  17  32  1   
 34  18  19  ar  
 35  18  33  1   
 36  19  34  1   
@<TRIPOS>SUBSTRUCTURE
  1 ****  11 GROUP 4 **** **** 0

# MOE 2024.06 (io_trps.svl 2023.06)
