@<TRIPOS>MOLECULE
NONAME
42 45 1 0 0 
SMALL
USER_CHARGES


@<TRIPOS>ATOM
  1 O        0.5570     0.2360    -0.6260 O.2   1 <1>  -0.5700 
  2 C        0.8900     1.3850    -0.8450 C.2   1 <1>   0.6900 
  3 N        2.1440     1.6640    -1.3210 N.am  1 <1>  -0.6600 
  4 N        0.0250     2.4220    -0.6520 N.am  1 <1>  -0.5470 
  5 C        2.8870     2.9270    -1.0040 C.3   1 <1>   0.1400 
  6 C        3.0370     0.5680    -1.8160 C.3   1 <1>   0.1400 
  7 C       -1.2380     2.4790    -0.0440 C.ar  1 <1>   0.1170 
  8 C        4.0690     2.6610    -0.0550 C.3   1 <1>   0.2090 
  9 C        4.2040     0.3180    -0.8470 C.3   1 <1>   0.2090 
 10 C       -2.0980     3.5160    -0.4010 C.ar  1 <1>  -0.1500 
 11 C       -1.6520     1.5510     0.9190 C.ar  1 <1>  -0.1500 
 12 N        4.9560     1.5810    -0.5840 N.pl3 1 <1>  -0.8380 
 13 C       -3.3330     3.5890     0.2090 C.ar  1 <1>   0.0820 
 14 C       -2.9000     1.6380     1.5220 C.ar  1 <1>  -0.1500 
 15 C        6.2250     1.4570    -0.0500 C.ar  1 <1>   0.4100 
 16 O       -4.2980     4.4940     0.0150 O.3   1 <1>  -0.3630 
 17 C       -3.7250     2.6770     1.1440 C.ar  1 <1>   0.0820 
 18 N        6.4010     1.8520     1.2060 N.ar  1 <1>  -0.6200 
 19 C        7.2490     0.9270    -0.8320 C.ar  1 <1>  -0.1500 
 20 C       -5.3760     4.1310     0.8760 C.3   1 <1>   0.4000 
 21 O       -4.9580     2.9650     1.5820 O.3   1 <1>  -0.3620 
 22 C        7.6230     1.7090     1.6910 C.ar  1 <1>   0.1600 
 23 C        8.5150     0.7840    -0.3150 C.ar  1 <1>  -0.1500 
 24 C        8.6980     1.1900     0.9910 C.ar  1 <1>  -0.1500 
 25 H        0.3070     3.2560    -1.1540 H     1 <1>   0.3700 
 26 H        2.2390     3.6510    -0.5450 H     1 <1>   0.0800 
 27 H        3.2660     3.3500    -1.9180 H     1 <1>   0.0800 
 28 H        3.4340     0.8460    -2.7760 H     1 <1>   0.0800 
 29 H        2.4810    -0.3440    -1.9450 H     1 <1>   0.0800 
 30 H        3.6940     2.3720     0.9120 H     1 <1>   0.0800 
 31 H        4.6420     3.5640     0.0670 H     1 <1>   0.0800 
 32 H        4.8640    -0.4220    -1.2650 H     1 <1>   0.0800 
 33 H        3.8180    -0.0670     0.0820 H     1 <1>   0.0800 
 34 H       -1.8220     4.2480    -1.1340 H     1 <1>   0.1500 
 35 H       -0.9920     0.7510     1.2040 H     1 <1>   0.1500 
 36 H       -3.2220     0.9260     2.2590 H     1 <1>   0.1500 
 37 H        7.0320     0.6420    -1.8430 H     1 <1>   0.1500 
 38 H       -6.2460     3.9030     0.2870 H     1 <1>   0.0800 
 39 H       -5.5640     4.9270     1.5740 H     1 <1>   0.0800 
 40 H        7.7770     2.0240     2.7090 H     1 <1>   0.1500 
 41 H        9.3240     0.3780    -0.8980 H     1 <1>   0.1500 
 42 H        9.6610     1.1070     1.4600 H     1 <1>   0.1500 
@<TRIPOS>BOND
  1   1   2  2   
  2   2   3  am  
  3   2   4  am  
  4   3   5  1   
  5   3   6  1   
  6   4   7  1   
  7   4  25  1   
  8   5   8  1   
  9   5  26  1   
 10   5  27  1   
 11   6   9  1   
 12   6  28  1   
 13   6  29  1   
 14   7  10  ar  
 15   7  11  ar  
 16   8  12  1   
 17   8  30  1   
 18   8  31  1   
 19   9  12  1   
 20   9  32  1   
 21   9  33  1   
 22  10  13  ar  
 23  10  34  1   
 24  11  14  ar  
 25  11  35  1   
 26  12  15  1   
 27  13  16  1   
 28  13  17  ar  
 29  14  17  ar  
 30  14  36  1   
 31  15  18  ar  
 32  15  19  ar  
 33  16  20  1   
 34  17  21  1   
 35  18  22  ar  
 36  19  23  ar  
 37  19  37  1   
 38  20  21  1   
 39  20  38  1   
 40  20  39  1   
 41  22  24  ar  
 42  22  40  1   
 43  23  24  ar  
 44  23  41  1   
 45  24  42  1   
@<TRIPOS>SUBSTRUCTURE
  1 ****   2 GROUP 4 **** **** 0

# MOE 2024.06 (io_trps.svl 2023.06)
