@<TRIPOS>MOLECULE
NONAME
35 35 1 0 0 
SMALL
USER_CHARGES


@<TRIPOS>ATOM
  1 O        0.6750     1.3680     1.7640 O.2   1 <1>  -0.5700 
  2 C        0.0690     1.9130     0.8750 C.2   1 <1>   0.5690 
  3 N        0.5520     1.9870    -0.3900 N.am  1 <1>  -0.7300 
  4 C       -1.2740     2.5490     1.1780 C.3   1 <1>  -0.0990 
  5 C        1.8130     1.3500    -0.8490 C.3   1 <1>   0.1400 
  6 C       -2.4340     1.8160     0.4840 C.3   1 <1>  -0.1600 
  7 C        3.0270     2.1270    -0.3410 C.3   1 <1>   0.1200 
  8 C       -3.7910     2.4330     0.8410 C.3   1 <1>  -0.0170 
  9 O        4.1650     1.6310    -0.9750 O.3   1 <1>  -0.5600 
 10 C       -4.9070     1.7180     0.0980 C.ar  1 <1>  -0.1440 
 11 C        5.3500     2.2010    -0.5240 C.3   1 <1>   0.0400 
 12 C       -5.3800     2.2160    -1.1070 C.ar  1 <1>  -0.1500 
 13 C       -5.4590     0.5570     0.6170 C.ar  1 <1>  -0.1500 
 14 C       -6.3940     1.5610    -1.7840 C.ar  1 <1>  -0.1500 
 15 C       -6.4730    -0.0990    -0.0600 C.ar  1 <1>  -0.1500 
 16 C       -6.9410     0.4030    -1.2610 C.ar  1 <1>  -0.1500 
 17 H       -0.0010     2.4470    -1.1130 H     1 <1>   0.3700 
 18 H       -1.2450     3.5770     0.8660 H     1 <1>   0.0800 
 19 H       -1.4230     2.5300     2.2430 H     1 <1>   0.0800 
 20 H        1.8250     1.3260    -1.9240 H     1 <1>   0.0800 
 21 H        1.8580     0.3410    -0.4740 H     1 <1>   0.0800 
 22 H       -2.4280     0.7810     0.7810 H     1 <1>   0.0800 
 23 H       -2.3020     1.8510    -0.5840 H     1 <1>   0.0800 
 24 H        3.1320     1.9920     0.7230 H     1 <1>   0.0800 
 25 H        2.9340     3.1710    -0.5800 H     1 <1>   0.0800 
 26 H       -3.7990     3.4780     0.5830 H     1 <1>   0.0800 
 27 H       -3.9600     2.3570     1.9010 H     1 <1>   0.0800 
 28 H        6.1640     1.7620    -1.0730 H     1 <1>   0.0800 
 29 H        5.4670     1.9930     0.5260 H     1 <1>   0.0800 
 30 H        5.3250     3.2630    -0.6990 H     1 <1>   0.0800 
 31 H       -4.9620     3.1150    -1.5230 H     1 <1>   0.1500 
 32 H       -5.1000     0.1590     1.5500 H     1 <1>   0.1500 
 33 H       -6.7570     1.9520    -2.7180 H     1 <1>   0.1500 
 34 H       -6.8960    -1.0000     0.3490 H     1 <1>   0.1500 
 35 H       -7.7290    -0.1070    -1.7870 H     1 <1>   0.1500 
@<TRIPOS>BOND
  1   1   2  2   
  2   2   3  am  
  3   2   4  1   
  4   3   5  1   
  5   3  17  1   
  6   4   6  1   
  7   4  18  1   
  8   4  19  1   
  9   5   7  1   
 10   5  20  1   
 11   5  21  1   
 12   6   8  1   
 13   6  22  1   
 14   6  23  1   
 15   7   9  1   
 16   7  24  1   
 17   7  25  1   
 18   8  10  1   
 19   8  26  1   
 20   8  27  1   
 21   9  11  1   
 22  10  12  ar  
 23  10  13  ar  
 24  11  28  1   
 25  11  29  1   
 26  11  30  1   
 27  12  14  ar  
 28  12  31  1   
 29  13  15  ar  
 30  13  32  1   
 31  14  16  ar  
 32  14  33  1   
 33  15  16  ar  
 34  15  34  1   
 35  16  35  1   
@<TRIPOS>SUBSTRUCTURE
  1 ****   6 GROUP 4 **** **** 0

# MOE 2024.06 (io_trps.svl 2023.06)
