@<TRIPOS>MOLECULE
NONAME
37 37 1 0 0 
SMALL
USER_CHARGES


@<TRIPOS>ATOM
  1 O       -0.0670     0.2910     0.0470 O.2   1 <1>  -0.5700 
  2 C       -1.0950     0.9240     0.1700 C.2   1 <1>   0.4950 
  3 C       -1.1500     2.3150     0.5220 C.2   1 <1>   0.0290 
  4 C       -2.3660     0.1130     0.0040 C.3   1 <1>   0.0420 
  5 C       -2.2090     2.6540     1.4310 C.2   1 <1>   0.4950 
  6 C       -0.2210     3.2170     0.0200 C.2   1 <1>  -0.0380 
  7 C       -2.3130    -0.5610    -1.3650 C.2   1 <1>   0.6590 
  8 C       -3.6680     0.9120     0.2980 C.3   1 <1>   0.0000 
  9 O       -2.2170     3.6120     2.1670 O.2   1 <1>  -0.5700 
 10 C       -3.4180     1.7420     1.5670 C.3   1 <1>  -0.0990 
 11 N        0.8590     2.8150    -0.6960 N.pl3 1 <1>  -0.8690 
 12 C       -0.3490     4.7270     0.2110 C.3   1 <1>  -0.1020 
 13 O       -2.3250     0.0830    -2.3800 O.2   1 <1>  -0.5700 
 14 O       -2.2960    -1.8900    -1.4400 O.3   1 <1>  -0.4300 
 15 C       -4.1020     1.8620    -0.8400 C.3   1 <1>  -0.2400 
 16 C       -4.8320    -0.0610     0.5580 C.3   1 <1>  -0.2400 
 17 C        1.9770     3.6050    -1.2740 C.3   1 <1>   0.1290 
 18 C       -1.5780    -2.7370    -0.5670 C.3   1 <1>   0.0400 
 19 H       -2.3040    -0.6470     0.7560 H     1 <1>   0.0800 
 20 H       -3.2540     1.0990     2.4130 H     1 <1>   0.0800 
 21 H       -4.2820     2.3450     1.7870 H     1 <1>   0.0800 
 22 H        0.9800     1.7920    -0.8320 H     1 <1>   0.4000 
 23 H       -0.0470     5.2480    -0.6780 H     1 <1>   0.0800 
 24 H        0.2690     5.0420     1.0310 H     1 <1>   0.0800 
 25 H       -1.3610     5.0270     0.4030 H     1 <1>   0.0800 
 26 H       -3.2960     2.4930    -1.1700 H     1 <1>   0.0800 
 27 H       -4.9120     2.4950    -0.5200 H     1 <1>   0.0800 
 28 H       -4.4510     1.3070    -1.6940 H     1 <1>   0.0800 
 29 H       -5.7320     0.4800     0.7930 H     1 <1>   0.0800 
 30 H       -4.6150    -0.7200     1.3810 H     1 <1>   0.0800 
 31 H       -5.0260    -0.6640    -0.3130 H     1 <1>   0.0800 
 32 H        2.1330     4.5110    -0.7150 H     1 <1>   0.0800 
 33 H        1.7550     3.8500    -2.2980 H     1 <1>   0.0800 
 34 H        2.8820     3.0250    -1.2400 H     1 <1>   0.0800 
 35 H       -1.4590    -3.6910    -1.0520 H     1 <1>   0.0800 
 36 H       -2.1330    -2.8620     0.3450 H     1 <1>   0.0800 
 37 H       -0.6090    -2.3080    -0.3730 H     1 <1>   0.0800 
@<TRIPOS>BOND
  1   1   2  2   
  2   2   3  1   
  3   2   4  1   
  4   3   5  1   
  5   3   6  2   
  6   4   7  1   
  7   4   8  1   
  8   4  19  1   
  9   5   9  2   
 10   5  10  1   
 11   6  11  1   
 12   6  12  1   
 13   7  13  2   
 14   7  14  1   
 15   8  10  1   
 16   8  15  1   
 17   8  16  1   
 18  10  20  1   
 19  10  21  1   
 20  11  17  1   
 21  11  22  1   
 22  12  23  1   
 23  12  24  1   
 24  12  25  1   
 25  14  18  1   
 26  15  26  1   
 27  15  27  1   
 28  15  28  1   
 29  16  29  1   
 30  16  30  1   
 31  16  31  1   
 32  17  32  1   
 33  17  33  1   
 34  17  34  1   
 35  18  35  1   
 36  18  36  1   
 37  18  37  1   
@<TRIPOS>SUBSTRUCTURE
  1 ****   2 GROUP 4 **** **** 0

# MOE 2024.06 (io_trps.svl 2023.06)
