@<TRIPOS>MOLECULE
NONAME
43 45 1 0 0 
SMALL
USER_CHARGES


@<TRIPOS>ATOM
  1 O       -0.9030     0.3430     2.1750 O.co2 1 <1>  -0.9000 
  2 C       -0.7550     1.0950     1.2050 C.2   1 <1>   0.9060 
  3 O        0.0980     0.8780     0.3450 O.co2 1 <1>  -0.9000 
  4 C       -1.7600     2.2230     1.0570 C.3   1 <1>  -0.1860 
  5 C       -3.2860     1.7700     0.3940 C.3   1 <1>  -0.0190 
  6 C       -1.2230     3.5210     0.1720 C.3   1 <1>   0.0580 
  7 C       -3.5800     0.2990     0.0330 C.2   1 <1>   0.5690 
  8 C       -3.5620     2.8200    -0.8650 C.3   1 <1>   0.0580 
  9 C       -1.7470     4.5490    -0.9590 C.2   1 <1>  -0.2880 
 10 C       -2.3910     3.0630    -0.2780 C.3   1 <1>  -0.1600 
 11 O       -4.4120     0.0820    -0.8180 O.2   1 <1>  -0.5700 
 12 N       -2.9740    -0.7140     0.7190 N.am  1 <1>  -0.5470 
 13 C       -2.9720     4.1830    -1.5020 C.2   1 <1>  -0.2880 
 14 C       -2.9830    -2.1020     0.5380 C.ar  1 <1>   0.1170 
 15 C       -4.0460    -2.8000    -0.0250 C.ar  1 <1>  -0.1500 
 16 C       -1.8670    -2.8140     0.9540 C.ar  1 <1>  -0.1500 
 17 C       -3.9870    -4.1740    -0.1740 C.ar  1 <1>  -0.1500 
 18 C       -1.8060    -4.1870     0.8080 C.ar  1 <1>  -0.1500 
 19 C       -2.8640    -4.8810     0.2360 C.ar  1 <1>   0.1170 
 20 N       -2.7970    -6.2720     0.0720 N.am  1 <1>  -0.4770 
 21 C       -2.1660    -6.8910    -0.9800 C.2   1 <1>   0.5690 
 22 C       -3.4580    -7.0970     1.1130 C.3   1 <1>   0.0600 
 23 O       -2.1160    -8.0940    -1.0880 O.2   1 <1>  -0.5700 
 24 C       -1.5070    -6.0560    -2.0550 C.3   1 <1>  -0.1790 
 25 H       -1.9250     2.5600     2.0690 H     1 <1>   0.0800 
 26 H       -4.0240     1.9810     1.1540 H     1 <1>   0.0800 
 27 H       -0.2900     3.1830    -0.2570 H     1 <1>   0.0800 
 28 H       -3.6060     2.1830    -1.7380 H     1 <1>   0.0800 
 29 H       -1.1290     5.3980    -1.1980 H     1 <1>   0.1500 
 30 H       -1.8410     2.4050    -1.0680 H     1 <1>   0.0800 
 31 H       -2.9590     3.7990     0.5100 H     1 <1>   0.0800 
 32 H       -2.2270    -0.4050     1.3710 H     1 <1>   0.3700 
 33 H       -3.5440     4.6780    -2.2680 H     1 <1>   0.1500 
 34 H       -4.9210    -2.2650    -0.3450 H     1 <1>   0.1500 
 35 H       -1.0390    -2.2740     1.3900 H     1 <1>   0.1500 
 36 H       -4.8120    -4.7030    -0.6140 H     1 <1>   0.1500 
 37 H       -0.9330    -4.7220     1.1340 H     1 <1>   0.1500 
 38 H       -3.7620    -6.4800     1.9410 H     1 <1>   0.0800 
 39 H       -2.7730    -7.8480     1.4670 H     1 <1>   0.0800 
 40 H       -4.3220    -7.5800     0.6930 H     1 <1>   0.0800 
 41 H       -2.2230    -5.3810    -2.4840 H     1 <1>   0.0800 
 42 H       -1.1220    -6.6940    -2.8290 H     1 <1>   0.0800 
 43 H       -0.6970    -5.4930    -1.6320 H     1 <1>   0.0800 
@<TRIPOS>BOND
  1   1   2  ar  
  2   2   3  ar  
  3   2   4  1   
  4   4   5  1   
  5   4   6  1   
  6   4  25  1   
  7   5   7  1   
  8   5   8  1   
  9   5  26  1   
 10   6   9  1   
 11   6  10  1   
 12   6  27  1   
 13   7  11  2   
 14   7  12  am  
 15   8  10  1   
 16   8  13  1   
 17   8  28  1   
 18   9  13  2   
 19   9  29  1   
 20  10  30  1   
 21  10  31  1   
 22  12  14  1   
 23  12  32  1   
 24  13  33  1   
 25  14  15  ar  
 26  14  16  ar  
 27  15  17  ar  
 28  15  34  1   
 29  16  18  ar  
 30  16  35  1   
 31  17  19  ar  
 32  17  36  1   
 33  18  19  ar  
 34  18  37  1   
 35  19  20  1   
 36  20  21  am  
 37  20  22  1   
 38  21  23  2   
 39  21  24  1   
 40  22  38  1   
 41  22  39  1   
 42  22  40  1   
 43  24  41  1   
 44  24  42  1   
 45  24  43  1   
@<TRIPOS>SUBSTRUCTURE
  1 ****  12 GROUP 4 **** **** 0

# MOE 2024.06 (io_trps.svl 2023.06)
