@<TRIPOS>MOLECULE
NONAME
42 43 1 0 0 
SMALL
USER_CHARGES


@<TRIPOS>ATOM
  1 O       -0.1210    -0.6610    -1.2980 O.2   1 <1>  -0.5700 
  2 C        0.0540    -1.4410    -0.3930 C.2   1 <1>   0.5690 
  3 N        1.2790    -1.7010     0.1690 N.am  1 <1>  -0.5470 
  4 C       -1.1970    -2.1630     0.1420 C.3   1 <1>   0.4040 
  5 C        2.5450    -1.1550    -0.1070 C.ar  1 <1>   0.1170 
  6 N       -2.4820    -1.4200    -0.1480 N.4   1 <1>  -0.9590 
  7 C        3.6670    -1.8530     0.3200 C.ar  1 <1>  -0.1500 
  8 C        2.7370     0.0550    -0.7690 C.ar  1 <1>  -0.1500 
  9 C       -2.5620    -0.1220     0.6010 C.3   1 <1>   0.3430 
 10 C       -3.7070    -2.2470     0.0020 C.3   1 <1>   0.3430 
 11 C        4.9450    -1.3730     0.0970 C.ar  1 <1>   0.0830 
 12 C        4.0100     0.5440    -1.0000 C.ar  1 <1>  -0.1500 
 13 C       -3.9660     0.5130     0.5250 C.3   1 <1>  -0.0800 
 14 C       -4.8890    -1.5300    -0.6630 C.3   1 <1>  -0.1600 
 15 O        5.9690    -2.1350     0.5560 O.3   1 <1>  -0.3630 
 16 C        5.1170    -0.1640    -0.5700 C.ar  1 <1>  -0.1500 
 17 C       -4.7670     0.0060    -0.6860 C.3   1 <1>  -0.1600 
 18 C       -3.8600     2.0430     0.4900 C.3   1 <1>  -0.2400 
 19 C        7.3120    -1.7460     0.3690 C.3   1 <1>   0.0400 
 20 H        1.3270    -2.4430     0.8670 H     1 <1>   0.3700 
 21 H       -1.0930    -2.3050     1.2040 H     1 <1>   0.0800 
 22 H       -1.2350    -3.1310    -0.3250 H     1 <1>   0.0800 
 23 H       -2.4140    -1.1420    -1.1420 H     1 <1>   0.4500 
 24 H        3.5650    -2.7900     0.8340 H     1 <1>   0.1500 
 25 H        1.8980     0.6330    -1.1110 H     1 <1>   0.1500 
 26 H       -1.8440     0.5640     0.1790 H     1 <1>   0.0800 
 27 H       -2.3050    -0.2720     1.6370 H     1 <1>   0.0800 
 28 H       -3.9170    -2.3870     1.0500 H     1 <1>   0.0800 
 29 H       -3.5730    -3.2160    -0.4520 H     1 <1>   0.0800 
 30 H        4.1390     1.4800    -1.5160 H     1 <1>   0.1500 
 31 H       -4.5010     0.2450     1.4210 H     1 <1>   0.0800 
 32 H       -5.7840    -1.8090    -0.1330 H     1 <1>   0.0800 
 33 H       -5.0040    -1.8890    -1.6720 H     1 <1>   0.0800 
 34 H        6.0940     0.2370    -0.7620 H     1 <1>   0.1500 
 35 H       -4.2690     0.3110    -1.5920 H     1 <1>   0.0800 
 36 H       -5.7510     0.4460    -0.6960 H     1 <1>   0.0800 
 37 H       -3.3350     2.3730    -0.3910 H     1 <1>   0.0800 
 38 H       -3.3370     2.4080     1.3570 H     1 <1>   0.0800 
 39 H       -4.8410     2.4860     0.4830 H     1 <1>   0.0800 
 40 H        7.9420    -2.4990     0.8060 H     1 <1>   0.0800 
 41 H        7.4750    -0.8030     0.8600 H     1 <1>   0.0800 
 42 H        7.5100    -1.6710    -0.6860 H     1 <1>   0.0800 
@<TRIPOS>BOND
  1   1   2  2   
  2   2   3  am  
  3   2   4  1   
  4   3   5  1   
  5   3  20  1   
  6   4   6  1   
  7   4  21  1   
  8   4  22  1   
  9   5   7  ar  
 10   5   8  ar  
 11   6   9  1   
 12   6  10  1   
 13   6  23  1   
 14   7  11  ar  
 15   7  24  1   
 16   8  12  ar  
 17   8  25  1   
 18   9  13  1   
 19   9  26  1   
 20   9  27  1   
 21  10  14  1   
 22  10  28  1   
 23  10  29  1   
 24  11  15  1   
 25  11  16  ar  
 26  12  16  ar  
 27  12  30  1   
 28  13  17  1   
 29  13  18  1   
 30  13  31  1   
 31  14  17  1   
 32  14  32  1   
 33  14  33  1   
 34  15  19  1   
 35  16  34  1   
 36  17  35  1   
 37  17  36  1   
 38  18  37  1   
 39  18  38  1   
 40  18  39  1   
 41  19  40  1   
 42  19  41  1   
 43  19  42  1   
@<TRIPOS>SUBSTRUCTURE
  1 ****   2 GROUP 4 **** **** 0

# MOE 2024.06 (io_trps.svl 2023.06)
