@<TRIPOS>MOLECULE
NONAME
36 37 1 0 0 
SMALL
USER_CHARGES


@<TRIPOS>ATOM
  1 N        0.0560     0.3520     0.0310 N.2   1 <1>  -0.4920 
  2 N       -1.1460     1.0160     0.0240 N.pl3 1 <1>  -0.4270 
  3 C        0.9990     1.1790     0.0120 C.2   1 <1>   0.7700 
  4 C       -2.4140     0.3980     0.0410 C.ar  1 <1>   0.1000 
  5 C       -0.9460     2.4810    -0.0040 C.3   1 <1>   0.2090 
  6 N        2.3230     0.7800     0.0140 N.pl3 1 <1>  -0.6850 
  7 C        0.5740     2.6240    -0.0130 C.3   1 <1>  -0.0990 
  8 C       -3.5960     1.1400     0.0320 C.ar  1 <1>  -0.1500 
  9 C       -2.5230    -0.9910     0.0660 C.ar  1 <1>  -0.1500 
 10 C        3.4340     1.4800    -0.0040 C.cat 1 <1>   0.5590 
 11 C       -4.8370     0.5260     0.0490 C.ar  1 <1>  -0.1430 
 12 C       -3.7570    -1.6130     0.0820 C.ar  1 <1>  -0.1500 
 13 N        4.6440     0.9410     0.0010 N.pl3 1 <1>  -0.8330 
 14 C       -4.9140    -0.8560     0.0730 C.ar  1 <1>  -0.1500 
 15 C       -6.1120     1.3510     0.0380 C.3   1 <1>  -0.0970 
 16 C        5.8750     1.7920    -0.0200 C.3   1 <1>   0.2490 
 17 C        4.9610    -0.5250     0.0260 C.3   1 <1>   0.2490 
 18 H       -1.3900     2.8930    -0.8940 H     1 <1>   0.0800 
 19 H       -1.3820     2.9260     0.8750 H     1 <1>   0.0800 
 20 H        2.3620    -0.2350     0.0320 H     1 <1>   0.4500 
 21 H        0.9130     3.1470     0.8620 H     1 <1>   0.0800 
 22 H        0.9050     3.1140    -0.9080 H     1 <1>   0.0800 
 23 H       -3.5550     2.2100     0.0110 H     1 <1>   0.1500 
 24 H       -1.6330    -1.5900     0.0740 H     1 <1>   0.1500 
 25 H        3.3550     2.5590    -0.0240 H     1 <1>   0.1500 
 26 H       -3.8180    -2.6870     0.1000 H     1 <1>   0.1500 
 27 H       -5.8720    -1.3470     0.0830 H     1 <1>   0.1500 
 28 H       -6.8300     0.9310     0.7190 H     1 <1>   0.0800 
 29 H       -6.5330     1.3550    -0.9520 H     1 <1>   0.0800 
 30 H       -5.9150     2.3640     0.3360 H     1 <1>   0.0800 
 31 H        6.4640     1.5690    -0.8950 H     1 <1>   0.0800 
 32 H        6.4720     1.6010     0.8570 H     1 <1>   0.0800 
 33 H        5.6220     2.8390    -0.0390 H     1 <1>   0.0800 
 34 H        5.5410    -0.7590     0.9040 H     1 <1>   0.0800 
 35 H        5.5330    -0.7920    -0.8470 H     1 <1>   0.0800 
 36 H        4.0700    -1.1260     0.0420 H     1 <1>   0.0800 
@<TRIPOS>BOND
  1   1   2  1   
  2   1   3  2   
  3   2   4  1   
  4   2   5  1   
  5   3   6  1   
  6   3   7  1   
  7   4   8  ar  
  8   4   9  ar  
  9   5   7  1   
 10   5  18  1   
 11   5  19  1   
 12   6  10  ar  
 13   6  20  1   
 14   7  21  1   
 15   7  22  1   
 16   8  11  ar  
 17   8  23  1   
 18   9  12  ar  
 19   9  24  1   
 20  10  13  ar  
 21  10  25  1   
 22  11  14  ar  
 23  11  15  1   
 24  12  14  ar  
 25  12  26  1   
 26  13  16  1   
 27  13  17  1   
 28  14  27  1   
 29  15  28  1   
 30  15  29  1   
 31  15  30  1   
 32  16  31  1   
 33  16  32  1   
 34  16  33  1   
 35  17  34  1   
 36  17  35  1   
 37  17  36  1   
@<TRIPOS>SUBSTRUCTURE
  1 ****   1 GROUP 4 **** **** 0

# MOE 2024.06 (io_trps.svl 2023.06)
