@<TRIPOS>MOLECULE
NONAME
36 37 1 0 0 
SMALL
USER_CHARGES


@<TRIPOS>ATOM
  1 S        0.3130    -0.3340     0.5460 S.3   1 <1>  -0.0800 
  2 C       -0.1900     1.2690     0.0540 C.2   1 <1>  -0.1400 
  3 C        1.9900     0.0730     0.2980 C.2   1 <1>  -0.1100 
  4 C        0.8780     2.0280    -0.2660 C.2   1 <1>  -0.1810 
  5 C       -1.6870     1.5110     0.0740 C.3   1 <1>  -0.0600 
  6 C        2.1540     1.3490    -0.1320 C.2   1 <1>  -0.0860 
  7 C        0.8050     3.4780    -0.7270 C.3   1 <1>  -0.0590 
  8 C        3.4530     1.9390    -0.4090 C.2   1 <1>   0.7160 
  9 O        3.6140     2.8160    -1.2360 O.2   1 <1>  -0.5700 
 10 N        4.5410     1.4790     0.2660 N.am  1 <1>  -0.7300 
 11 C        5.9510     1.8220     0.0120 C.3   1 <1>   0.2200 
 12 C        6.7010     0.5240    -0.3750 C.3   1 <1>   0.2000 
 13 C        6.4740     2.5070     1.2790 C.3   1 <1>  -0.2400 
 14 O        6.5560    -0.4540     0.6140 O.3   1 <1>  -0.5600 
 15 C        8.2060     0.6320    -0.5950 C.3   1 <1>  -0.1600 
 16 C        7.6080    -1.3690     0.5730 C.3   1 <1>   0.1200 
 17 C        8.6560    -0.8000    -0.3810 C.3   1 <1>  -0.1600 
 18 H        2.7100    -0.7000     0.4950 H     1 <1>   0.1500 
 19 H       -2.1760     0.8050    -0.5720 H     1 <1>   0.0800 
 20 H       -1.9270     2.5020    -0.2580 H     1 <1>   0.0800 
 21 H       -2.0610     1.3820     1.0740 H     1 <1>   0.0800 
 22 H       -0.1950     3.8600    -0.6740 H     1 <1>   0.0800 
 23 H        1.1440     3.5540    -1.7450 H     1 <1>   0.0800 
 24 H        1.4340     4.0920    -0.1070 H     1 <1>   0.0800 
 25 H        4.4350     0.6900     0.9050 H     1 <1>   0.3700 
 26 H        6.0120     2.5160    -0.8090 H     1 <1>   0.0800 
 27 H        6.2540     0.1290    -1.2710 H     1 <1>   0.0800 
 28 H        6.5060     1.8110     2.0980 H     1 <1>   0.0800 
 29 H        5.8350     3.3310     1.5380 H     1 <1>   0.0800 
 30 H        7.4610     2.8960     1.1170 H     1 <1>   0.0800 
 31 H        8.6580     1.2660     0.1450 H     1 <1>   0.0800 
 32 H        8.4440     1.0000    -1.5770 H     1 <1>   0.0800 
 33 H        7.2290    -2.3170     0.2310 H     1 <1>   0.0800 
 34 H        7.9970    -1.4680     1.5720 H     1 <1>   0.0800 
 35 H        9.6480    -0.8620     0.0320 H     1 <1>   0.0800 
 36 H        8.6260    -1.3470    -1.3070 H     1 <1>   0.0800 
@<TRIPOS>BOND
  1   1   2  1   
  2   1   3  1   
  3   2   4  2   
  4   2   5  1   
  5   3   6  2   
  6   3  18  1   
  7   4   6  1   
  8   4   7  1   
  9   5  19  1   
 10   5  20  1   
 11   5  21  1   
 12   6   8  1   
 13   7  22  1   
 14   7  23  1   
 15   7  24  1   
 16   8   9  2   
 17   8  10  am  
 18  10  11  1   
 19  10  25  1   
 20  11  12  1   
 21  11  13  1   
 22  11  26  1   
 23  12  14  1   
 24  12  15  1   
 25  12  27  1   
 26  13  28  1   
 27  13  29  1   
 28  13  30  1   
 29  14  16  1   
 30  15  17  1   
 31  15  31  1   
 32  15  32  1   
 33  16  17  1   
 34  16  33  1   
 35  16  34  1   
 36  17  35  1   
 37  17  36  1   
@<TRIPOS>SUBSTRUCTURE
  1 ****  10 GROUP 4 **** **** 0

# MOE 2024.06 (io_trps.svl 2023.06)
