@<TRIPOS>MOLECULE
NONAME
42 44 1 0 0 
SMALL
USER_CHARGES


@<TRIPOS>ATOM
  1 O        1.0440     0.7510    -2.1520 O.2   1 <1>  -0.5700 
  2 C        1.1440     1.1100    -1.0020 C.2   1 <1>   0.5690 
  3 N        1.7840     0.3340    -0.0810 N.am  1 <1>  -0.7300 
  4 C        0.5480     2.4620    -0.5480 C.3   1 <1>   0.0610 
  5 C        2.4090    -0.9850    -0.3510 C.3   1 <1>   0.0600 
  6 C        1.6630     3.3790     0.0140 C.3   1 <1>  -0.1600 
  7 C       -0.1390     3.2080    -1.7210 C.3   1 <1>  -0.1600 
  8 C       -0.5110     2.2370     0.5600 C.3   1 <1>  -0.1600 
  9 C        1.0890     4.7270     0.4940 C.3   1 <1>   0.0000 
 10 C       -0.7320     4.5550    -1.2640 C.3   1 <1>   0.0000 
 11 C       -1.1050     3.5750     1.0450 C.3   1 <1>   0.0000 
 12 C        0.4040     5.4290    -0.6950 C.3   1 <1>  -0.1600 
 13 C        0.0350     4.4590     1.5880 C.3   1 <1>  -0.1600 
 14 C        2.2130     5.6110     1.0490 C.3   1 <1>  -0.2400 
 15 C       -1.7640     4.2900    -0.1510 C.3   1 <1>  -0.1600 
 16 C       -1.4020     5.2650    -2.4470 C.3   1 <1>  -0.2400 
 17 C       -2.1450     3.3210     2.1440 C.3   1 <1>  -0.2400 
 18 H        1.8470     0.6730     0.8800 H     1 <1>   0.3700 
 19 H        2.2880    -1.2510    -1.3880 H     1 <1>   0.0800 
 20 H        1.9420    -1.7400     0.2570 H     1 <1>   0.0800 
 21 H        3.4600    -0.9420    -0.1240 H     1 <1>   0.0800 
 22 H        2.3990     3.5500    -0.7530 H     1 <1>   0.0800 
 23 H        2.1580     2.8940     0.8350 H     1 <1>   0.0800 
 24 H       -0.9190     2.5890    -2.1290 H     1 <1>   0.0800 
 25 H        0.5790     3.3760    -2.5050 H     1 <1>   0.0800 
 26 H       -0.0670     1.7250     1.3940 H     1 <1>   0.0800 
 27 H       -1.2950     1.6090     0.1750 H     1 <1>   0.0800 
 28 H        1.1280     5.6250    -1.4660 H     1 <1>   0.0800 
 29 H        0.0040     6.3760    -0.3750 H     1 <1>   0.0800 
 30 H        0.5010     3.9760     2.4290 H     1 <1>   0.0800 
 31 H       -0.3690     5.3950     1.9340 H     1 <1>   0.0800 
 32 H        2.6950     5.1300     1.8810 H     1 <1>   0.0800 
 33 H        1.8190     6.5540     1.3830 H     1 <1>   0.0800 
 34 H        2.9510     5.8010     0.2910 H     1 <1>   0.0800 
 35 H       -2.5650     3.6850    -0.5380 H     1 <1>   0.0800 
 36 H       -2.1900     5.2230     0.1760 H     1 <1>   0.0800 
 37 H       -0.6860     5.4500    -3.2280 H     1 <1>   0.0800 
 38 H       -1.8180     6.2060    -2.1350 H     1 <1>   0.0800 
 39 H       -2.1930     4.6580    -2.8490 H     1 <1>   0.0800 
 40 H       -1.6930     2.8240     2.9840 H     1 <1>   0.0800 
 41 H       -2.9430     2.7040     1.7710 H     1 <1>   0.0800 
 42 H       -2.5650     4.2510     2.4850 H     1 <1>   0.0800 
@<TRIPOS>BOND
  1   1   2  2   
  2   2   3  am  
  3   2   4  1   
  4   3   5  1   
  5   3  18  1   
  6   4   6  1   
  7   4   7  1   
  8   4   8  1   
  9   5  19  1   
 10   5  20  1   
 11   5  21  1   
 12   6   9  1   
 13   6  22  1   
 14   6  23  1   
 15   7  10  1   
 16   7  24  1   
 17   7  25  1   
 18   8  11  1   
 19   8  26  1   
 20   8  27  1   
 21   9  12  1   
 22   9  13  1   
 23   9  14  1   
 24  10  12  1   
 25  10  15  1   
 26  10  16  1   
 27  11  13  1   
 28  11  15  1   
 29  11  17  1   
 30  12  28  1   
 31  12  29  1   
 32  13  30  1   
 33  13  31  1   
 34  14  32  1   
 35  14  33  1   
 36  14  34  1   
 37  15  35  1   
 38  15  36  1   
 39  16  37  1   
 40  16  38  1   
 41  16  39  1   
 42  17  40  1   
 43  17  41  1   
 44  17  42  1   
@<TRIPOS>SUBSTRUCTURE
  1 ****   4 GROUP 4 **** **** 0

# MOE 2024.06 (io_trps.svl 2023.06)
