@<TRIPOS>MOLECULE
NONAME
40 40 1 0 0 
SMALL
USER_CHARGES


@<TRIPOS>ATOM
  1 O        0.8360     1.5640     1.9040 O.2   1 <1>  -0.5700 
  2 C        0.5050     2.1730     0.9170 C.2   1 <1>   0.5690 
  3 N        1.2560     2.2450    -0.2130 N.am  1 <1>  -0.7300 
  4 C       -0.8240     2.9020     0.9260 C.3   1 <1>  -0.0990 
  5 C        2.5550     1.6280    -0.4940 C.3   1 <1>   0.3000 
  6 C       -1.9110     2.1160     0.1700 C.3   1 <1>  -0.1600 
  7 C        2.9320     2.0360    -1.9170 C.3   1 <1>  -0.2400 
  8 C        2.4310     0.1060    -0.4130 C.3   1 <1>  -0.2400 
  9 C        3.6020     2.1560     0.4860 C.3   1 <1>  -0.2400 
 10 C       -3.2420     2.8810     0.0300 C.3   1 <1>  -0.0800 
 11 C       -3.9070     3.1460     1.3950 C.3   1 <1>  -0.1600 
 12 C       -4.1970     2.0900    -0.8820 C.3   1 <1>  -0.1600 
 13 C       -5.2640     3.8470     1.2400 C.3   1 <1>  -0.1600 
 14 C       -5.5490     2.7980    -1.0410 C.3   1 <1>  -0.1600 
 15 C       -6.2010     3.0520     0.3230 C.3   1 <1>  -0.1600 
 16 H        0.8860     2.7730    -1.0000 H     1 <1>   0.3700 
 17 H       -0.6910     3.8710     0.4820 H     1 <1>   0.0800 
 18 H       -1.1150     3.0430     1.9500 H     1 <1>   0.0800 
 19 H       -2.0820     1.1810     0.6770 H     1 <1>   0.0800 
 20 H       -1.5430     1.8840    -0.8150 H     1 <1>   0.0800 
 21 H        2.1990     1.6810    -2.6200 H     1 <1>   0.0800 
 22 H        3.8830     1.6100    -2.1820 H     1 <1>   0.0800 
 23 H        3.0120     3.1060    -1.9950 H     1 <1>   0.0800 
 24 H        1.6600    -0.2450    -1.0750 H     1 <1>   0.0800 
 25 H        2.1960    -0.2010     0.5900 H     1 <1>   0.0800 
 26 H        3.3600    -0.3570    -0.6920 H     1 <1>   0.0800 
 27 H        3.6460     3.2290     0.4500 H     1 <1>   0.0800 
 28 H        4.5720     1.7650     0.2390 H     1 <1>   0.0800 
 29 H        3.3690     1.8500     1.4900 H     1 <1>   0.0800 
 30 H       -3.0430     3.8290    -0.4400 H     1 <1>   0.0800 
 31 H       -3.2750     3.7660     2.0050 H     1 <1>   0.0800 
 32 H       -4.0500     2.2120     1.9110 H     1 <1>   0.0800 
 33 H       -4.3610     1.1110    -0.4660 H     1 <1>   0.0800 
 34 H       -3.7510     1.9650    -1.8540 H     1 <1>   0.0800 
 35 H       -5.1110     4.8290     0.8260 H     1 <1>   0.0800 
 36 H       -5.7210     3.9640     2.2070 H     1 <1>   0.0800 
 37 H       -6.2030     2.1940    -1.6450 H     1 <1>   0.0800 
 38 H       -5.4040     3.7370    -1.5470 H     1 <1>   0.0800 
 39 H       -7.1200     3.5950     0.1880 H     1 <1>   0.0800 
 40 H       -6.4380     2.1090     0.7860 H     1 <1>   0.0800 
@<TRIPOS>BOND
  1   1   2  2   
  2   2   3  am  
  3   2   4  1   
  4   3   5  1   
  5   3  16  1   
  6   4   6  1   
  7   4  17  1   
  8   4  18  1   
  9   5   7  1   
 10   5   8  1   
 11   5   9  1   
 12   6  10  1   
 13   6  19  1   
 14   6  20  1   
 15   7  21  1   
 16   7  22  1   
 17   7  23  1   
 18   8  24  1   
 19   8  25  1   
 20   8  26  1   
 21   9  27  1   
 22   9  28  1   
 23   9  29  1   
 24  10  11  1   
 25  10  12  1   
 26  10  30  1   
 27  11  13  1   
 28  11  31  1   
 29  11  32  1   
 30  12  14  1   
 31  12  33  1   
 32  12  34  1   
 33  13  15  1   
 34  13  35  1   
 35  13  36  1   
 36  14  15  1   
 37  14  37  1   
 38  14  38  1   
 39  15  39  1   
 40  15  40  1   
@<TRIPOS>SUBSTRUCTURE
  1 ****   6 GROUP 4 **** **** 0

# MOE 2024.06 (io_trps.svl 2023.06)
