@<TRIPOS>MOLECULE
NONAME
46 48 1 0 0 
SMALL
USER_CHARGES


@<TRIPOS>ATOM
  1 O       -0.1760     0.7250    -0.6010 O.3   1 <1>  -0.3630 
  2 C        1.0740     1.1660    -0.3130 C.ar  1 <1>   0.0830 
  3 C       -1.2880     1.1120     0.1800 C.3   1 <1>   0.1200 
  4 C        2.1110     0.6150    -1.0530 C.ar  1 <1>  -0.1500 
  5 C        1.3530     2.1190     0.6680 C.ar  1 <1>  -0.1500 
  6 C       -2.5490     0.3870    -0.3070 C.3   1 <1>   0.2000 
  7 C        3.4100     1.0130    -0.8020 C.ar  1 <1>  -0.1440 
  8 C        2.6610     2.5110     0.9100 C.ar  1 <1>  -0.1500 
  9 O       -2.9750     0.9450    -1.5050 O.3   1 <1>  -0.6800 
 10 C       -3.6900     0.4850     0.7110 C.3   1 <1>   0.0960 
 11 C        3.6810     1.9470     0.1670 C.ar  1 <1>  -0.1430 
 12 C        4.6720     0.5450    -1.4820 C.3   1 <1>  -0.0170 
 13 N       -4.8450    -0.3180     0.2640 N.pl3 1 <1>   0.3140 
 14 C        5.1610     2.2240     0.2610 C.3   1 <1>  -0.0170 
 15 C        5.7900     1.1000    -0.5820 C.3   1 <1>  -0.1600 
 16 N       -5.5920     0.0800    -0.7820 N.2   1 <1>  -0.7070 
 17 C       -5.2800    -1.5010     0.7590 C.2   1 <1>  -0.3320 
 18 C       -6.4850    -0.8440    -0.9260 C.2   1 <1>   0.1080 
 19 C       -6.3450    -1.8650     0.0090 C.2   1 <1>  -0.1810 
 20 C       -4.6340    -2.2220     1.9350 C.3   1 <1>  -0.0600 
 21 C       -7.5410    -0.7810    -2.0060 C.3   1 <1>  -0.0590 
 22 C       -7.2310    -3.0940     0.1060 C.3   1 <1>  -0.0590 
 23 H       -1.4140     2.1780     0.1010 H     1 <1>   0.0800 
 24 H       -1.0750     0.8390     1.1980 H     1 <1>   0.0800 
 25 H        1.8920    -0.1130    -1.8110 H     1 <1>   0.1500 
 26 H        0.5710     2.5680     1.2480 H     1 <1>   0.1500 
 27 H       -2.3190    -0.6500    -0.4820 H     1 <1>   0.0800 
 28 H        2.8830     3.2440     1.6650 H     1 <1>   0.1500 
 29 H       -3.9160     0.6700    -1.6600 H     1 <1>   0.4000 
 30 H       -4.0010     1.5070     0.8190 H     1 <1>   0.0800 
 31 H       -3.3630     0.1240     1.6660 H     1 <1>   0.0800 
 32 H        4.7260     0.9750    -2.4670 H     1 <1>   0.0800 
 33 H        4.7110    -0.5280    -1.5480 H     1 <1>   0.0800 
 34 H        5.5050     2.1950     1.2790 H     1 <1>   0.0800 
 35 H        5.3710     3.1870    -0.1710 H     1 <1>   0.0800 
 36 H        6.6280     1.4520    -1.1560 H     1 <1>   0.0800 
 37 H        6.1200     0.3180     0.0790 H     1 <1>   0.0800 
 38 H       -4.6990    -1.6170     2.8210 H     1 <1>   0.0800 
 39 H       -3.6000    -2.4270     1.7210 H     1 <1>   0.0800 
 40 H       -5.1250    -3.1570     2.1310 H     1 <1>   0.0800 
 41 H       -7.3970     0.0980    -2.6070 H     1 <1>   0.0800 
 42 H       -8.5160    -0.7410    -1.5580 H     1 <1>   0.0800 
 43 H       -7.4710    -1.6480    -2.6350 H     1 <1>   0.0800 
 44 H       -6.9480    -3.7130     0.9360 H     1 <1>   0.0800 
 45 H       -7.1490    -3.6720    -0.7960 H     1 <1>   0.0800 
 46 H       -8.2540    -2.7940     0.2380 H     1 <1>   0.0800 
@<TRIPOS>BOND
  1   1   2  1   
  2   1   3  1   
  3   2   4  ar  
  4   2   5  ar  
  5   3   6  1   
  6   3  23  1   
  7   3  24  1   
  8   4   7  ar  
  9   4  25  1   
 10   5   8  ar  
 11   5  26  1   
 12   6   9  1   
 13   6  10  1   
 14   6  27  1   
 15   7  11  ar  
 16   7  12  1   
 17   8  11  ar  
 18   8  28  1   
 19   9  29  1   
 20  10  13  1   
 21  10  30  1   
 22  10  31  1   
 23  11  14  1   
 24  12  15  1   
 25  12  32  1   
 26  12  33  1   
 27  13  16  1   
 28  13  17  1   
 29  14  15  1   
 30  14  34  1   
 31  14  35  1   
 32  15  36  1   
 33  15  37  1   
 34  16  18  2   
 35  17  19  2   
 36  17  20  1   
 37  18  19  1   
 38  18  21  1   
 39  19  22  1   
 40  20  38  1   
 41  20  39  1   
 42  20  40  1   
 43  21  41  1   
 44  21  42  1   
 45  21  43  1   
 46  22  44  1   
 47  22  45  1   
 48  22  46  1   
@<TRIPOS>SUBSTRUCTURE
  1 ****   3 GROUP 4 **** **** 0

# MOE 2024.06 (io_trps.svl 2023.06)
