@<TRIPOS>MOLECULE
NONAME
37 38 1 0 0 
SMALL
USER_CHARGES


@<TRIPOS>ATOM
  1 S        0.0900    -0.0090    -1.5950 S.o2  1 <1>   1.4470 
  2 O        0.0930    -1.1470    -2.4900 O.2   1 <1>  -0.6500 
  3 O        0.5600     1.2560    -2.1220 O.2   1 <1>  -0.6500 
  4 N        1.1910    -0.3700    -0.3580 N.am  1 <1>  -0.8490 
  5 C       -1.5330     0.1140    -0.7400 C.ar  1 <1>  -0.0090 
  6 C        1.3020     0.6950     0.6600 C.3   1 <1>   0.1960 
  7 C        2.5080    -0.7500    -0.8740 C.3   1 <1>   0.1960 
  8 C       -2.3880     1.2140    -0.9160 C.ar  1 <1>  -0.1440 
  9 C       -1.9720    -0.9070     0.1190 C.ar  1 <1>  -0.1440 
 10 C        2.6460     0.6890     1.4240 C.3   1 <1>   0.1200 
 11 C        3.4500    -1.2060     0.2650 C.3   1 <1>   0.1200 
 12 C       -3.5880     1.3000    -0.2270 C.ar  1 <1>  -0.1500 
 13 C       -2.0760     2.3670    -1.8650 C.3   1 <1>  -0.0960 
 14 C       -3.1750    -0.7990     0.7980 C.ar  1 <1>  -0.1500 
 15 C       -1.1790    -2.1890     0.3610 C.3   1 <1>  -0.0960 
 16 O        3.1790    -0.6000     1.5040 O.3   1 <1>  -0.5600 
 17 C       -3.9870     0.3030     0.6370 C.ar  1 <1>  -0.1440 
 18 C       -5.3020     0.4100     1.3880 C.3   1 <1>  -0.0970 
 19 H        0.5000     0.5730     1.3670 H     1 <1>   0.0800 
 20 H        1.1860     1.6670     0.2110 H     1 <1>   0.0800 
 21 H        2.9480     0.0880    -1.3890 H     1 <1>   0.0800 
 22 H        2.4120    -1.5520    -1.5850 H     1 <1>   0.0800 
 23 H        2.5070     1.0570     2.4250 H     1 <1>   0.0800 
 24 H        3.3630     1.3180     0.9260 H     1 <1>   0.0800 
 25 H        4.4720    -0.9970     0.0040 H     1 <1>   0.0800 
 26 H        3.3500    -2.2670     0.4080 H     1 <1>   0.0800 
 27 H       -4.2290     2.1530    -0.3640 H     1 <1>   0.1500 
 28 H       -1.2620     2.9550    -1.4810 H     1 <1>   0.0800 
 29 H       -2.9250     3.0150    -1.9860 H     1 <1>   0.0800 
 30 H       -1.8160     1.9930    -2.8390 H     1 <1>   0.0800 
 31 H       -3.4910    -1.5850     1.4610 H     1 <1>   0.1500 
 32 H       -0.3680    -2.0040     1.0430 H     1 <1>   0.0800 
 33 H       -0.7820    -2.5820    -0.5570 H     1 <1>   0.0800 
 34 H       -1.8020    -2.9540     0.7880 H     1 <1>   0.0800 
 35 H       -5.5460     1.4400     1.5760 H     1 <1>   0.0800 
 36 H       -5.2390    -0.1000     2.3320 H     1 <1>   0.0800 
 37 H       -6.0900    -0.0330     0.8050 H     1 <1>   0.0800 
@<TRIPOS>BOND
  1   1   2  2   
  2   1   3  2   
  3   1   4  am  
  4   1   5  1   
  5   4   6  1   
  6   4   7  1   
  7   5   8  ar  
  8   5   9  ar  
  9   6  10  1   
 10   6  19  1   
 11   6  20  1   
 12   7  11  1   
 13   7  21  1   
 14   7  22  1   
 15   8  12  ar  
 16   8  13  1   
 17   9  14  ar  
 18   9  15  1   
 19  10  16  1   
 20  10  23  1   
 21  10  24  1   
 22  11  16  1   
 23  11  25  1   
 24  11  26  1   
 25  12  17  ar  
 26  12  27  1   
 27  13  28  1   
 28  13  29  1   
 29  13  30  1   
 30  14  17  ar  
 31  14  31  1   
 32  15  32  1   
 33  15  33  1   
 34  15  34  1   
 35  17  18  1   
 36  18  35  1   
 37  18  36  1   
 38  18  37  1   
@<TRIPOS>SUBSTRUCTURE
  1 ****   5 GROUP 4 **** **** 0

# MOE 2024.06 (io_trps.svl 2023.06)
