@<TRIPOS>MOLECULE
NONAME
38 39 1 0 0 
SMALL
USER_CHARGES


@<TRIPOS>ATOM
  1 CL       2.0940     0.8870     2.0460 Cl    1 <1>  -0.1770 
  2 C        2.9020     0.3310     0.6000 C.ar  1 <1>   0.1770 
  3 C        2.6480    -0.9220     0.0470 C.ar  1 <1>  -0.0090 
  4 C        3.8030     1.2190     0.0340 C.ar  1 <1>  -0.1500 
  5 S        1.4670    -2.1060     0.7460 S.o2  1 <1>   1.4470 
  6 C        3.3340    -1.2480    -1.1200 C.ar  1 <1>  -0.1500 
  7 C        4.4780     0.8720    -1.1220 C.ar  1 <1>  -0.1500 
  8 O        1.2760    -1.9450     2.1690 O.2   1 <1>  -0.6500 
  9 O        1.8260    -3.4180     0.2540 O.2   1 <1>  -0.6500 
 10 N       -0.0030    -1.7090    -0.0030 N.am  1 <1>  -0.8490 
 11 C        4.2330    -0.3640    -1.6870 C.ar  1 <1>   0.1770 
 12 C       -0.9430    -2.8460     0.0470 C.3   1 <1>   0.1960 
 13 C       -0.6460    -0.5180     0.5840 C.3   1 <1>   0.1960 
 14 CL       5.0720    -0.8160    -3.1470 Cl    1 <1>  -0.1770 
 15 C       -2.2960    -2.5200    -0.6160 C.3   1 <1>   0.1960 
 16 C       -1.9880    -0.1940    -0.1000 C.3   1 <1>   0.1960 
 17 N       -2.9270    -1.3280    -0.0220 N.am  1 <1>  -0.8490 
 18 S       -4.4270    -0.9900    -0.7340 S.o2  1 <1>   1.3330 
 19 O       -5.0680    -2.2510    -1.0290 O.2   1 <1>  -0.6500 
 20 O       -4.1990    -0.0320    -1.7920 O.2   1 <1>  -0.6500 
 21 C       -5.3290    -0.2000     0.6070 C.3   1 <1>  -0.0550 
 22 C       -6.7640     0.2240     0.2460 C.3   1 <1>  -0.2400 
 23 H        3.9720     2.1760     0.4970 H     1 <1>   0.1500 
 24 H        3.1710    -2.2010    -1.5960 H     1 <1>   0.1500 
 25 H        5.1830     1.5430    -1.5800 H     1 <1>   0.1500 
 26 H       -1.1160    -3.1330     1.0710 H     1 <1>   0.0800 
 27 H       -0.5160    -3.6920    -0.4640 H     1 <1>   0.0800 
 28 H        0.0010     0.3320     0.4670 H     1 <1>   0.0800 
 29 H       -0.8200    -0.6670     1.6370 H     1 <1>   0.0800 
 30 H       -2.9440    -3.3710    -0.4930 H     1 <1>   0.0800 
 31 H       -2.1470    -2.3680    -1.6730 H     1 <1>   0.0800 
 32 H       -1.7950     0.0570    -1.1300 H     1 <1>   0.0800 
 33 H       -2.4220     0.6680     0.3760 H     1 <1>   0.0800 
 34 H       -4.7890     0.6690     0.9280 H     1 <1>   0.0800 
 35 H       -5.3720    -0.8790     1.4370 H     1 <1>   0.0800 
 36 H       -6.7490     0.9250    -0.5700 H     1 <1>   0.0800 
 37 H       -7.2410     0.6840     1.0920 H     1 <1>   0.0800 
 38 H       -7.3390    -0.6360    -0.0510 H     1 <1>   0.0800 
@<TRIPOS>BOND
  1   1   2  1   
  2   2   3  ar  
  3   2   4  ar  
  4   3   5  1   
  5   3   6  ar  
  6   4   7  ar  
  7   4  23  1   
  8   5   8  2   
  9   5   9  2   
 10   5  10  am  
 11   6  11  ar  
 12   6  24  1   
 13   7  11  ar  
 14   7  25  1   
 15  10  12  1   
 16  10  13  1   
 17  11  14  1   
 18  12  15  1   
 19  12  26  1   
 20  12  27  1   
 21  13  16  1   
 22  13  28  1   
 23  13  29  1   
 24  15  17  1   
 25  15  30  1   
 26  15  31  1   
 27  16  17  1   
 28  16  32  1   
 29  16  33  1   
 30  17  18  am  
 31  18  19  2   
 32  18  20  2   
 33  18  21  1   
 34  21  22  1   
 35  21  34  1   
 36  21  35  1   
 37  22  36  1   
 38  22  37  1   
 39  22  38  1   
@<TRIPOS>SUBSTRUCTURE
  1 ****  10 GROUP 4 **** **** 0

# MOE 2024.06 (io_trps.svl 2023.06)
