@<TRIPOS>MOLECULE
NONAME
42 43 1 0 0 
SMALL
USER_CHARGES


@<TRIPOS>ATOM
  1 BR      -0.0450     0.6270     1.9710 Br    1 <1>  -0.1110 
  2 C       -1.1480     2.0350     1.2600 C.ar  1 <1>   0.1110 
  3 C       -2.2240     1.7020     0.4630 C.ar  1 <1>  -0.1500 
  4 C       -0.8350     3.3430     1.5660 C.ar  1 <1>  -0.1500 
  5 C       -3.0360     2.6990    -0.0690 C.ar  1 <1>  -0.0090 
  6 C       -1.6380     4.3440     1.0530 C.ar  1 <1>  -0.1500 
  7 S       -4.4490     2.2350    -1.1120 S.o2  1 <1>   1.4470 
  8 C       -2.7310     4.0270     0.2440 C.ar  1 <1>   0.0830 
  9 O       -4.8230     3.2510    -2.0720 O.2   1 <1>  -0.6500 
 10 O       -4.2020     0.9000    -1.6160 O.2   1 <1>  -0.6500 
 11 N       -5.7460     2.0810    -0.0280 N.am  1 <1>  -0.8490 
 12 O       -3.5360     4.9990    -0.2490 O.3   1 <1>  -0.3630 
 13 C       -6.8670     1.3630    -0.6620 C.3   1 <1>   0.1960 
 14 C       -6.2090     3.3890     0.4790 C.3   1 <1>   0.1960 
 15 C       -3.0680     6.3150    -0.4550 C.3   1 <1>   0.0400 
 16 C       -8.0450     1.1530     0.3040 C.3   1 <1>   0.1400 
 17 C       -7.3650     3.2440     1.4840 C.3   1 <1>   0.1400 
 18 N       -8.4810     2.4490     0.8980 N.am  1 <1>  -0.6600 
 19 C       -9.7590     2.9320     0.8250 C.2   1 <1>   0.7800 
 20 O      -10.0730     4.0200     1.2690 O.2   1 <1>  -0.5700 
 21 O      -10.6780     2.1670     0.2360 O.3   1 <1>  -0.4300 
 22 C      -12.0120     2.6040     0.1170 C.3   1 <1>   0.1200 
 23 C      -12.8030     1.5180    -0.6050 C.3   1 <1>  -0.2400 
 24 H       -2.4270     0.6650     0.2540 H     1 <1>   0.1500 
 25 H        0.0110     3.5670     2.1910 H     1 <1>   0.1500 
 26 H       -1.4040     5.3630     1.2990 H     1 <1>   0.1500 
 27 H       -6.5340     0.3960    -0.9980 H     1 <1>   0.0800 
 28 H       -7.2110     1.9100    -1.5250 H     1 <1>   0.0800 
 29 H       -6.5320     4.0130    -0.3380 H     1 <1>   0.0800 
 30 H       -5.4010     3.8890     0.9800 H     1 <1>   0.0800 
 31 H       -3.7980     6.8390    -1.0450 H     1 <1>   0.0800 
 32 H       -2.1320     6.2760    -0.9850 H     1 <1>   0.0800 
 33 H       -2.9530     6.8010     0.4970 H     1 <1>   0.0800 
 34 H       -7.7380     0.4900     1.0940 H     1 <1>   0.0800 
 35 H       -8.8540     0.6820    -0.2260 H     1 <1>   0.0800 
 36 H       -7.7080     4.2230     1.7710 H     1 <1>   0.0800 
 37 H       -7.0060     2.7470     2.3680 H     1 <1>   0.0800 
 38 H      -12.0210     3.5250    -0.4410 H     1 <1>   0.0800 
 39 H      -12.4040     2.7760     1.1060 H     1 <1>   0.0800 
 40 H      -12.3920     1.3510    -1.5850 H     1 <1>   0.0800 
 41 H      -13.8270     1.8260    -0.7110 H     1 <1>   0.0800 
 42 H      -12.7770     0.6030    -0.0410 H     1 <1>   0.0800 
@<TRIPOS>BOND
  1   1   2  1   
  2   2   3  ar  
  3   2   4  ar  
  4   3   5  ar  
  5   3  24  1   
  6   4   6  ar  
  7   4  25  1   
  8   5   7  1   
  9   5   8  ar  
 10   6   8  ar  
 11   6  26  1   
 12   7   9  2   
 13   7  10  2   
 14   7  11  am  
 15   8  12  1   
 16  11  13  1   
 17  11  14  1   
 18  12  15  1   
 19  13  16  1   
 20  13  27  1   
 21  13  28  1   
 22  14  17  1   
 23  14  29  1   
 24  14  30  1   
 25  15  31  1   
 26  15  32  1   
 27  15  33  1   
 28  16  18  1   
 29  16  34  1   
 30  16  35  1   
 31  17  18  1   
 32  17  36  1   
 33  17  37  1   
 34  18  19  am  
 35  19  20  2   
 36  19  21  1   
 37  21  22  1   
 38  22  23  1   
 39  22  38  1   
 40  22  39  1   
 41  23  40  1   
 42  23  41  1   
 43  23  42  1   
@<TRIPOS>SUBSTRUCTURE
  1 ****  11 GROUP 4 **** **** 0

# MOE 2024.06 (io_trps.svl 2023.06)
