@<TRIPOS>MOLECULE
NONAME
48 50 1 0 0 
SMALL
USER_CHARGES


@<TRIPOS>ATOM
  1 O       -0.7570    -1.5210    -2.9220 O.2   1 <1>  -0.5700 
  2 C       -0.1280    -1.4790    -1.8920 C.2   1 <1>   0.5690 
  3 N       -0.6220    -1.0480    -0.6940 N.am  1 <1>  -0.5470 
  4 C        1.3340    -1.9310    -1.8910 C.3   1 <1>   0.1710 
  5 C       -1.8660    -0.5440    -0.2840 C.ar  1 <1>   0.1170 
  6 N        2.1310    -1.3820    -0.7520 N.3   1 <1>  -0.8100 
  7 C       -1.9810    -0.0420     1.0070 C.ar  1 <1>  -0.1500 
  8 C       -2.9910    -0.5240    -1.1030 C.ar  1 <1>  -0.1500 
  9 C        2.4670     0.0470    -0.9830 C.3   1 <1>   0.1100 
 10 C        3.3870    -2.1450    -0.5720 C.3   1 <1>   0.1100 
 11 C       -3.1810     0.4700     1.4660 C.ar  1 <1>  -0.1500 
 12 C       -4.1950    -0.0130    -0.6500 C.ar  1 <1>  -0.1500 
 13 C        3.2760     0.6560     0.1780 C.3   1 <1>   0.2090 
 14 C        4.2270    -1.6190     0.6070 C.3   1 <1>   0.2090 
 15 C       -4.2960     0.4900     0.6440 C.ar  1 <1>   0.0820 
 16 N        4.5020    -0.1530     0.4700 N.pl3 1 <1>  -0.8380 
 17 O       -5.4340     1.0120     1.1720 O.3   1 <1>  -0.3620 
 18 C        5.7110     0.4170     0.8130 C.ar  1 <1>   0.7200 
 19 C       -6.6180     1.0800     0.4120 C.3   1 <1>   0.1200 
 20 N        5.7800     1.7490     0.8140 N.ar  1 <1>  -0.6200 
 21 N        6.7120    -0.4100     1.1170 N.ar  1 <1>  -0.6200 
 22 C       -7.7000     1.7130     1.2810 C.3   1 <1>  -0.2400 
 23 C        6.9330     2.2770     1.1420 C.ar  1 <1>   0.1600 
 24 C        7.8540     0.1450     1.4410 C.ar  1 <1>   0.1600 
 25 C        8.0210     1.5070     1.4700 C.ar  1 <1>  -0.1500 
 26 H        0.1150    -1.0570     0.0190 H     1 <1>   0.3700 
 27 H        1.7870    -1.6550    -2.8280 H     1 <1>   0.0800 
 28 H        1.3270    -3.0050    -1.8340 H     1 <1>   0.0800 
 29 H       -1.1280    -0.0490     1.6600 H     1 <1>   0.1500 
 30 H       -2.9360    -0.9100    -2.1040 H     1 <1>   0.1500 
 31 H        1.5650     0.6200    -1.1060 H     1 <1>   0.0800 
 32 H        3.0460     0.1460    -1.8860 H     1 <1>   0.0800 
 33 H        3.9820    -2.0900    -1.4680 H     1 <1>   0.0800 
 34 H        3.1540    -3.1790    -0.3890 H     1 <1>   0.0800 
 35 H       -3.2640     0.8580     2.4650 H     1 <1>   0.1500 
 36 H       -5.0360    -0.0170    -1.3160 H     1 <1>   0.1500 
 37 H        2.6620     0.6910     1.0600 H     1 <1>   0.0800 
 38 H        3.5330     1.6660    -0.0860 H     1 <1>   0.0800 
 39 H        5.1410    -2.1840     0.6470 H     1 <1>   0.0800 
 40 H        3.6940    -1.7910     1.5250 H     1 <1>   0.0800 
 41 H       -6.8970     0.0810     0.1250 H     1 <1>   0.0800 
 42 H       -6.4290     1.6830    -0.4600 H     1 <1>   0.0800 
 43 H       -7.8680     1.1130     2.1570 H     1 <1>   0.0800 
 44 H       -8.6190     1.7800     0.7280 H     1 <1>   0.0800 
 45 H       -7.4040     2.7040     1.5760 H     1 <1>   0.0800 
 46 H        7.0130     3.3500     1.1500 H     1 <1>   0.1500 
 47 H        8.6770    -0.5030     1.6900 H     1 <1>   0.1500 
 48 H        8.9610     1.9500     1.7370 H     1 <1>   0.1500 
@<TRIPOS>BOND
  1   1   2  2   
  2   2   3  am  
  3   2   4  1   
  4   3   5  1   
  5   3  26  1   
  6   4   6  1   
  7   4  27  1   
  8   4  28  1   
  9   5   7  ar  
 10   5   8  ar  
 11   6   9  1   
 12   6  10  1   
 13   7  11  ar  
 14   7  29  1   
 15   8  12  ar  
 16   8  30  1   
 17   9  13  1   
 18   9  31  1   
 19   9  32  1   
 20  10  14  1   
 21  10  33  1   
 22  10  34  1   
 23  11  15  ar  
 24  11  35  1   
 25  12  15  ar  
 26  12  36  1   
 27  13  16  1   
 28  13  37  1   
 29  13  38  1   
 30  14  16  1   
 31  14  39  1   
 32  14  40  1   
 33  15  17  1   
 34  16  18  1   
 35  17  19  1   
 36  18  20  ar  
 37  18  21  ar  
 38  19  22  1   
 39  19  41  1   
 40  19  42  1   
 41  20  23  ar  
 42  21  24  ar  
 43  22  43  1   
 44  22  44  1   
 45  22  45  1   
 46  23  25  ar  
 47  23  46  1   
 48  24  25  ar  
 49  24  47  1   
 50  25  48  1   
@<TRIPOS>SUBSTRUCTURE
  1 ****   9 GROUP 4 **** **** 0

# MOE 2024.06 (io_trps.svl 2023.06)
