@<TRIPOS>MOLECULE
NONAME
31 32 1 0 0 
SMALL
USER_CHARGES


@<TRIPOS>ATOM
  1 S       -0.0660    -0.7610     0.1690 S.o2  1 <1>   1.4470 
  2 O        0.2580    -1.3450    -1.1140 O.2   1 <1>  -0.6500 
  3 O       -0.2090    -1.6030     1.3350 O.2   1 <1>  -0.6500 
  4 N        1.1640     0.3010     0.5880 N.am  1 <1>  -0.7890 
  5 C       -1.5050     0.3290     0.0030 C.ar  1 <1>  -0.0090 
  6 C        2.4840    -0.2070     0.3100 C.3   1 <1>   0.1310 
  7 C       -2.6450     0.1490     0.7810 C.ar  1 <1>  -0.1500 
  8 C       -1.5030     1.3780    -0.9090 C.ar  1 <1>  -0.1500 
  9 C        3.6160     0.7610     0.3510 C.3   1 <1>  -0.2000 
 10 C        3.1430     0.2050    -0.9610 C.3   1 <1>  -0.2000 
 11 C       -3.7430     0.9830     0.6580 C.ar  1 <1>  -0.1500 
 12 C       -2.5950     2.2180    -1.0390 C.ar  1 <1>  -0.1500 
 13 C       -3.7220     2.0290    -0.2580 C.ar  1 <1>   0.0830 
 14 O       -4.7490     2.8940    -0.4450 O.3   1 <1>  -0.3630 
 15 C       -5.9490     2.7820     0.2840 C.3   1 <1>   0.1200 
 16 C       -6.8850     3.8970    -0.1740 C.3   1 <1>  -0.2400 
 17 H        1.0850     0.3630     1.6000 H     1 <1>   0.4200 
 18 H        2.6480    -1.2110     0.6730 H     1 <1>   0.1000 
 19 H       -2.6750    -0.6590     1.4940 H     1 <1>   0.1500 
 20 H       -0.6340     1.5380    -1.5260 H     1 <1>   0.1500 
 21 H        4.5720     0.4330     0.7210 H     1 <1>   0.1000 
 22 H        3.4130     1.7930     0.5730 H     1 <1>   0.1000 
 23 H        2.5900     0.8350    -1.6360 H     1 <1>   0.1000 
 24 H        3.7590    -0.5120    -1.4730 H     1 <1>   0.1000 
 25 H       -4.6000     0.8040     1.2800 H     1 <1>   0.1500 
 26 H       -2.5810     3.0260    -1.7490 H     1 <1>   0.1500 
 27 H       -5.7220     2.8830     1.3310 H     1 <1>   0.0800 
 28 H       -6.3800     1.8170     0.0840 H     1 <1>   0.0800 
 29 H       -6.4380     4.8560     0.0150 H     1 <1>   0.0800 
 30 H       -7.8130     3.8380     0.3650 H     1 <1>   0.0800 
 31 H       -7.0920     3.7970    -1.2250 H     1 <1>   0.0800 
@<TRIPOS>BOND
  1   1   2  2   
  2   1   3  2   
  3   1   4  am  
  4   1   5  1   
  5   4   6  1   
  6   4  17  1   
  7   5   7  ar  
  8   5   8  ar  
  9   6   9  1   
 10   6  10  1   
 11   6  18  1   
 12   7  11  ar  
 13   7  19  1   
 14   8  12  ar  
 15   8  20  1   
 16   9  10  1   
 17   9  21  1   
 18   9  22  1   
 19  10  23  1   
 20  10  24  1   
 21  11  13  ar  
 22  11  25  1   
 23  12  13  ar  
 24  12  26  1   
 25  13  14  1   
 26  14  15  1   
 27  15  16  1   
 28  15  27  1   
 29  15  28  1   
 30  16  29  1   
 31  16  30  1   
 32  16  31  1   
@<TRIPOS>SUBSTRUCTURE
  1 ****   5 GROUP 4 **** **** 0

# MOE 2024.06 (io_trps.svl 2023.06)
