@<TRIPOS>MOLECULE
NONAME
50 52 1 0 0 
SMALL
USER_CHARGES


@<TRIPOS>ATOM
  1 S       -0.1570    -0.1520    -2.1840 S.o2  1 <1>   1.4470 
  2 O       -1.2590     0.1020    -3.0820 O.2   1 <1>  -0.6500 
  3 O        1.1410    -0.4670    -2.7420 O.2   1 <1>  -0.6500 
  4 N        0.0680     1.2730    -1.2180 N.am  1 <1>  -0.6930 
  5 C       -0.6050    -1.4240    -0.9680 C.ar  1 <1>  -0.0090 
  6 C       -0.9330     1.7910    -0.3980 C.ar  1 <1>   0.1990 
  7 C        1.4020     1.9520    -1.2660 C.3   1 <1>   0.2570 
  8 C       -1.5750    -2.3760    -1.2630 C.ar  1 <1>  -0.1500 
  9 C        0.0170    -1.5010     0.2740 C.ar  1 <1>  -0.1500 
 10 C       -2.1880     2.1130    -0.9010 C.ar  1 <1>  -0.1500 
 11 C       -0.6950     2.0000     0.9560 C.ar  1 <1>  -0.1500 
 12 C        2.4830     1.2940    -0.4000 C.2   1 <1>   0.5690 
 13 C       -1.9140    -3.3650    -0.3560 C.ar  1 <1>  -0.1500 
 14 C       -0.3150    -2.4860     1.1880 C.ar  1 <1>  -0.1500 
 15 C       -3.1780     2.6160    -0.0770 C.ar  1 <1>  -0.1500 
 16 C       -1.6820     2.5060     1.7830 C.ar  1 <1>  -0.1500 
 17 O        2.7830     1.8230     0.6440 O.2   1 <1>  -0.5700 
 18 N        3.0640     0.1380    -0.8290 N.am  1 <1>  -0.7300 
 19 C       -1.2830    -3.4200     0.8720 C.ar  1 <1>  -0.1500 
 20 C       -2.9310     2.8170     1.2710 C.ar  1 <1>  -0.1430 
 21 C        4.1370    -0.6600    -0.1950 C.3   1 <1>   0.2200 
 22 C       -4.0160     3.3670     2.1780 C.3   1 <1>  -0.0970 
 23 C        3.6910    -1.2470     1.1480 C.3   1 <1>  -0.1600 
 24 C        5.3970     0.1690     0.0830 C.3   1 <1>  -0.1600 
 25 C        4.9090    -1.1310     2.0620 C.3   1 <1>  -0.1600 
 26 C        5.5950     0.1490     1.6000 C.3   1 <1>  -0.1600 
 27 H        1.2860     2.9680    -0.9350 H     1 <1>   0.0800 
 28 H        1.7470     1.9860    -2.2840 H     1 <1>   0.0800 
 29 H       -2.0750    -2.3420    -2.2180 H     1 <1>   0.1500 
 30 H        0.7700    -0.7810     0.5370 H     1 <1>   0.1500 
 31 H       -2.3970     1.9770    -1.9470 H     1 <1>   0.1500 
 32 H        0.2660     1.7630     1.3740 H     1 <1>   0.1500 
 33 H       -2.6700    -4.0900    -0.6060 H     1 <1>   0.1500 
 34 H        0.1790    -2.5220     2.1440 H     1 <1>   0.1500 
 35 H       -4.1430     2.8530    -0.4910 H     1 <1>   0.1500 
 36 H       -1.4730     2.6550     2.8280 H     1 <1>   0.1500 
 37 H        2.6980    -0.2740    -1.7010 H     1 <1>   0.3700 
 38 H       -1.5450    -4.1880     1.5810 H     1 <1>   0.1500 
 39 H        4.4010    -1.4670    -0.8580 H     1 <1>   0.0800 
 40 H       -3.5830     3.9470     2.9730 H     1 <1>   0.0800 
 41 H       -4.5770     2.5560     2.6060 H     1 <1>   0.0800 
 42 H       -4.6860     3.9990     1.6230 H     1 <1>   0.0800 
 43 H        3.3670    -2.2670     1.0480 H     1 <1>   0.0800 
 44 H        2.8980    -0.6580     1.5720 H     1 <1>   0.0800 
 45 H        5.3220     1.1760    -0.2860 H     1 <1>   0.0800 
 46 H        6.2370    -0.3120    -0.3850 H     1 <1>   0.0800 
 47 H        5.5650    -1.9700     1.9040 H     1 <1>   0.0800 
 48 H        4.6320    -1.0870     3.1020 H     1 <1>   0.0800 
 49 H        5.0880     0.9970     2.0310 H     1 <1>   0.0800 
 50 H        6.6340     0.1800     1.8770 H     1 <1>   0.0800 
@<TRIPOS>BOND
  1   1   2  2   
  2   1   3  2   
  3   1   4  am  
  4   1   5  1   
  5   4   6  1   
  6   4   7  1   
  7   5   8  ar  
  8   5   9  ar  
  9   6  10  ar  
 10   6  11  ar  
 11   7  12  1   
 12   7  27  1   
 13   7  28  1   
 14   8  13  ar  
 15   8  29  1   
 16   9  14  ar  
 17   9  30  1   
 18  10  15  ar  
 19  10  31  1   
 20  11  16  ar  
 21  11  32  1   
 22  12  17  2   
 23  12  18  am  
 24  13  19  ar  
 25  13  33  1   
 26  14  19  ar  
 27  14  34  1   
 28  15  20  ar  
 29  15  35  1   
 30  16  20  ar  
 31  16  36  1   
 32  18  21  1   
 33  18  37  1   
 34  19  38  1   
 35  20  22  1   
 36  21  23  1   
 37  21  24  1   
 38  21  39  1   
 39  22  40  1   
 40  22  41  1   
 41  22  42  1   
 42  23  25  1   
 43  23  43  1   
 44  23  44  1   
 45  24  26  1   
 46  24  45  1   
 47  24  46  1   
 48  25  26  1   
 49  25  47  1   
 50  25  48  1   
 51  26  49  1   
 52  26  50  1   
@<TRIPOS>SUBSTRUCTURE
  1 ****   4 GROUP 4 **** **** 0

# MOE 2024.06 (io_trps.svl 2023.06)
