@<TRIPOS>MOLECULE
NONAME
47 48 1 0 0 
SMALL
USER_CHARGES


@<TRIPOS>ATOM
  1 O       -8.3240     3.1210    -1.7850 O.3   1 <1>  -0.3630 
  2 C       -7.9410     4.2990    -1.2240 C.ar  1 <1>   0.0830 
  3 C       -9.4450     3.1000    -2.6500 C.3   1 <1>   0.1200 
  4 C       -7.5520     4.3230     0.1190 C.ar  1 <1>   0.0830 
  5 C       -7.9410     5.4800    -1.9550 C.ar  1 <1>  -0.1500 
  6 C      -10.2300     1.7910    -2.4520 C.3   1 <1>   0.1100 
  7 O       -7.5260     3.1980     0.8760 O.3   1 <1>  -0.3630 
  8 C       -7.2040     5.5200     0.7200 C.ar  1 <1>  -0.1500 
  9 C       -7.5840     6.6730    -1.3500 C.ar  1 <1>  -0.1500 
 10 N      -11.0910     1.7780    -1.2420 N.3   1 <1>  -0.8100 
 11 C       -6.4630     2.3120     0.6090 C.3   1 <1>   0.1200 
 12 C       -7.2200     6.6950    -0.0130 C.ar  1 <1>  -0.1500 
 13 C      -11.8680     0.5210    -1.1590 C.3   1 <1>   0.1100 
 14 C      -10.3150     1.9960     0.0110 C.3   1 <1>   0.1100 
 15 C       -6.5430     1.1500     1.6000 C.3   1 <1>  -0.1600 
 16 C      -12.8570     0.5210     0.0350 C.3   1 <1>   0.3430 
 17 C      -11.1140     1.7100     1.3000 C.3   1 <1>   0.3430 
 18 C       -5.4140     0.1410     1.3640 C.3   1 <1>  -0.2400 
 19 N      -12.5780     1.6440     0.9920 N.4   1 <1>  -0.9590 
 20 C      -13.4420     1.6270     2.2050 C.3   1 <1>   0.2630 
 21 H       -9.0740     3.1670    -3.6570 H     1 <1>   0.0800 
 22 H      -10.0820     3.9430    -2.4430 H     1 <1>   0.0800 
 23 H       -8.2130     5.4780    -2.9950 H     1 <1>   0.1500 
 24 H       -9.5370     0.9660    -2.4320 H     1 <1>   0.0800 
 25 H      -10.8640     1.6640    -3.3130 H     1 <1>   0.0800 
 26 H       -6.9200     5.5300     1.7560 H     1 <1>   0.1500 
 27 H       -7.5880     7.5870    -1.9180 H     1 <1>   0.1500 
 28 H       -5.5370     2.8510     0.7230 H     1 <1>   0.0800 
 29 H       -6.5520     1.9600    -0.4040 H     1 <1>   0.0800 
 30 H       -6.9460     7.6250     0.4550 H     1 <1>   0.1500 
 31 H      -11.1930    -0.3120    -1.0570 H     1 <1>   0.0800 
 32 H      -12.4240     0.3770    -2.0690 H     1 <1>   0.0800 
 33 H      -10.0120     3.0270     0.0500 H     1 <1>   0.0800 
 34 H       -9.4200     1.3960     0.0090 H     1 <1>   0.0800 
 35 H       -7.4890     0.6510     1.4880 H     1 <1>   0.0800 
 36 H       -6.4690     1.5350     2.6020 H     1 <1>   0.0800 
 37 H      -12.7920    -0.4270     0.5430 H     1 <1>   0.0800 
 38 H      -13.8590     0.6190    -0.3480 H     1 <1>   0.0800 
 39 H      -10.9100     2.4890     2.0170 H     1 <1>   0.0800 
 40 H      -10.7850     0.7760     1.7220 H     1 <1>   0.0800 
 41 H       -5.4730    -0.2680     0.3710 H     1 <1>   0.0800 
 42 H       -5.4870    -0.6670     2.0710 H     1 <1>   0.0800 
 43 H       -4.4550     0.6140     1.4870 H     1 <1>   0.0800 
 44 H      -12.7430     2.4960     0.4310 H     1 <1>   0.4500 
 45 H      -13.2560     0.7380     2.7850 H     1 <1>   0.0800 
 46 H      -14.4820     1.6450     1.9230 H     1 <1>   0.0800 
 47 H      -13.2380     2.4890     2.8200 H     1 <1>   0.0800 
@<TRIPOS>BOND
  1   1   2  1   
  2   1   3  1   
  3   2   4  ar  
  4   2   5  ar  
  5   3   6  1   
  6   3  21  1   
  7   3  22  1   
  8   4   7  1   
  9   4   8  ar  
 10   5   9  ar  
 11   5  23  1   
 12   6  10  1   
 13   6  24  1   
 14   6  25  1   
 15   7  11  1   
 16   8  12  ar  
 17   8  26  1   
 18   9  12  ar  
 19   9  27  1   
 20  10  13  1   
 21  10  14  1   
 22  11  15  1   
 23  11  28  1   
 24  11  29  1   
 25  12  30  1   
 26  13  16  1   
 27  13  31  1   
 28  13  32  1   
 29  14  17  1   
 30  14  33  1   
 31  14  34  1   
 32  15  18  1   
 33  15  35  1   
 34  15  36  1   
 35  16  19  1   
 36  16  37  1   
 37  16  38  1   
 38  17  19  1   
 39  17  39  1   
 40  17  40  1   
 41  18  41  1   
 42  18  42  1   
 43  18  43  1   
 44  19  20  1   
 45  19  44  1   
 46  20  45  1   
 47  20  46  1   
 48  20  47  1   
@<TRIPOS>SUBSTRUCTURE
  1 ****  14 GROUP 4 **** **** 0

# MOE 2024.06 (io_trps.svl 2023.06)
