@<TRIPOS>MOLECULE
NONAME
31 33 1 0 0 
SMALL
USER_CHARGES


@<TRIPOS>ATOM
  1 O       -0.4590    -0.0910    -0.0030 O.2   1 <1>  -0.5700 
  2 C       -1.5370     0.4430    -0.0590 C.2   1 <1>   0.5940 
  3 C       -2.7770    -0.2610    -0.0460 C.2   1 <1>  -0.2370 
  4 C       -1.6330     1.9600    -0.1720 C.3   1 <1>  -0.0990 
  5 N       -2.9330    -1.6210    -0.0050 N.pl3 1 <1>   0.0330 
  6 C       -4.0110     0.3100    -0.0780 C.2   1 <1>  -0.1810 
  7 C       -2.9510     2.5250     0.4160 C.3   1 <1>  -0.1600 
  8 C       -4.2730    -1.9120    -0.0190 C.ar  1 <1>  -0.1520 
  9 C       -4.9770    -0.7110    -0.0670 C.ar  1 <1>   0.0000 
 10 C       -4.2100     1.8130    -0.1230 C.3   1 <1>   0.0210 
 11 C       -4.9440    -3.1390     0.0060 C.ar  1 <1>  -0.1430 
 12 C       -6.3760    -0.7290    -0.0930 C.ar  1 <1>  -0.1500 
 13 C       -6.3200    -3.1330    -0.0200 C.ar  1 <1>  -0.1500 
 14 C       -4.1570    -4.4370     0.0590 C.3   1 <1>  -0.0970 
 15 C       -7.0430    -1.9320    -0.0690 C.ar  1 <1>  -0.1430 
 16 C       -8.5590    -1.9890    -0.0960 C.3   1 <1>  -0.0970 
 17 H       -1.5630     2.2170    -1.2130 H     1 <1>   0.0800 
 18 H       -0.7940     2.3980     0.3360 H     1 <1>   0.0800 
 19 H       -2.1650    -2.2990     0.0290 H     1 <1>   0.2700 
 20 H       -3.0180     3.5800     0.2170 H     1 <1>   0.0800 
 21 H       -2.9260     2.3950     1.4850 H     1 <1>   0.0800 
 22 H       -5.0650     2.0850     0.4710 H     1 <1>   0.0800 
 23 H       -4.3960     2.1080    -1.1410 H     1 <1>   0.0800 
 24 H       -6.9030     0.2050    -0.1310 H     1 <1>   0.1500 
 25 H       -6.8650    -4.0600    -0.0020 H     1 <1>   0.1500 
 26 H       -3.5210    -4.5150    -0.8040 H     1 <1>   0.0800 
 27 H       -4.8190    -5.2840     0.0730 H     1 <1>   0.0800 
 28 H       -3.5520    -4.4620     0.9470 H     1 <1>   0.0800 
 29 H       -8.9790    -1.0000    -0.1330 H     1 <1>   0.0800 
 30 H       -8.9210    -2.4820     0.7880 H     1 <1>   0.0800 
 31 H       -8.8880    -2.5350    -0.9610 H     1 <1>   0.0800 
@<TRIPOS>BOND
  1   1   2  2   
  2   2   3  1   
  3   2   4  1   
  4   3   5  1   
  5   3   6  2   
  6   4   7  1   
  7   4  17  1   
  8   4  18  1   
  9   5   8  1   
 10   5  19  1   
 11   6   9  1   
 12   6  10  1   
 13   7  10  1   
 14   7  20  1   
 15   7  21  1   
 16   8   9  ar  
 17   8  11  ar  
 18   9  12  ar  
 19  10  22  1   
 20  10  23  1   
 21  11  13  ar  
 22  11  14  1   
 23  12  15  ar  
 24  12  24  1   
 25  13  15  ar  
 26  13  25  1   
 27  14  26  1   
 28  14  27  1   
 29  14  28  1   
 30  15  16  1   
 31  16  29  1   
 32  16  30  1   
 33  16  31  1   
@<TRIPOS>SUBSTRUCTURE
  1 ****   9 GROUP 4 **** **** 0

# MOE 2024.06 (io_trps.svl 2023.06)
