@<TRIPOS>MOLECULE
NONAME
43 45 1 0 0 
SMALL
USER_CHARGES


@<TRIPOS>ATOM
  1 S        1.3920     0.9660    -0.4420 S.o2  1 <1>   1.3330 
  2 O        2.0840     1.9710    -1.2170 O.2   1 <1>  -0.6500 
  3 O        2.1390    -0.0280     0.2830 O.2   1 <1>  -0.6500 
  4 N        0.4510     1.8490     0.7110 N.am  1 <1>  -0.6930 
  5 C        0.1920     0.1310    -1.4620 C.3   1 <1>  -0.1350 
  6 C       -0.8540     2.2140     0.4030 C.ar  1 <1>   0.1990 
  7 C        1.1920     2.8310     1.5750 C.3   1 <1>   0.2570 
  8 C       -1.9150     1.6020     1.0570 C.ar  1 <1>  -0.1500 
  9 C       -1.1160     3.1810    -0.5630 C.ar  1 <1>  -0.1500 
 10 C        2.5980     2.4490     2.0600 C.2   1 <1>   0.5690 
 11 C       -3.2180     1.9420     0.7450 C.ar  1 <1>   0.0820 
 12 C       -2.4190     3.5320    -0.8760 C.ar  1 <1>  -0.1500 
 13 O        2.7600     2.1670     3.2240 O.2   1 <1>  -0.5700 
 14 N        3.6430     2.4920     1.1950 N.am  1 <1>  -0.7300 
 15 O       -4.2320     1.3090     1.3870 O.3   1 <1>  -0.3630 
 16 C       -3.4720     2.9180    -0.2210 C.ar  1 <1>   0.0830 
 17 C        4.9880     1.9850     1.5230 C.3   1 <1>   0.3200 
 18 C       -5.5310     1.4570     0.8430 C.3   1 <1>   0.1200 
 19 O       -4.7440     3.2860    -0.5350 O.3   1 <1>  -0.3630 
 20 C        5.8780     1.9840     0.2900 C.2   1 <1>  -0.0400 
 21 C       -5.7550     2.9030     0.3790 C.3   1 <1>   0.1200 
 22 O        7.1540     1.6840     0.4480 O.3   1 <1>  -0.2800 
 23 C        5.6170     2.2410    -1.0130 C.2   1 <1>  -0.1500 
 24 C        7.7300     1.7400    -0.7350 C.2   1 <1>  -0.0100 
 25 C        6.8350     2.0810    -1.6850 C.2   1 <1>  -0.1500 
 26 H        0.6920    -0.4810    -2.1860 H     1 <1>   0.0800 
 27 H       -0.4230     0.8390    -1.9820 H     1 <1>   0.0800 
 28 H       -0.4340    -0.4960    -0.8580 H     1 <1>   0.0800 
 29 H        0.5940     3.0260     2.4480 H     1 <1>   0.0800 
 30 H        1.2810     3.7570     1.0370 H     1 <1>   0.0800 
 31 H       -1.7230     0.8570     1.8070 H     1 <1>   0.1500 
 32 H       -0.2970     3.6590    -1.0720 H     1 <1>   0.1500 
 33 H       -2.6260     4.2800    -1.6200 H     1 <1>   0.1500 
 34 H        3.4550     2.5540     0.1870 H     1 <1>   0.3700 
 35 H        4.9090     0.9820     1.9080 H     1 <1>   0.0800 
 36 H        5.4250     2.6090     2.2840 H     1 <1>   0.0800 
 37 H       -6.2410     1.1850     1.6030 H     1 <1>   0.0800 
 38 H       -5.6260     0.7790     0.0130 H     1 <1>   0.0800 
 39 H       -5.7210     3.5750     1.2180 H     1 <1>   0.0800 
 40 H       -6.7040     3.0040    -0.1160 H     1 <1>   0.0800 
 41 H        4.6890     2.5100    -1.4840 H     1 <1>   0.1500 
 42 H        8.7810     1.5230    -0.8110 H     1 <1>   0.1500 
 43 H        6.9870     2.2090    -2.7420 H     1 <1>   0.1500 
@<TRIPOS>BOND
  1   1   2  2   
  2   1   3  2   
  3   1   4  am  
  4   1   5  1   
  5   4   6  1   
  6   4   7  1   
  7   5  26  1   
  8   5  27  1   
  9   5  28  1   
 10   6   8  ar  
 11   6   9  ar  
 12   7  10  1   
 13   7  29  1   
 14   7  30  1   
 15   8  11  ar  
 16   8  31  1   
 17   9  12  ar  
 18   9  32  1   
 19  10  13  2   
 20  10  14  am  
 21  11  15  1   
 22  11  16  ar  
 23  12  16  ar  
 24  12  33  1   
 25  14  17  1   
 26  14  34  1   
 27  15  18  1   
 28  16  19  1   
 29  17  20  1   
 30  17  35  1   
 31  17  36  1   
 32  18  21  1   
 33  18  37  1   
 34  18  38  1   
 35  19  21  1   
 36  20  22  1   
 37  20  23  2   
 38  21  39  1   
 39  21  40  1   
 40  22  24  1   
 41  23  25  1   
 42  23  41  1   
 43  24  25  2   
 44  24  42  1   
 45  25  43  1   
@<TRIPOS>SUBSTRUCTURE
  1 ****   4 GROUP 4 **** **** 0

# MOE 2024.06 (io_trps.svl 2023.06)
