@<TRIPOS>MOLECULE
NONAME
39 39 1 0 0 
SMALL
USER_CHARGES


@<TRIPOS>ATOM
  1 O       -0.5310    -0.0160     0.5130 O.3   1 <1>  -0.5600 
  2 C       -1.4810     0.9350     0.1810 C.3   1 <1>   0.4800 
  3 C        0.6280     0.2830    -0.1690 C.3   1 <1>   0.2000 
  4 O       -1.2130     1.2620    -1.1390 O.3   1 <1>  -0.5600 
  5 C       -2.8820     0.3370     0.3190 C.3   1 <1>  -0.1600 
  6 C        0.1480     1.1270    -1.3430 C.3   1 <1>   0.1200 
  7 C        1.5700     1.0220     0.7840 C.3   1 <1>  -0.2400 
  8 C       -4.0250     1.2680    -0.1380 C.3   1 <1>  -0.0800 
  9 C       -5.3610     0.4990    -0.0720 C.3   1 <1>  -0.1600 
 10 C       -4.0670     2.5510     0.7110 C.3   1 <1>  -0.2400 
 11 C       -6.5440     1.2470    -0.7030 C.3   1 <1>  -0.0220 
 12 C       -7.7770     0.3550    -0.7160 C.2   1 <1>  -0.2880 
 13 C       -8.9240     0.4910    -0.0380 C.2   1 <1>  -0.2760 
 14 C      -10.0590    -0.5080    -0.1950 C.3   1 <1>  -0.1020 
 15 C       -9.2700     1.5980     0.9500 C.3   1 <1>  -0.1020 
 16 H       -1.3380     1.8050     0.8000 H     1 <1>   0.0800 
 17 H        1.0710    -0.6380    -0.5060 H     1 <1>   0.0800 
 18 H       -2.9040    -0.5680    -0.2620 H     1 <1>   0.0800 
 19 H       -3.0320     0.0720     1.3490 H     1 <1>   0.0800 
 20 H        0.3090     0.6300    -2.2830 H     1 <1>   0.0800 
 21 H        0.6010     2.1020    -1.3570 H     1 <1>   0.0800 
 22 H        1.1210     1.9320     1.1380 H     1 <1>   0.0800 
 23 H        2.4850     1.2650     0.2760 H     1 <1>   0.0800 
 24 H        1.8050     0.3910     1.6220 H     1 <1>   0.0800 
 25 H       -3.8430     1.5410    -1.1660 H     1 <1>   0.0800 
 26 H       -5.2470    -0.4360    -0.5920 H     1 <1>   0.0800 
 27 H       -5.5990     0.2700     0.9530 H     1 <1>   0.0800 
 28 H       -4.2570     2.3150     1.7430 H     1 <1>   0.0800 
 29 H       -4.8360     3.2160     0.3640 H     1 <1>   0.0800 
 30 H       -3.1370     3.0840     0.6430 H     1 <1>   0.0800 
 31 H       -6.3020     1.5170    -1.7160 H     1 <1>   0.0800 
 32 H       -6.7370     2.1530    -0.1650 H     1 <1>   0.0800 
 33 H       -7.6300    -0.4750    -1.3860 H     1 <1>   0.1500 
 34 H      -10.2780    -0.9720     0.7500 H     1 <1>   0.0800 
 35 H       -9.7960    -1.2790    -0.8970 H     1 <1>   0.0800 
 36 H      -10.9430    -0.0120    -0.5530 H     1 <1>   0.0800 
 37 H      -10.1120     2.1610     0.5880 H     1 <1>   0.0800 
 38 H       -8.4550     2.2760     1.1050 H     1 <1>   0.0800 
 39 H       -9.5260     1.1700     1.9020 H     1 <1>   0.0800 
@<TRIPOS>BOND
  1   1   2  1   
  2   1   3  1   
  3   2   4  1   
  4   2   5  1   
  5   2  16  1   
  6   3   6  1   
  7   3   7  1   
  8   3  17  1   
  9   4   6  1   
 10   5   8  1   
 11   5  18  1   
 12   5  19  1   
 13   6  20  1   
 14   6  21  1   
 15   7  22  1   
 16   7  23  1   
 17   7  24  1   
 18   8   9  1   
 19   8  10  1   
 20   8  25  1   
 21   9  11  1   
 22   9  26  1   
 23   9  27  1   
 24  10  28  1   
 25  10  29  1   
 26  10  30  1   
 27  11  12  1   
 28  11  31  1   
 29  11  32  1   
 30  12  13  2   
 31  12  33  1   
 32  13  14  1   
 33  13  15  1   
 34  14  34  1   
 35  14  35  1   
 36  14  36  1   
 37  15  37  1   
 38  15  38  1   
 39  15  39  1   
@<TRIPOS>SUBSTRUCTURE
  1 ****   8 GROUP 4 **** **** 0

# MOE 2024.06 (io_trps.svl 2023.06)
