@<TRIPOS>MOLECULE
NONAME
36 37 1 0 0 
SMALL
USER_CHARGES


@<TRIPOS>ATOM
  1 O       -7.8710     4.4990     0.0130 O.3   1 <1>  -0.3630 
  2 C       -6.7570     3.7330    -0.0060 C.ar  1 <1>   0.0830 
  3 C       -9.1990     4.0270     0.0400 C.3   1 <1>   0.0400 
  4 C       -6.7070     2.3160    -0.0520 C.ar  1 <1>   0.0830 
  5 C       -5.5790     4.4320     0.0160 C.ar  1 <1>  -0.1500 
  6 O       -7.8670     1.6080    -0.1060 O.3   1 <1>  -0.3630 
  7 C       -5.4800     1.6980    -0.0490 C.ar  1 <1>  -0.1500 
  8 C       -4.3120     3.8170     0.0100 C.ar  1 <1>   0.0000 
  9 C       -7.9290     0.1980    -0.1350 C.3   1 <1>   0.0400 
 10 C       -4.2480     2.4030     0.0150 C.ar  1 <1>   0.0000 
 11 C       -3.0960     4.5490    -0.0010 C.ar  1 <1>   0.0730 
 12 C       -2.9790     1.7820     0.0610 C.ar  1 <1>   0.2180 
 13 C       -3.1580     5.9830    -0.0080 C.1   1 <1>   0.4840 
 14 C       -1.8880     3.8890    -0.0130 C.ar  1 <1>   0.2180 
 15 N       -1.8430     2.5020    -0.0210 N.ar  1 <1>  -0.2100 
 16 C       -2.9160     0.2540     0.2260 C.3   1 <1>  -0.0970 
 17 N       -3.1530     7.1220    -0.0140 N.1   1 <1>  -0.5570 
 18 C       -0.5540     4.6630     0.0020 C.3   1 <1>  -0.0970 
 19 C       -0.5030     1.8160    -0.1330 C.3   1 <1>   0.2480 
 20 H       -9.8560     4.8760     0.0880 H     1 <1>   0.0800 
 21 H       -9.3320     3.4100     0.9120 H     1 <1>   0.0800 
 22 H       -9.3880     3.4680    -0.8590 H     1 <1>   0.0800 
 23 H       -5.6670     5.5050     0.0370 H     1 <1>   0.1500 
 24 H       -5.4540     0.6310    -0.1140 H     1 <1>   0.1500 
 25 H       -8.9650    -0.0900    -0.1590 H     1 <1>   0.0800 
 26 H       -7.4660    -0.1930     0.7540 H     1 <1>   0.0800 
 27 H       -7.4340    -0.1570    -1.0220 H     1 <1>   0.0800 
 28 H       -3.7250    -0.1050     0.8350 H     1 <1>   0.0800 
 29 H       -2.0290    -0.0720     0.7370 H     1 <1>   0.0800 
 30 H       -2.9670    -0.2270    -0.7360 H     1 <1>   0.0800 
 31 H       -0.6650     5.7120     0.2080 H     1 <1>   0.0800 
 32 H       -0.0650     4.5830    -0.9530 H     1 <1>   0.0800 
 33 H        0.0990     4.2820     0.7680 H     1 <1>   0.0800 
 34 H       -0.5950     0.8490    -0.5910 H     1 <1>   0.0800 
 35 H       -0.0670     1.7060     0.8450 H     1 <1>   0.0800 
 36 H        0.1690     2.3730    -0.7590 H     1 <1>   0.0800 
@<TRIPOS>BOND
  1   1   2  1   
  2   1   3  1   
  3   2   4  ar  
  4   2   5  ar  
  5   3  20  1   
  6   3  21  1   
  7   3  22  1   
  8   4   6  1   
  9   4   7  ar  
 10   5   8  ar  
 11   5  23  1   
 12   6   9  1   
 13   7  10  ar  
 14   7  24  1   
 15   8  10  ar  
 16   8  11  ar  
 17   9  25  1   
 18   9  26  1   
 19   9  27  1   
 20  10  12  ar  
 21  11  13  1   
 22  11  14  ar  
 23  12  15  ar  
 24  12  16  1   
 25  13  17  3   
 26  14  15  ar  
 27  14  18  1   
 28  15  19  1   
 29  16  28  1   
 30  16  29  1   
 31  16  30  1   
 32  18  31  1   
 33  18  32  1   
 34  18  33  1   
 35  19  34  1   
 36  19  35  1   
 37  19  36  1   
@<TRIPOS>SUBSTRUCTURE
  1 ****   8 GROUP 4 **** **** 0

# MOE 2024.06 (io_trps.svl 2023.06)
