@<TRIPOS>MOLECULE
NONAME
49 51 1 0 0 
SMALL
USER_CHARGES


@<TRIPOS>ATOM
  1 S        0.8490    -1.0520     0.8170 S.o2  1 <1>   1.5760 
  2 O        1.1690     0.3480     0.9830 O.2   1 <1>  -0.6500 
  3 O        0.5070    -1.8590     1.9660 O.2   1 <1>  -0.6500 
  4 N        2.1020    -1.8170    -0.0190 N.am  1 <1>  -0.8490 
  5 N       -0.3890    -1.1990    -0.3180 N.am  1 <1>  -0.8490 
  6 C        2.5590    -1.0880    -1.2230 C.3   1 <1>   0.1960 
  7 C        3.2270    -2.1960     0.8520 C.3   1 <1>   0.1960 
  8 C       -0.8280    -2.5910    -0.4590 C.3   1 <1>   0.1960 
  9 C       -1.5130    -0.3270     0.0260 C.3   1 <1>   0.1960 
 10 C        3.5290     0.0790    -0.9410 C.3   1 <1>   0.1400 
 11 C        4.1380    -1.0080     1.2130 C.3   1 <1>   0.1400 
 12 C       -1.8520    -2.7100    -1.5910 C.3   1 <1>  -0.1600 
 13 C       -2.5720    -0.3630    -1.0820 C.3   1 <1>  -0.1600 
 14 N        4.6270    -0.3490    -0.0290 N.am  1 <1>  -0.6600 
 15 C       -3.0560    -1.7930    -1.3500 C.3   1 <1>  -0.1600 
 16 C        5.9140     0.0860    -0.2050 C.2   1 <1>   0.6900 
 17 O        6.1440     1.0160    -0.9590 O.2   1 <1>  -0.5700 
 18 N        6.9510    -0.5320     0.4400 N.am  1 <1>  -0.6600 
 19 C        8.2200     0.2090     0.6940 C.3   1 <1>   0.1400 
 20 C        7.1590    -1.9990     0.2810 C.3   1 <1>   0.1400 
 21 C        9.2970    -0.1960    -0.3250 C.3   1 <1>   0.1200 
 22 C        8.2990    -2.2790    -0.7140 C.3   1 <1>   0.1200 
 23 O        9.4570    -1.5880    -0.3430 O.3   1 <1>  -0.5600 
 24 H        1.7100    -0.7180    -1.7720 H     1 <1>   0.0800 
 25 H        3.0660    -1.7870    -1.8650 H     1 <1>   0.0800 
 26 H        3.8210    -2.9350     0.3440 H     1 <1>   0.0800 
 27 H        2.8570    -2.6530     1.7540 H     1 <1>   0.0800 
 28 H       -1.2620    -2.9360     0.4660 H     1 <1>   0.0800 
 29 H        0.0180    -3.2180    -0.6860 H     1 <1>   0.0800 
 30 H       -1.1650     0.6870     0.1370 H     1 <1>   0.0800 
 31 H       -1.9450    -0.6400     0.9630 H     1 <1>   0.0800 
 32 H        3.0060     0.9080    -0.5010 H     1 <1>   0.0800 
 33 H        3.9410     0.4210    -1.8750 H     1 <1>   0.0800 
 34 H        4.9610    -1.3530     1.8110 H     1 <1>   0.0800 
 35 H        3.5900    -0.2920     1.8000 H     1 <1>   0.0800 
 36 H       -2.1830    -3.7300    -1.6670 H     1 <1>   0.0800 
 37 H       -1.3730    -2.4490    -2.5190 H     1 <1>   0.0800 
 38 H       -2.1450     0.0500    -1.9790 H     1 <1>   0.0800 
 39 H       -3.4050     0.2550    -0.8000 H     1 <1>   0.0800 
 40 H       -3.6110    -2.1480    -0.4980 H     1 <1>   0.0800 
 41 H       -3.7090    -1.8070    -2.2060 H     1 <1>   0.0800 
 42 H        8.5670    -0.0120     1.6870 H     1 <1>   0.0800 
 43 H        8.0460     1.2700     0.6320 H     1 <1>   0.0800 
 44 H        6.2600    -2.4650    -0.0800 H     1 <1>   0.0800 
 45 H        7.4050    -2.4300     1.2350 H     1 <1>   0.0800 
 46 H       10.2430     0.2420    -0.0600 H     1 <1>   0.0800 
 47 H        9.0250     0.1370    -1.3120 H     1 <1>   0.0800 
 48 H        8.0170    -1.9710    -1.7060 H     1 <1>   0.0800 
 49 H        8.5330    -3.3280    -0.7280 H     1 <1>   0.0800 
@<TRIPOS>BOND
  1   1   2  2   
  2   1   3  2   
  3   1   4  am  
  4   1   5  am  
  5   4   6  1   
  6   4   7  1   
  7   5   8  1   
  8   5   9  1   
  9   6  10  1   
 10   6  24  1   
 11   6  25  1   
 12   7  11  1   
 13   7  26  1   
 14   7  27  1   
 15   8  12  1   
 16   8  28  1   
 17   8  29  1   
 18   9  13  1   
 19   9  30  1   
 20   9  31  1   
 21  10  14  1   
 22  10  32  1   
 23  10  33  1   
 24  11  14  1   
 25  11  34  1   
 26  11  35  1   
 27  12  15  1   
 28  12  36  1   
 29  12  37  1   
 30  13  15  1   
 31  13  38  1   
 32  13  39  1   
 33  14  16  am  
 34  15  40  1   
 35  15  41  1   
 36  16  17  2   
 37  16  18  am  
 38  18  19  1   
 39  18  20  1   
 40  19  21  1   
 41  19  42  1   
 42  19  43  1   
 43  20  22  1   
 44  20  44  1   
 45  20  45  1   
 46  21  23  1   
 47  21  46  1   
 48  21  47  1   
 49  22  23  1   
 50  22  48  1   
 51  22  49  1   
@<TRIPOS>SUBSTRUCTURE
  1 ****   6 GROUP 4 **** **** 0

# MOE 2024.06 (io_trps.svl 2023.06)
