@<TRIPOS>MOLECULE
NONAME
59 63 1 0 0 
SMALL
USER_CHARGES


@<TRIPOS>ATOM
  1 S        0.9790    -3.1070     0.0080 S.o2  1 <1>   1.4970 
  2 O        1.6910    -2.9540     1.2640 O.2   1 <1>  -0.6500 
  3 O        1.5250    -4.0280    -0.9660 O.2   1 <1>  -0.6500 
  4 N        0.8770    -1.6110    -0.7160 N.2   1 <1>  -0.6380 
  5 C       -0.7540    -3.5430     0.3350 C.ar  1 <1>  -0.0090 
  6 C        1.9480    -0.9600    -0.8980 C.2   1 <1>   0.7110 
  7 C       -1.3200    -3.3770     1.5960 C.ar  1 <1>  -0.1500 
  8 C       -1.5700    -4.0480    -0.6730 C.ar  1 <1>  -0.1500 
  9 N        3.2000    -1.3190    -0.4170 N.pl3 1 <1>  -0.5500 
 10 N        1.8590     0.2050    -1.6260 N.2   1 <1>  -0.6610 
 11 C       -2.6420    -3.7050     1.8410 C.ar  1 <1>  -0.1500 
 12 C       -2.8920    -4.3770    -0.4340 C.ar  1 <1>  -0.1500 
 13 C        4.3400    -0.6160    -0.6800 C.2   1 <1>  -0.0380 
 14 C        2.9240     0.8760    -1.8730 C.2   1 <1>   0.3760 
 15 C       -3.4460    -4.2010     0.8250 C.ar  1 <1>   0.1170 
 16 C        4.2130     0.5030    -1.4260 C.2   1 <1>  -0.1360 
 17 C        5.6420    -1.1420    -0.1120 C.3   1 <1>  -0.1020 
 18 N       -4.7800    -4.5310     1.0620 N.am  1 <1>  -0.5470 
 19 C       -5.9260    -3.7930     1.1600 C.2   1 <1>   0.5690 
 20 O       -6.9160    -4.3970     1.4970 O.2   1 <1>  -0.5700 
 21 C       -6.0190    -2.2550     0.8990 C.3   1 <1>   0.0610 
 22 C       -5.5080    -1.5640     2.1900 C.3   1 <1>  -0.1600 
 23 C       -5.1280    -1.8420    -0.3060 C.3   1 <1>  -0.1600 
 24 C       -7.5080    -1.8920     0.5980 C.3   1 <1>  -0.1600 
 25 C       -5.8000    -0.0760     2.4450 C.3   1 <1>  -0.1600 
 26 C       -5.4230    -0.4600    -0.9030 C.3   1 <1>  -0.0800 
 27 C       -7.7820    -0.5530    -0.1160 C.3   1 <1>  -0.0800 
 28 C       -6.1120     0.8300     1.2450 C.3   1 <1>  -0.0800 
 29 C       -5.1140     0.6900     0.0760 C.3   1 <1>  -0.1600 
 30 C       -6.8850    -0.4160    -1.3470 C.3   1 <1>  -0.1600 
 31 C       -7.5700     0.6650     0.7890 C.3   1 <1>  -0.1600 
 32 H       -0.7160    -2.9870     2.3990 H     1 <1>   0.1500 
 33 H       -1.1590    -4.1860    -1.6610 H     1 <1>   0.1500 
 34 H        3.2190    -2.1090     0.2380 H     1 <1>   0.4000 
 35 H       -3.0550    -3.5780     2.8260 H     1 <1>   0.1500 
 36 H       -3.5030    -4.7680    -1.2290 H     1 <1>   0.1500 
 37 H        2.8480     1.7800    -2.4510 H     1 <1>   0.0600 
 38 H        5.0460     1.1260    -1.6910 H     1 <1>   0.1500 
 39 H        5.8340    -2.1310    -0.4890 H     1 <1>   0.0800 
 40 H        5.5850    -1.1830     0.9620 H     1 <1>   0.0800 
 41 H        6.4620    -0.5040    -0.3880 H     1 <1>   0.0800 
 42 H       -4.9650    -5.5170     1.2470 H     1 <1>   0.3700 
 43 H       -4.4430    -1.6880     2.2320 H     1 <1>   0.0800 
 44 H       -5.9010    -2.1040     3.0350 H     1 <1>   0.0800 
 45 H       -5.2610    -2.5700    -1.0870 H     1 <1>   0.0800 
 46 H       -4.0910    -1.8570    -0.0310 H     1 <1>   0.0800 
 47 H       -8.0800    -1.9380     1.5080 H     1 <1>   0.0800 
 48 H       -7.9050    -2.6550    -0.0490 H     1 <1>   0.0800 
 49 H       -4.9470     0.3360     2.9570 H     1 <1>   0.0800 
 50 H       -6.6190    -0.0080     3.1400 H     1 <1>   0.0800 
 51 H       -4.7970    -0.3360    -1.7710 H     1 <1>   0.0800 
 52 H       -8.8100    -0.5490    -0.4380 H     1 <1>   0.0800 
 53 H       -6.0220     1.8380     1.6140 H     1 <1>   0.0800 
 54 H       -4.1120     0.5920     0.4570 H     1 <1>   0.0800 
 55 H       -5.1440     1.6060    -0.4870 H     1 <1>   0.0800 
 56 H       -7.0880    -1.2140    -2.0400 H     1 <1>   0.0800 
 57 H       -7.0870     0.5140    -1.8500 H     1 <1>   0.0800 
 58 H       -8.2280     0.6060     1.6390 H     1 <1>   0.0800 
 59 H       -7.8530     1.5450     0.2380 H     1 <1>   0.0800 
@<TRIPOS>BOND
  1   1   2  2   
  2   1   3  2   
  3   1   4  1   
  4   1   5  1   
  5   4   6  2   
  6   5   7  ar  
  7   5   8  ar  
  8   6   9  1   
  9   6  10  1   
 10   7  11  ar  
 11   7  32  1   
 12   8  12  ar  
 13   8  33  1   
 14   9  13  1   
 15   9  34  1   
 16  10  14  2   
 17  11  15  ar  
 18  11  35  1   
 19  12  15  ar  
 20  12  36  1   
 21  13  16  2   
 22  13  17  1   
 23  14  16  1   
 24  14  37  1   
 25  15  18  1   
 26  16  38  1   
 27  17  39  1   
 28  17  40  1   
 29  17  41  1   
 30  18  19  am  
 31  18  42  1   
 32  19  20  2   
 33  19  21  1   
 34  21  22  1   
 35  21  23  1   
 36  21  24  1   
 37  22  25  1   
 38  22  43  1   
 39  22  44  1   
 40  23  26  1   
 41  23  45  1   
 42  23  46  1   
 43  24  27  1   
 44  24  47  1   
 45  24  48  1   
 46  25  28  1   
 47  25  49  1   
 48  25  50  1   
 49  26  29  1   
 50  26  30  1   
 51  26  51  1   
 52  27  30  1   
 53  27  31  1   
 54  27  52  1   
 55  28  29  1   
 56  28  31  1   
 57  28  53  1   
 58  29  54  1   
 59  29  55  1   
 60  30  56  1   
 61  30  57  1   
 62  31  58  1   
 63  31  59  1   
@<TRIPOS>SUBSTRUCTURE
  1 ****   5 GROUP 4 **** **** 0

# MOE 2024.06 (io_trps.svl 2023.06)
