@<TRIPOS>MOLECULE
NONAME
39 40 1 0 0 
SMALL
USER_CHARGES


@<TRIPOS>ATOM
  1 O       -2.1160     0.9360    -1.9750 O.2   1 <1>  -0.5700 
  2 C       -2.4530     1.2610    -0.8420 C.2   1 <1>   0.5440 
  3 N       -3.2850     0.4590    -0.1070 N.am  1 <1>  -0.4210 
  4 C       -2.0020     2.5120    -0.2770 C.ar  1 <1>   0.0860 
  5 N       -3.8350    -0.8540    -0.4900 N.3   1 <1>  -0.5490 
  6 C       -2.9180     3.5190     0.0560 C.ar  1 <1>   0.0830 
  7 C       -0.6400     2.7530    -0.0500 C.ar  1 <1>   0.0830 
  8 C       -5.2980    -0.6690    -0.6810 C.3   1 <1>   0.1100 
  9 C       -3.5640    -1.7880     0.6330 C.3   1 <1>   0.1100 
 10 O       -4.2390     3.2620    -0.1220 O.3   1 <1>  -0.3630 
 11 C       -2.4760     4.7400     0.5580 C.ar  1 <1>  -0.1500 
 12 O        0.2340     1.7510    -0.3120 O.3   1 <1>  -0.3630 
 13 C       -0.2120     3.9790     0.4490 C.ar  1 <1>  -0.1500 
 14 C       -5.9550    -2.0110    -1.0210 C.3   1 <1>  -0.1600 
 15 C       -4.1710    -3.1620     0.3300 C.3   1 <1>  -0.1600 
 16 C       -5.2180     4.2780    -0.1090 C.3   1 <1>   0.0400 
 17 C       -1.1270     4.9690     0.7480 C.ar  1 <1>  -0.1500 
 18 C        1.6200     1.9690    -0.4550 C.3   1 <1>   0.0400 
 19 C       -5.6800    -3.0610     0.0640 C.3   1 <1>  -0.1600 
 20 H       -3.6510     0.8630     0.7580 H     1 <1>   0.3700 
 21 H       -5.4540     0.0240    -1.4900 H     1 <1>   0.0800 
 22 H       -5.7360    -0.2600     0.2130 H     1 <1>   0.0800 
 23 H       -3.9800    -1.3960     1.5450 H     1 <1>   0.0800 
 24 H       -2.4980    -1.8840     0.7530 H     1 <1>   0.0800 
 25 H       -3.1640     5.5240     0.8110 H     1 <1>   0.1500 
 26 H        0.8290     4.1770     0.6200 H     1 <1>   0.1500 
 27 H       -5.5650    -2.3530    -1.9650 H     1 <1>   0.0800 
 28 H       -7.0150    -1.8730    -1.1340 H     1 <1>   0.0800 
 29 H       -3.9910    -3.8250     1.1570 H     1 <1>   0.0800 
 30 H       -3.6770    -3.5710    -0.5350 H     1 <1>   0.0800 
 31 H       -6.1560     3.8410    -0.3990 H     1 <1>   0.0800 
 32 H       -4.9380     5.0400    -0.8160 H     1 <1>   0.0800 
 33 H       -5.2940     4.6810     0.8850 H     1 <1>   0.0800 
 34 H       -0.7890     5.9170     1.1330 H     1 <1>   0.1500 
 35 H        2.0640     1.0540    -0.8040 H     1 <1>   0.0800 
 36 H        2.0340     2.2340     0.5010 H     1 <1>   0.0800 
 37 H        1.7770     2.7490    -1.1780 H     1 <1>   0.0800 
 38 H       -6.0620    -4.0180    -0.2460 H     1 <1>   0.0800 
 39 H       -6.1830    -2.7760     0.9720 H     1 <1>   0.0800 
@<TRIPOS>BOND
  1   1   2  2   
  2   2   3  am  
  3   2   4  1   
  4   3   5  1   
  5   3  20  1   
  6   4   6  ar  
  7   4   7  ar  
  8   5   8  1   
  9   5   9  1   
 10   6  10  1   
 11   6  11  ar  
 12   7  12  1   
 13   7  13  ar  
 14   8  14  1   
 15   8  21  1   
 16   8  22  1   
 17   9  15  1   
 18   9  23  1   
 19   9  24  1   
 20  10  16  1   
 21  11  17  ar  
 22  11  25  1   
 23  12  18  1   
 24  13  17  ar  
 25  13  26  1   
 26  14  19  1   
 27  14  27  1   
 28  14  28  1   
 29  15  19  1   
 30  15  29  1   
 31  15  30  1   
 32  16  31  1   
 33  16  32  1   
 34  16  33  1   
 35  17  34  1   
 36  18  35  1   
 37  18  36  1   
 38  18  37  1   
 39  19  38  1   
 40  19  39  1   
@<TRIPOS>SUBSTRUCTURE
  1 ****   2 GROUP 4 **** **** 0

# MOE 2024.06 (io_trps.svl 2023.06)
