@<TRIPOS>MOLECULE
NONAME
47 48 1 0 0 
SMALL
USER_CHARGES


@<TRIPOS>ATOM
  1 S       -0.1270    -0.0730    -0.2480 S.o2  1 <1>   1.3330 
  2 O        0.0390    -0.4740    -1.6270 O.2   1 <1>  -0.6500 
  3 O        0.2690    -0.9690     0.8150 O.2   1 <1>  -0.6500 
  4 N       -1.7570     0.3190    -0.0160 N.am  1 <1>  -0.8490 
  5 C        0.6940     1.5020     0.0170 C.3   1 <1>  -0.0550 
  6 C       -2.5360    -0.8480     0.4580 C.3   1 <1>   0.1960 
  7 C       -2.3930     0.8600    -1.2400 C.3   1 <1>   0.1960 
  8 C        2.2230     1.4340    -0.1270 C.3   1 <1>  -0.1600 
  9 C       -4.0120    -0.5050     0.7420 C.3   1 <1>   0.2090 
 10 C       -3.8530     1.2890    -1.0040 C.3   1 <1>   0.2090 
 11 C        2.8670     2.8050     0.1080 C.3   1 <1>  -0.1600 
 12 N       -4.6400     0.1640    -0.4310 N.pl3 1 <1>  -0.8380 
 13 C        4.3890     2.7280    -0.0370 C.3   1 <1>  -0.2400 
 14 C       -6.0200     0.0950    -0.6170 C.ar  1 <1>   0.1000 
 15 C       -6.9360     0.9900    -0.0460 C.ar  1 <1>  -0.1440 
 16 C       -6.4890    -0.9270    -1.4300 C.ar  1 <1>  -0.1500 
 17 C       -8.2950     0.8520    -0.3220 C.ar  1 <1>  -0.1440 
 18 C       -6.4590     2.1150     0.8730 C.3   1 <1>  -0.0970 
 19 C       -7.8350    -1.0700    -1.6910 C.ar  1 <1>  -0.1500 
 20 C       -8.7340    -0.1790    -1.1390 C.ar  1 <1>  -0.1500 
 21 C       -9.3410     1.8050     0.2430 C.3   1 <1>  -0.0970 
 22 H        0.4550     1.8510     1.0030 H     1 <1>   0.0800 
 23 H        0.3140     2.2170    -0.6850 H     1 <1>   0.0800 
 24 H       -2.1030    -1.2280     1.3670 H     1 <1>   0.0800 
 25 H       -2.4960    -1.6340    -0.2780 H     1 <1>   0.0800 
 26 H       -2.3820     0.1150    -2.0190 H     1 <1>   0.0800 
 27 H       -1.8370     1.7100    -1.5920 H     1 <1>   0.0800 
 28 H        2.4700     1.0820    -1.1150 H     1 <1>   0.0800 
 29 H        2.6130     0.7240     0.5840 H     1 <1>   0.0800 
 30 H       -4.0610     0.1450     1.5970 H     1 <1>   0.0800 
 31 H       -4.5550    -1.4050     0.9730 H     1 <1>   0.0800 
 32 H       -4.2980     1.5960    -1.9340 H     1 <1>   0.0800 
 33 H       -3.8700     2.1250    -0.3280 H     1 <1>   0.0800 
 34 H        2.6250     3.1560     1.0980 H     1 <1>   0.0800 
 35 H        2.4810     3.5160    -0.6030 H     1 <1>   0.0800 
 36 H        4.8010     2.0390     0.6790 H     1 <1>   0.0800 
 37 H        4.8250     3.6970     0.1310 H     1 <1>   0.0800 
 38 H        4.6570     2.4000    -1.0260 H     1 <1>   0.0800 
 39 H       -5.7800    -1.6100    -1.8580 H     1 <1>   0.1500 
 40 H       -5.5160     1.8800     1.3270 H     1 <1>   0.0800 
 41 H       -7.1550     2.2810     1.6740 H     1 <1>   0.0800 
 42 H       -6.3530     3.0220     0.3070 H     1 <1>   0.0800 
 43 H       -8.1820    -1.8680    -2.3230 H     1 <1>   0.1500 
 44 H       -9.7820    -0.2960    -1.3530 H     1 <1>   0.1500 
 45 H       -9.0470     2.8250     0.0710 H     1 <1>   0.0800 
 46 H       -9.4520     1.6420     1.2990 H     1 <1>   0.0800 
 47 H      -10.2960     1.6530    -0.2250 H     1 <1>   0.0800 
@<TRIPOS>BOND
  1   1   2  2   
  2   1   3  2   
  3   1   4  am  
  4   1   5  1   
  5   4   6  1   
  6   4   7  1   
  7   5   8  1   
  8   5  22  1   
  9   5  23  1   
 10   6   9  1   
 11   6  24  1   
 12   6  25  1   
 13   7  10  1   
 14   7  26  1   
 15   7  27  1   
 16   8  11  1   
 17   8  28  1   
 18   8  29  1   
 19   9  12  1   
 20   9  30  1   
 21   9  31  1   
 22  10  12  1   
 23  10  32  1   
 24  10  33  1   
 25  11  13  1   
 26  11  34  1   
 27  11  35  1   
 28  12  14  1   
 29  13  36  1   
 30  13  37  1   
 31  13  38  1   
 32  14  15  ar  
 33  14  16  ar  
 34  15  17  ar  
 35  15  18  1   
 36  16  19  ar  
 37  16  39  1   
 38  17  20  ar  
 39  17  21  1   
 40  18  40  1   
 41  18  41  1   
 42  18  42  1   
 43  19  20  ar  
 44  19  43  1   
 45  20  44  1   
 46  21  45  1   
 47  21  46  1   
 48  21  47  1   
@<TRIPOS>SUBSTRUCTURE
  1 ****  10 GROUP 4 **** **** 0

# MOE 2024.06 (io_trps.svl 2023.06)
