@<TRIPOS>MOLECULE
NONAME
47 49 1 0 0 
SMALL
USER_CHARGES


@<TRIPOS>ATOM
  1 S        0.3730    -0.8600     1.4250 S.o2  1 <1>   1.4470 
  2 O        1.0090    -1.4910     2.5630 O.2   1 <1>  -0.6500 
  3 O       -0.1670     0.4720     1.6010 O.2   1 <1>  -0.6500 
  4 N        1.5570    -0.7740     0.2180 N.am  1 <1>  -0.8490 
  5 C       -0.9040    -1.9690     0.7770 C.ar  1 <1>  -0.0090 
  6 C        2.2360    -2.0630    -0.0050 C.3   1 <1>   0.1960 
  7 C        2.5630     0.2530     0.5330 C.3   1 <1>   0.1960 
  8 C       -1.5580    -1.7040    -0.4230 C.ar  1 <1>   0.0830 
  9 C       -1.2720    -3.1180     1.4710 C.ar  1 <1>  -0.1500 
 10 C        3.2680    -1.9950    -1.1520 C.3   1 <1>   0.2090 
 11 C        3.5880     0.4330    -0.6040 C.3   1 <1>   0.2090 
 12 O       -1.2370    -0.6130    -1.1440 O.3   1 <1>  -0.3630 
 13 C       -2.5320    -2.5590    -0.9150 C.ar  1 <1>  -0.1500 
 14 C       -2.2480    -3.9740     0.9920 C.ar  1 <1>  -0.1500 
 15 N        4.2320    -0.8600    -0.9920 N.pl3 1 <1>  -0.8380 
 16 C       -2.1370     0.4710    -1.0820 C.3   1 <1>   0.0400 
 17 C       -2.8870    -3.6950    -0.2120 C.ar  1 <1>   0.0830 
 18 C        5.5760    -1.0770    -0.6420 C.ar  1 <1>   0.1000 
 19 O       -3.8510    -4.4770    -0.7550 O.3   1 <1>  -0.3630 
 20 C        6.0360    -1.9850     0.3220 C.ar  1 <1>   0.1900 
 21 C        6.5480    -0.3300    -1.2990 C.ar  1 <1>  -0.1500 
 22 C       -4.3080    -5.6420    -0.1050 C.3   1 <1>   0.0400 
 23 F        5.1840    -2.7220     0.9950 F     1 <1>  -0.1900 
 24 C        7.3740    -2.1480     0.6230 C.ar  1 <1>  -0.1500 
 25 C        7.8960    -0.4780    -1.0110 C.ar  1 <1>  -0.1500 
 26 C        8.3130    -1.3860    -0.0510 C.ar  1 <1>  -0.1500 
 27 H        1.5080    -2.8150    -0.2540 H     1 <1>   0.0800 
 28 H        2.7340    -2.3750     0.8970 H     1 <1>   0.0800 
 29 H        3.0860    -0.0100     1.4380 H     1 <1>   0.0800 
 30 H        2.0730     1.1980     0.6970 H     1 <1>   0.0800 
 31 H       -0.7860    -3.3460     2.4060 H     1 <1>   0.1500 
 32 H        2.7420    -1.8690    -2.0810 H     1 <1>   0.0800 
 33 H        3.8070    -2.9250    -1.2070 H     1 <1>   0.0800 
 34 H        4.3410     1.1340    -0.2920 H     1 <1>   0.0800 
 35 H        3.0870     0.8440    -1.4630 H     1 <1>   0.0800 
 36 H       -3.0150    -2.3440    -1.8490 H     1 <1>   0.1500 
 37 H       -2.4970    -4.8470     1.5660 H     1 <1>   0.1500 
 38 H       -1.7310     1.2770    -1.6650 H     1 <1>   0.0800 
 39 H       -2.2430     0.7790    -0.0560 H     1 <1>   0.0800 
 40 H       -3.0860     0.1650    -1.4840 H     1 <1>   0.0800 
 41 H        6.2350     0.3710    -2.0510 H     1 <1>   0.1500 
 42 H       -5.0750    -6.0850    -0.7150 H     1 <1>   0.0800 
 43 H       -4.7140    -5.3720     0.8530 H     1 <1>   0.0800 
 44 H       -3.4860    -6.3280     0.0020 H     1 <1>   0.0800 
 45 H        7.6740    -2.8580     1.3730 H     1 <1>   0.1500 
 46 H        8.6230     0.1140    -1.5390 H     1 <1>   0.1500 
 47 H        9.3610    -1.4980     0.1690 H     1 <1>   0.1500 
@<TRIPOS>BOND
  1   1   2  2   
  2   1   3  2   
  3   1   4  am  
  4   1   5  1   
  5   4   6  1   
  6   4   7  1   
  7   5   8  ar  
  8   5   9  ar  
  9   6  10  1   
 10   6  27  1   
 11   6  28  1   
 12   7  11  1   
 13   7  29  1   
 14   7  30  1   
 15   8  12  1   
 16   8  13  ar  
 17   9  14  ar  
 18   9  31  1   
 19  10  15  1   
 20  10  32  1   
 21  10  33  1   
 22  11  15  1   
 23  11  34  1   
 24  11  35  1   
 25  12  16  1   
 26  13  17  ar  
 27  13  36  1   
 28  14  17  ar  
 29  14  37  1   
 30  15  18  1   
 31  16  38  1   
 32  16  39  1   
 33  16  40  1   
 34  17  19  1   
 35  18  20  ar  
 36  18  21  ar  
 37  19  22  1   
 38  20  23  1   
 39  20  24  ar  
 40  21  25  ar  
 41  21  41  1   
 42  22  42  1   
 43  22  43  1   
 44  22  44  1   
 45  24  26  ar  
 46  24  45  1   
 47  25  26  ar  
 48  25  46  1   
 49  26  47  1   
@<TRIPOS>SUBSTRUCTURE
  1 ****   6 GROUP 4 **** **** 0

# MOE 2024.06 (io_trps.svl 2023.06)
