@<TRIPOS>MOLECULE
NONAME
55 57 1 0 0 
SMALL
USER_CHARGES


@<TRIPOS>ATOM
  1 S        0.1330    -0.6830    -1.7410 S.o2  1 <1>   1.4470 
  2 O       -0.5830     0.5360    -2.0410 O.2   1 <1>  -0.6500 
  3 O        0.1990    -1.7140    -2.7500 O.2   1 <1>  -0.6500 
  4 N       -0.7330    -1.4320    -0.5110 N.am  1 <1>  -0.9140 
  5 C        1.7400    -0.3170    -0.9790 C.ar  1 <1>  -0.0090 
  6 C       -2.1430    -1.5560    -0.8040 C.3   1 <1>   0.2760 
  7 C        2.6370    -1.3400    -0.5610 C.ar  1 <1>   0.0000 
  8 C        2.0810     0.9970    -0.7690 C.ar  1 <1>  -0.1500 
  9 C       -2.8880    -0.3210    -0.2740 C.3   1 <1>  -0.1600 
 10 C       -2.6510    -2.8380    -0.1580 C.3   1 <1>  -0.1600 
 11 C        3.8370    -0.9750     0.1050 C.ar  1 <1>   0.0000 
 12 C        2.4090    -2.7250    -0.7670 C.ar  1 <1>  -0.1500 
 13 C        3.2710     1.3620    -0.1430 C.ar  1 <1>  -0.1500 
 14 C       -4.3090    -0.5770     0.2620 C.3   1 <1>   0.5030 
 15 C       -4.1580    -3.0300    -0.3980 C.3   1 <1>   0.5030 
 16 C        4.1410     0.3970     0.2960 C.ar  1 <1>   0.0830 
 17 C        4.7010    -1.9950     0.5620 C.ar  1 <1>  -0.1500 
 18 C        3.2710    -3.6850    -0.3190 C.ar  1 <1>  -0.1500 
 19 N       -4.9060    -1.7670    -0.3560 N.4   1 <1>  -0.9060 
 20 C       -4.3350    -0.7260     1.7870 C.3   1 <1>  -0.2400 
 21 C       -5.2260     0.5870    -0.1110 C.3   1 <1>  -0.2400 
 22 C       -4.7580    -3.9710     0.6450 C.3   1 <1>  -0.2400 
 23 C       -4.4120    -3.6120    -1.7890 C.3   1 <1>  -0.2400 
 24 O        5.3080     0.6960     0.9210 O.3   1 <1>  -0.3630 
 25 C        4.4310    -3.3170     0.3610 C.ar  1 <1>  -0.1500 
 26 C        5.7170     2.0230     1.1700 C.3   1 <1>   0.0400 
 27 H       -0.3380    -2.3690    -0.5050 H     1 <1>   0.4200 
 28 H       -2.2890    -1.6320    -1.8720 H     1 <1>   0.0800 
 29 H        1.4210     1.7880    -1.0850 H     1 <1>   0.1500 
 30 H       -2.9350     0.3930    -1.0760 H     1 <1>   0.0800 
 31 H       -2.3100     0.1470     0.5040 H     1 <1>   0.0800 
 32 H       -2.4390    -2.8160     0.8960 H     1 <1>   0.0800 
 33 H       -2.1210    -3.6820    -0.5620 H     1 <1>   0.0800 
 34 H        1.5450    -3.0620    -1.3010 H     1 <1>   0.1500 
 35 H        3.4700     2.4110    -0.0190 H     1 <1>   0.1500 
 36 H        5.6010    -1.7150     1.0810 H     1 <1>   0.1500 
 37 H        3.0760    -4.7300    -0.4870 H     1 <1>   0.1500 
 38 H       -5.1300    -1.5160    -1.3210 H     1 <1>   0.4500 
 39 H       -5.8000    -1.9450     0.1070 H     1 <1>   0.4500 
 40 H       -3.6540    -1.4770     2.1370 H     1 <1>   0.0800 
 41 H       -5.3240    -0.9560     2.1400 H     1 <1>   0.0800 
 42 H       -4.0350     0.2000     2.2450 H     1 <1>   0.0800 
 43 H       -5.2800     0.7180    -1.1780 H     1 <1>   0.0800 
 44 H       -4.8430     1.5020     0.3080 H     1 <1>   0.0800 
 45 H       -6.2200     0.4440     0.2750 H     1 <1>   0.0800 
 46 H       -4.6350    -3.5870     1.6420 H     1 <1>   0.0800 
 47 H       -4.2600    -4.9250     0.6040 H     1 <1>   0.0800 
 48 H       -5.8040    -4.1430     0.4620 H     1 <1>   0.0800 
 49 H       -4.0230    -2.9750    -2.5640 H     1 <1>   0.0800 
 50 H       -5.4630    -3.7700    -1.9600 H     1 <1>   0.0800 
 51 H       -3.9250    -4.5680    -1.8820 H     1 <1>   0.0800 
 52 H        5.1010    -4.0810     0.7150 H     1 <1>   0.1500 
 53 H        6.6660     1.9900     1.6730 H     1 <1>   0.0800 
 54 H        4.9870     2.5020     1.7980 H     1 <1>   0.0800 
 55 H        5.8190     2.5390     0.2320 H     1 <1>   0.0800 
@<TRIPOS>BOND
  1   1   2  2   
  2   1   3  2   
  3   1   4  am  
  4   1   5  1   
  5   4   6  1   
  6   4  27  1   
  7   5   7  ar  
  8   5   8  ar  
  9   6   9  1   
 10   6  10  1   
 11   6  28  1   
 12   7  11  ar  
 13   7  12  ar  
 14   8  13  ar  
 15   8  29  1   
 16   9  14  1   
 17   9  30  1   
 18   9  31  1   
 19  10  15  1   
 20  10  32  1   
 21  10  33  1   
 22  11  16  ar  
 23  11  17  ar  
 24  12  18  ar  
 25  12  34  1   
 26  13  16  ar  
 27  13  35  1   
 28  14  19  1   
 29  14  20  1   
 30  14  21  1   
 31  15  19  1   
 32  15  22  1   
 33  15  23  1   
 34  16  24  1   
 35  17  25  ar  
 36  17  36  1   
 37  18  25  ar  
 38  18  37  1   
 39  19  38  1   
 40  19  39  1   
 41  20  40  1   
 42  20  41  1   
 43  20  42  1   
 44  21  43  1   
 45  21  44  1   
 46  21  45  1   
 47  22  46  1   
 48  22  47  1   
 49  22  48  1   
 50  23  49  1   
 51  23  50  1   
 52  23  51  1   
 53  24  26  1   
 54  25  52  1   
 55  26  53  1   
 56  26  54  1   
 57  26  55  1   
@<TRIPOS>SUBSTRUCTURE
  1 ****   4 GROUP 4 **** **** 0

# MOE 2024.06 (io_trps.svl 2023.06)
