@<TRIPOS>MOLECULE
NONAME
42 42 1 0 0 
SMALL
USER_CHARGES


@<TRIPOS>ATOM
  1 O        0.5170    -2.4010     1.5660 O.3   1 <1>  -0.6800 
  2 C       -0.1790    -1.9350     0.4540 C.3   1 <1>   0.2000 
  3 C        0.4920    -2.4620    -0.8390 C.3   1 <1>   0.3430 
  4 C       -0.1770    -0.4100     0.5270 C.3   1 <1>  -0.2400 
  5 N        1.1870    -3.7620    -0.5860 N.4   1 <1>  -0.9590 
  6 C        2.3810    -3.9870    -1.4580 C.3   1 <1>   0.3430 
  7 C        0.2300    -4.9200    -0.5940 C.3   1 <1>   0.3430 
  8 C        3.6790    -3.4190    -0.8520 C.3   1 <1>  -0.0800 
  9 C        0.6390    -6.0780     0.3490 C.3   1 <1>   0.2000 
 10 C        4.0740    -4.1460     0.4510 C.3   1 <1>  -0.0220 
 11 C        3.6740    -1.8890    -0.6480 C.3   1 <1>  -0.1600 
 12 O        1.9060    -6.5360     0.0350 O.3   1 <1>  -0.6800 
 13 C       -0.3060    -7.2710     0.2310 C.3   1 <1>  -0.2400 
 14 C        5.2590    -3.4730     1.1200 C.2   1 <1>  -0.2880 
 15 C        5.0690    -1.3730    -0.2620 C.3   1 <1>  -0.0220 
 16 C        5.7030    -2.2550     0.7980 C.2   1 <1>  -0.2880 
 17 H        0.2120    -1.9390     2.3770 H     1 <1>   0.4000 
 18 H       -1.1890    -2.3030     0.5200 H     1 <1>   0.0800 
 19 H        1.2120    -1.7290    -1.1580 H     1 <1>   0.0800 
 20 H       -0.2360    -2.5610    -1.6260 H     1 <1>   0.0800 
 21 H        0.8290    -0.0270     0.5190 H     1 <1>   0.0800 
 22 H       -0.6760    -0.0740     1.4200 H     1 <1>   0.0800 
 23 H       -0.7030     0.0010    -0.3160 H     1 <1>   0.0800 
 24 H        1.5260    -3.6650     0.3890 H     1 <1>   0.4500 
 25 H        2.2120    -3.5470    -2.4270 H     1 <1>   0.0800 
 26 H        2.5220    -5.0450    -1.6060 H     1 <1>   0.0800 
 27 H        0.1260    -5.3020    -1.5960 H     1 <1>   0.0800 
 28 H       -0.7400    -4.5770    -0.2760 H     1 <1>   0.0800 
 29 H        4.4560    -3.6320    -1.5660 H     1 <1>   0.0800 
 30 H        0.6550    -5.7260     1.3670 H     1 <1>   0.0800 
 31 H        4.3340    -5.1660     0.2220 H     1 <1>   0.0800 
 32 H        3.2600    -4.1590     1.1540 H     1 <1>   0.0800 
 33 H        2.9990    -1.6350     0.1500 H     1 <1>   0.0800 
 34 H        3.3560    -1.3880    -1.5450 H     1 <1>   0.0800 
 35 H        2.1220    -7.3290     0.5690 H     1 <1>   0.4000 
 36 H       -0.3010    -7.6660    -0.7700 H     1 <1>   0.0800 
 37 H       -1.3100    -6.9730     0.4730 H     1 <1>   0.0800 
 38 H       -0.0200    -8.0480     0.9190 H     1 <1>   0.0800 
 39 H        5.7160    -4.0750     1.8880 H     1 <1>   0.1500 
 40 H        4.9850    -0.3670     0.1100 H     1 <1>   0.0800 
 41 H        5.7110    -1.3550    -1.1270 H     1 <1>   0.0800 
 42 H        6.5590    -1.8020     1.2720 H     1 <1>   0.1500 
@<TRIPOS>BOND
  1   1   2  1   
  2   1  17  1   
  3   2   3  1   
  4   2   4  1   
  5   2  18  1   
  6   3   5  1   
  7   3  19  1   
  8   3  20  1   
  9   4  21  1   
 10   4  22  1   
 11   4  23  1   
 12   5   6  1   
 13   5   7  1   
 14   5  24  1   
 15   6   8  1   
 16   6  25  1   
 17   6  26  1   
 18   7   9  1   
 19   7  27  1   
 20   7  28  1   
 21   8  10  1   
 22   8  11  1   
 23   8  29  1   
 24   9  12  1   
 25   9  13  1   
 26   9  30  1   
 27  10  14  1   
 28  10  31  1   
 29  10  32  1   
 30  11  15  1   
 31  11  33  1   
 32  11  34  1   
 33  12  35  1   
 34  13  36  1   
 35  13  37  1   
 36  13  38  1   
 37  14  16  2   
 38  14  39  1   
 39  15  16  1   
 40  15  40  1   
 41  15  41  1   
 42  16  42  1   
@<TRIPOS>SUBSTRUCTURE
  1 ****   5 GROUP 4 **** **** 0

# MOE 2024.06 (io_trps.svl 2023.06)
