@<TRIPOS>MOLECULE
NONAME
33 35 1 0 0 
SMALL
USER_CHARGES


@<TRIPOS>ATOM
  1 N        0.0150     0.1680     0.0320 N.ar  1 <1>  -0.6200 
  2 C        1.1500     0.8660    -0.0180 C.ar  1 <1>   0.6200 
  3 C       -1.1080     0.8440     0.0150 C.ar  1 <1>   0.1660 
  4 N        1.2220     2.1960    -0.0860 N.ar  1 <1>  -0.6200 
  5 C        2.4030     0.1220     0.0040 C.ar  1 <1>   0.0000 
  6 C       -1.1310     2.2240    -0.0490 C.ar  1 <1>  -0.1430 
  7 C       -2.3810     0.0120     0.0870 C.3   1 <1>  -0.0160 
  8 C        0.0930     2.8610    -0.1070 C.ar  1 <1>   0.1670 
  9 C        2.4870    -1.1890    -0.4760 C.ar  1 <1>  -0.1500 
 10 C        3.5820     0.6830     0.5060 C.ar  1 <1>  -0.1500 
 11 C       -2.4480     3.0010    -0.0650 C.3   1 <1>  -0.0160 
 12 C       -3.6420     0.7990    -0.2900 C.3   1 <1>  -0.1600 
 13 C        0.2250     4.3700    -0.1980 C.3   1 <1>  -0.0970 
 14 C        3.6740    -1.8990    -0.4570 C.ar  1 <1>  -0.1500 
 15 C        4.7730    -0.0200     0.5280 C.ar  1 <1>  -0.1500 
 16 C       -3.6430     2.1630     0.4030 C.3   1 <1>  -0.1600 
 17 C        4.8220    -1.3150     0.0460 C.ar  1 <1>  -0.1500 
 18 H       -2.4760    -0.3560     1.0930 H     1 <1>   0.0800 
 19 H       -2.2850    -0.8390    -0.5640 H     1 <1>   0.0800 
 20 H        1.6040    -1.6600    -0.8710 H     1 <1>   0.1500 
 21 H        3.5630     1.6890     0.8860 H     1 <1>   0.1500 
 22 H       -2.6300     3.3370    -1.0710 H     1 <1>   0.0800 
 23 H       -2.3730     3.8690     0.5670 H     1 <1>   0.0800 
 24 H       -4.5150     0.2370    -0.0050 H     1 <1>   0.0800 
 25 H       -3.6690     0.9390    -1.3570 H     1 <1>   0.0800 
 26 H        1.2020     4.6350    -0.5610 H     1 <1>   0.0800 
 27 H        0.0930     4.8030     0.7760 H     1 <1>   0.0800 
 28 H       -0.5030     4.7780    -0.8740 H     1 <1>   0.0800 
 29 H        3.7040    -2.9060    -0.8330 H     1 <1>   0.1500 
 30 H        5.6620     0.4420     0.9200 H     1 <1>   0.1500 
 31 H       -4.5580     2.6860     0.1850 H     1 <1>   0.0800 
 32 H       -3.5860     2.0220     1.4700 H     1 <1>   0.0800 
 33 H        5.7470    -1.8640     0.0620 H     1 <1>   0.1500 
@<TRIPOS>BOND
  1   1   2  ar  
  2   1   3  ar  
  3   2   4  ar  
  4   2   5  1   
  5   3   6  ar  
  6   3   7  1   
  7   4   8  ar  
  8   5   9  ar  
  9   5  10  ar  
 10   6   8  ar  
 11   6  11  1   
 12   7  12  1   
 13   7  18  1   
 14   7  19  1   
 15   8  13  1   
 16   9  14  ar  
 17   9  20  1   
 18  10  15  ar  
 19  10  21  1   
 20  11  16  1   
 21  11  22  1   
 22  11  23  1   
 23  12  16  1   
 24  12  24  1   
 25  12  25  1   
 26  13  26  1   
 27  13  27  1   
 28  13  28  1   
 29  14  17  ar  
 30  14  29  1   
 31  15  17  ar  
 32  15  30  1   
 33  16  31  1   
 34  16  32  1   
 35  17  33  1   
@<TRIPOS>SUBSTRUCTURE
  1 ****   2 GROUP 4 **** **** 0

# MOE 2024.06 (io_trps.svl 2023.06)
