@<TRIPOS>MOLECULE
NONAME
53 55 1 0 0 
SMALL
USER_CHARGES


@<TRIPOS>ATOM
  1 O        0.4510     0.6360    -0.0060 O.2   1 <1>  -0.5700 
  2 C        0.3250     1.7660     0.4270 C.2   1 <1>   0.5440 
  3 N        1.4400     2.4320     0.9020 N.am  1 <1>  -0.6600 
  4 C       -0.9910     2.3750     0.4210 C.ar  1 <1>   0.0860 
  5 C        2.7450     1.7360     1.0790 C.3   1 <1>   0.1400 
  6 C        1.4900     3.9060     1.1130 C.3   1 <1>   0.1400 
  7 C       -1.5740     2.8700     1.5890 C.ar  1 <1>  -0.1500 
  8 C       -1.7260     2.4800    -0.7600 C.ar  1 <1>  -0.1500 
  9 C        3.7860     2.3410     0.1340 C.3   1 <1>  -0.1600 
 10 C        2.5310     4.5260     0.1760 C.3   1 <1>  -0.1600 
 11 C       -2.8230     3.4610     1.5720 C.ar  1 <1>  -0.1500 
 12 C       -2.9770     3.0680    -0.7850 C.ar  1 <1>  -0.1500 
 13 C        3.9140     3.8620     0.3310 C.3   1 <1>  -0.0190 
 14 C       -3.5350     3.5680     0.3880 C.ar  1 <1>   0.0820 
 15 C        4.9650     4.4490    -0.6110 C.2   1 <1>   0.5690 
 16 O       -4.7480     4.1610     0.4530 O.3   1 <1>  -0.3630 
 17 O        4.6350     5.0070    -1.6300 O.2   1 <1>  -0.5700 
 18 N        6.2700     4.3190    -0.2730 N.am  1 <1>  -0.7300 
 19 C       -5.5710     4.2940    -0.6840 C.3   1 <1>   0.0400 
 20 C        7.3940     4.7390    -1.1220 C.3   1 <1>   0.2840 
 21 C        8.6030     3.9150    -0.7210 C.ar  1 <1>  -0.1430 
 22 C        9.5240     4.4120     0.1890 C.ar  1 <1>  -0.1500 
 23 C        8.7910     2.6500    -1.2530 C.ar  1 <1>  -0.1500 
 24 C       10.6200     3.6520     0.5580 C.ar  1 <1>  -0.1500 
 25 C        9.8870     1.8910    -0.8830 C.ar  1 <1>  -0.1500 
 26 C       10.8090     2.3880     0.0240 C.ar  1 <1>  -0.1430 
 27 C       12.0110     1.5560     0.4310 C.3   1 <1>  -0.0970 
 28 H        2.6470     0.6820     0.8810 H     1 <1>   0.0800 
 29 H        3.0640     1.8500     2.1010 H     1 <1>   0.0800 
 30 H        1.7540     4.1040     2.1380 H     1 <1>   0.0800 
 31 H        0.5350     4.3600     0.9190 H     1 <1>   0.0800 
 32 H       -1.0350     2.7850     2.5160 H     1 <1>   0.1500 
 33 H       -1.2970     2.0870    -1.6660 H     1 <1>   0.1500 
 34 H        3.4950     2.1290    -0.8810 H     1 <1>   0.0800 
 35 H        4.7350     1.8660     0.3060 H     1 <1>   0.0800 
 36 H        2.6110     5.5790     0.3780 H     1 <1>   0.0800 
 37 H        2.1870     4.4160    -0.8380 H     1 <1>   0.0800 
 38 H       -3.2610     3.8410     2.4780 H     1 <1>   0.1500 
 39 H       -3.5010     3.1270    -1.7200 H     1 <1>   0.1500 
 40 H        4.2510     4.0440     1.3360 H     1 <1>   0.0800 
 41 H        6.5530     3.7980     0.5570 H     1 <1>   0.3700 
 42 H       -6.4800     4.7820    -0.3830 H     1 <1>   0.0800 
 43 H       -5.7920     3.3150    -1.0710 H     1 <1>   0.0800 
 44 H       -5.0600     4.8930    -1.4170 H     1 <1>   0.0800 
 45 H        7.5830     5.7880    -0.9740 H     1 <1>   0.0800 
 46 H        7.1530     4.5770    -2.1590 H     1 <1>   0.0800 
 47 H        9.3920     5.3910     0.6140 H     1 <1>   0.1500 
 48 H        8.0810     2.2500    -1.9580 H     1 <1>   0.1500 
 49 H       11.3270     4.0490     1.2650 H     1 <1>   0.1500 
 50 H       10.0200     0.9100    -1.3050 H     1 <1>   0.1500 
 51 H       12.8530     2.1910     0.6420 H     1 <1>   0.0800 
 52 H       12.2880     0.8810    -0.3590 H     1 <1>   0.0800 
 53 H       11.7770     0.9840     1.3100 H     1 <1>   0.0800 
@<TRIPOS>BOND
  1   1   2  2   
  2   2   3  am  
  3   2   4  1   
  4   3   5  1   
  5   3   6  1   
  6   4   7  ar  
  7   4   8  ar  
  8   5   9  1   
  9   5  28  1   
 10   5  29  1   
 11   6  10  1   
 12   6  30  1   
 13   6  31  1   
 14   7  11  ar  
 15   7  32  1   
 16   8  12  ar  
 17   8  33  1   
 18   9  13  1   
 19   9  34  1   
 20   9  35  1   
 21  10  13  1   
 22  10  36  1   
 23  10  37  1   
 24  11  14  ar  
 25  11  38  1   
 26  12  14  ar  
 27  12  39  1   
 28  13  15  1   
 29  13  40  1   
 30  14  16  1   
 31  15  17  2   
 32  15  18  am  
 33  16  19  1   
 34  18  20  1   
 35  18  41  1   
 36  19  42  1   
 37  19  43  1   
 38  19  44  1   
 39  20  21  1   
 40  20  45  1   
 41  20  46  1   
 42  21  22  ar  
 43  21  23  ar  
 44  22  24  ar  
 45  22  47  1   
 46  23  25  ar  
 47  23  48  1   
 48  24  26  ar  
 49  24  49  1   
 50  25  26  ar  
 51  25  50  1   
 52  26  27  1   
 53  27  51  1   
 54  27  52  1   
 55  27  53  1   
@<TRIPOS>SUBSTRUCTURE
  1 ****  13 GROUP 4 **** **** 0

# MOE 2024.06 (io_trps.svl 2023.06)
