@<TRIPOS>MOLECULE
NONAME
26 30 1 0 0 
SMALL
USER_CHARGES


@<TRIPOS>ATOM
  1 O       -0.3360     0.4740     0.2690 O.2   1 <1>  -0.5700 
  2 C       -0.1340     1.6470     0.4310 C.2   1 <1>   0.6670 
  3 O       -1.1390     2.4460     0.7830 O.3   1 <1>  -0.4300 
  4 C        1.2660     2.2210     0.2390 C.3   1 <1>   0.0530 
  5 C       -1.0650     3.8380     1.0060 C.3   1 <1>   0.0400 
  6 C        1.6830     3.3110    -0.7930 C.3   1 <1>   0.0000 
  7 C        2.1320     2.9060     1.3380 C.3   1 <1>   0.0000 
  8 C        2.4890     1.3490    -0.1840 C.3   1 <1>   0.0000 
  9 C        2.5490     4.0040     0.3080 C.3   1 <1>   0.0000 
 10 C        2.9100     2.4440    -1.2130 C.3   1 <1>   0.0000 
 11 C        3.3580     2.0390     0.9130 C.3   1 <1>   0.0000 
 12 C        3.7690     3.1340    -0.1140 C.3   1 <1>   0.0000 
 13 C        5.1850     3.6740    -0.3110 C.3   1 <1>   0.1200 
 14 O        6.0150     2.6390    -0.7050 O.3   1 <1>  -0.6800 
 15 H       -2.0450     4.1830     1.2830 H     1 <1>   0.0800 
 16 H       -0.7550     4.3270     0.1000 H     1 <1>   0.0800 
 17 H       -0.3750     4.0340     1.8080 H     1 <1>   0.0800 
 18 H        1.0210     3.8150    -1.4730 H     1 <1>   0.0000 
 19 H        1.8240     3.0890     2.3520 H     1 <1>   0.0000 
 20 H        2.4660     0.2920    -0.3800 H     1 <1>   0.0000 
 21 H        2.5790     5.0610     0.5030 H     1 <1>   0.0000 
 22 H        3.2260     2.2580    -2.2240 H     1 <1>   0.0000 
 23 H        4.0280     1.5340     1.5850 H     1 <1>   0.0000 
 24 H        5.5690     4.0890     0.6050 H     1 <1>   0.0800 
 25 H        5.2020     4.4250    -1.0810 H     1 <1>   0.0800 
 26 H        5.9950     1.9120    -0.0530 H     1 <1>   0.4000 
@<TRIPOS>BOND
  1   1   2  2   
  2   2   3  1   
  3   2   4  1   
  4   3   5  1   
  5   4   6  1   
  6   4   7  1   
  7   4   8  1   
  8   5  15  1   
  9   5  16  1   
 10   5  17  1   
 11   6   9  1   
 12   6  10  1   
 13   6  18  1   
 14   7   9  1   
 15   7  11  1   
 16   7  19  1   
 17   8  10  1   
 18   8  11  1   
 19   8  20  1   
 20   9  12  1   
 21   9  21  1   
 22  10  12  1   
 23  10  22  1   
 24  11  12  1   
 25  11  23  1   
 26  12  13  1   
 27  13  14  1   
 28  13  24  1   
 29  13  25  1   
 30  14  26  1   
@<TRIPOS>SUBSTRUCTURE
  1 ****   4 GROUP 4 **** **** 0

# MOE 2024.06 (io_trps.svl 2023.06)
