@<TRIPOS>MOLECULE
NONAME
40 42 1 0 0 
SMALL
USER_CHARGES


@<TRIPOS>ATOM
  1 O        0.1530     0.0130     0.6200 O.3   1 <1>  -0.5600 
  2 C        0.6620    -1.3000     0.6320 C.3   1 <1>   0.4800 
  3 C       -1.1940     0.1430     0.9720 C.3   1 <1>   0.2000 
  4 O        1.6840    -1.2810    -0.3400 O.3   1 <1>  -0.3630 
  5 C       -0.4070    -2.3710     0.2670 C.3   1 <1>   0.2000 
  6 C       -2.0580    -0.4820    -0.1550 C.3   1 <1>   0.2000 
  7 C       -1.4820     1.6250     1.2620 C.3   1 <1>   0.1200 
  8 C        2.9520    -1.5200     0.0610 C.ar  1 <1>   0.0820 
  9 O        0.1830    -3.5380    -0.2390 O.3   1 <1>  -0.6800 
 10 C       -1.4050    -1.7560    -0.7350 C.3   1 <1>   0.2000 
 11 O       -2.2620     0.4250    -1.1990 O.3   1 <1>  -0.6800 
 12 O       -2.8480     1.8240     1.4200 O.3   1 <1>  -0.6800 
 13 C        3.9460    -0.5620    -0.2560 C.ar  1 <1>   0.0000 
 14 C        3.2680    -2.6700     0.7440 C.ar  1 <1>  -0.1500 
 15 O       -2.4020    -2.6570    -1.0990 O.3   1 <1>  -0.6800 
 16 C        5.2760    -0.8120     0.1520 C.ar  1 <1>   0.0000 
 17 C        3.6770     0.6360    -0.9530 C.ar  1 <1>  -0.1500 
 18 C        4.5840    -2.9080     1.1480 C.ar  1 <1>  -0.1500 
 19 C        5.5630    -1.9980     0.8570 C.ar  1 <1>  -0.1500 
 20 C        6.2740     0.1340    -0.1580 C.ar  1 <1>  -0.1500 
 21 C        4.6650     1.5370    -1.2400 C.ar  1 <1>  -0.1500 
 22 C        5.9800     1.2820    -0.8390 C.ar  1 <1>  -0.1500 
 23 H        1.0840    -1.4920     1.6040 H     1 <1>   0.0800 
 24 H       -1.3440    -0.4030     1.8880 H     1 <1>   0.0800 
 25 H       -0.9350    -2.6530     1.1600 H     1 <1>   0.0800 
 26 H       -3.0260    -0.7180     0.2560 H     1 <1>   0.0800 
 27 H       -1.1470     2.2490     0.4520 H     1 <1>   0.0800 
 28 H       -0.9970     1.9270     2.1740 H     1 <1>   0.0800 
 29 H        0.6740    -3.3310    -1.0600 H     1 <1>   0.4000 
 30 H       -0.8570    -1.4980    -1.6250 H     1 <1>   0.0800 
 31 H       -1.3970     0.7420    -1.5310 H     1 <1>   0.4000 
 32 H       -3.2960     1.7080     0.5540 H     1 <1>   0.4000 
 33 H        2.5210    -3.4090     0.9720 H     1 <1>   0.1500 
 34 H       -2.9830    -2.2510    -1.7740 H     1 <1>   0.4000 
 35 H        2.6650     0.8330    -1.2580 H     1 <1>   0.1500 
 36 H        4.8140    -3.8140     1.6830 H     1 <1>   0.1500 
 37 H        6.5780    -2.1780     1.1640 H     1 <1>   0.1500 
 38 H        7.2840    -0.0670     0.1530 H     1 <1>   0.1500 
 39 H        4.4460     2.4460    -1.7730 H     1 <1>   0.1500 
 40 H        6.7480     2.0000    -1.0720 H     1 <1>   0.1500 
@<TRIPOS>BOND
  1   1   2  1   
  2   1   3  1   
  3   2   4  1   
  4   2   5  1   
  5   2  23  1   
  6   3   6  1   
  7   3   7  1   
  8   3  24  1   
  9   4   8  1   
 10   5   9  1   
 11   5  10  1   
 12   5  25  1   
 13   6  10  1   
 14   6  11  1   
 15   6  26  1   
 16   7  12  1   
 17   7  27  1   
 18   7  28  1   
 19   8  13  ar  
 20   8  14  ar  
 21   9  29  1   
 22  10  15  1   
 23  10  30  1   
 24  11  31  1   
 25  12  32  1   
 26  13  16  ar  
 27  13  17  ar  
 28  14  18  ar  
 29  14  33  1   
 30  15  34  1   
 31  16  19  ar  
 32  16  20  ar  
 33  17  21  ar  
 34  17  35  1   
 35  18  19  ar  
 36  18  36  1   
 37  19  37  1   
 38  20  22  ar  
 39  20  38  1   
 40  21  22  ar  
 41  21  39  1   
 42  22  40  1   
@<TRIPOS>SUBSTRUCTURE
  1 ****   4 GROUP 4 **** **** 0

# MOE 2024.06 (io_trps.svl 2023.06)
