@<TRIPOS>MOLECULE
NONAME
36 37 1 0 0 
SMALL
USER_CHARGES


@<TRIPOS>ATOM
  1 BR      -0.3010     0.2160     1.3710 Br    1 <1>  -0.1110 
  2 C        1.3430     0.8440     0.5890 C.ar  1 <1>   0.1110 
  3 C        1.4640     2.1390     0.1030 C.ar  1 <1>  -0.0090 
  4 C        2.3790    -0.0700     0.5490 C.ar  1 <1>  -0.1500 
  5 S        0.1140     3.3460     0.1520 S.o2  1 <1>   1.2040 
  6 C        2.7020     2.4840    -0.4350 C.ar  1 <1>  -0.1500 
  7 C        3.5900     0.3140     0.0060 C.ar  1 <1>  -0.1500 
  8 O        0.5860     4.5820    -0.4270 O.2   1 <1>  -0.6500 
  9 O       -1.1040     2.7590    -0.3550 O.2   1 <1>  -0.6500 
 10 C       -0.1100     3.6710     1.8920 C.3   1 <1>  -0.1350 
 11 C        3.7750     1.5980    -0.4920 C.ar  1 <1>  -0.0090 
 12 S        5.3710     2.0920    -1.2110 S.o2  1 <1>   1.4470 
 13 O        5.5630     1.3650    -2.4460 O.2   1 <1>  -0.6500 
 14 O        5.4860     3.5340    -1.2060 O.2   1 <1>  -0.6500 
 15 N        6.4930     1.5010    -0.0860 N.am  1 <1>  -0.8490 
 16 C        6.5340     2.3180     1.1320 C.3   1 <1>   0.1960 
 17 C        7.8300     1.3780    -0.6760 C.3   1 <1>   0.1960 
 18 C        7.4280     1.6550     2.1850 C.3   1 <1>  -0.1600 
 19 C        8.7860     0.6950     0.3090 C.3   1 <1>  -0.1600 
 20 C        8.8470     1.4400     1.6470 C.3   1 <1>  -0.1600 
 21 H        2.2380    -1.0660     0.9330 H     1 <1>   0.1500 
 22 H        2.8400     3.4790    -0.8310 H     1 <1>   0.1500 
 23 H        4.4070    -0.3900    -0.0350 H     1 <1>   0.1500 
 24 H        0.8040     4.0230     2.3280 H     1 <1>   0.0800 
 25 H       -0.4290     2.7920     2.4130 H     1 <1>   0.0800 
 26 H       -0.8600     4.4280     2.0240 H     1 <1>   0.0800 
 27 H        5.5400     2.4240     1.5350 H     1 <1>   0.0800 
 28 H        6.9110     3.3030     0.9040 H     1 <1>   0.0800 
 29 H        8.2050     2.3540    -0.9410 H     1 <1>   0.0800 
 30 H        7.7830     0.7820    -1.5730 H     1 <1>   0.0800 
 31 H        6.9950     0.7100     2.4630 H     1 <1>   0.0800 
 32 H        7.4650     2.2730     3.0640 H     1 <1>   0.0800 
 33 H        9.7690     0.6470    -0.1240 H     1 <1>   0.0800 
 34 H        8.4490    -0.3150     0.4700 H     1 <1>   0.0800 
 35 H        9.4300     0.8780     2.3570 H     1 <1>   0.0800 
 36 H        9.3240     2.3950     1.5030 H     1 <1>   0.0800 
@<TRIPOS>BOND
  1   1   2  1   
  2   2   3  ar  
  3   2   4  ar  
  4   3   5  1   
  5   3   6  ar  
  6   4   7  ar  
  7   4  21  1   
  8   5   8  2   
  9   5   9  2   
 10   5  10  1   
 11   6  11  ar  
 12   6  22  1   
 13   7  11  ar  
 14   7  23  1   
 15  10  24  1   
 16  10  25  1   
 17  10  26  1   
 18  11  12  1   
 19  12  13  2   
 20  12  14  2   
 21  12  15  am  
 22  15  16  1   
 23  15  17  1   
 24  16  18  1   
 25  16  27  1   
 26  16  28  1   
 27  17  19  1   
 28  17  29  1   
 29  17  30  1   
 30  18  20  1   
 31  18  31  1   
 32  18  32  1   
 33  19  20  1   
 34  19  33  1   
 35  19  34  1   
 36  20  35  1   
 37  20  36  1   
@<TRIPOS>SUBSTRUCTURE
  1 ****  11 GROUP 4 **** **** 0

# MOE 2024.06 (io_trps.svl 2023.06)
