@<TRIPOS>MOLECULE
NONAME
42 44 1 0 0 
SMALL
USER_CHARGES


@<TRIPOS>ATOM
  1 S       -0.2070    -0.2660     0.0470 S.3   1 <1>  -0.2860 
  2 C       -1.4300     1.0450    -0.0390 C.2   1 <1>   0.2420 
  3 C        1.3170     0.6510     0.5790 C.3   1 <1>   0.1310 
  4 N       -1.1660     2.2810     0.1950 N.2   1 <1>  -0.3380 
  5 N       -2.7050     0.8190    -0.3520 N.pl3 1 <1>   0.0480 
  6 C        2.5120    -0.2730     0.7730 C.2   1 <1>   0.5690 
  7 N       -2.3220     2.9320     0.0340 N.2   1 <1>  -0.3380 
  8 C       -3.2220     2.0570    -0.2870 C.2   1 <1>   0.0060 
  9 C       -3.3530    -0.4710    -0.6780 C.3   1 <1>   0.0960 
 10 O        2.3200    -1.4110     1.1390 O.2   1 <1>  -0.5700 
 11 N        3.7910     0.1790     0.5290 N.am  1 <1>  -0.4770 
 12 C       -4.6910     2.3640    -0.5640 C.3   1 <1>   0.0200 
 13 C       -3.8540    -1.1610     0.5940 C.3   1 <1>  -0.2400 
 14 C        4.3110     1.4570     0.2760 C.ar  1 <1>   0.1170 
 15 C        4.8860    -0.8160     0.3640 C.3   1 <1>   0.1400 
 16 C       -5.0610     3.8320    -0.3190 C.3   1 <1>  -0.2400 
 17 C        5.5940     1.3790    -0.2240 C.ar  1 <1>  -0.1440 
 18 C        3.7440     2.7110     0.4820 C.ar  1 <1>  -0.1500 
 19 C        6.0360    -0.0600    -0.3160 C.3   1 <1>  -0.0170 
 20 C        6.3170     2.5060    -0.5620 C.ar  1 <1>  -0.1500 
 21 C        4.4570     3.8510     0.1460 C.ar  1 <1>  -0.1500 
 22 C        5.7370     3.7510    -0.3780 C.ar  1 <1>  -0.1500 
 23 H        1.0770     1.1520     1.4970 H     1 <1>   0.0800 
 24 H        1.5090     1.3650    -0.1990 H     1 <1>   0.0800 
 25 H       -2.6410    -1.1010    -1.1810 H     1 <1>   0.0800 
 26 H       -4.1730    -0.2910    -1.3500 H     1 <1>   0.0800 
 27 H       -5.3020     1.7450     0.0680 H     1 <1>   0.0800 
 28 H       -4.9100     2.1180    -1.5880 H     1 <1>   0.0800 
 29 H       -3.0300    -1.3680     1.2550 H     1 <1>   0.0800 
 30 H       -4.3250    -2.0940     0.3410 H     1 <1>   0.0800 
 31 H       -4.5720    -0.5430     1.1040 H     1 <1>   0.0800 
 32 H        4.5550    -1.6450    -0.2370 H     1 <1>   0.0800 
 33 H        5.1840    -1.1710     1.3350 H     1 <1>   0.0800 
 34 H       -4.8590     4.0990     0.7040 H     1 <1>   0.0800 
 35 H       -6.1040     3.9930    -0.5200 H     1 <1>   0.0800 
 36 H       -4.4810     4.4720    -0.9600 H     1 <1>   0.0800 
 37 H        2.7660     2.8210     0.9080 H     1 <1>   0.1500 
 38 H        6.1290    -0.3600    -1.3440 H     1 <1>   0.0800 
 39 H        6.9650    -0.2250     0.1980 H     1 <1>   0.0800 
 40 H        7.3140     2.4220    -0.9570 H     1 <1>   0.1500 
 41 H        4.0150     4.8210     0.2960 H     1 <1>   0.1500 
 42 H        6.2830     4.6420    -0.6380 H     1 <1>   0.1500 
@<TRIPOS>BOND
  1   1   2  1   
  2   1   3  1   
  3   2   4  2   
  4   2   5  1   
  5   3   6  1   
  6   3  23  1   
  7   3  24  1   
  8   4   7  1   
  9   5   8  1   
 10   5   9  1   
 11   6  10  2   
 12   6  11  am  
 13   7   8  2   
 14   8  12  1   
 15   9  13  1   
 16   9  25  1   
 17   9  26  1   
 18  11  14  1   
 19  11  15  1   
 20  12  16  1   
 21  12  27  1   
 22  12  28  1   
 23  13  29  1   
 24  13  30  1   
 25  13  31  1   
 26  14  17  ar  
 27  14  18  ar  
 28  15  19  1   
 29  15  32  1   
 30  15  33  1   
 31  16  34  1   
 32  16  35  1   
 33  16  36  1   
 34  17  19  1   
 35  17  20  ar  
 36  18  21  ar  
 37  18  37  1   
 38  19  38  1   
 39  19  39  1   
 40  20  22  ar  
 41  20  40  1   
 42  21  22  ar  
 43  21  41  1   
 44  22  42  1   
@<TRIPOS>SUBSTRUCTURE
  1 ****   3 GROUP 4 **** **** 0

# MOE 2024.06 (io_trps.svl 2023.06)
