@<TRIPOS>MOLECULE
NONAME
34 34 1 0 0 
SMALL
USER_CHARGES


@<TRIPOS>ATOM
  1 O       -2.4450    -0.2540     0.0090 O.co2 1 <1>  -0.9000 
  2 C       -1.6200    -0.9630    -0.6210 C.2   1 <1>   0.9060 
  3 O       -0.4880    -0.5720    -0.9860 O.co2 1 <1>  -0.9000 
  4 C       -2.0480    -2.4020    -1.0590 C.3   1 <1>   0.1140 
  5 N       -3.4870    -2.7180    -0.8450 N.am  1 <1>  -0.7300 
  6 C       -1.0650    -3.5210    -0.5990 C.3   1 <1>  -0.0800 
  7 C       -4.0900    -2.7410     0.3750 C.2   1 <1>   0.5690 
  8 C       -1.5650    -4.9430    -0.9070 C.3   1 <1>  -0.2400 
  9 C       -0.5800    -3.4320     0.8600 C.3   1 <1>  -0.2400 
 10 O       -3.8040    -3.5210     1.2540 O.2   1 <1>  -0.5700 
 11 C       -5.1990    -1.7310     0.6260 C.3   1 <1>   0.1810 
 12 O       -6.2950    -1.9470    -0.2560 O.3   1 <1>  -0.3630 
 13 C       -7.3840    -1.1400    -0.2220 C.ar  1 <1>   0.0820 
 14 C       -7.4480     0.0440     0.5090 C.ar  1 <1>  -0.1500 
 15 C       -8.4810    -1.5420    -0.9670 C.ar  1 <1>  -0.1500 
 16 C       -8.6030     0.8070     0.4900 C.ar  1 <1>  -0.1500 
 17 C       -9.6350    -0.7780    -0.9850 C.ar  1 <1>  -0.1500 
 18 C       -9.6960     0.3970    -0.2550 C.ar  1 <1>  -0.1500 
 19 H       -1.9310    -2.3670    -2.1400 H     1 <1>   0.0800 
 20 H       -4.0630    -2.2650    -1.5330 H     1 <1>   0.3700 
 21 H       -0.1700    -3.3690    -1.2050 H     1 <1>   0.0800 
 22 H       -2.4140    -5.1860    -0.2670 H     1 <1>   0.0800 
 23 H       -0.7690    -5.6640    -0.7260 H     1 <1>   0.0800 
 24 H       -1.8770    -5.0060    -1.9490 H     1 <1>   0.0800 
 25 H       -1.4020    -3.5810     1.5550 H     1 <1>   0.0800 
 26 H       -0.1350    -2.4540     1.0470 H     1 <1>   0.0800 
 27 H        0.1760    -4.1940     1.0450 H     1 <1>   0.0800 
 28 H       -4.8110    -0.7430     0.4590 H     1 <1>   0.0800 
 29 H       -5.5490    -1.8210     1.6370 H     1 <1>   0.0800 
 30 H       -6.6130     0.3890     1.0890 H     1 <1>   0.1500 
 31 H       -8.4230    -2.4560    -1.5290 H     1 <1>   0.1500 
 32 H       -8.6500     1.7220     1.0540 H     1 <1>   0.1500 
 33 H      -10.4830    -1.0970    -1.5650 H     1 <1>   0.1500 
 34 H      -10.5920     0.9930    -0.2680 H     1 <1>   0.1500 
@<TRIPOS>BOND
  1   1   2  ar  
  2   2   3  ar  
  3   2   4  1   
  4   4   5  1   
  5   4   6  1   
  6   4  19  1   
  7   5   7  am  
  8   5  20  1   
  9   6   8  1   
 10   6   9  1   
 11   6  21  1   
 12   7  10  2   
 13   7  11  1   
 14   8  22  1   
 15   8  23  1   
 16   8  24  1   
 17   9  25  1   
 18   9  26  1   
 19   9  27  1   
 20  11  12  1   
 21  11  28  1   
 22  11  29  1   
 23  12  13  1   
 24  13  14  ar  
 25  13  15  ar  
 26  14  16  ar  
 27  14  30  1   
 28  15  17  ar  
 29  15  31  1   
 30  16  18  ar  
 31  16  32  1   
 32  17  18  ar  
 33  17  33  1   
 34  18  34  1   
@<TRIPOS>SUBSTRUCTURE
  1 ****  11 GROUP 4 **** **** 0

# MOE 2024.06 (io_trps.svl 2023.06)
