@<TRIPOS>MOLECULE
NONAME
42 43 1 0 0 
SMALL
USER_CHARGES


@<TRIPOS>ATOM
  1 O      -14.1120     0.6010     0.5790 O.3   1 <1>  -0.3630 
  2 C      -13.0250     1.3940     0.4190 C.ar  1 <1>   0.0830 
  3 C      -15.1720     0.6050    -0.3480 C.3   1 <1>   0.1200 
  4 C      -12.8400     2.2520    -0.6600 C.ar  1 <1>  -0.1500 
  5 C      -12.0560     1.3240     1.4060 C.ar  1 <1>  -0.1500 
  6 C      -16.2270    -0.3850     0.1380 C.3   1 <1>  -0.2400 
  7 C      -11.6930     3.0230    -0.7440 C.ar  1 <1>  -0.1500 
  8 C      -10.9110     2.0940     1.3230 C.ar  1 <1>  -0.1500 
  9 C      -10.7210     2.9450     0.2440 C.ar  1 <1>  -0.1430 
 10 C       -9.4580     3.7670     0.1420 C.3   1 <1>   0.4860 
 11 N       -8.4380     2.8870    -0.4560 N.4   1 <1>  -0.9060 
 12 C       -7.0740     3.4850    -0.5930 C.3   1 <1>   0.3430 
 13 C       -5.9880     2.3860    -0.6030 C.3   1 <1>   0.3430 
 14 O       -6.3970     1.3420     0.2230 O.3   1 <1>  -0.6800 
 15 C       -4.6630     2.9230    -0.0900 C.ar  1 <1>  -0.1430 
 16 C       -4.4740     3.2060     1.2570 C.ar  1 <1>  -0.1500 
 17 C       -3.6210     3.1470    -0.9800 C.ar  1 <1>  -0.1500 
 18 C       -3.2660     3.7100     1.7050 C.ar  1 <1>  -0.1500 
 19 C       -2.4130     3.6500    -0.5310 C.ar  1 <1>  -0.1500 
 20 C       -2.2350     3.9340     0.8110 C.ar  1 <1>  -0.1500 
 21 H      -14.7880     0.3090    -1.3090 H     1 <1>   0.0800 
 22 H      -15.5800     1.6000    -0.3970 H     1 <1>   0.0800 
 23 H      -13.5770     2.3310    -1.4370 H     1 <1>   0.1500 
 24 H      -12.2130     0.6600     2.2380 H     1 <1>   0.1500 
 25 H      -15.8060    -1.3720     0.2000 H     1 <1>   0.0800 
 26 H      -17.0520    -0.4060    -0.5500 H     1 <1>   0.0800 
 27 H      -16.5930    -0.0890     1.1050 H     1 <1>   0.0800 
 28 H      -11.5760     3.6820    -1.5880 H     1 <1>   0.1500 
 29 H      -10.1800     2.0170     2.1110 H     1 <1>   0.1500 
 30 H       -9.1510     4.0940     1.1220 H     1 <1>   0.0800 
 31 H       -9.6270     4.6310    -0.4810 H     1 <1>   0.0800 
 32 H       -8.7900     2.5040    -1.3390 H     1 <1>   0.4500 
 33 H       -8.3160     2.0590     0.1550 H     1 <1>   0.4500 
 34 H       -6.8760     4.1250     0.2510 H     1 <1>   0.0800 
 35 H       -6.9990     4.0860    -1.4840 H     1 <1>   0.0800 
 36 H       -5.8700     1.9880    -1.5970 H     1 <1>   0.0800 
 37 H       -5.6190     0.7730     0.4160 H     1 <1>   0.4000 
 38 H       -5.2590     3.0350     1.9740 H     1 <1>   0.1500 
 39 H       -3.7300     2.9320    -2.0290 H     1 <1>   0.1500 
 40 H       -3.1220     3.9270     2.7500 H     1 <1>   0.1500 
 41 H       -1.6060     3.8220    -1.2240 H     1 <1>   0.1500 
 42 H       -1.2940     4.3250     1.1600 H     1 <1>   0.1500 
@<TRIPOS>BOND
  1   1   2  1   
  2   1   3  1   
  3   2   4  ar  
  4   2   5  ar  
  5   3   6  1   
  6   3  21  1   
  7   3  22  1   
  8   4   7  ar  
  9   4  23  1   
 10   5   8  ar  
 11   5  24  1   
 12   6  25  1   
 13   6  26  1   
 14   6  27  1   
 15   7   9  ar  
 16   7  28  1   
 17   8   9  ar  
 18   8  29  1   
 19   9  10  1   
 20  10  11  1   
 21  10  30  1   
 22  10  31  1   
 23  11  12  1   
 24  11  32  1   
 25  11  33  1   
 26  12  13  1   
 27  12  34  1   
 28  12  35  1   
 29  13  14  1   
 30  13  15  1   
 31  13  36  1   
 32  14  37  1   
 33  15  16  ar  
 34  15  17  ar  
 35  16  18  ar  
 36  16  38  1   
 37  17  19  ar  
 38  17  39  1   
 39  18  20  ar  
 40  18  40  1   
 41  19  20  ar  
 42  19  41  1   
 43  20  42  1   
@<TRIPOS>SUBSTRUCTURE
  1 ****  11 GROUP 4 **** **** 0

# MOE 2024.06 (io_trps.svl 2023.06)
