@<TRIPOS>MOLECULE
NONAME
36 37 1 0 0 
SMALL
USER_CHARGES


@<TRIPOS>ATOM
  1 O       -0.7010    -0.2050     0.8070 O.2   1 <1>  -0.5700 
  2 C       -1.4650     0.5840     0.2910 C.2   1 <1>   0.7800 
  3 O       -2.6570     0.1970    -0.1710 O.3   1 <1>  -0.4300 
  4 N       -1.1520     1.8890     0.1590 N.am  1 <1>  -0.7300 
  5 C       -3.2060    -1.1000    -0.1440 C.3   1 <1>   0.2800 
  6 C       -1.8860     2.8860    -0.6490 C.3   1 <1>   0.2200 
  7 C       -3.3820    -1.5710     1.3040 C.3   1 <1>  -0.2400 
  8 C       -2.3440    -2.0590    -0.9730 C.3   1 <1>  -0.2400 
  9 C       -4.5810    -0.9630    -0.8000 C.3   1 <1>  -0.2400 
 10 C       -1.1480     4.2550    -0.7980 C.3   1 <1>  -0.1860 
 11 C       -3.2170     3.2810     0.0320 C.3   1 <1>   0.0580 
 12 C        0.2180     4.3550    -0.1370 C.2   1 <1>   0.9060 
 13 C       -2.1700     5.2560    -0.2120 C.3   1 <1>   0.0580 
 14 C       -3.9950     4.0840    -0.9960 C.2   1 <1>  -0.2880 
 15 C       -2.7600     4.4300     0.9260 C.3   1 <1>  -0.1600 
 16 O        0.4970     5.3420     0.5510 O.co2 1 <1>  -0.9000 
 17 O        1.0380     3.4480    -0.3240 O.co2 1 <1>  -0.9000 
 18 C       -3.3710     5.2490    -1.1440 C.2   1 <1>  -0.2880 
 19 H       -0.1500     2.1390     0.2680 H     1 <1>   0.3700 
 20 H       -2.0820     2.4650    -1.6200 H     1 <1>   0.0800 
 21 H       -2.4310    -1.7430     1.7730 H     1 <1>   0.0800 
 22 H       -3.9280    -2.4970     1.3270 H     1 <1>   0.0800 
 23 H       -3.9270    -0.8380     1.8710 H     1 <1>   0.0800 
 24 H       -2.1810    -1.6580    -1.9570 H     1 <1>   0.0800 
 25 H       -2.8360    -3.0090    -1.0670 H     1 <1>   0.0800 
 26 H       -1.3940    -2.2300    -0.5010 H     1 <1>   0.0800 
 27 H       -4.4770    -0.6060    -1.8090 H     1 <1>   0.0800 
 28 H       -5.1900    -0.2720    -0.2450 H     1 <1>   0.0800 
 29 H       -5.0810    -1.9140    -0.8250 H     1 <1>   0.0800 
 30 H       -1.0020     4.4730    -1.8370 H     1 <1>   0.0800 
 31 H       -3.7700     2.5010     0.5230 H     1 <1>   0.0800 
 32 H       -1.8060     6.2310     0.0680 H     1 <1>   0.0800 
 33 H       -4.8660     3.6730    -1.4740 H     1 <1>   0.1500 
 34 H       -2.0210     4.1360     1.6540 H     1 <1>   0.0800 
 35 H       -3.5820     4.9300     1.4080 H     1 <1>   0.0800 
 36 H       -3.5710     6.0920    -1.7810 H     1 <1>   0.1500 
@<TRIPOS>BOND
  1   1   2  2   
  2   2   3  1   
  3   2   4  am  
  4   3   5  1   
  5   4   6  1   
  6   4  19  1   
  7   5   7  1   
  8   5   8  1   
  9   5   9  1   
 10   6  10  1   
 11   6  11  1   
 12   6  20  1   
 13   7  21  1   
 14   7  22  1   
 15   7  23  1   
 16   8  24  1   
 17   8  25  1   
 18   8  26  1   
 19   9  27  1   
 20   9  28  1   
 21   9  29  1   
 22  10  12  1   
 23  10  13  1   
 24  10  30  1   
 25  11  14  1   
 26  11  15  1   
 27  11  31  1   
 28  12  16  ar  
 29  12  17  ar  
 30  13  15  1   
 31  13  18  1   
 32  13  32  1   
 33  14  18  2   
 34  14  33  1   
 35  15  34  1   
 36  15  35  1   
 37  18  36  1   
@<TRIPOS>SUBSTRUCTURE
  1 ****   6 GROUP 4 **** **** 0

# MOE 2024.06 (io_trps.svl 2023.06)
