@<TRIPOS>MOLECULE
NONAME
43 45 1 0 0 
SMALL
USER_CHARGES


@<TRIPOS>ATOM
  1 O       -1.9580     1.6670     2.5020 O.co2 1 <1>  -0.9000 
  2 C       -1.4620     1.4310     1.3940 C.2   1 <1>   0.9060 
  3 O       -1.4420     0.2910     0.9200 O.co2 1 <1>  -0.9000 
  4 C       -0.9030     2.6060     0.6130 C.3   1 <1>  -0.1860 
  5 C       -2.0160     3.5050     0.0110 C.3   1 <1>  -0.0190 
  6 C        0.1240     2.1860    -0.4540 C.3   1 <1>  -0.0220 
  7 C       -2.8940     2.7860    -1.0390 C.2   1 <1>   0.5690 
  8 C       -1.3770     4.8030    -0.5430 C.3   1 <1>  -0.0220 
  9 C        0.5980     3.3980    -1.2420 C.2   1 <1>  -0.2880 
 10 O       -2.6070     2.9240    -2.2100 O.2   1 <1>  -0.5700 
 11 N       -4.0000     2.0400    -0.6950 N.am  1 <1>  -0.6600 
 12 C       -0.0600     4.5600    -1.2720 C.2   1 <1>  -0.2880 
 13 C       -4.6050     1.1470    -1.7190 C.3   1 <1>   0.2780 
 14 C       -4.4610     1.7430     0.6950 C.3   1 <1>   0.1400 
 15 C       -6.0740     0.8690    -1.4320 C.2   1 <1>  -0.2880 
 16 C       -5.9790     1.9090     0.8150 C.3   1 <1>  -0.0220 
 17 C       -6.7280     1.2010    -0.3070 C.2   1 <1>  -0.1670 
 18 C       -8.1340     0.9520    -0.0810 C.ar  1 <1>   0.0280 
 19 C       -8.5810     0.2050     1.0050 C.ar  1 <1>  -0.1500 
 20 C       -9.0860     1.4540    -0.9630 C.ar  1 <1>  -0.1500 
 21 C       -9.9300    -0.0240     1.2100 C.ar  1 <1>  -0.1500 
 22 C      -10.4360     1.2290    -0.7650 C.ar  1 <1>  -0.1500 
 23 C      -10.8610     0.4890     0.3240 C.ar  1 <1>  -0.1500 
 24 H       -0.3760     3.1960     1.3390 H     1 <1>   0.0800 
 25 H       -2.6570     3.8210     0.8090 H     1 <1>   0.0800 
 26 H       -0.3130     1.4700    -1.1300 H     1 <1>   0.0800 
 27 H        0.9570     1.7140     0.0350 H     1 <1>   0.0800 
 28 H       -1.1840     5.4730     0.2750 H     1 <1>   0.0800 
 29 H       -2.0730     5.2880    -1.2050 H     1 <1>   0.0800 
 30 H        1.5130     3.2220    -1.7810 H     1 <1>   0.1500 
 31 H        0.2860     5.4160    -1.8240 H     1 <1>   0.1500 
 32 H       -4.0550     0.2210    -1.7350 H     1 <1>   0.0800 
 33 H       -4.5250     1.6020    -2.6910 H     1 <1>   0.0800 
 34 H       -4.0000     2.3860     1.4170 H     1 <1>   0.0800 
 35 H       -4.1850     0.7300     0.9380 H     1 <1>   0.0800 
 36 H       -6.5580     0.3610    -2.2450 H     1 <1>   0.1500 
 37 H       -6.2210     2.9560     0.7950 H     1 <1>   0.0800 
 38 H       -6.2750     1.5230     1.7730 H     1 <1>   0.0800 
 39 H       -7.8620    -0.2070     1.6900 H     1 <1>   0.1500 
 40 H       -8.7550     2.0300    -1.8080 H     1 <1>   0.1500 
 41 H      -10.2550    -0.6030     2.0570 H     1 <1>   0.1500 
 42 H      -11.1560     1.6290    -1.4580 H     1 <1>   0.1500 
 43 H      -11.9110     0.3130     0.4810 H     1 <1>   0.1500 
@<TRIPOS>BOND
  1   1   2  ar  
  2   2   3  ar  
  3   2   4  1   
  4   4   5  1   
  5   4   6  1   
  6   4  24  1   
  7   5   7  1   
  8   5   8  1   
  9   5  25  1   
 10   6   9  1   
 11   6  26  1   
 12   6  27  1   
 13   7  10  2   
 14   7  11  am  
 15   8  12  1   
 16   8  28  1   
 17   8  29  1   
 18   9  12  2   
 19   9  30  1   
 20  11  13  1   
 21  11  14  1   
 22  12  31  1   
 23  13  15  1   
 24  13  32  1   
 25  13  33  1   
 26  14  16  1   
 27  14  34  1   
 28  14  35  1   
 29  15  17  2   
 30  15  36  1   
 31  16  17  1   
 32  16  37  1   
 33  16  38  1   
 34  17  18  1   
 35  18  19  ar  
 36  18  20  ar  
 37  19  21  ar  
 38  19  39  1   
 39  20  22  ar  
 40  20  40  1   
 41  21  23  ar  
 42  21  41  1   
 43  22  23  ar  
 44  22  42  1   
 45  23  43  1   
@<TRIPOS>SUBSTRUCTURE
  1 ****  11 GROUP 4 **** **** 0

# MOE 2024.06 (io_trps.svl 2023.06)
