@<TRIPOS>MOLECULE
NONAME
34 36 1 0 0 
SMALL
USER_CHARGES


@<TRIPOS>ATOM
  1 O       -0.6400     0.4840    -1.3950 O.2   1 <1>  -0.5700 
  2 C       -1.5570     1.0940    -0.8640 C.2   1 <1>   0.7060 
  3 O       -2.6400     0.3820    -0.5350 O.3   1 <1>  -0.2320 
  4 C       -1.5460     2.5120    -0.6180 C.2   1 <1>   0.1140 
  5 C       -3.7420     0.9410     0.0050 C.ar  1 <1>   0.0830 
  6 N       -0.4090     3.3130    -0.9100 N.pl3 1 <1>  -0.9000 
  7 C       -2.6660     3.1290    -0.1240 C.2   1 <1>   0.0720 
  8 C       -3.8010     2.3220     0.2380 C.ar  1 <1>   0.0280 
  9 C       -4.8070     0.1110     0.3240 C.ar  1 <1>  -0.1500 
 10 N       -2.7210     4.5250     0.0130 N.pl3 1 <1>  -0.8380 
 11 C       -4.9660     2.8230     0.8270 C.ar  1 <1>  -0.1500 
 12 C       -5.9500     0.6370     0.8930 C.ar  1 <1>  -0.1500 
 13 C       -3.5600     5.3630    -0.8790 C.3   1 <1>   0.2090 
 14 C       -2.1250     5.1910     1.1990 C.3   1 <1>   0.2090 
 15 C       -6.0250     1.9970     1.1470 C.ar  1 <1>  -0.1500 
 16 C       -2.7400     6.5700    -1.3440 C.3   1 <1>  -0.1600 
 17 C       -1.3200     6.4130     0.7440 C.3   1 <1>  -0.1600 
 18 C       -2.1460     7.3460    -0.1570 C.3   1 <1>  -0.1600 
 19 H       -0.7290     4.2910    -0.9650 H     1 <1>   0.4000 
 20 H        0.0700     3.0200    -1.7680 H     1 <1>   0.4000 
 21 H       -4.7320    -0.9430     0.1270 H     1 <1>   0.1500 
 22 H       -5.0350     3.8730     1.0400 H     1 <1>   0.1500 
 23 H       -6.7770    -0.0050     1.1420 H     1 <1>   0.1500 
 24 H       -4.4290     5.6990    -0.3390 H     1 <1>   0.0800 
 25 H       -3.8850     4.7840    -1.7260 H     1 <1>   0.0800 
 26 H       -1.4840     4.4990     1.7210 H     1 <1>   0.0800 
 27 H       -2.9140     5.4960     1.8650 H     1 <1>   0.0800 
 28 H       -6.9130     2.4070     1.5970 H     1 <1>   0.1500 
 29 H       -3.3690     7.2220    -1.9240 H     1 <1>   0.0800 
 30 H       -1.9490     6.2230    -1.9850 H     1 <1>   0.0800 
 31 H       -0.4490     6.0730     0.2130 H     1 <1>   0.0800 
 32 H       -0.9810     6.9520     1.6100 H     1 <1>   0.0800 
 33 H       -2.9440     7.7810     0.4190 H     1 <1>   0.0800 
 34 H       -1.5230     8.1460    -0.5200 H     1 <1>   0.0800 
@<TRIPOS>BOND
  1   1   2  2   
  2   2   3  1   
  3   2   4  1   
  4   3   5  1   
  5   4   6  1   
  6   4   7  2   
  7   5   8  ar  
  8   5   9  ar  
  9   6  19  1   
 10   6  20  1   
 11   7   8  1   
 12   7  10  1   
 13   8  11  ar  
 14   9  12  ar  
 15   9  21  1   
 16  10  13  1   
 17  10  14  1   
 18  11  15  ar  
 19  11  22  1   
 20  12  15  ar  
 21  12  23  1   
 22  13  16  1   
 23  13  24  1   
 24  13  25  1   
 25  14  17  1   
 26  14  26  1   
 27  14  27  1   
 28  15  28  1   
 29  16  18  1   
 30  16  29  1   
 31  16  30  1   
 32  17  18  1   
 33  17  31  1   
 34  17  32  1   
 35  18  33  1   
 36  18  34  1   
@<TRIPOS>SUBSTRUCTURE
  1 ****   7 GROUP 4 **** **** 0

# MOE 2024.06 (io_trps.svl 2023.06)
