@<TRIPOS>MOLECULE
NONAME
49 51 1 0 0 
SMALL
USER_CHARGES


@<TRIPOS>ATOM
  1 CL      -0.4990    -0.4640    -0.6730 Cl    1 <1>  -0.1770 
  2 C        1.1180    -1.0450    -0.3270 C.ar  1 <1>   0.1770 
  3 C        1.3170    -2.4050    -0.0800 C.ar  1 <1>   0.1170 
  4 C        2.1550    -0.1290    -0.3040 C.ar  1 <1>  -0.1500 
  5 N        0.2240    -3.2860    -0.1250 N.am  1 <1>  -0.5470 
  6 C        2.6140    -2.8300     0.1950 C.ar  1 <1>  -0.1500 
  7 C        3.4400    -0.5690    -0.0270 C.ar  1 <1>  -0.1500 
  8 C        0.0120    -4.5360     0.3800 C.2   1 <1>   0.5690 
  9 C        3.6500    -1.9140     0.2190 C.ar  1 <1>   0.1770 
 10 O        0.8440    -5.1740     0.9790 O.2   1 <1>  -0.5700 
 11 C       -1.3840    -5.1250     0.1640 C.3   1 <1>   0.1710 
 12 CL       5.2690    -2.4650     0.5650 Cl    1 <1>  -0.1770 
 13 N       -2.4160    -4.0940    -0.1570 N.3   1 <1>  -0.8100 
 14 C       -2.8170    -3.3370     1.0610 C.3   1 <1>   0.1100 
 15 C       -3.6190    -4.7160    -0.7630 C.3   1 <1>   0.1100 
 16 C       -3.8670    -2.2530     0.7530 C.3   1 <1>   0.2090 
 17 C       -4.7020    -3.6760    -1.1160 C.3   1 <1>   0.2090 
 18 N       -5.0470    -2.8570     0.0770 N.pl3 1 <1>  -0.8380 
 19 C       -6.2890    -2.2270     0.1300 C.ar  1 <1>   0.1000 
 20 C       -6.5570    -0.9750    -0.4350 C.ar  1 <1>  -0.1430 
 21 C       -7.3160    -2.8960     0.7830 C.ar  1 <1>  -0.1500 
 22 C       -7.8280    -0.4320    -0.3240 C.ar  1 <1>  -0.1500 
 23 C       -5.4950    -0.1740    -1.1770 C.3   1 <1>  -0.0970 
 24 C       -8.5800    -2.3480     0.8860 C.ar  1 <1>  -0.1500 
 25 C       -8.8430    -1.1080     0.3330 C.ar  1 <1>  -0.1430 
 26 C      -10.2280    -0.4950     0.4390 C.3   1 <1>  -0.0970 
 27 H        1.9590     0.9100    -0.4990 H     1 <1>   0.1500 
 28 H       -0.6460    -2.9040    -0.5200 H     1 <1>   0.3700 
 29 H        2.8260    -3.8650     0.3890 H     1 <1>   0.1500 
 30 H        4.2680     0.1170    -0.0010 H     1 <1>   0.1500 
 31 H       -1.6720    -5.6790     1.0400 H     1 <1>   0.0800 
 32 H       -1.3070    -5.8180    -0.6550 H     1 <1>   0.0800 
 33 H       -1.9570    -2.8630     1.5000 H     1 <1>   0.0800 
 34 H       -3.2320    -4.0110     1.7910 H     1 <1>   0.0800 
 35 H       -4.0440    -5.4310    -0.0800 H     1 <1>   0.0800 
 36 H       -3.3390    -5.2360    -1.6620 H     1 <1>   0.0800 
 37 H       -3.4240    -1.5090     0.1160 H     1 <1>   0.0800 
 38 H       -4.1830    -1.7770     1.6650 H     1 <1>   0.0800 
 39 H       -5.5850    -4.1750    -1.4740 H     1 <1>   0.0800 
 40 H       -4.3360    -3.0360    -1.8990 H     1 <1>   0.0800 
 41 H       -7.1070    -3.8560     1.2140 H     1 <1>   0.1500 
 42 H       -8.0350     0.5310    -0.7550 H     1 <1>   0.1500 
 43 H       -4.9110    -0.8170    -1.8070 H     1 <1>   0.0800 
 44 H       -4.8470     0.3090    -0.4700 H     1 <1>   0.0800 
 45 H       -5.9470     0.5780    -1.7970 H     1 <1>   0.0800 
 46 H       -9.3540    -2.8910     1.3970 H     1 <1>   0.1500 
 47 H      -10.1560     0.5730     0.5460 H     1 <1>   0.0800 
 48 H      -10.7500    -0.8870     1.2930 H     1 <1>   0.0800 
 49 H      -10.7930    -0.7190    -0.4480 H     1 <1>   0.0800 
@<TRIPOS>BOND
  1   1   2  1   
  2   2   3  ar  
  3   2   4  ar  
  4   3   5  1   
  5   3   6  ar  
  6   4   7  ar  
  7   4  27  1   
  8   5   8  am  
  9   5  28  1   
 10   6   9  ar  
 11   6  29  1   
 12   7   9  ar  
 13   7  30  1   
 14   8  10  2   
 15   8  11  1   
 16   9  12  1   
 17  11  13  1   
 18  11  31  1   
 19  11  32  1   
 20  13  14  1   
 21  13  15  1   
 22  14  16  1   
 23  14  33  1   
 24  14  34  1   
 25  15  17  1   
 26  15  35  1   
 27  15  36  1   
 28  16  18  1   
 29  16  37  1   
 30  16  38  1   
 31  17  18  1   
 32  17  39  1   
 33  17  40  1   
 34  18  19  1   
 35  19  20  ar  
 36  19  21  ar  
 37  20  22  ar  
 38  20  23  1   
 39  21  24  ar  
 40  21  41  1   
 41  22  25  ar  
 42  22  42  1   
 43  23  43  1   
 44  23  44  1   
 45  23  45  1   
 46  24  25  ar  
 47  24  46  1   
 48  25  26  1   
 49  26  47  1   
 50  26  48  1   
 51  26  49  1   
@<TRIPOS>SUBSTRUCTURE
  1 ****  14 GROUP 4 **** **** 0

# MOE 2024.06 (io_trps.svl 2023.06)
