@<TRIPOS>MOLECULE
NONAME
36 39 1 0 0 
SMALL
USER_CHARGES


@<TRIPOS>ATOM
  1 S        0.0540    -0.9270     0.6360 S.3   1 <1>  -0.0800 
  2 C       -1.3580     0.0500     0.2010 C.ar  1 <1>   0.2970 
  3 C        1.1650     0.3760     0.1680 C.ar  1 <1>   0.0400 
  4 N       -2.5870    -0.4110     0.3370 N.ar  1 <1>  -0.5670 
  5 C       -0.9580     1.2920    -0.2710 C.ar  1 <1>   0.0000 
  6 C        2.5400     0.4090     0.2070 C.ar  1 <1>   0.3920 
  7 C        0.4710     1.4680    -0.2860 C.ar  1 <1>   0.2560 
  8 C       -3.5180     0.4530    -0.0360 C.ar  1 <1>   0.1660 
  9 C       -1.9580     2.1720    -0.6510 C.ar  1 <1>  -0.1500 
 10 O        3.2150    -0.6670     0.6540 O.3   1 <1>  -0.3630 
 11 N        3.1980     1.4860    -0.1890 N.ar  1 <1>  -0.6200 
 12 N        1.1160     2.5590    -0.6870 N.ar  1 <1>  -0.5660 
 13 C       -3.2630     1.7350    -0.5260 C.ar  1 <1>  -0.1430 
 14 C       -4.9510    -0.0250     0.0790 C.3   1 <1>  -0.0170 
 15 C        4.6270    -0.6730     0.7110 C.3   1 <1>   0.0400 
 16 C        2.4350     2.4920    -0.6110 C.ar  1 <1>   0.4700 
 17 C       -4.4060     2.6660    -0.9120 C.3   1 <1>   0.2640 
 18 C       -5.9570     1.1370     0.0820 C.3   1 <1>   0.2800 
 19 O       -5.6380     2.0050    -0.9610 O.3   1 <1>  -0.5600 
 20 C       -7.3650     0.6250    -0.2250 C.3   1 <1>  -0.2400 
 21 C       -5.9790     1.9010     1.4160 C.3   1 <1>  -0.2400 
 22 H       -1.7070     3.1500    -1.0230 H     1 <1>   0.1500 
 23 H       -5.0680    -0.6030     0.9780 H     1 <1>   0.0800 
 24 H       -5.1510    -0.6750    -0.7530 H     1 <1>   0.0800 
 25 H        4.9450    -1.6250     1.0950 H     1 <1>   0.0800 
 26 H        4.9530     0.1180     1.3630 H     1 <1>   0.0800 
 27 H        5.0160    -0.5260    -0.2820 H     1 <1>   0.0800 
 28 H        2.9680     3.3710    -0.9350 H     1 <1>   0.1500 
 29 H       -4.2300     3.0820    -1.8880 H     1 <1>   0.0800 
 30 H       -4.4850     3.4760    -0.2070 H     1 <1>   0.0800 
 31 H       -7.3850     0.1370    -1.1830 H     1 <1>   0.0800 
 32 H       -8.0620     1.4440    -0.2390 H     1 <1>   0.0800 
 33 H       -7.6800    -0.0780     0.5230 H     1 <1>   0.0800 
 34 H       -4.9920     2.2020     1.7170 H     1 <1>   0.0800 
 35 H       -6.3710     1.2670     2.1910 H     1 <1>   0.0800 
 36 H       -6.6100     2.7670     1.3380 H     1 <1>   0.0800 
@<TRIPOS>BOND
  1   1   2  1   
  2   1   3  1   
  3   2   4  ar  
  4   2   5  ar  
  5   3   6  ar  
  6   3   7  ar  
  7   4   8  ar  
  8   5   7  1   
  9   5   9  ar  
 10   6  10  1   
 11   6  11  ar  
 12   7  12  ar  
 13   8  13  ar  
 14   8  14  1   
 15   9  13  ar  
 16   9  22  1   
 17  10  15  1   
 18  11  16  ar  
 19  12  16  ar  
 20  13  17  1   
 21  14  18  1   
 22  14  23  1   
 23  14  24  1   
 24  15  25  1   
 25  15  26  1   
 26  15  27  1   
 27  16  28  1   
 28  17  19  1   
 29  17  29  1   
 30  17  30  1   
 31  18  19  1   
 32  18  20  1   
 33  18  21  1   
 34  20  31  1   
 35  20  32  1   
 36  20  33  1   
 37  21  34  1   
 38  21  35  1   
 39  21  36  1   
@<TRIPOS>SUBSTRUCTURE
  1 ****   5 GROUP 4 **** **** 0

# MOE 2024.06 (io_trps.svl 2023.06)
