@<TRIPOS>MOLECULE
NONAME
48 49 1 0 0 
SMALL
USER_CHARGES


@<TRIPOS>ATOM
  1 CL      -0.8460     0.3340    -0.5370 Cl    1 <1>  -0.1770 
  2 C        0.4730     1.4750    -0.5960 C.ar  1 <1>   0.1770 
  3 C        0.2550     2.7800    -0.2050 C.ar  1 <1>  -0.1500 
  4 C        1.7120     1.0550    -1.0320 C.ar  1 <1>  -0.1500 
  5 C        1.2920     3.7100    -0.2360 C.ar  1 <1>  -0.0090 
  6 C        2.7500     1.9660    -1.0830 C.ar  1 <1>  -0.1500 
  7 S        1.0550     5.4260     0.3020 S.o2  1 <1>   1.4470 
  8 C        2.5410     3.2910    -0.6960 C.ar  1 <1>   0.0830 
  9 O        1.0340     6.2990    -0.8470 O.2   1 <1>  -0.6500 
 10 O        1.9240     5.7130     1.4220 O.2   1 <1>  -0.6500 
 11 N       -0.4580     5.4090     1.0340 N.am  1 <1>  -0.9140 
 12 O        3.5240     4.2240    -0.7580 O.3   1 <1>  -0.3620 
 13 C       -1.2910     6.5830     1.0250 C.3   1 <1>   0.3560 
 14 C        4.8910     3.8840    -0.9610 C.3   1 <1>   0.1810 
 15 C       -1.9650     6.7530    -0.3380 C.3   1 <1>  -0.2400 
 16 C       -0.5280     7.8390     1.4530 C.3   1 <1>  -0.2400 
 17 C       -2.3750     6.2960     2.0620 C.3   1 <1>  -0.2400 
 18 C        5.7900     5.1120    -1.1180 C.2   1 <1>   0.5690 
 19 O        6.5270     5.1140    -2.0770 O.2   1 <1>  -0.5700 
 20 N        5.8040     6.1460    -0.2120 N.am  1 <1>  -0.6600 
 21 C        6.6350     7.3670    -0.4350 C.3   1 <1>   0.1400 
 22 C        4.9450     6.2490     1.0070 C.3   1 <1>   0.1400 
 23 C        7.3660     7.7710     0.8540 C.3   1 <1>   0.1200 
 24 C        5.7540     6.7450     2.2180 C.3   1 <1>   0.1200 
 25 O        6.4610     7.9150     1.9120 O.3   1 <1>  -0.5600 
 26 H       -0.7300     3.0590     0.1220 H     1 <1>   0.1500 
 27 H        1.8550     0.0300    -1.3290 H     1 <1>   0.1500 
 28 H        3.7050     1.6220    -1.4340 H     1 <1>   0.1500 
 29 H       -0.2150     5.2740     2.0110 H     1 <1>   0.4200 
 30 H        4.9620     3.3080    -1.8650 H     1 <1>   0.0800 
 31 H        5.2230     3.2970    -0.1260 H     1 <1>   0.0800 
 32 H       -1.2670     7.0580    -1.0920 H     1 <1>   0.0800 
 33 H       -2.7220     7.5140    -0.2810 H     1 <1>   0.0800 
 34 H       -2.4320     5.8340    -0.6430 H     1 <1>   0.0800 
 35 H        0.1790     8.1440     0.7040 H     1 <1>   0.0800 
 36 H       -0.0110     7.6780     2.3820 H     1 <1>   0.0800 
 37 H       -1.2160     8.6540     1.5880 H     1 <1>   0.0800 
 38 H       -2.9210     5.4070     1.8020 H     1 <1>   0.0800 
 39 H       -3.0730     7.1130     2.1060 H     1 <1>   0.0800 
 40 H       -1.9480     6.1730     3.0410 H     1 <1>   0.0800 
 41 H        5.9970     8.1740    -0.7490 H     1 <1>   0.0800 
 42 H        7.3600     7.1960    -1.2120 H     1 <1>   0.0800 
 43 H        4.5110     5.2980     1.2540 H     1 <1>   0.0800 
 44 H        4.1430     6.9410     0.8140 H     1 <1>   0.0800 
 45 H        7.8630     8.7150     0.7170 H     1 <1>   0.0800 
 46 H        8.0980     7.0290     1.1220 H     1 <1>   0.0800 
 47 H        6.4560     5.9940     2.5350 H     1 <1>   0.0800 
 48 H        5.0920     6.9670     3.0350 H     1 <1>   0.0800 
@<TRIPOS>BOND
  1   1   2  1   
  2   2   3  ar  
  3   2   4  ar  
  4   3   5  ar  
  5   3  26  1   
  6   4   6  ar  
  7   4  27  1   
  8   5   7  1   
  9   5   8  ar  
 10   6   8  ar  
 11   6  28  1   
 12   7   9  2   
 13   7  10  2   
 14   7  11  am  
 15   8  12  1   
 16  11  13  1   
 17  11  29  1   
 18  12  14  1   
 19  13  15  1   
 20  13  16  1   
 21  13  17  1   
 22  14  18  1   
 23  14  30  1   
 24  14  31  1   
 25  15  32  1   
 26  15  33  1   
 27  15  34  1   
 28  16  35  1   
 29  16  36  1   
 30  16  37  1   
 31  17  38  1   
 32  17  39  1   
 33  17  40  1   
 34  18  19  2   
 35  18  20  am  
 36  20  21  1   
 37  20  22  1   
 38  21  23  1   
 39  21  41  1   
 40  21  42  1   
 41  22  24  1   
 42  22  43  1   
 43  22  44  1   
 44  23  25  1   
 45  23  45  1   
 46  23  46  1   
 47  24  25  1   
 48  24  47  1   
 49  24  48  1   
@<TRIPOS>SUBSTRUCTURE
  1 ****  12 GROUP 4 **** **** 0

# MOE 2024.06 (io_trps.svl 2023.06)
