@<TRIPOS>MOLECULE
NONAME
38 39 1 0 0 
SMALL
USER_CHARGES


@<TRIPOS>ATOM
  1 CL      -2.8670     1.4030     2.8370 Cl    1 <1>  -0.1770 
  2 C       -2.5210     1.6250     1.1370 C.ar  1 <1>   0.1770 
  3 C       -1.2190     1.8450     0.7010 C.ar  1 <1>  -0.1440 
  4 C       -3.5870     1.5840     0.2580 C.ar  1 <1>  -0.1500 
  5 C       -1.0030     2.0390    -0.6610 C.ar  1 <1>  -0.1500 
  6 C       -0.0630     1.8860     1.6960 C.3   1 <1>   0.3530 
  7 C       -3.3400     1.7720    -1.0870 C.ar  1 <1>   0.1770 
  8 C       -2.0600     2.0010    -1.5560 C.ar  1 <1>  -0.1500 
  9 N        1.1660     1.3280     1.0880 N.pl3 1 <1>  -0.8690 
 10 CL      -4.6700     1.7240    -2.2150 Cl    1 <1>  -0.1770 
 11 C        2.3910     1.9050     1.0440 C.2   1 <1>  -0.0500 
 12 C        3.5250     1.3780     0.4590 C.2   1 <1>   0.0290 
 13 C        4.7480     2.1220     0.5160 C.2   1 <1>   0.4950 
 14 C        3.5330     0.1060    -0.2090 C.2   1 <1>   0.4950 
 15 O        4.8330     3.2220     1.0110 O.2   1 <1>  -0.5700 
 16 C        6.0400     1.5730    -0.0650 C.3   1 <1>  -0.0990 
 17 O        2.5560    -0.5930    -0.3700 O.2   1 <1>  -0.5700 
 18 C        4.8150    -0.4600    -0.8000 C.3   1 <1>  -0.0990 
 19 C        6.0830     0.0400    -0.0940 C.3   1 <1>   0.0000 
 20 C        6.1660    -0.5280     1.3360 C.3   1 <1>  -0.2400 
 21 C        7.3230    -0.4260    -0.8710 C.3   1 <1>  -0.2400 
 22 H       -4.5860     1.4100     0.6120 H     1 <1>   0.1500 
 23 H       -0.0060     2.2200    -1.0310 H     1 <1>   0.1500 
 24 H       -0.2930     1.3070     2.5730 H     1 <1>   0.0800 
 25 H        0.1130     2.9040     2.0010 H     1 <1>   0.0800 
 26 H       -1.8940     2.1470    -2.6080 H     1 <1>   0.1500 
 27 H        1.0330     0.4010     0.6410 H     1 <1>   0.4000 
 28 H        2.4700     2.8720     1.5210 H     1 <1>   0.1500 
 29 H        6.1410     1.9650    -1.0610 H     1 <1>   0.0800 
 30 H        6.8670     1.9470     0.5130 H     1 <1>   0.0800 
 31 H        4.7750    -1.5340    -0.7500 H     1 <1>   0.0800 
 32 H        4.8410    -0.1890    -1.8400 H     1 <1>   0.0800 
 33 H        7.0570    -0.1790     1.8280 H     1 <1>   0.0800 
 34 H        6.2010    -1.6040     1.3120 H     1 <1>   0.0800 
 35 H        5.3220    -0.2390     1.9360 H     1 <1>   0.0800 
 36 H        7.3090    -0.0530    -1.8800 H     1 <1>   0.0800 
 37 H        7.3640    -1.5010    -0.9120 H     1 <1>   0.0800 
 38 H        8.2230    -0.0740    -0.3960 H     1 <1>   0.0800 
@<TRIPOS>BOND
  1   1   2  1   
  2   2   3  ar  
  3   2   4  ar  
  4   3   5  ar  
  5   3   6  1   
  6   4   7  ar  
  7   4  22  1   
  8   5   8  ar  
  9   5  23  1   
 10   6   9  1   
 11   6  24  1   
 12   6  25  1   
 13   7   8  ar  
 14   7  10  1   
 15   8  26  1   
 16   9  11  1   
 17   9  27  1   
 18  11  12  2   
 19  11  28  1   
 20  12  13  1   
 21  12  14  1   
 22  13  15  2   
 23  13  16  1   
 24  14  17  2   
 25  14  18  1   
 26  16  19  1   
 27  16  29  1   
 28  16  30  1   
 29  18  19  1   
 30  18  31  1   
 31  18  32  1   
 32  19  20  1   
 33  19  21  1   
 34  20  33  1   
 35  20  34  1   
 36  20  35  1   
 37  21  36  1   
 38  21  37  1   
 39  21  38  1   
@<TRIPOS>SUBSTRUCTURE
  1 ****   9 GROUP 4 **** **** 0

# MOE 2024.06 (io_trps.svl 2023.06)
