@<TRIPOS>MOLECULE
NONAME
40 40 1 0 0 
SMALL
USER_CHARGES


@<TRIPOS>ATOM
  1 O       -7.7730     1.8290    -1.2960 O.2   1 <1>  -0.5700 
  2 C       -7.5030     0.6670    -1.0860 C.2   1 <1>   0.5690 
  3 N       -6.7410     0.2900    -0.0010 N.am  1 <1>  -0.6600 
  4 C       -8.0140    -0.3480    -2.1120 C.3   1 <1>   0.1810 
  5 C       -6.4320    -1.1250     0.3460 C.3   1 <1>   0.1400 
  6 C       -6.3210     1.3090     1.0000 C.3   1 <1>   0.1400 
  7 O       -8.9790    -1.2470    -1.5750 O.3   1 <1>  -0.3620 
  8 C       -5.0870    -1.5340    -0.2480 C.3   1 <1>  -0.2400 
  9 C       -5.0350     1.9970     0.5470 C.3   1 <1>  -0.2400 
 10 C      -10.2190    -0.8500    -1.1720 C.ar  1 <1>   0.0820 
 11 C      -11.0240    -1.7530    -0.4690 C.ar  1 <1>   0.1670 
 12 C      -10.7190     0.4180    -1.4290 C.ar  1 <1>  -0.1500 
 13 N      -12.2430    -1.4770    -0.0250 N.ar  1 <1>  -0.6200 
 14 C      -10.5270    -3.1590    -0.1530 C.3   1 <1>  -0.0170 
 15 C      -11.9830     0.7040    -0.9660 C.ar  1 <1>  -0.1500 
 16 C      -12.6970    -0.2630    -0.2780 C.ar  1 <1>   0.1670 
 17 C       -9.9090    -3.2310     1.2480 C.3   1 <1>  -0.2400 
 18 C      -14.0880     0.0390     0.2380 C.3   1 <1>  -0.0970 
 19 H       -7.1890    -0.9360    -2.4630 H     1 <1>   0.0800 
 20 H       -8.4500     0.1560    -2.9540 H     1 <1>   0.0800 
 21 H       -7.1990    -1.7790    -0.0250 H     1 <1>   0.0800 
 22 H       -6.4100    -1.2430     1.4160 H     1 <1>   0.0800 
 23 H       -6.1740     0.8510     1.9630 H     1 <1>   0.0800 
 24 H       -7.1000     2.0460     1.1050 H     1 <1>   0.0800 
 25 H       -5.0760    -1.3700    -1.3100 H     1 <1>   0.0800 
 26 H       -4.9150    -2.5790    -0.0620 H     1 <1>   0.0800 
 27 H       -4.2890    -0.9790     0.2080 H     1 <1>   0.0800 
 28 H       -4.2270     1.2950     0.4770 H     1 <1>   0.0800 
 29 H       -4.7650     2.7570     1.2570 H     1 <1>   0.0800 
 30 H       -5.1850     2.4660    -0.4090 H     1 <1>   0.0800 
 31 H      -10.1680     1.1690    -1.9630 H     1 <1>   0.1500 
 32 H       -9.8070    -3.4780    -0.8840 H     1 <1>   0.0800 
 33 H      -11.3590    -3.8400    -0.2090 H     1 <1>   0.0800 
 34 H      -12.4090     1.6750    -1.1400 H     1 <1>   0.1500 
 35 H       -9.0830    -2.5470     1.3240 H     1 <1>   0.0800 
 36 H       -9.5610    -4.2280     1.4520 H     1 <1>   0.0800 
 37 H      -10.6460    -2.9620     1.9850 H     1 <1>   0.0800 
 38 H      -14.7880    -0.6500    -0.1990 H     1 <1>   0.0800 
 39 H      -14.3850     1.0410    -0.0070 H     1 <1>   0.0800 
 40 H      -14.1060    -0.0800     1.3050 H     1 <1>   0.0800 
@<TRIPOS>BOND
  1   1   2  2   
  2   2   3  am  
  3   2   4  1   
  4   3   5  1   
  5   3   6  1   
  6   4   7  1   
  7   4  19  1   
  8   4  20  1   
  9   5   8  1   
 10   5  21  1   
 11   5  22  1   
 12   6   9  1   
 13   6  23  1   
 14   6  24  1   
 15   7  10  1   
 16   8  25  1   
 17   8  26  1   
 18   8  27  1   
 19   9  28  1   
 20   9  29  1   
 21   9  30  1   
 22  10  11  ar  
 23  10  12  ar  
 24  11  13  ar  
 25  11  14  1   
 26  12  15  ar  
 27  12  31  1   
 28  13  16  ar  
 29  14  17  1   
 30  14  32  1   
 31  14  33  1   
 32  15  16  ar  
 33  15  34  1   
 34  16  18  1   
 35  17  35  1   
 36  17  36  1   
 37  17  37  1   
 38  18  38  1   
 39  18  39  1   
 40  18  40  1   
@<TRIPOS>SUBSTRUCTURE
  1 ****  10 GROUP 4 **** **** 0

# MOE 2024.06 (io_trps.svl 2023.06)
