@<TRIPOS>MOLECULE
NONAME
42 43 1 0 0 
SMALL
USER_CHARGES


@<TRIPOS>ATOM
  1 F       -1.2300    -1.4250     2.0450 F     1 <1>  -0.3400 
  2 C       -2.2800    -0.6720     1.7220 C.3   1 <1>   1.0200 
  3 F       -1.8790     0.5850     1.8490 F     1 <1>  -0.3400 
  4 F       -3.1540    -0.8600     2.7060 F     1 <1>  -0.3400 
  5 C       -2.8670    -1.0450     0.3280 C.3   1 <1>   0.4990 
  6 N       -4.1740    -0.3750    -0.0660 N.am  1 <1>  -0.7300 
  7 C       -1.6970    -0.9150    -0.6590 C.2   1 <1>   0.6590 
  8 C       -3.1050    -2.5460     0.1900 C.2   1 <1>  -0.1240 
  9 C       -4.3500     0.9290    -0.3720 C.2   1 <1>   0.5690 
 10 O       -1.0180     0.0490    -0.8950 O.2   1 <1>  -0.5700 
 11 O       -1.4390    -2.0940    -1.2190 O.3   1 <1>  -0.2270 
 12 C       -2.2370    -3.0310    -0.7150 C.2   1 <1>  -0.0610 
 13 C       -4.1300    -3.1800     0.9640 C.2   1 <1>   0.7060 
 14 O       -3.4160     1.6740    -0.4930 O.2   1 <1>  -0.5700 
 15 C       -5.7690     1.4640    -0.5390 C.3   1 <1>  -0.0190 
 16 C       -2.0160    -4.4290    -1.2640 C.3   1 <1>  -0.1020 
 17 O       -5.0950    -2.5780     1.3830 O.2   1 <1>  -0.5700 
 18 O       -4.0140    -4.4830     1.2150 O.3   1 <1>  -0.4300 
 19 C       -6.5800     1.3390     0.7680 C.3   1 <1>  -0.1600 
 20 C       -6.5050     0.7760    -1.7070 C.3   1 <1>  -0.1600 
 21 C       -4.9760    -5.1850     1.9800 C.3   1 <1>   0.0400 
 22 C       -8.0050     1.8820     0.5980 C.3   1 <1>  -0.1600 
 23 C       -7.9310     1.3200    -1.8700 C.3   1 <1>  -0.1600 
 24 C       -8.7270     1.1900    -0.5660 C.3   1 <1>  -0.1600 
 25 H       -5.0030    -0.9100     0.2230 H     1 <1>   0.3700 
 26 H       -5.6850     2.5120    -0.7750 H     1 <1>   0.0800 
 27 H       -1.0260    -4.7670    -1.0140 H     1 <1>   0.0800 
 28 H       -2.1150    -4.4210    -2.3350 H     1 <1>   0.0800 
 29 H       -2.7280    -5.1280    -0.8650 H     1 <1>   0.0800 
 30 H       -6.0810     1.8840     1.5510 H     1 <1>   0.0800 
 31 H       -6.6350     0.3070     1.0690 H     1 <1>   0.0800 
 32 H       -6.5540    -0.2850    -1.5330 H     1 <1>   0.0800 
 33 H       -5.9550     0.9360    -2.6190 H     1 <1>   0.0800 
 34 H       -4.6690    -6.2130     2.0540 H     1 <1>   0.0800 
 35 H       -5.9310    -5.1190     1.4880 H     1 <1>   0.0800 
 36 H       -5.0320    -4.7450     2.9610 H     1 <1>   0.0800 
 37 H       -7.9640     2.9420     0.4110 H     1 <1>   0.0800 
 38 H       -8.5600     1.7300     1.5080 H     1 <1>   0.0800 
 39 H       -8.4340     0.7820    -2.6550 H     1 <1>   0.0800 
 40 H       -7.8860     2.3560    -2.1580 H     1 <1>   0.0800 
 41 H       -9.7020     1.6270    -0.6950 H     1 <1>   0.0800 
 42 H       -8.8630     0.1470    -0.3320 H     1 <1>   0.0800 
@<TRIPOS>BOND
  1   1   2  1   
  2   2   3  1   
  3   2   4  1   
  4   2   5  1   
  5   5   6  1   
  6   5   7  1   
  7   5   8  1   
  8   6   9  am  
  9   6  25  1   
 10   7  10  2   
 11   7  11  1   
 12   8  12  2   
 13   8  13  1   
 14   9  14  2   
 15   9  15  1   
 16  11  12  1   
 17  12  16  1   
 18  13  17  2   
 19  13  18  1   
 20  15  19  1   
 21  15  20  1   
 22  15  26  1   
 23  16  27  1   
 24  16  28  1   
 25  16  29  1   
 26  18  21  1   
 27  19  22  1   
 28  19  30  1   
 29  19  31  1   
 30  20  23  1   
 31  20  32  1   
 32  20  33  1   
 33  21  34  1   
 34  21  35  1   
 35  21  36  1   
 36  22  24  1   
 37  22  37  1   
 38  22  38  1   
 39  23  24  1   
 40  23  39  1   
 41  23  40  1   
 42  24  41  1   
 43  24  42  1   
@<TRIPOS>SUBSTRUCTURE
  1 ****   6 GROUP 4 **** **** 0

# MOE 2024.06 (io_trps.svl 2023.06)
