@<TRIPOS>MOLECULE
NONAME
42 43 1 0 0 
SMALL
USER_CHARGES


@<TRIPOS>ATOM
  1 I        0.8580    -0.0780    -2.5360 I     1 <1>  -0.0810 
  2 C        0.3980    -1.8280    -1.3980 C.ar  1 <1>   0.0810 
  3 C        1.0940    -3.0110    -1.6010 C.ar  1 <1>   0.0830 
  4 C       -0.6170    -1.7240    -0.4640 C.ar  1 <1>  -0.1500 
  5 O        2.0810    -3.1180    -2.5150 O.3   1 <1>  -0.5330 
  6 C        0.7660    -4.1260    -0.8340 C.ar  1 <1>   0.0830 
  7 C       -0.9550    -2.8410     0.2890 C.ar  1 <1>  -0.1430 
  8 O        1.4810    -5.2660    -1.0570 O.3   1 <1>  -0.3630 
  9 C       -0.2590    -4.0320     0.1070 C.ar  1 <1>  -0.1500 
 10 C       -2.0870    -2.7580     1.2990 C.3   1 <1>   0.4860 
 11 C        1.3890    -6.3790    -0.1950 C.3   1 <1>   0.0400 
 12 N       -3.3760    -2.6720     0.5640 N.4   1 <1>  -0.9590 
 13 C       -4.5270    -2.4010     1.4650 C.3   1 <1>   0.3430 
 14 C       -3.6130    -3.8720    -0.3100 C.3   1 <1>   0.3430 
 15 C       -5.7460    -1.9610     0.6310 C.3   1 <1>  -0.0800 
 16 C       -5.0720    -3.9750    -0.8060 C.3   1 <1>  -0.0800 
 17 C       -5.7850    -2.6110    -0.7720 C.3   1 <1>  -0.1600 
 18 C       -5.8040    -0.4310     0.5040 C.3   1 <1>  -0.2400 
 19 C       -5.8600    -5.0390    -0.0220 C.3   1 <1>  -0.2400 
 20 H       -1.1200    -0.7810    -0.3400 H     1 <1>   0.1500 
 21 H        2.4550    -4.0220    -2.5000 H     1 <1>   0.4500 
 22 H       -0.5190    -4.8900     0.6990 H     1 <1>   0.1500 
 23 H       -1.9510    -1.8830     1.9130 H     1 <1>   0.0800 
 24 H       -2.0780    -3.6270     1.9360 H     1 <1>   0.0800 
 25 H        2.1070    -7.1120    -0.5190 H     1 <1>   0.0800 
 26 H        0.3980    -6.7930    -0.2560 H     1 <1>   0.0800 
 27 H        1.6200    -6.0670     0.8090 H     1 <1>   0.0800 
 28 H       -3.3100    -1.8680    -0.0710 H     1 <1>   0.4500 
 29 H       -4.2830    -1.6280     2.1750 H     1 <1>   0.0800 
 30 H       -4.7710    -3.2960     2.0130 H     1 <1>   0.0800 
 31 H       -3.3660    -4.7740     0.2270 H     1 <1>   0.0800 
 32 H       -2.9570    -3.8150    -1.1650 H     1 <1>   0.0800 
 33 H       -6.6240    -2.2710     1.1730 H     1 <1>   0.0800 
 34 H       -5.0400    -4.3100    -1.8300 H     1 <1>   0.0800 
 35 H       -5.2980    -1.9660    -1.4840 H     1 <1>   0.0800 
 36 H       -6.8070    -2.7140    -1.0960 H     1 <1>   0.0800 
 37 H       -4.9420    -0.0460    -0.0130 H     1 <1>   0.0800 
 38 H       -5.8560     0.0280     1.4760 H     1 <1>   0.0800 
 39 H       -6.6840    -0.1390    -0.0440 H     1 <1>   0.0800 
 40 H       -5.9320    -4.8060     1.0250 H     1 <1>   0.0800 
 41 H       -5.3910    -6.0020    -0.1230 H     1 <1>   0.0800 
 42 H       -6.8600    -5.1210    -0.4150 H     1 <1>   0.0800 
@<TRIPOS>BOND
  1   1   2  1   
  2   2   3  ar  
  3   2   4  ar  
  4   3   5  1   
  5   3   6  ar  
  6   4   7  ar  
  7   4  20  1   
  8   5  21  1   
  9   6   8  1   
 10   6   9  ar  
 11   7   9  ar  
 12   7  10  1   
 13   8  11  1   
 14   9  22  1   
 15  10  12  1   
 16  10  23  1   
 17  10  24  1   
 18  11  25  1   
 19  11  26  1   
 20  11  27  1   
 21  12  13  1   
 22  12  14  1   
 23  12  28  1   
 24  13  15  1   
 25  13  29  1   
 26  13  30  1   
 27  14  16  1   
 28  14  31  1   
 29  14  32  1   
 30  15  17  1   
 31  15  18  1   
 32  15  33  1   
 33  16  17  1   
 34  16  19  1   
 35  16  34  1   
 36  17  35  1   
 37  17  36  1   
 38  18  37  1   
 39  18  38  1   
 40  18  39  1   
 41  19  40  1   
 42  19  41  1   
 43  19  42  1   
@<TRIPOS>SUBSTRUCTURE
  1 ****   7 GROUP 4 **** **** 0

# MOE 2024.06 (io_trps.svl 2023.06)
