@<TRIPOS>MOLECULE
NONAME
35 35 1 0 0 
SMALL
USER_CHARGES


@<TRIPOS>ATOM
  1 O       -1.3850    -2.1100     1.9930 O.2   1 <1>  -0.5700 
  2 C       -1.8420    -1.9900     0.8840 C.2   1 <1>   0.5690 
  3 N       -1.9040    -3.0640     0.0670 N.am  1 <1>  -0.8000 
  4 C       -2.3540    -0.6160     0.4190 C.3   1 <1>   0.2610 
  5 O       -3.3260    -0.7430    -0.6110 O.3   1 <1>  -0.3630 
  6 C       -1.2260     0.2540    -0.1440 C.3   1 <1>  -0.2400 
  7 C       -4.5840    -1.1940    -0.3700 C.ar  1 <1>   0.0830 
  8 C       -5.4450    -1.2400    -1.4510 C.ar  1 <1>  -0.1500 
  9 C       -5.0450    -1.6060     0.8750 C.ar  1 <1>  -0.1500 
 10 C       -6.7430    -1.6920    -1.2980 C.ar  1 <1>  -0.1500 
 11 C       -6.3460    -2.0570     1.0210 C.ar  1 <1>  -0.1500 
 12 C       -7.2220    -2.1100    -0.0600 C.ar  1 <1>  -0.1430 
 13 C       -8.6810    -2.6060     0.0600 C.3   1 <1>   0.1430 
 14 C       -8.8890    -3.8200    -0.8580 C.3   1 <1>  -0.2400 
 15 C       -9.6420    -1.4820    -0.3560 C.3   1 <1>  -0.2400 
 16 C       -9.0600    -3.0350     1.4880 C.3   1 <1>  -0.2400 
 17 H       -1.6000    -3.9790     0.3960 H     1 <1>   0.3700 
 18 H       -2.3880    -3.0230    -0.8320 H     1 <1>   0.3700 
 19 H       -2.8100    -0.1040     1.2470 H     1 <1>   0.0800 
 20 H       -0.7680    -0.2300    -0.9880 H     1 <1>   0.0800 
 21 H       -0.4750     0.4050     0.6120 H     1 <1>   0.0800 
 22 H       -1.6110     1.2120    -0.4410 H     1 <1>   0.0800 
 23 H       -5.0940    -0.9190    -2.4150 H     1 <1>   0.1500 
 24 H       -4.4150    -1.5900     1.7440 H     1 <1>   0.1500 
 25 H       -7.3800    -1.7120    -2.1630 H     1 <1>   0.1500 
 26 H       -6.6520    -2.3650     2.0030 H     1 <1>   0.1500 
 27 H       -8.7280    -3.5610    -1.8880 H     1 <1>   0.0800 
 28 H       -9.8900    -4.2020    -0.7630 H     1 <1>   0.0800 
 29 H       -8.1980    -4.6010    -0.5950 H     1 <1>   0.0800 
 30 H       -9.4790    -0.6150     0.2590 H     1 <1>   0.0800 
 31 H      -10.6650    -1.7950    -0.2450 H     1 <1>   0.0800 
 32 H       -9.4890    -1.2000    -1.3810 H     1 <1>   0.0800 
 33 H       -8.4320    -3.8420     1.8190 H     1 <1>   0.0800 
 34 H      -10.0810    -3.3720     1.5240 H     1 <1>   0.0800 
 35 H       -8.9590    -2.2090     2.1690 H     1 <1>   0.0800 
@<TRIPOS>BOND
  1   1   2  2   
  2   2   3  am  
  3   2   4  1   
  4   3  17  1   
  5   3  18  1   
  6   4   5  1   
  7   4   6  1   
  8   4  19  1   
  9   5   7  1   
 10   6  20  1   
 11   6  21  1   
 12   6  22  1   
 13   7   8  ar  
 14   7   9  ar  
 15   8  10  ar  
 16   8  23  1   
 17   9  11  ar  
 18   9  24  1   
 19  10  12  ar  
 20  10  25  1   
 21  11  12  ar  
 22  11  26  1   
 23  12  13  1   
 24  13  14  1   
 25  13  15  1   
 26  13  16  1   
 27  14  27  1   
 28  14  28  1   
 29  14  29  1   
 30  15  30  1   
 31  15  31  1   
 32  15  32  1   
 33  16  33  1   
 34  16  34  1   
 35  16  35  1   
@<TRIPOS>SUBSTRUCTURE
  1 ****   9 GROUP 4 **** **** 0

# MOE 2024.06 (io_trps.svl 2023.06)
