@<TRIPOS>MOLECULE
NONAME
39 40 1 0 0 
SMALL
USER_CHARGES


@<TRIPOS>ATOM
  1 CL       3.3690     1.4780    -3.4070 Cl    1 <1>  -0.1770 
  2 C        4.0660     1.4590    -1.8030 C.ar  1 <1>   0.1770 
  3 C        4.0370     2.6010    -1.0140 C.ar  1 <1>  -0.1440 
  4 C        4.6400     0.2850    -1.3540 C.ar  1 <1>  -0.1500 
  5 C        4.6030     2.5490     0.2510 C.ar  1 <1>  -0.1500 
  6 C        3.4050     3.8900    -1.5190 C.3   1 <1>  -0.0960 
  7 C        5.2060     0.2460    -0.0920 C.ar  1 <1>  -0.1500 
  8 C        5.1990     1.3750     0.7120 C.ar  1 <1>   0.0830 
  9 O        5.8080     1.2580     1.9200 O.3   1 <1>  -0.3630 
 10 C        6.0630     2.3790     2.7620 C.3   1 <1>   0.2610 
 11 C        7.0150     3.3910     2.0990 C.2   1 <1>   0.5690 
 12 C        6.6350     1.8280     4.0710 C.3   1 <1>  -0.2400 
 13 O        6.9830     4.5450     2.4600 O.2   1 <1>  -0.5700 
 14 N        7.8400     2.9760     1.1030 N.am  1 <1>  -0.7300 
 15 C        8.6430     3.8440     0.2330 C.3   1 <1>   0.2200 
 16 C        7.8600     4.1040    -1.0480 C.3   1 <1>  -0.1600 
 17 C        9.8510     3.0550    -0.2550 C.3   1 <1>  -0.1600 
 18 C        8.0470     2.8490    -1.9070 C.3   1 <1>  -0.1600 
 19 C        9.3450     2.1920    -1.4190 C.3   1 <1>  -0.1600 
 20 H        4.6420    -0.5840    -1.9860 H     1 <1>   0.1500 
 21 H        4.5780     3.4320     0.8630 H     1 <1>   0.1500 
 22 H        2.3650     3.7260    -1.7400 H     1 <1>   0.0800 
 23 H        3.9020     4.2160    -2.4150 H     1 <1>   0.0800 
 24 H        3.4790     4.6720    -0.7850 H     1 <1>   0.0800 
 25 H        5.6590    -0.6590     0.2730 H     1 <1>   0.1500 
 26 H        5.1230     2.8590     2.9650 H     1 <1>   0.0800 
 27 H        7.5680     1.3270     3.8860 H     1 <1>   0.0800 
 28 H        5.9390     1.1430     4.5210 H     1 <1>   0.0800 
 29 H        6.8120     2.6370     4.7570 H     1 <1>   0.0800 
 30 H        7.7200     2.0230     0.7540 H     1 <1>   0.3700 
 31 H        8.9130     4.7520     0.7470 H     1 <1>   0.0800 
 32 H        8.3030     4.9450    -1.5530 H     1 <1>   0.0800 
 33 H        6.8250     4.3270    -0.8560 H     1 <1>   0.0800 
 34 H       10.3020     2.4740     0.5310 H     1 <1>   0.0800 
 35 H       10.5820     3.7510    -0.6290 H     1 <1>   0.0800 
 36 H        8.0970     3.1000    -2.9530 H     1 <1>   0.0800 
 37 H        7.2200     2.1780    -1.7510 H     1 <1>   0.0800 
 38 H        9.1370     1.1930    -1.0760 H     1 <1>   0.0800 
 39 H       10.0790     2.1430    -2.2050 H     1 <1>   0.0800 
@<TRIPOS>BOND
  1   1   2  1   
  2   2   3  ar  
  3   2   4  ar  
  4   3   5  ar  
  5   3   6  1   
  6   4   7  ar  
  7   4  20  1   
  8   5   8  ar  
  9   5  21  1   
 10   6  22  1   
 11   6  23  1   
 12   6  24  1   
 13   7   8  ar  
 14   7  25  1   
 15   8   9  1   
 16   9  10  1   
 17  10  11  1   
 18  10  12  1   
 19  10  26  1   
 20  11  13  2   
 21  11  14  am  
 22  12  27  1   
 23  12  28  1   
 24  12  29  1   
 25  14  15  1   
 26  14  30  1   
 27  15  16  1   
 28  15  17  1   
 29  15  31  1   
 30  16  18  1   
 31  16  32  1   
 32  16  33  1   
 33  17  19  1   
 34  17  34  1   
 35  17  35  1   
 36  18  19  1   
 37  18  36  1   
 38  18  37  1   
 39  19  38  1   
 40  19  39  1   
@<TRIPOS>SUBSTRUCTURE
  1 ****   8 GROUP 4 **** **** 0

# MOE 2024.06 (io_trps.svl 2023.06)
