@<TRIPOS>MOLECULE
NONAME
35 37 1 0 0 
SMALL
USER_CHARGES


@<TRIPOS>ATOM
  1 O        0.7850    -1.2630    -2.1050 O.2   1 <1>  -0.5700 
  2 C        1.5980    -0.8690    -1.3000 C.2   1 <1>   0.5690 
  3 N        1.5450    -1.2450     0.0250 N.am  1 <1>  -0.6600 
  4 C        2.6930     0.0570    -1.8180 C.3   1 <1>   0.0440 
  5 C        0.4450    -2.1030     0.5470 C.3   1 <1>   0.0600 
  6 C        2.4790    -0.7430     1.0720 C.3   1 <1>   0.0600 
  7 C        2.6760     1.4440    -1.1690 C.ar  1 <1>  -0.1440 
  8 C        3.8640     2.0360    -0.6600 C.ar  1 <1>   0.0000 
  9 C        1.4740     2.1110    -1.0790 C.ar  1 <1>  -0.1500 
 10 C        3.7120     3.2890    -0.0550 C.ar  1 <1>   0.0000 
 11 C        5.1900     1.5360    -0.6750 C.ar  1 <1>  -0.1500 
 12 C        1.3700     3.3740    -0.4730 C.ar  1 <1>  -0.1500 
 13 C        2.4960     3.9490     0.0380 C.ar  1 <1>  -0.1440 
 14 C        4.7630     4.0000     0.5110 C.ar  1 <1>  -0.1440 
 15 C        6.2340     2.2360    -0.1170 C.ar  1 <1>  -0.1500 
 16 C        2.7100     5.2760     0.7450 C.3   1 <1>  -0.0170 
 17 C        6.0270     3.4860     0.4890 C.ar  1 <1>  -0.1500 
 18 C        4.2250     5.3040     1.0720 C.3   1 <1>  -0.0170 
 19 H        2.5650     0.1790    -2.8780 H     1 <1>   0.0800 
 20 H        3.6240    -0.4480    -1.6700 H     1 <1>   0.0800 
 21 H       -0.2200    -2.4020    -0.2450 H     1 <1>   0.0800 
 22 H       -0.1210    -1.5590     1.2820 H     1 <1>   0.0800 
 23 H        0.8580    -2.9880     0.9980 H     1 <1>   0.0800 
 24 H        3.4640    -0.5960     0.6680 H     1 <1>   0.0800 
 25 H        2.5490    -1.4510     1.8790 H     1 <1>   0.0800 
 26 H        2.1160     0.1950     1.4580 H     1 <1>   0.0800 
 27 H        0.5720     1.6720    -1.4720 H     1 <1>   0.1500 
 28 H        5.3940     0.5900    -1.1360 H     1 <1>   0.1500 
 29 H        0.4130     3.8630    -0.4200 H     1 <1>   0.1500 
 30 H        7.2330     1.8360    -0.1380 H     1 <1>   0.1500 
 31 H        2.1220     5.3190     1.6440 H     1 <1>   0.0800 
 32 H        2.4440     6.0900     0.0940 H     1 <1>   0.0800 
 33 H        6.8580     4.0160     0.9200 H     1 <1>   0.1500 
 34 H        4.7040     6.1410     0.5950 H     1 <1>   0.0800 
 35 H        4.3870     5.3460     2.1340 H     1 <1>   0.0800 
@<TRIPOS>BOND
  1   1   2  2   
  2   2   3  am  
  3   2   4  1   
  4   3   5  1   
  5   3   6  1   
  6   4   7  1   
  7   4  19  1   
  8   4  20  1   
  9   5  21  1   
 10   5  22  1   
 11   5  23  1   
 12   6  24  1   
 13   6  25  1   
 14   6  26  1   
 15   7   8  ar  
 16   7   9  ar  
 17   8  10  ar  
 18   8  11  ar  
 19   9  12  ar  
 20   9  27  1   
 21  10  13  ar  
 22  10  14  ar  
 23  11  15  ar  
 24  11  28  1   
 25  12  13  ar  
 26  12  29  1   
 27  13  16  1   
 28  14  17  ar  
 29  14  18  1   
 30  15  17  ar  
 31  15  30  1   
 32  16  18  1   
 33  16  31  1   
 34  16  32  1   
 35  17  33  1   
 36  18  34  1   
 37  18  35  1   
@<TRIPOS>SUBSTRUCTURE
  1 ****   8 GROUP 4 **** **** 0

# MOE 2024.06 (io_trps.svl 2023.06)
