@<TRIPOS>MOLECULE
NONAME
44 45 1 0 0 
SMALL
USER_CHARGES


@<TRIPOS>ATOM
  1 O       -0.1030    -0.1530    -2.4720 O.2   1 <1>  -0.5700 
  2 C        0.0680     0.7510    -1.6880 C.2   1 <1>   0.5690 
  3 N       -0.8970     1.2640    -0.8690 N.am  1 <1>  -0.5470 
  4 C        1.4520     1.3930    -1.5770 C.3   1 <1>   0.1710 
  5 C       -2.2520     0.9640    -0.6620 C.ar  1 <1>   0.1170 
  6 N        1.7310     2.0140    -0.2400 N.3   1 <1>  -0.8100 
  7 C       -2.9220     1.6110     0.3690 C.ar  1 <1>  -0.1500 
  8 C       -2.9620     0.0560    -1.4360 C.ar  1 <1>  -0.1500 
  9 C        2.9630     2.8340    -0.2840 C.3   1 <1>   0.1100 
 10 C        1.8770     0.9970     0.8290 C.3   1 <1>   0.1100 
 11 C       -4.2600     1.3660     0.6350 C.ar  1 <1>  -0.1430 
 12 C       -4.2970    -0.1970    -1.1810 C.ar  1 <1>  -0.1500 
 13 C        4.2940     2.0400    -0.1500 C.3   1 <1>   0.2000 
 14 C        3.1630     0.1300     0.7260 C.3   1 <1>   0.2000 
 15 C       -4.9560     0.4520    -0.1480 C.ar  1 <1>  -0.1430 
 16 C       -4.9370     2.1070     1.7800 C.3   1 <1>  -0.0970 
 17 O        4.0940     0.6550    -0.1800 O.3   1 <1>  -0.5600 
 18 C        5.0860     2.4000     1.1110 C.3   1 <1>  -0.2400 
 19 C        2.8680    -1.3000     0.2710 C.3   1 <1>  -0.2400 
 20 C       -6.4260     0.1450     0.0990 C.3   1 <1>  -0.0970 
 21 H       -0.4980     1.9750    -0.2500 H     1 <1>   0.3700 
 22 H        1.5000     2.1550    -2.3340 H     1 <1>   0.0800 
 23 H        2.1980     0.6580    -1.8190 H     1 <1>   0.0800 
 24 H       -2.3820     2.3170     0.9720 H     1 <1>   0.1500 
 25 H       -2.4790    -0.4600    -2.2440 H     1 <1>   0.1500 
 26 H        2.9140     3.5530     0.5160 H     1 <1>   0.0800 
 27 H        2.9860     3.4060    -1.1950 H     1 <1>   0.0800 
 28 H        1.0110     0.3590     0.8590 H     1 <1>   0.0800 
 29 H        1.9040     1.5090     1.7750 H     1 <1>   0.0800 
 30 H       -4.8190    -0.9060    -1.7970 H     1 <1>   0.1500 
 31 H        4.9090     2.2710    -1.0030 H     1 <1>   0.0800 
 32 H        3.6340     0.0850     1.6920 H     1 <1>   0.0800 
 33 H       -4.2480     2.7670     2.2750 H     1 <1>   0.0800 
 34 H       -5.3100     1.4050     2.5030 H     1 <1>   0.0800 
 35 H       -5.7550     2.6940     1.4040 H     1 <1>   0.0800 
 36 H        4.4940     2.2570     1.9960 H     1 <1>   0.0800 
 37 H        5.3830     3.4330     1.0690 H     1 <1>   0.0800 
 38 H        5.9740     1.7960     1.1690 H     1 <1>   0.0800 
 39 H        2.4000    -1.3040    -0.6960 H     1 <1>   0.0800 
 40 H        2.2080    -1.7810     0.9700 H     1 <1>   0.0800 
 41 H        3.7820    -1.8620     0.2240 H     1 <1>   0.0800 
 42 H       -7.0120     1.0400    -0.0060 H     1 <1>   0.0800 
 43 H       -6.5580    -0.2490     1.0910 H     1 <1>   0.0800 
 44 H       -6.7920    -0.5820    -0.6030 H     1 <1>   0.0800 
@<TRIPOS>BOND
  1   1   2  2   
  2   2   3  am  
  3   2   4  1   
  4   3   5  1   
  5   3  21  1   
  6   4   6  1   
  7   4  22  1   
  8   4  23  1   
  9   5   7  ar  
 10   5   8  ar  
 11   6   9  1   
 12   6  10  1   
 13   7  11  ar  
 14   7  24  1   
 15   8  12  ar  
 16   8  25  1   
 17   9  13  1   
 18   9  26  1   
 19   9  27  1   
 20  10  14  1   
 21  10  28  1   
 22  10  29  1   
 23  11  15  ar  
 24  11  16  1   
 25  12  15  ar  
 26  12  30  1   
 27  13  17  1   
 28  13  18  1   
 29  13  31  1   
 30  14  17  1   
 31  14  19  1   
 32  14  32  1   
 33  15  20  1   
 34  16  33  1   
 35  16  34  1   
 36  16  35  1   
 37  18  36  1   
 38  18  37  1   
 39  18  38  1   
 40  19  39  1   
 41  19  40  1   
 42  19  41  1   
 43  20  42  1   
 44  20  43  1   
 45  20  44  1   
@<TRIPOS>SUBSTRUCTURE
  1 ****   3 GROUP 4 **** **** 0

# MOE 2024.06 (io_trps.svl 2023.06)
