@<TRIPOS>MOLECULE
NONAME
29 30 1 0 0 
SMALL
USER_CHARGES


@<TRIPOS>ATOM
  1 O       -0.3750     3.6450    -0.1360 O.3   1 <1>  -0.5600 
  2 C        0.7570     4.3260    -0.5980 C.3   1 <1>   0.1200 
  3 C       -0.3450     2.2600    -0.3210 C.3   1 <1>   0.1200 
  4 C        2.0160     3.8200     0.1290 C.3   1 <1>   0.3430 
  5 C        0.8580     1.6490     0.4230 C.3   1 <1>   0.3430 
  6 N        2.1440     2.3220     0.0350 N.4   1 <1>  -0.9590 
  7 C        3.3000     1.8190     0.8250 C.3   1 <1>   0.4860 
  8 C        4.5690     2.4050     0.2390 C.ar  1 <1>  -0.1440 
  9 C        5.2290     3.4360     0.8940 C.ar  1 <1>  -0.1500 
 10 C        5.0770     1.9220    -0.9590 C.ar  1 <1>  -0.1500 
 11 C        6.3750     3.9860     0.3490 C.ar  1 <1>  -0.1500 
 12 C        6.2240     2.4740    -1.5020 C.ar  1 <1>  -0.1500 
 13 C        6.8710     3.5070    -0.8500 C.ar  1 <1>  -0.1500 
 14 H        0.6110     5.3740    -0.4000 H     1 <1>   0.0800 
 15 H        0.8380     4.1880    -1.6620 H     1 <1>   0.0800 
 16 H       -0.3000     2.0500    -1.3760 H     1 <1>   0.0800 
 17 H       -1.2650     1.8590     0.0680 H     1 <1>   0.0800 
 18 H        1.9530     4.1180     1.1630 H     1 <1>   0.0800 
 19 H        2.8870     4.2930    -0.2970 H     1 <1>   0.0800 
 20 H        0.9120     0.5940     0.2080 H     1 <1>   0.0800 
 21 H        0.6910     1.7640     1.4820 H     1 <1>   0.0800 
 22 H        2.3460     2.1080    -0.9480 H     1 <1>   0.4500 
 23 H        3.3490     0.7430     0.7720 H     1 <1>   0.0800 
 24 H        3.2030     2.1070     1.8590 H     1 <1>   0.0800 
 25 H        4.8670     3.8220     1.8320 H     1 <1>   0.1500 
 26 H        4.5980     1.1120    -1.4830 H     1 <1>   0.1500 
 27 H        6.8880     4.7860     0.8570 H     1 <1>   0.1500 
 28 H        6.6200     2.1000    -2.4320 H     1 <1>   0.1500 
 29 H        7.7650     3.9350    -1.2730 H     1 <1>   0.1500 
@<TRIPOS>BOND
  1   1   2  1   
  2   1   3  1   
  3   2   4  1   
  4   2  14  1   
  5   2  15  1   
  6   3   5  1   
  7   3  16  1   
  8   3  17  1   
  9   4   6  1   
 10   4  18  1   
 11   4  19  1   
 12   5   6  1   
 13   5  20  1   
 14   5  21  1   
 15   6   7  1   
 16   6  22  1   
 17   7   8  1   
 18   7  23  1   
 19   7  24  1   
 20   8   9  ar  
 21   8  10  ar  
 22   9  11  ar  
 23   9  25  1   
 24  10  12  ar  
 25  10  26  1   
 26  11  13  ar  
 27  11  27  1   
 28  12  13  ar  
 29  12  28  1   
 30  13  29  1   
@<TRIPOS>SUBSTRUCTURE
  1 ****   6 GROUP 4 **** **** 0

# MOE 2024.06 (io_trps.svl 2023.06)
