@<TRIPOS>MOLECULE
NONAME
48 50 1 0 0 
SMALL
USER_CHARGES


@<TRIPOS>ATOM
  1 O        0.1940    -0.0190     0.0860 O.2   1 <1>  -0.5700 
  2 C        0.7260     1.0520     0.3170 C.2   1 <1>   0.6900 
  3 N        2.0670     1.1100     0.6090 N.am  1 <1>  -0.6600 
  4 N        0.0170     2.2160     0.2680 N.am  1 <1>  -0.5470 
  5 C        2.9640    -0.0480     0.3530 C.3   1 <1>   0.1400 
  6 C        2.7470     2.2670     1.2500 C.3   1 <1>   0.1400 
  7 C       -1.3360     2.5350     0.0610 C.ar  1 <1>   0.1170 
  8 C        4.1180     0.3980    -0.5510 C.3   1 <1>  -0.1600 
  9 C        3.8870     2.7470     0.3490 C.3   1 <1>  -0.1600 
 10 C       -1.6680     3.8720    -0.1890 C.ar  1 <1>   0.0820 
 11 C       -2.3550     1.5890     0.1070 C.ar  1 <1>  -0.1500 
 12 C        4.8750     1.6070     0.0310 C.3   1 <1>  -0.0800 
 13 O       -0.6410     4.7770    -0.2150 O.3   1 <1>  -0.3630 
 14 C       -2.9960     4.2330    -0.3970 C.ar  1 <1>  -0.1500 
 15 C       -3.6730     1.9540    -0.1000 C.ar  1 <1>  -0.1500 
 16 C        5.9840     2.0620    -0.9340 C.3   1 <1>  -0.0170 
 17 C       -0.8730     6.1360    -0.5150 C.3   1 <1>   0.0400 
 18 C       -3.9950     3.2750    -0.3530 C.ar  1 <1>  -0.1500 
 19 C        6.8150     3.2010    -0.3590 C.ar  1 <1>  -0.1430 
 20 C        6.6350     4.5000    -0.8080 C.ar  1 <1>  -0.1500 
 21 C        7.7620     2.9460     0.6210 C.ar  1 <1>  -0.1500 
 22 C        7.3900     5.5340    -0.2800 C.ar  1 <1>  -0.1500 
 23 C        8.5170     3.9790     1.1500 C.ar  1 <1>  -0.1500 
 24 C        8.3310     5.2740     0.7000 C.ar  1 <1>  -0.1500 
 25 H        0.6100     3.0410     0.2500 H     1 <1>   0.3700 
 26 H        2.4250    -0.8500    -0.1240 H     1 <1>   0.0800 
 27 H        3.3440    -0.4120     1.2910 H     1 <1>   0.0800 
 28 H        3.1450     1.9510     2.1990 H     1 <1>   0.0800 
 29 H        2.0610     3.0740     1.4380 H     1 <1>   0.0800 
 30 H        3.7140     0.6470    -1.5170 H     1 <1>   0.0800 
 31 H        4.7940    -0.4280    -0.6810 H     1 <1>   0.0800 
 32 H        4.4020     3.5490     0.8480 H     1 <1>   0.0800 
 33 H        3.4700     3.1390    -0.5620 H     1 <1>   0.0800 
 34 H       -2.1250     0.5590     0.3070 H     1 <1>   0.1500 
 35 H        5.3380     1.2980     0.9540 H     1 <1>   0.0800 
 36 H       -3.2790     5.2490    -0.5920 H     1 <1>   0.1500 
 37 H       -4.4460     1.2060    -0.0640 H     1 <1>   0.1500 
 38 H        5.5470     2.3670    -1.8690 H     1 <1>   0.0800 
 39 H        6.6380     1.2340    -1.1440 H     1 <1>   0.0800 
 40 H        0.0720     6.6480    -0.5010 H     1 <1>   0.0800 
 41 H       -1.5240     6.5530     0.2330 H     1 <1>   0.0800 
 42 H       -1.3120     6.2080    -1.4940 H     1 <1>   0.0800 
 43 H       -5.0210     3.5560    -0.5140 H     1 <1>   0.1500 
 44 H        5.9060     4.7140    -1.5690 H     1 <1>   0.1500 
 45 H        7.9140     1.9430     0.9770 H     1 <1>   0.1500 
 46 H        7.2460     6.5400    -0.6330 H     1 <1>   0.1500 
 47 H        9.2500     3.7740     1.9110 H     1 <1>   0.1500 
 48 H        8.9180     6.0760     1.1100 H     1 <1>   0.1500 
@<TRIPOS>BOND
  1   1   2  2   
  2   2   3  am  
  3   2   4  am  
  4   3   5  1   
  5   3   6  1   
  6   4   7  1   
  7   4  25  1   
  8   5   8  1   
  9   5  26  1   
 10   5  27  1   
 11   6   9  1   
 12   6  28  1   
 13   6  29  1   
 14   7  10  ar  
 15   7  11  ar  
 16   8  12  1   
 17   8  30  1   
 18   8  31  1   
 19   9  12  1   
 20   9  32  1   
 21   9  33  1   
 22  10  13  1   
 23  10  14  ar  
 24  11  15  ar  
 25  11  34  1   
 26  12  16  1   
 27  12  35  1   
 28  13  17  1   
 29  14  18  ar  
 30  14  36  1   
 31  15  18  ar  
 32  15  37  1   
 33  16  19  1   
 34  16  38  1   
 35  16  39  1   
 36  17  40  1   
 37  17  41  1   
 38  17  42  1   
 39  18  43  1   
 40  19  20  ar  
 41  19  21  ar  
 42  20  22  ar  
 43  20  44  1   
 44  21  23  ar  
 45  21  45  1   
 46  22  24  ar  
 47  22  46  1   
 48  23  24  ar  
 49  23  47  1   
 50  24  48  1   
@<TRIPOS>SUBSTRUCTURE
  1 ****   6 GROUP 4 **** **** 0

# MOE 2024.06 (io_trps.svl 2023.06)
