@<TRIPOS>MOLECULE
NONAME
29 30 1 0 0 
SMALL
USER_CHARGES


@<TRIPOS>ATOM
  1 O       -0.3290    -0.3630     0.2440 O.2   1 <1>  -0.5700 
  2 C       -0.9320    -1.4210     0.1590 C.2   1 <1>   0.8410 
  3 N       -0.2760    -2.5860     0.1450 N.2   1 <1>  -0.6610 
  4 N       -2.2830    -1.4080     0.0760 N.am  1 <1>  -0.4200 
  5 C       -0.9940    -3.6600     0.0510 C.2   1 <1>   0.7110 
  6 C       -2.9470    -2.5600    -0.0210 C.2   1 <1>   0.5700 
  7 C       -3.1730    -0.2440     0.0740 C.3   1 <1>   0.1400 
  8 N       -2.3460    -3.6920    -0.0340 N.2   1 <1>  -0.6610 
  9 N       -0.3620    -4.8780     0.0300 N.pl3 1 <1>  -0.7880 
 10 N       -4.2990    -2.3440    -0.0970 N.am  1 <1>  -0.4200 
 11 C       -4.5600    -0.8830    -0.0430 C.3   1 <1>   0.1400 
 12 C        1.1210    -5.0020    -0.0710 C.3   1 <1>   0.1290 
 13 C       -1.0940    -6.1730     0.1260 C.3   1 <1>   0.1290 
 14 C       -5.3530    -3.2210    -0.2100 C.2   1 <1>   0.5690 
 15 O       -6.4890    -2.8200    -0.2610 O.2   1 <1>  -0.5700 
 16 C       -5.1400    -4.7180    -0.2740 C.3   1 <1>  -0.1790 
 17 H       -2.9570     0.3920    -0.7680 H     1 <1>   0.0800 
 18 H       -3.0680     0.3100     0.9900 H     1 <1>   0.0800 
 19 H       -5.0610    -0.5620    -0.9400 H     1 <1>   0.0800 
 20 H       -5.1700    -0.6450     0.8120 H     1 <1>   0.0800 
 21 H        1.5490    -4.1330    -0.5410 H     1 <1>   0.0800 
 22 H        1.3800    -5.8630    -0.6620 H     1 <1>   0.0800 
 23 H        1.5420    -5.1070     0.9130 H     1 <1>   0.0800 
 24 H       -1.9790    -6.0640     0.7290 H     1 <1>   0.0800 
 25 H       -0.4690    -6.9220     0.5800 H     1 <1>   0.0800 
 26 H       -1.3790    -6.4980    -0.8600 H     1 <1>   0.0800 
 27 H       -4.5330    -4.9630    -1.1250 H     1 <1>   0.0800 
 28 H       -6.0860    -5.2180    -0.3680 H     1 <1>   0.0800 
 29 H       -4.6570    -5.0550     0.6230 H     1 <1>   0.0800 
@<TRIPOS>BOND
  1   1   2  2   
  2   2   3  1   
  3   2   4  am  
  4   3   5  2   
  5   4   6  1   
  6   4   7  1   
  7   5   8  1   
  8   5   9  1   
  9   6   8  2   
 10   6  10  1   
 11   7  11  1   
 12   7  17  1   
 13   7  18  1   
 14   9  12  1   
 15   9  13  1   
 16  10  11  1   
 17  10  14  am  
 18  11  19  1   
 19  11  20  1   
 20  12  21  1   
 21  12  22  1   
 22  12  23  1   
 23  13  24  1   
 24  13  25  1   
 25  13  26  1   
 26  14  15  2   
 27  14  16  1   
 28  16  27  1   
 29  16  28  1   
 30  16  29  1   
@<TRIPOS>SUBSTRUCTURE
  1 ****   6 GROUP 4 **** **** 0

# MOE 2024.06 (io_trps.svl 2023.06)
