@<TRIPOS>MOLECULE
NONAME
23 23 1 0 0 
SMALL
USER_CHARGES


@<TRIPOS>ATOM
  1 S       -0.2010    -0.3740    -0.0070 S.3   1 <1>  -0.3710 
  2 C       -1.6710     0.6260    -0.0360 C.2   1 <1>   0.6410 
  3 C        1.1970     0.8340     0.0140 C.3   1 <1>   0.0700 
  4 N       -1.4760     1.9750    -0.0370 N.pl3 1 <1>  -0.5500 
  5 N       -2.8100     0.0390    -0.0540 N.2   1 <1>  -0.6610 
  6 C        2.5280     0.0920     0.0400 C.3   1 <1>  -0.2660 
  7 C       -2.5360     2.8340    -0.0590 C.2   1 <1>  -0.0380 
  8 C       -3.9020     0.8550    -0.0760 C.2   1 <1>   0.7670 
  9 C        3.6740     1.0730     0.0570 C.2   1 <1>   0.9060 
 10 C       -3.7650     2.2710    -0.0780 C.2   1 <1>  -0.1360 
 11 C       -2.2490     4.3210    -0.0580 C.3   1 <1>  -0.1020 
 12 O       -5.0120     0.3470    -0.0940 O.2   1 <1>  -0.5700 
 13 O        4.8200     0.6260     0.0790 O.co2 1 <1>  -0.9000 
 14 O        3.4250     2.2850     0.0480 O.co2 1 <1>  -0.9000 
 15 H        1.0930     1.4450     0.8940 H     1 <1>   0.0800 
 16 H        1.1240     1.4390    -0.8730 H     1 <1>   0.0800 
 17 H       -0.5100     2.3110    -0.0210 H     1 <1>   0.4000 
 18 H        2.6310    -0.5250    -0.8310 H     1 <1>   0.0800 
 19 H        2.6010    -0.5200     0.9170 H     1 <1>   0.0800 
 20 H       -4.6740     2.8400    -0.0960 H     1 <1>   0.1500 
 21 H       -1.6680     4.5840    -0.9240 H     1 <1>   0.0800 
 22 H       -1.6980     4.5900     0.8250 H     1 <1>   0.0800 
 23 H       -3.1650     4.8830    -0.0760 H     1 <1>   0.0800 
@<TRIPOS>BOND
  1   1   2  1   
  2   1   3  1   
  3   2   4  1   
  4   2   5  2   
  5   3   6  1   
  6   3  15  1   
  7   3  16  1   
  8   4   7  1   
  9   4  17  1   
 10   5   8  1   
 11   6   9  1   
 12   6  18  1   
 13   6  19  1   
 14   7  10  2   
 15   7  11  1   
 16   8  10  1   
 17   8  12  2   
 18   9  13  ar  
 19   9  14  ar  
 20  10  20  1   
 21  11  21  1   
 22  11  22  1   
 23  11  23  1   
@<TRIPOS>SUBSTRUCTURE
  1 ****   4 GROUP 4 **** **** 0

# MOE 2024.06 (io_trps.svl 2023.06)
