@<TRIPOS>MOLECULE
NONAME
37 38 1 0 0 
SMALL
USER_CHARGES


@<TRIPOS>ATOM
  1 CL       0.3700    -0.0920    -1.2390 Cl    1 <1>  -0.1770 
  2 C        1.7200     0.8340    -0.6390 C.ar  1 <1>   0.1770 
  3 C        2.4860     0.3270     0.3930 C.ar  1 <1>  -0.1500 
  4 C        2.0040     2.0630    -1.2030 C.ar  1 <1>  -0.1500 
  5 C        3.5600     1.0620     0.8670 C.ar  1 <1>  -0.1500 
  6 C        3.0780     2.7970    -0.7280 C.ar  1 <1>  -0.1500 
  7 C        3.8630     2.2980     0.3050 C.ar  1 <1>  -0.1430 
  8 C        5.0450     3.0910     0.8140 C.3   1 <1>   0.4870 
  9 N        6.2110     2.6680     0.0000 N.4   1 <1>  -0.9060 
 10 C        7.5130     3.2730     0.3680 C.3   1 <1>   0.4230 
 11 C        7.5460     4.7590    -0.0050 C.3   1 <1>  -0.1600 
 12 C        8.6280     2.5200    -0.3610 C.3   1 <1>  -0.1600 
 13 C        8.9250     5.3680     0.2670 C.3   1 <1>   0.3430 
 14 C        9.9970     3.1440    -0.0810 C.3   1 <1>   0.3430 
 15 N        9.9810     4.5910    -0.4460 N.4   1 <1>  -0.9590 
 16 C       11.3290     5.2000    -0.1920 C.3   1 <1>   0.2630 
 17 H        2.2350    -0.6310     0.8160 H     1 <1>   0.1500 
 18 H        1.3840     2.4330    -2.0010 H     1 <1>   0.1500 
 19 H        4.1400     0.6550     1.6790 H     1 <1>   0.1500 
 20 H        3.2780     3.7570    -1.1740 H     1 <1>   0.1500 
 21 H        5.2070     2.8770     1.8580 H     1 <1>   0.0800 
 22 H        4.8550     4.1460     0.6970 H     1 <1>   0.0800 
 23 H        5.9740     2.8410    -0.9850 H     1 <1>   0.4500 
 24 H        6.2510     1.6430     0.0810 H     1 <1>   0.4500 
 25 H        7.6660     3.1700     1.4320 H     1 <1>   0.0800 
 26 H        6.8270     5.3040     0.5800 H     1 <1>   0.0800 
 27 H        7.3070     4.8970    -1.0450 H     1 <1>   0.0800 
 28 H        8.4590     2.5210    -1.4240 H     1 <1>   0.0800 
 29 H        8.6540     1.4970    -0.0270 H     1 <1>   0.0800 
 30 H        9.1250     5.3620     1.3280 H     1 <1>   0.0800 
 31 H        8.9390     6.3960    -0.0660 H     1 <1>   0.0800 
 32 H       10.7530     2.6300    -0.6540 H     1 <1>   0.0800 
 33 H       10.2420     3.0360     0.9640 H     1 <1>   0.0800 
 34 H        9.8160     4.6700    -1.4630 H     1 <1>   0.4500 
 35 H       11.5760     5.1550     0.8570 H     1 <1>   0.0800 
 36 H       11.3410     6.2340    -0.5020 H     1 <1>   0.0800 
 37 H       12.0910     4.6740    -0.7450 H     1 <1>   0.0800 
@<TRIPOS>BOND
  1   1   2  1   
  2   2   3  ar  
  3   2   4  ar  
  4   3   5  ar  
  5   3  17  1   
  6   4   6  ar  
  7   4  18  1   
  8   5   7  ar  
  9   5  19  1   
 10   6   7  ar  
 11   6  20  1   
 12   7   8  1   
 13   8   9  1   
 14   8  21  1   
 15   8  22  1   
 16   9  10  1   
 17   9  23  1   
 18   9  24  1   
 19  10  11  1   
 20  10  12  1   
 21  10  25  1   
 22  11  13  1   
 23  11  26  1   
 24  11  27  1   
 25  12  14  1   
 26  12  28  1   
 27  12  29  1   
 28  13  15  1   
 29  13  30  1   
 30  13  31  1   
 31  14  15  1   
 32  14  32  1   
 33  14  33  1   
 34  15  16  1   
 35  15  34  1   
 36  16  35  1   
 37  16  36  1   
 38  16  37  1   
@<TRIPOS>SUBSTRUCTURE
  1 ****   9 GROUP 4 **** **** 0

# MOE 2024.06 (io_trps.svl 2023.06)
