@<TRIPOS>MOLECULE
NONAME
50 53 1 0 0 
SMALL
USER_CHARGES


@<TRIPOS>ATOM
  1 O        0.0030    -2.8560    -1.4990 O.2   1 <1>  -0.5700 
  2 C       -1.0440    -2.5630    -0.9870 C.2   1 <1>   0.6590 
  3 O       -1.9900    -3.4290    -0.6730 O.3   1 <1>  -0.4300 
  4 C       -1.5310    -1.1820    -0.5630 C.3   1 <1>   0.0610 
  5 C       -3.0660    -2.7160    -0.0580 C.3   1 <1>   0.3410 
  6 C       -3.0310    -1.3780    -0.8550 C.3   1 <1>   0.0000 
  7 C       -1.4570    -1.2220     0.9800 C.3   1 <1>  -0.1600 
  8 C       -0.8200     0.0250    -1.2000 C.3   1 <1>  -0.2400 
  9 C       -4.3880    -3.5340    -0.0120 C.2   1 <1>   0.5690 
 10 C       -2.5160    -2.2960     1.3290 C.3   1 <1>  -0.1600 
 11 C       -3.9360    -0.2240    -0.3370 C.3   1 <1>  -0.2400 
 12 C       -3.3620    -1.5360    -2.3660 C.3   1 <1>  -0.2400 
 13 O       -5.4100    -2.9680    -0.3330 O.2   1 <1>  -0.5700 
 14 N       -4.4420    -4.8500     0.4040 N.am  1 <1>  -0.6600 
 15 C       -5.7180    -5.6360     0.3280 C.3   1 <1>   0.1400 
 16 C       -3.2890    -5.7090     0.8380 C.3   1 <1>   0.1400 
 17 C       -5.5610    -6.8690    -0.5810 C.3   1 <1>   0.2090 
 18 C       -3.1320    -6.9310    -0.0820 C.3   1 <1>   0.2090 
 19 N       -4.4070    -7.7110    -0.1510 N.pl3 1 <1>  -0.8380 
 20 C       -4.3560    -8.9970    -0.6560 C.ar  1 <1>   0.4100 
 21 N       -3.4390    -9.2550    -1.5810 N.ar  1 <1>  -0.6200 
 22 C       -5.2570    -9.9510    -0.1890 C.ar  1 <1>  -0.1500 
 23 C       -3.4250   -10.4900    -2.0530 C.ar  1 <1>   0.1600 
 24 C       -5.2320   -11.2320    -0.6890 C.ar  1 <1>  -0.1500 
 25 C       -4.2810   -11.5000    -1.6530 C.ar  1 <1>  -0.1500 
 26 H       -1.7040    -0.2700     1.4160 H     1 <1>   0.0800 
 27 H       -0.4740    -1.5130     1.3130 H     1 <1>   0.0800 
 28 H        0.2210     0.0220    -0.9260 H     1 <1>   0.0800 
 29 H       -1.2600     0.9470    -0.8670 H     1 <1>   0.0800 
 30 H       -0.8830    -0.0250    -2.2720 H     1 <1>   0.0800 
 31 H       -2.0870    -3.1310     1.8530 H     1 <1>   0.0800 
 32 H       -3.3010    -1.8780     1.9340 H     1 <1>   0.0800 
 33 H       -3.8410    -0.0310     0.7140 H     1 <1>   0.0800 
 34 H       -4.9710    -0.4510    -0.5250 H     1 <1>   0.0800 
 35 H       -3.7070     0.6880    -0.8580 H     1 <1>   0.0800 
 36 H       -2.8010    -2.3180    -2.8470 H     1 <1>   0.0800 
 37 H       -3.1670    -0.6190    -2.8910 H     1 <1>   0.0800 
 38 H       -4.4040    -1.7700    -2.4920 H     1 <1>   0.0800 
 39 H       -6.5230    -5.0300    -0.0480 H     1 <1>   0.0800 
 40 H       -5.9900    -5.9620     1.3160 H     1 <1>   0.0800 
 41 H       -3.4750    -6.0600     1.8380 H     1 <1>   0.0800 
 42 H       -2.3660    -5.1670     0.8580 H     1 <1>   0.0800 
 43 H       -5.4040    -6.5440    -1.5950 H     1 <1>   0.0800 
 44 H       -6.4660    -7.4490    -0.5540 H     1 <1>   0.0800 
 45 H       -2.3470    -7.5650     0.2910 H     1 <1>   0.0800 
 46 H       -2.8550    -6.6040    -1.0700 H     1 <1>   0.0800 
 47 H       -5.9610    -9.6690     0.5680 H     1 <1>   0.1500 
 48 H       -2.6860   -10.7090    -2.8050 H     1 <1>   0.1500 
 49 H       -5.9160   -11.9890    -0.3450 H     1 <1>   0.1500 
 50 H       -4.2040   -12.4800    -2.0870 H     1 <1>   0.1500 
@<TRIPOS>BOND
  1   1   2  2   
  2   2   3  1   
  3   2   4  1   
  4   3   5  1   
  5   4   6  1   
  6   4   7  1   
  7   4   8  1   
  8   5   6  1   
  9   5   9  1   
 10   5  10  1   
 11   6  11  1   
 12   6  12  1   
 13   7  10  1   
 14   7  26  1   
 15   7  27  1   
 16   8  28  1   
 17   8  29  1   
 18   8  30  1   
 19   9  13  2   
 20   9  14  am  
 21  10  31  1   
 22  10  32  1   
 23  11  33  1   
 24  11  34  1   
 25  11  35  1   
 26  12  36  1   
 27  12  37  1   
 28  12  38  1   
 29  14  15  1   
 30  14  16  1   
 31  15  17  1   
 32  15  39  1   
 33  15  40  1   
 34  16  18  1   
 35  16  41  1   
 36  16  42  1   
 37  17  19  1   
 38  17  43  1   
 39  17  44  1   
 40  18  19  1   
 41  18  45  1   
 42  18  46  1   
 43  19  20  1   
 44  20  21  ar  
 45  20  22  ar  
 46  21  23  ar  
 47  22  24  ar  
 48  22  47  1   
 49  23  25  ar  
 50  23  48  1   
 51  24  25  ar  
 52  24  49  1   
 53  25  50  1   
@<TRIPOS>SUBSTRUCTURE
  1 ****  14 GROUP 4 **** **** 0

# MOE 2024.06 (io_trps.svl 2023.06)
