@<TRIPOS>MOLECULE
NONAME
33 34 1 0 0 
SMALL
USER_CHARGES


@<TRIPOS>ATOM
  1 I       -0.5140    -0.2500     0.1870 I     1 <1>  -0.0810 
  2 C        1.4800    -1.0000     0.1580 C.ar  1 <1>   0.0810 
  3 C        1.7700    -2.1450     0.8740 C.ar  1 <1>  -0.1500 
  4 C        2.4350    -0.3230    -0.5750 C.ar  1 <1>  -0.1500 
  5 C        3.0680    -2.6250     0.8480 C.ar  1 <1>  -0.1500 
  6 C        3.7280    -0.8170    -0.5870 C.ar  1 <1>  -0.1500 
  7 C        4.0620    -1.9730     0.1200 C.ar  1 <1>   0.1170 
  8 N        5.3610    -2.5080     0.1480 N.am  1 <1>  -0.5470 
  9 C        6.4380    -2.3120    -0.6720 C.2   1 <1>   0.5690 
 10 O        6.4210    -1.6110    -1.6520 O.2   1 <1>  -0.5700 
 11 C        7.7270    -3.0280    -0.3160 C.3   1 <1>  -0.0990 
 12 C        8.9820    -2.1350    -0.4450 C.3   1 <1>  -0.0190 
 13 C       10.2580    -2.8770    -0.0520 C.2   1 <1>   0.5690 
 14 C        8.8460    -0.8160     0.3540 C.3   1 <1>  -0.0990 
 15 O       10.3330    -4.0790    -0.1350 O.2   1 <1>  -0.5700 
 16 N       11.3100    -2.1220     0.3780 N.am  1 <1>  -0.3680 
 17 C       10.1940    -0.1320     0.5820 C.2   1 <1>   0.3280 
 18 N       11.3000    -0.7510     0.6030 N.2   1 <1>  -0.5120 
 19 C       10.1210     1.3600     0.8210 C.3   1 <1>  -0.1790 
 20 H        1.0030    -2.6490     1.4350 H     1 <1>   0.1500 
 21 H        2.1790     0.5670    -1.1230 H     1 <1>   0.1500 
 22 H        3.3070    -3.5160     1.3980 H     1 <1>   0.1500 
 23 H        4.4760    -0.2920    -1.1520 H     1 <1>   0.1500 
 24 H        5.5060    -3.2010     0.8790 H     1 <1>   0.3700 
 25 H        7.8260    -3.8700    -0.9770 H     1 <1>   0.0800 
 26 H        7.6680    -3.4060     0.6880 H     1 <1>   0.0800 
 27 H        9.1010    -1.8740    -1.4830 H     1 <1>   0.0800 
 28 H        8.4150    -1.0130     1.3190 H     1 <1>   0.0800 
 29 H        8.1910    -0.1480    -0.1770 H     1 <1>   0.0800 
 30 H       12.1840    -2.6330     0.5340 H     1 <1>   0.3700 
 31 H        9.5020     1.5660     1.6750 H     1 <1>   0.0800 
 32 H        9.7110     1.8520    -0.0420 H     1 <1>   0.0800 
 33 H       11.1050     1.7520     1.0050 H     1 <1>   0.0800 
@<TRIPOS>BOND
  1   1   2  1   
  2   2   3  ar  
  3   2   4  ar  
  4   3   5  ar  
  5   3  20  1   
  6   4   6  ar  
  7   4  21  1   
  8   5   7  ar  
  9   5  22  1   
 10   6   7  ar  
 11   6  23  1   
 12   7   8  1   
 13   8   9  am  
 14   8  24  1   
 15   9  10  2   
 16   9  11  1   
 17  11  12  1   
 18  11  25  1   
 19  11  26  1   
 20  12  13  1   
 21  12  14  1   
 22  12  27  1   
 23  13  15  2   
 24  13  16  am  
 25  14  17  1   
 26  14  28  1   
 27  14  29  1   
 28  16  18  1   
 29  16  30  1   
 30  17  18  2   
 31  17  19  1   
 32  19  31  1   
 33  19  32  1   
 34  19  33  1   
@<TRIPOS>SUBSTRUCTURE
  1 ****   9 GROUP 4 **** **** 0

# MOE 2024.06 (io_trps.svl 2023.06)
