@<TRIPOS>MOLECULE
NONAME
49 51 1 0 0 
SMALL
USER_CHARGES


@<TRIPOS>ATOM
  1 O        1.0650     0.9180     1.8120 O.2   1 <1>  -0.5700 
  2 C        1.5580     1.8820     1.2810 C.2   1 <1>   0.5690 
  3 N        0.9130     2.8090     0.5390 N.am  1 <1>  -0.6600 
  4 C        3.0230     2.1970     1.3770 C.3   1 <1>  -0.0990 
  5 C       -0.5290     2.7610     0.1990 C.3   1 <1>   0.2200 
  6 C        1.8290     3.8540     0.0400 C.3   1 <1>   0.1400 
  7 C        3.1010     3.6550     0.8810 C.3   1 <1>  -0.0190 
  8 C       -0.7280     2.7570    -1.3220 C.3   1 <1>  -0.1600 
  9 C       -1.2700     3.9340     0.8550 C.3   1 <1>  -0.1600 
 10 C        4.3850     4.0060     0.1410 C.2   1 <1>   0.5690 
 11 C       -2.2220     2.7270    -1.6800 C.3   1 <1>  -0.1600 
 12 C       -2.7640     3.9070     0.5000 C.3   1 <1>  -0.1600 
 13 O        4.3110     4.6680    -0.8650 O.2   1 <1>  -0.5700 
 14 N        5.5690     3.5790     0.6810 N.am  1 <1>  -0.5470 
 15 C       -2.9720     3.8930    -1.0220 C.3   1 <1>  -0.1600 
 16 C        6.8940     3.7240     0.2390 C.ar  1 <1>   0.1170 
 17 C        7.2330     4.0090    -1.0800 C.ar  1 <1>  -0.1500 
 18 C        7.9230     3.5580     1.1590 C.ar  1 <1>  -0.1500 
 19 C        8.5570     4.1300    -1.4630 C.ar  1 <1>  -0.1500 
 20 C        9.2470     3.6760     0.7780 C.ar  1 <1>  -0.1500 
 21 C        9.5740     3.9630    -0.5380 C.ar  1 <1>  -0.1440 
 22 C       11.0280     4.0960    -0.9600 C.3   1 <1>  -0.0170 
 23 C       11.5010     5.5430    -0.8070 C.3   1 <1>  -0.2400 
 24 H        3.5540     1.5260     0.7260 H     1 <1>   0.0800 
 25 H        3.3680     2.0900     2.3890 H     1 <1>   0.0800 
 26 H       -0.9400     1.8460     0.5930 H     1 <1>   0.0800 
 27 H        1.4220     4.8410     0.1780 H     1 <1>   0.0800 
 28 H        2.0210     3.6830    -1.0060 H     1 <1>   0.0800 
 29 H        3.0240     4.3100     1.7300 H     1 <1>   0.0800 
 30 H       -0.2440     1.8920    -1.7410 H     1 <1>   0.0800 
 31 H       -0.2900     3.6390    -1.7530 H     1 <1>   0.0800 
 32 H       -0.8520     4.8650     0.5190 H     1 <1>   0.0800 
 33 H       -1.1570     3.8700     1.9230 H     1 <1>   0.0800 
 34 H       -2.6480     1.7960    -1.3470 H     1 <1>   0.0800 
 35 H       -2.3380     2.7790    -2.7490 H     1 <1>   0.0800 
 36 H       -3.2510     4.7690     0.9230 H     1 <1>   0.0800 
 37 H       -3.2160     3.0290     0.9290 H     1 <1>   0.0800 
 38 H        5.4860     3.0980     1.5730 H     1 <1>   0.3700 
 39 H       -4.0240     3.8130    -1.2400 H     1 <1>   0.0800 
 40 H       -2.6210     4.8220    -1.4370 H     1 <1>   0.0800 
 41 H        6.4660     4.1380    -1.8200 H     1 <1>   0.1500 
 42 H        7.6930     3.3380     2.1850 H     1 <1>   0.1500 
 43 H        8.7920     4.3560    -2.4880 H     1 <1>   0.1500 
 44 H       10.0270     3.5480     1.5080 H     1 <1>   0.1500 
 45 H       11.1380     3.7870    -1.9850 H     1 <1>   0.0800 
 46 H       11.6420     3.4490    -0.3570 H     1 <1>   0.0800 
 47 H       10.9020     6.1940    -1.4190 H     1 <1>   0.0800 
 48 H       12.5290     5.6310    -1.1090 H     1 <1>   0.0800 
 49 H       11.4120     5.8560     0.2180 H     1 <1>   0.0800 
@<TRIPOS>BOND
  1   1   2  2   
  2   2   3  am  
  3   2   4  1   
  4   3   5  1   
  5   3   6  1   
  6   4   7  1   
  7   4  24  1   
  8   4  25  1   
  9   5   8  1   
 10   5   9  1   
 11   5  26  1   
 12   6   7  1   
 13   6  27  1   
 14   6  28  1   
 15   7  10  1   
 16   7  29  1   
 17   8  11  1   
 18   8  30  1   
 19   8  31  1   
 20   9  12  1   
 21   9  32  1   
 22   9  33  1   
 23  10  13  2   
 24  10  14  am  
 25  11  15  1   
 26  11  34  1   
 27  11  35  1   
 28  12  15  1   
 29  12  36  1   
 30  12  37  1   
 31  14  16  1   
 32  14  38  1   
 33  15  39  1   
 34  15  40  1   
 35  16  17  ar  
 36  16  18  ar  
 37  17  19  ar  
 38  17  41  1   
 39  18  20  ar  
 40  18  42  1   
 41  19  21  ar  
 42  19  43  1   
 43  20  21  ar  
 44  20  44  1   
 45  21  22  1   
 46  22  23  1   
 47  22  45  1   
 48  22  46  1   
 49  23  47  1   
 50  23  48  1   
 51  23  49  1   
@<TRIPOS>SUBSTRUCTURE
  1 ****  10 GROUP 4 **** **** 0

# MOE 2024.06 (io_trps.svl 2023.06)
