@<TRIPOS>MOLECULE
NONAME
48 50 1 0 0 
SMALL
USER_CHARGES


@<TRIPOS>ATOM
  1 O       -0.3550    -0.6890    -0.4520 O.3   1 <1>  -0.3630 
  2 C       -1.5860    -1.2390    -0.5910 C.ar  1 <1>   0.0830 
  3 C        0.5060    -1.0580     0.6020 C.3   1 <1>   0.1200 
  4 C       -2.3090    -0.8650    -1.7110 C.ar  1 <1>  -0.1500 
  5 C       -2.1430    -2.1380     0.3130 C.ar  1 <1>  -0.1500 
  6 C        1.8170    -0.2900     0.4390 C.3   1 <1>  -0.1600 
  7 C       -3.5750    -1.3740    -1.9330 C.ar  1 <1>  -0.1500 
  8 C       -3.4110    -2.6470     0.0920 C.ar  1 <1>  -0.1500 
  9 C        2.8100    -0.6420     1.5540 C.3   1 <1>  -0.1600 
 10 C       -4.1370    -2.2630    -1.0280 C.ar  1 <1>  -0.1430 
 11 C        4.1220     0.1290     1.3860 C.3   1 <1>  -0.2400 
 12 C       -5.5350    -2.8020    -1.2620 C.3   1 <1>   0.4860 
 13 N       -6.4670    -2.1390    -0.3130 N.4   1 <1>  -0.9590 
 14 C       -7.8300    -2.7300    -0.3620 C.3   1 <1>   0.4860 
 15 C       -6.5340    -0.6580    -0.5020 C.3   1 <1>   0.3430 
 16 C       -8.7290    -2.0600     0.6640 C.ar  1 <1>  -0.1430 
 17 C       -7.2280    -0.0090     0.6970 C.3   1 <1>  -0.0170 
 18 C       -8.4580    -0.7850     1.1510 C.ar  1 <1>  -0.1430 
 19 C       -9.8520    -2.7390     1.1140 C.ar  1 <1>  -0.1500 
 20 C       -9.3110    -0.2070     2.0770 C.ar  1 <1>  -0.1500 
 21 C      -10.6980    -2.1560     2.0390 C.ar  1 <1>  -0.1500 
 22 C      -10.4280    -0.8890     2.5200 C.ar  1 <1>  -0.1500 
 23 H        0.6780    -2.1190     0.5450 H     1 <1>   0.0800 
 24 H        0.0310    -0.8050     1.5340 H     1 <1>   0.0800 
 25 H       -1.8640    -0.1750    -2.4070 H     1 <1>   0.1500 
 26 H       -1.6020    -2.4510     1.1860 H     1 <1>   0.1500 
 27 H        1.6100     0.7660     0.4630 H     1 <1>   0.0800 
 28 H        2.2500    -0.5350    -0.5160 H     1 <1>   0.0800 
 29 H       -4.1060    -1.0670    -2.8180 H     1 <1>   0.1500 
 30 H       -3.8160    -3.3470     0.8030 H     1 <1>   0.1500 
 31 H        3.0170    -1.6990     1.5360 H     1 <1>   0.0800 
 32 H        2.3810    -0.4020     2.5120 H     1 <1>   0.0800 
 33 H        4.5820    -0.1120     0.4430 H     1 <1>   0.0800 
 34 H        4.8060    -0.1290     2.1750 H     1 <1>   0.0800 
 35 H        3.9430     1.1900     1.4220 H     1 <1>   0.0800 
 36 H       -5.5350    -3.8680    -1.1000 H     1 <1>   0.0800 
 37 H       -5.8360    -2.6100    -2.2790 H     1 <1>   0.0800 
 38 H       -6.1090    -2.2930     0.6370 H     1 <1>   0.4500 
 39 H       -7.7820    -3.7860    -0.1520 H     1 <1>   0.0800 
 40 H       -8.2570    -2.5960    -1.3420 H     1 <1>   0.0800 
 41 H       -7.0870    -0.4320    -1.4000 H     1 <1>   0.0800 
 42 H       -5.5440    -0.2420    -0.5990 H     1 <1>   0.0800 
 43 H       -7.5080     0.9960     0.4360 H     1 <1>   0.0800 
 44 H       -6.5320     0.0530     1.5150 H     1 <1>   0.0800 
 45 H      -10.0860    -3.7270     0.7530 H     1 <1>   0.1500 
 46 H       -9.1130     0.7790     2.4640 H     1 <1>   0.1500 
 47 H      -11.5700    -2.6860     2.3870 H     1 <1>   0.1500 
 48 H      -11.0880    -0.4350     3.2400 H     1 <1>   0.1500 
@<TRIPOS>BOND
  1   1   2  1   
  2   1   3  1   
  3   2   4  ar  
  4   2   5  ar  
  5   3   6  1   
  6   3  23  1   
  7   3  24  1   
  8   4   7  ar  
  9   4  25  1   
 10   5   8  ar  
 11   5  26  1   
 12   6   9  1   
 13   6  27  1   
 14   6  28  1   
 15   7  10  ar  
 16   7  29  1   
 17   8  10  ar  
 18   8  30  1   
 19   9  11  1   
 20   9  31  1   
 21   9  32  1   
 22  10  12  1   
 23  11  33  1   
 24  11  34  1   
 25  11  35  1   
 26  12  13  1   
 27  12  36  1   
 28  12  37  1   
 29  13  14  1   
 30  13  15  1   
 31  13  38  1   
 32  14  16  1   
 33  14  39  1   
 34  14  40  1   
 35  15  17  1   
 36  15  41  1   
 37  15  42  1   
 38  16  18  ar  
 39  16  19  ar  
 40  17  18  1   
 41  17  43  1   
 42  17  44  1   
 43  18  20  ar  
 44  19  21  ar  
 45  19  45  1   
 46  20  22  ar  
 47  20  46  1   
 48  21  22  ar  
 49  21  47  1   
 50  22  48  1   
@<TRIPOS>SUBSTRUCTURE
  1 ****  10 GROUP 4 **** **** 0

# MOE 2024.06 (io_trps.svl 2023.06)
