@<TRIPOS>MOLECULE
NONAME
44 45 1 0 0 
SMALL
USER_CHARGES


@<TRIPOS>ATOM
  1 O        1.1180     0.6090     0.5460 O.2   1 <1>  -0.5700 
  2 C        1.1390     1.7700     0.2020 C.2   1 <1>   0.5690 
  3 N        2.2380     2.5200     0.5370 N.am  1 <1>  -0.6600 
  4 C       -0.0410     2.3340    -0.6410 C.3   1 <1>   0.0610 
  5 C        2.9090     2.2200     1.8340 C.3   1 <1>   0.1400 
  6 C        3.1980     2.9450    -0.5170 C.3   1 <1>   0.1400 
  7 C       -1.3910     1.7980    -0.0970 C.3   1 <1>  -0.1600 
  8 C       -0.1230     3.8840    -0.6310 C.3   1 <1>  -0.1600 
  9 C        0.0980     1.8540    -2.1010 C.3   1 <1>  -0.2400 
 10 C        3.9630     1.1150     1.6360 C.3   1 <1>   0.3430 
 11 C        4.2730     1.8560    -0.7180 C.3   1 <1>   0.3430 
 12 C       -1.7180     2.3370     1.3050 C.3   1 <1>  -0.1600 
 13 C       -0.4530     4.4620     0.7560 C.3   1 <1>  -0.1600 
 14 N        4.9680     1.4760     0.5700 N.4   1 <1>  -0.9590 
 15 C       -1.7540     3.8690     1.3080 C.3   1 <1>  -0.1600 
 16 C        5.9230     0.3550     0.3760 C.3   1 <1>   0.3430 
 17 C        7.1380     0.8410    -0.4060 C.3   1 <1>  -0.2400 
 18 H        2.1740     1.8850     2.5480 H     1 <1>   0.0800 
 19 H        3.3650     3.1120     2.2260 H     1 <1>   0.0800 
 20 H        3.6590     3.8750    -0.2320 H     1 <1>   0.0800 
 21 H        2.6840     3.1080    -1.4460 H     1 <1>   0.0800 
 22 H       -1.3750     0.7220    -0.0650 H     1 <1>   0.0800 
 23 H       -2.1860     2.0830    -0.7630 H     1 <1>   0.0800 
 24 H       -0.8970     4.1960    -1.3110 H     1 <1>   0.0800 
 25 H        0.7930     4.3180    -0.9860 H     1 <1>   0.0800 
 26 H       -0.7440     2.1760    -2.6880 H     1 <1>   0.0800 
 27 H        0.9890     2.2400    -2.5560 H     1 <1>   0.0800 
 28 H        0.1370     0.7780    -2.1330 H     1 <1>   0.0800 
 29 H        3.4460     0.2100     1.3570 H     1 <1>   0.0800 
 30 H        4.4660     0.9340     2.5720 H     1 <1>   0.0800 
 31 H        4.9960     2.2060    -1.4370 H     1 <1>   0.0800 
 32 H        3.7920     0.9840    -1.1330 H     1 <1>   0.0800 
 33 H       -0.9820     1.9910     2.0100 H     1 <1>   0.0800 
 34 H       -2.6740     1.9560     1.6200 H     1 <1>   0.0800 
 35 H       -0.5530     5.5320     0.6840 H     1 <1>   0.0800 
 36 H        0.3480     4.2570     1.4430 H     1 <1>   0.0800 
 37 H        5.4970     2.2930     0.9010 H     1 <1>   0.4500 
 38 H       -1.9190     4.2250     2.3100 H     1 <1>   0.0800 
 39 H       -2.5800     4.2040     0.7020 H     1 <1>   0.0800 
 40 H        5.4430    -0.4580    -0.1470 H     1 <1>   0.0800 
 41 H        6.2520    -0.0110     1.3360 H     1 <1>   0.0800 
 42 H        6.8760     1.1260    -1.4080 H     1 <1>   0.0800 
 43 H        7.8530     0.0400    -0.4740 H     1 <1>   0.0800 
 44 H        7.6140     1.6650     0.0960 H     1 <1>   0.0800 
@<TRIPOS>BOND
  1   1   2  2   
  2   2   3  am  
  3   2   4  1   
  4   3   5  1   
  5   3   6  1   
  6   4   7  1   
  7   4   8  1   
  8   4   9  1   
  9   5  10  1   
 10   5  18  1   
 11   5  19  1   
 12   6  11  1   
 13   6  20  1   
 14   6  21  1   
 15   7  12  1   
 16   7  22  1   
 17   7  23  1   
 18   8  13  1   
 19   8  24  1   
 20   8  25  1   
 21   9  26  1   
 22   9  27  1   
 23   9  28  1   
 24  10  14  1   
 25  10  29  1   
 26  10  30  1   
 27  11  14  1   
 28  11  31  1   
 29  11  32  1   
 30  12  15  1   
 31  12  33  1   
 32  12  34  1   
 33  13  15  1   
 34  13  35  1   
 35  13  36  1   
 36  14  16  1   
 37  14  37  1   
 38  15  38  1   
 39  15  39  1   
 40  16  17  1   
 41  16  40  1   
 42  16  41  1   
 43  17  42  1   
 44  17  43  1   
 45  17  44  1   
@<TRIPOS>SUBSTRUCTURE
  1 ****   3 GROUP 4 **** **** 0

# MOE 2024.06 (io_trps.svl 2023.06)
