@<TRIPOS>MOLECULE
NONAME
47 48 1 0 0 
SMALL
USER_CHARGES


@<TRIPOS>ATOM
  1 O        0.1150    -0.4140    -1.0380 O.2   1 <1>  -0.5700 
  2 C       -0.0460    -1.3880    -0.3410 C.2   1 <1>   0.5690 
  3 N       -1.2700    -1.7710     0.1440 N.am  1 <1>  -0.5470 
  4 C        1.1710    -2.2580     0.0320 C.3   1 <1>   0.1710 
  5 C       -2.5420    -1.1850     0.0140 C.ar  1 <1>   0.1170 
  6 N        2.4840    -1.5500     0.1120 N.3   1 <1>  -0.8100 
  7 C       -3.6610    -1.9760     0.2530 C.ar  1 <1>  -0.1500 
  8 C       -2.7400     0.1500    -0.3250 C.ar  1 <1>  -0.1500 
  9 C        2.4920    -0.4250     1.0800 C.3   1 <1>   0.1100 
 10 C        3.6320    -2.4550     0.3360 C.3   1 <1>   0.1100 
 11 C       -4.9400    -1.4570     0.1560 C.ar  1 <1>  -0.1500 
 12 C       -4.0160     0.6740    -0.4240 C.ar  1 <1>  -0.1500 
 13 C        3.8330     0.3500     1.0580 C.3   1 <1>   0.3430 
 14 C        4.9830    -1.6940     0.2950 C.3   1 <1>   0.3430 
 15 C       -5.1250    -0.1210    -0.1850 C.ar  1 <1>   0.0830 
 16 N        4.7740    -0.2260     0.0420 N.4   1 <1>  -0.9590 
 17 O       -6.3410     0.4740    -0.3030 O.3   1 <1>  -0.3630 
 18 C        6.0120     0.5720    -0.1200 C.3   1 <1>   0.3430 
 19 C       -7.5290    -0.2550    -0.1020 C.3   1 <1>   0.1200 
 20 C        6.7170     0.1710    -1.4100 C.3   1 <1>  -0.2400 
 21 C       -8.7050     0.6910    -0.3190 C.3   1 <1>  -0.2400 
 22 H       -1.2850    -2.6540     0.6480 H     1 <1>   0.3700 
 23 H        1.2450    -3.0270    -0.7160 H     1 <1>   0.0800 
 24 H        0.9760    -2.7340     0.9760 H     1 <1>   0.0800 
 25 H       -3.5370    -3.0100     0.5140 H     1 <1>   0.1500 
 26 H       -1.9020     0.7950    -0.5120 H     1 <1>   0.1500 
 27 H        2.3080    -0.7930     2.0750 H     1 <1>   0.0800 
 28 H        1.7030     0.2680     0.8410 H     1 <1>   0.0800 
 29 H        3.6430    -3.2150    -0.4280 H     1 <1>   0.0800 
 30 H        3.5310    -2.9510     1.2870 H     1 <1>   0.0800 
 31 H       -5.7750    -2.1030     0.3480 H     1 <1>   0.1500 
 32 H       -4.1610     1.7060    -0.6880 H     1 <1>   0.1500 
 33 H        4.2790     0.3150     2.0380 H     1 <1>   0.0800 
 34 H        3.6290     1.3820     0.8250 H     1 <1>   0.0800 
 35 H        5.5930    -2.1180    -0.4850 H     1 <1>   0.0800 
 36 H        5.5000    -1.8360     1.2290 H     1 <1>   0.0800 
 37 H        4.2200    -0.2020    -0.8310 H     1 <1>   0.4500 
 38 H        6.6660     0.4220     0.7240 H     1 <1>   0.0800 
 39 H        5.7610     1.6190    -0.1730 H     1 <1>   0.0800 
 40 H       -7.5290    -0.6370     0.9040 H     1 <1>   0.0800 
 41 H       -7.5570    -1.0640    -0.8120 H     1 <1>   0.0800 
 42 H        7.0780    -0.8400    -1.3650 H     1 <1>   0.0800 
 43 H        7.5670     0.8140    -1.5600 H     1 <1>   0.0800 
 44 H        6.0620     0.2870    -2.2550 H     1 <1>   0.0800 
 45 H       -8.6590     1.5050     0.3830 H     1 <1>   0.0800 
 46 H       -9.6300     0.1640    -0.1730 H     1 <1>   0.0800 
 47 H       -8.6850     1.0810    -1.3210 H     1 <1>   0.0800 
@<TRIPOS>BOND
  1   1   2  2   
  2   2   3  am  
  3   2   4  1   
  4   3   5  1   
  5   3  22  1   
  6   4   6  1   
  7   4  23  1   
  8   4  24  1   
  9   5   7  ar  
 10   5   8  ar  
 11   6   9  1   
 12   6  10  1   
 13   7  11  ar  
 14   7  25  1   
 15   8  12  ar  
 16   8  26  1   
 17   9  13  1   
 18   9  27  1   
 19   9  28  1   
 20  10  14  1   
 21  10  29  1   
 22  10  30  1   
 23  11  15  ar  
 24  11  31  1   
 25  12  15  ar  
 26  12  32  1   
 27  13  16  1   
 28  13  33  1   
 29  13  34  1   
 30  14  16  1   
 31  14  35  1   
 32  14  36  1   
 33  15  17  1   
 34  16  18  1   
 35  16  37  1   
 36  17  19  1   
 37  18  20  1   
 38  18  38  1   
 39  18  39  1   
 40  19  21  1   
 41  19  40  1   
 42  19  41  1   
 43  20  42  1   
 44  20  43  1   
 45  20  44  1   
 46  21  45  1   
 47  21  46  1   
 48  21  47  1   
@<TRIPOS>SUBSTRUCTURE
  1 ****   2 GROUP 4 **** **** 0

# MOE 2024.06 (io_trps.svl 2023.06)
