@<TRIPOS>MOLECULE
NONAME
43 44 1 0 0 
SMALL
USER_CHARGES


@<TRIPOS>ATOM
  1 CL      -3.5210     1.8590    -2.3570 Cl    1 <1>  -0.1770 
  2 C       -3.6490     1.0430    -0.8110 C.ar  1 <1>   0.1770 
  3 C       -2.9600     1.5440     0.2970 C.ar  1 <1>   0.1990 
  4 C       -4.4530    -0.0770    -0.7310 C.ar  1 <1>  -0.1500 
  5 N       -2.1620     2.6890     0.2160 N.am  1 <1>  -0.6930 
  6 C       -3.1020     0.8730     1.5100 C.ar  1 <1>  -0.1500 
  7 C       -4.5740    -0.7130     0.4890 C.ar  1 <1>   0.1770 
  8 S       -0.4430     2.5330     0.1060 S.o2  1 <1>   1.3330 
  9 C       -2.6260     3.9320     0.9200 C.3   1 <1>   0.2570 
 10 C       -3.9060    -0.2500     1.6090 C.ar  1 <1>  -0.1500 
 11 CL      -5.5900    -2.1260     0.6180 Cl    1 <1>  -0.1770 
 12 O        0.1020     3.8570     0.2740 O.2   1 <1>  -0.6500 
 13 O       -0.0610     1.4580     0.9870 O.2   1 <1>  -0.6500 
 14 C       -0.2010     2.0390    -1.5860 C.3   1 <1>  -0.1350 
 15 C       -4.1450     4.1210     0.9620 C.2   1 <1>   0.5690 
 16 O       -4.6750     4.3440     2.0250 O.2   1 <1>  -0.5700 
 17 N       -4.8600     4.0240    -0.1910 N.am  1 <1>  -0.7300 
 18 C       -6.3240     4.1070    -0.2950 C.3   1 <1>   0.2200 
 19 C       -6.8870     2.6950    -0.4900 C.3   1 <1>  -0.1600 
 20 C       -6.6860     5.0170    -1.4720 C.3   1 <1>  -0.1600 
 21 C       -8.4060     2.7290    -0.7080 C.3   1 <1>  -0.1600 
 22 C       -8.2050     5.0550    -1.6960 C.3   1 <1>  -0.1600 
 23 C       -8.7750     3.6420    -1.8850 C.3   1 <1>  -0.1600 
 24 H       -4.9770    -0.4460    -1.5930 H     1 <1>   0.1500 
 25 H       -2.5750     1.2340     2.3760 H     1 <1>   0.1500 
 26 H       -2.2090     4.7930     0.4300 H     1 <1>   0.0800 
 27 H       -2.2560     3.9190     1.9300 H     1 <1>   0.0800 
 28 H       -4.0160    -0.7660     2.5480 H     1 <1>   0.1500 
 29 H       -0.6090     2.7760    -2.2490 H     1 <1>   0.0800 
 30 H       -0.6810     1.0990    -1.7720 H     1 <1>   0.0800 
 31 H        0.8460     1.9350    -1.7900 H     1 <1>   0.0800 
 32 H       -4.3800     3.7540    -1.0520 H     1 <1>   0.3700 
 33 H       -6.7290     4.5260     0.6130 H     1 <1>   0.0800 
 34 H       -6.6650     2.1020     0.3800 H     1 <1>   0.0800 
 35 H       -6.4240     2.2380    -1.3460 H     1 <1>   0.0800 
 36 H       -6.2110     4.6550    -2.3670 H     1 <1>   0.0800 
 37 H       -6.3320     6.0130    -1.2740 H     1 <1>   0.0800 
 38 H       -8.8860     3.0890     0.1870 H     1 <1>   0.0800 
 39 H       -8.7670     1.7320    -0.8960 H     1 <1>   0.0800 
 40 H       -8.4280     5.6530    -2.5630 H     1 <1>   0.0800 
 41 H       -8.6790     5.5190    -0.8470 H     1 <1>   0.0800 
 42 H       -9.8460     3.6960    -1.9760 H     1 <1>   0.0800 
 43 H       -8.3890     3.2210    -2.7980 H     1 <1>   0.0800 
@<TRIPOS>BOND
  1   1   2  1   
  2   2   3  ar  
  3   2   4  ar  
  4   3   5  1   
  5   3   6  ar  
  6   4   7  ar  
  7   4  24  1   
  8   5   8  am  
  9   5   9  1   
 10   6  10  ar  
 11   6  25  1   
 12   7  10  ar  
 13   7  11  1   
 14   8  12  2   
 15   8  13  2   
 16   8  14  1   
 17   9  15  1   
 18   9  26  1   
 19   9  27  1   
 20  10  28  1   
 21  14  29  1   
 22  14  30  1   
 23  14  31  1   
 24  15  16  2   
 25  15  17  am  
 26  17  18  1   
 27  17  32  1   
 28  18  19  1   
 29  18  20  1   
 30  18  33  1   
 31  19  21  1   
 32  19  34  1   
 33  19  35  1   
 34  20  22  1   
 35  20  36  1   
 36  20  37  1   
 37  21  23  1   
 38  21  38  1   
 39  21  39  1   
 40  22  23  1   
 41  22  40  1   
 42  22  41  1   
 43  23  42  1   
 44  23  43  1   
@<TRIPOS>SUBSTRUCTURE
  1 ****   3 GROUP 4 **** **** 0

# MOE 2024.06 (io_trps.svl 2023.06)
