@<TRIPOS>MOLECULE
NONAME
43 44 1 0 0 
SMALL
USER_CHARGES


@<TRIPOS>ATOM
  1 O       -0.4590    -0.6160    -0.7030 O.2   1 <1>  -0.5700 
  2 C       -0.2070    -1.2020     0.3330 C.2   1 <1>   0.6900 
  3 N       -1.1950    -1.5950     1.1750 N.am  1 <1>  -0.7300 
  4 N        1.0630    -1.4840     0.6870 N.am  1 <1>  -0.7300 
  5 C       -2.6480    -1.3990     1.0030 C.3   1 <1>   0.2200 
  6 C        2.2590    -1.1370    -0.0980 C.3   1 <1>   0.2200 
  7 C       -3.1330    -2.1410    -0.2510 C.3   1 <1>  -0.1600 
  8 C       -2.9770     0.1000     0.9780 C.3   1 <1>  -0.1600 
  9 C        2.9950    -2.4270    -0.4750 C.3   1 <1>  -0.1600 
 10 C        3.1490    -0.2130     0.7380 C.3   1 <1>  -0.1600 
 11 C       -4.5770    -1.7940    -0.5930 C.3   1 <1>   0.3430 
 12 C       -4.4270     0.3570     0.5870 C.3   1 <1>   0.3430 
 13 C        4.3100    -2.1210    -1.2070 C.3   1 <1>  -0.1600 
 14 C        4.4650     0.0980     0.0090 C.3   1 <1>  -0.1600 
 15 N       -4.7080    -0.3160    -0.7110 N.4   1 <1>  -0.9590 
 16 C        5.2050    -1.1910    -0.3740 C.3   1 <1>  -0.1600 
 17 C       -6.0440     0.0740    -1.2520 C.3   1 <1>   0.2630 
 18 H       -0.9090    -2.0800     2.0230 H     1 <1>   0.3700 
 19 H        1.2480    -1.9740     1.5560 H     1 <1>   0.3700 
 20 H       -3.1440    -1.8330     1.8560 H     1 <1>   0.0800 
 21 H        1.9700    -0.6230    -1.0010 H     1 <1>   0.0800 
 22 H       -3.0550    -3.2010    -0.0880 H     1 <1>   0.0800 
 23 H       -2.5260    -1.8980    -1.1040 H     1 <1>   0.0800 
 24 H       -2.3500     0.6230     0.2790 H     1 <1>   0.0800 
 25 H       -2.7960     0.5190     1.9510 H     1 <1>   0.0800 
 26 H        2.3650    -3.0210    -1.1140 H     1 <1>   0.0800 
 27 H        3.2130    -2.9920     0.4130 H     1 <1>   0.0800 
 28 H        3.3740    -0.6810     1.6800 H     1 <1>   0.0800 
 29 H        2.6250     0.7070     0.9290 H     1 <1>   0.0800 
 30 H       -5.2350    -2.1620     0.1780 H     1 <1>   0.0800 
 31 H       -4.8450    -2.2660    -1.5250 H     1 <1>   0.0800 
 32 H       -4.5880     1.4190     0.4960 H     1 <1>   0.0800 
 33 H       -5.0870    -0.0250     1.3500 H     1 <1>   0.0800 
 34 H        4.0910    -1.6520    -2.1510 H     1 <1>   0.0800 
 35 H        4.8330    -3.0400    -1.4090 H     1 <1>   0.0800 
 36 H        5.0940     0.7010     0.6410 H     1 <1>   0.0800 
 37 H        4.2530     0.6650    -0.8820 H     1 <1>   0.0800 
 38 H       -3.9750    -0.0050    -1.3710 H     1 <1>   0.4500 
 39 H        6.0890    -0.9450    -0.9360 H     1 <1>   0.0800 
 40 H        5.5160    -1.7030     0.5200 H     1 <1>   0.0800 
 41 H       -6.8270    -0.2400    -0.5820 H     1 <1>   0.0800 
 42 H       -6.2060    -0.3880    -2.2130 H     1 <1>   0.0800 
 43 H       -6.1000     1.1440    -1.3740 H     1 <1>   0.0800 
@<TRIPOS>BOND
  1   1   2  2   
  2   2   3  am  
  3   2   4  am  
  4   3   5  1   
  5   3  18  1   
  6   4   6  1   
  7   4  19  1   
  8   5   7  1   
  9   5   8  1   
 10   5  20  1   
 11   6   9  1   
 12   6  10  1   
 13   6  21  1   
 14   7  11  1   
 15   7  22  1   
 16   7  23  1   
 17   8  12  1   
 18   8  24  1   
 19   8  25  1   
 20   9  13  1   
 21   9  26  1   
 22   9  27  1   
 23  10  14  1   
 24  10  28  1   
 25  10  29  1   
 26  11  15  1   
 27  11  30  1   
 28  11  31  1   
 29  12  15  1   
 30  12  32  1   
 31  12  33  1   
 32  13  16  1   
 33  13  34  1   
 34  13  35  1   
 35  14  16  1   
 36  14  36  1   
 37  14  37  1   
 38  15  17  1   
 39  15  38  1   
 40  16  39  1   
 41  16  40  1   
 42  17  41  1   
 43  17  42  1   
 44  17  43  1   
@<TRIPOS>SUBSTRUCTURE
  1 ****   2 GROUP 4 **** **** 0

# MOE 2024.06 (io_trps.svl 2023.06)
