@<TRIPOS>MOLECULE
NONAME
37 38 1 0 0 
SMALL
USER_CHARGES


@<TRIPOS>ATOM
  1 BR       0.2180     3.4450    -0.4340 Br    1 <1>  -0.1110 
  2 C       -1.6340     2.9650    -0.6090 C.ar  1 <1>   0.1110 
  3 C       -2.2440     2.2640     0.4120 C.ar  1 <1>  -0.1500 
  4 C       -2.3150     3.3290    -1.7530 C.ar  1 <1>  -0.1500 
  5 C       -3.5780     1.9220     0.2790 C.ar  1 <1>  -0.1500 
  6 C       -3.6480     2.9800    -1.8690 C.ar  1 <1>  -0.1500 
  7 C       -4.3150     2.2750    -0.8600 C.ar  1 <1>   0.0860 
  8 C       -5.7180     1.9310    -1.0120 C.2   1 <1>   0.5440 
  9 O       -6.2420     1.8470    -2.1030 O.2   1 <1>  -0.5700 
 10 N       -6.5150     1.7000     0.0820 N.am  1 <1>  -0.1800 
 11 C       -7.1310     2.7460     0.7160 C.2   1 <1>   0.6900 
 12 C       -6.8730     0.4150     0.4020 C.2   1 <1>   0.5690 
 13 O       -6.6960     3.8720     0.6740 O.2   1 <1>  -0.5700 
 14 N       -8.2470     2.5000     1.4400 N.am  1 <1>  -0.4900 
 15 O       -6.0330    -0.4490     0.4560 O.2   1 <1>  -0.5700 
 16 C       -8.3580     0.1110     0.7040 C.3   1 <1>   0.1220 
 17 C       -8.8810     1.3050     1.5280 C.2   1 <1>   0.5690 
 18 C       -8.4810    -1.2370     1.4940 C.3   1 <1>  -0.1600 
 19 C       -9.1440     0.0680    -0.6390 C.3   1 <1>  -0.1600 
 20 O       -9.8550     1.2260     2.2260 O.2   1 <1>  -0.5700 
 21 C       -9.8930    -1.8210     1.6920 C.3   1 <1>  -0.2400 
 22 C       -8.6780    -1.0100    -1.6320 C.3   1 <1>  -0.2400 
 23 H       -1.6830     1.9910     1.2890 H     1 <1>   0.1500 
 24 H       -1.8110     3.8730    -2.5330 H     1 <1>   0.1500 
 25 H       -4.0450     1.3640     1.0720 H     1 <1>   0.1500 
 26 H       -4.1910     3.2570    -2.7580 H     1 <1>   0.1500 
 27 H       -8.6560     3.2850     1.9420 H     1 <1>   0.3700 
 28 H       -8.0320    -1.1040     2.4640 H     1 <1>   0.0800 
 29 H       -7.9030    -1.9950     0.9930 H     1 <1>   0.0800 
 30 H       -9.0580     1.0230    -1.1300 H     1 <1>   0.0800 
 31 H      -10.1920    -0.0730    -0.4360 H     1 <1>   0.0800 
 32 H      -10.5360    -1.1440     2.2240 H     1 <1>   0.0800 
 33 H       -9.8270    -2.7280     2.2680 H     1 <1>   0.0800 
 34 H      -10.3510    -2.0650     0.7510 H     1 <1>   0.0800 
 35 H       -7.6470    -0.8660    -1.9080 H     1 <1>   0.0800 
 36 H       -9.2700    -0.9560    -2.5290 H     1 <1>   0.0800 
 37 H       -8.7900    -1.9970    -1.2200 H     1 <1>   0.0800 
@<TRIPOS>BOND
  1   1   2  1   
  2   2   3  ar  
  3   2   4  ar  
  4   3   5  ar  
  5   3  23  1   
  6   4   6  ar  
  7   4  24  1   
  8   5   7  ar  
  9   5  25  1   
 10   6   7  ar  
 11   6  26  1   
 12   7   8  1   
 13   8   9  2   
 14   8  10  am  
 15  10  11  am  
 16  10  12  am  
 17  11  13  2   
 18  11  14  am  
 19  12  15  2   
 20  12  16  1   
 21  14  17  am  
 22  14  27  1   
 23  16  17  1   
 24  16  18  1   
 25  16  19  1   
 26  17  20  2   
 27  18  21  1   
 28  18  28  1   
 29  18  29  1   
 30  19  22  1   
 31  19  30  1   
 32  19  31  1   
 33  21  32  1   
 34  21  33  1   
 35  21  34  1   
 36  22  35  1   
 37  22  36  1   
 38  22  37  1   
@<TRIPOS>SUBSTRUCTURE
  1 ****  10 GROUP 4 **** **** 0

# MOE 2024.06 (io_trps.svl 2023.06)
