@<TRIPOS>MOLECULE
NONAME
47 49 1 0 0 
SMALL
USER_CHARGES


@<TRIPOS>ATOM
  1 O        0.2830    -0.9110    -0.2970 O.2   1 <1>  -0.5700 
  2 C        0.3230    -2.0800     0.0410 C.2   1 <1>   0.5440 
  3 N        1.5530    -2.6580     0.2700 N.am  1 <1>  -0.6600 
  4 C       -0.9140    -2.8260     0.1750 C.ar  1 <1>   0.0860 
  5 C        2.8030    -1.8450     0.3820 C.3   1 <1>   0.1400 
  6 C        1.8350    -4.1200     0.1060 C.3   1 <1>   0.1400 
  7 C       -1.9150    -2.7330    -0.7930 C.ar  1 <1>  -0.1500 
  8 C       -1.1590    -3.6530     1.2720 C.ar  1 <1>  -0.1500 
  9 C        3.7230    -2.0780    -0.8280 C.3   1 <1>   0.2090 
 10 C        2.7850    -4.3790    -1.0800 C.3   1 <1>   0.2090 
 11 C       -3.0970    -3.4450    -0.6870 C.ar  1 <1>  -0.1500 
 12 C       -2.3360    -4.3690     1.3840 C.ar  1 <1>  -0.1500 
 13 N        4.0180    -3.5310    -1.0170 N.pl3 1 <1>  -0.8380 
 14 C       -3.3140    -4.2770     0.4070 C.ar  1 <1>   0.0830 
 15 C        5.1480    -4.0360    -0.4020 C.ar  1 <1>   0.4100 
 16 O       -4.4330    -5.0140     0.5980 O.3   1 <1>  -0.3630 
 17 N        4.9720    -4.8460     0.6370 N.ar  1 <1>  -0.6200 
 18 C        6.4050    -3.6730    -0.8810 C.ar  1 <1>  -0.1500 
 19 C       -5.5170    -5.0430    -0.3040 C.3   1 <1>   0.2000 
 20 C        6.0760    -5.2990     1.2090 C.ar  1 <1>   0.1600 
 21 C        7.5430    -4.1500    -0.2750 C.ar  1 <1>  -0.1500 
 22 C       -6.7370    -5.5230     0.4780 C.3   1 <1>  -0.2400 
 23 C       -5.1830    -6.0050    -1.4470 C.3   1 <1>  -0.2400 
 24 C        7.3620    -4.9890     0.8050 C.ar  1 <1>  -0.1500 
 25 H        3.3260    -2.1280     1.2770 H     1 <1>   0.0800 
 26 H        2.5670    -0.7980     0.4550 H     1 <1>   0.0800 
 27 H        0.9270    -4.6700    -0.0560 H     1 <1>   0.0800 
 28 H        2.2920    -4.4920     1.0060 H     1 <1>   0.0800 
 29 H       -1.7530    -2.0860    -1.6380 H     1 <1>   0.1500 
 30 H       -0.4140    -3.7290     2.0440 H     1 <1>   0.1500 
 31 H        4.6400    -1.5340    -0.6820 H     1 <1>   0.0800 
 32 H        3.2460    -1.6940    -1.7130 H     1 <1>   0.0800 
 33 H        2.2660    -4.1700    -1.9980 H     1 <1>   0.0800 
 34 H        3.0630    -5.4190    -1.0920 H     1 <1>   0.0800 
 35 H       -3.8310    -3.3380    -1.4620 H     1 <1>   0.1500 
 36 H       -2.5100    -5.0050     2.2340 H     1 <1>   0.1500 
 37 H        6.4630    -3.0220    -1.7310 H     1 <1>   0.1500 
 38 H       -5.6990    -4.0460    -0.6640 H     1 <1>   0.0800 
 39 H        5.9470    -5.9560     2.0520 H     1 <1>   0.1500 
 40 H        8.5260    -3.8850    -0.6250 H     1 <1>   0.1500 
 41 H       -6.5640    -6.5060     0.8780 H     1 <1>   0.0800 
 42 H       -7.5970    -5.5590    -0.1660 H     1 <1>   0.0800 
 43 H       -6.9440    -4.8430     1.2840 H     1 <1>   0.0800 
 44 H       -4.9970    -6.9910    -1.0610 H     1 <1>   0.0800 
 45 H       -4.3150    -5.6690    -1.9850 H     1 <1>   0.0800 
 46 H       -6.0070    -6.0560    -2.1350 H     1 <1>   0.0800 
 47 H        8.2080    -5.4000     1.3260 H     1 <1>   0.1500 
@<TRIPOS>BOND
  1   1   2  2   
  2   2   3  am  
  3   2   4  1   
  4   3   5  1   
  5   3   6  1   
  6   4   7  ar  
  7   4   8  ar  
  8   5   9  1   
  9   5  25  1   
 10   5  26  1   
 11   6  10  1   
 12   6  27  1   
 13   6  28  1   
 14   7  11  ar  
 15   7  29  1   
 16   8  12  ar  
 17   8  30  1   
 18   9  13  1   
 19   9  31  1   
 20   9  32  1   
 21  10  13  1   
 22  10  33  1   
 23  10  34  1   
 24  11  14  ar  
 25  11  35  1   
 26  12  14  ar  
 27  12  36  1   
 28  13  15  1   
 29  14  16  1   
 30  15  17  ar  
 31  15  18  ar  
 32  16  19  1   
 33  17  20  ar  
 34  18  21  ar  
 35  18  37  1   
 36  19  22  1   
 37  19  23  1   
 38  19  38  1   
 39  20  24  ar  
 40  20  39  1   
 41  21  24  ar  
 42  21  40  1   
 43  22  41  1   
 44  22  42  1   
 45  22  43  1   
 46  23  44  1   
 47  23  45  1   
 48  23  46  1   
 49  24  47  1   
@<TRIPOS>SUBSTRUCTURE
  1 ****   6 GROUP 4 **** **** 0

# MOE 2024.06 (io_trps.svl 2023.06)
