@<TRIPOS>MOLECULE
NONAME
49 50 1 0 0 
SMALL
USER_CHARGES


@<TRIPOS>ATOM
  1 O        0.2980    -1.9760    -2.8910 O.2   1 <1>  -0.5700 
  2 C        0.7170    -1.7870    -1.7710 C.2   1 <1>   0.6900 
  3 N        0.1980    -2.3380    -0.6350 N.am  1 <1>  -0.4200 
  4 N        1.7940    -1.0240    -1.4990 N.am  1 <1>  -0.7300 
  5 C        0.9730    -1.9920     0.4320 C.2   1 <1>   0.5690 
  6 C       -1.0050    -3.1900    -0.5830 C.3   1 <1>   0.1400 
  7 C        2.1190    -1.0890    -0.0690 C.3   1 <1>   0.3610 
  8 O        0.7970    -2.3370     1.5770 O.2   1 <1>  -0.5700 
  9 C       -2.2470    -2.3190    -0.3900 C.3   1 <1>  -0.1600 
 10 C        3.5020    -1.7240     0.0950 C.3   1 <1>  -0.2400 
 11 C        2.0680     0.3260     0.5100 C.3   1 <1>  -0.2400 
 12 C       -3.5110    -3.1760    -0.3390 C.3   1 <1>   0.1200 
 13 O       -4.6090    -2.3150    -0.1570 O.3   1 <1>  -0.3630 
 14 C       -5.8910    -2.7690    -0.1110 C.ar  1 <1>   0.0820 
 15 C       -6.9190    -1.8310     0.0060 C.ar  1 <1>  -0.1430 
 16 C       -6.1970    -4.1280    -0.1770 C.ar  1 <1>  -0.1500 
 17 C       -8.2320    -2.2820     0.0500 C.ar  1 <1>  -0.1500 
 18 C       -6.6350    -0.3250     0.0840 C.3   1 <1>   0.0630 
 19 C       -7.5100    -4.5620    -0.1330 C.ar  1 <1>  -0.1430 
 20 C       -8.5270    -3.6310    -0.0180 C.ar  1 <1>  -0.1500 
 21 C       -7.1600     0.2680     1.3960 C.3   1 <1>  -0.2400 
 22 C       -7.2380     0.4060    -1.1210 C.3   1 <1>  -0.2400 
 23 C       -7.8390    -6.0420    -0.2050 C.3   1 <1>  -0.0970 
 24 H        2.4380    -0.6970    -2.2180 H     1 <1>   0.3700 
 25 H       -0.9090    -3.8850     0.2350 H     1 <1>   0.0800 
 26 H       -1.0810    -3.7480    -1.5010 H     1 <1>   0.0800 
 27 H       -2.3280    -1.6280    -1.2110 H     1 <1>   0.0800 
 28 H       -2.1590    -1.7720     0.5330 H     1 <1>   0.0800 
 29 H        3.5240    -2.6980    -0.3590 H     1 <1>   0.0800 
 30 H        3.7240    -1.8370     1.1410 H     1 <1>   0.0800 
 31 H        4.2600    -1.1050    -0.3510 H     1 <1>   0.0800 
 32 H        1.0990     0.7620     0.3450 H     1 <1>   0.0800 
 33 H        2.8200     0.9480     0.0590 H     1 <1>   0.0800 
 34 H        2.2440     0.2890     1.5710 H     1 <1>   0.0800 
 35 H       -3.4770    -3.8600     0.4920 H     1 <1>   0.0800 
 36 H       -3.6490    -3.7090    -1.2630 H     1 <1>   0.0800 
 37 H       -5.4230    -4.8630    -0.2620 H     1 <1>   0.1500 
 38 H       -9.0410    -1.5800     0.1370 H     1 <1>   0.1500 
 39 H       -5.5750    -0.1480     0.0620 H     1 <1>   0.0800 
 40 H       -9.5530    -3.9520     0.0200 H     1 <1>   0.1500 
 41 H       -8.2310     0.1980     1.4520 H     1 <1>   0.0800 
 42 H       -6.8790     1.3030     1.4750 H     1 <1>   0.0800 
 43 H       -6.7370    -0.2660     2.2280 H     1 <1>   0.0800 
 44 H       -8.3090     0.3220    -1.1270 H     1 <1>   0.0800 
 45 H       -6.8550    -0.0230    -2.0310 H     1 <1>   0.0800 
 46 H       -6.9730     1.4470    -1.0960 H     1 <1>   0.0800 
 47 H       -7.0590    -6.5800    -0.7120 H     1 <1>   0.0800 
 48 H       -8.7590    -6.1950    -0.7400 H     1 <1>   0.0800 
 49 H       -7.9460    -6.4390     0.7890 H     1 <1>   0.0800 
@<TRIPOS>BOND
  1   1   2  2   
  2   2   3  am  
  3   2   4  am  
  4   3   5  am  
  5   3   6  1   
  6   4   7  1   
  7   4  24  1   
  8   5   7  1   
  9   5   8  2   
 10   6   9  1   
 11   6  25  1   
 12   6  26  1   
 13   7  10  1   
 14   7  11  1   
 15   9  12  1   
 16   9  27  1   
 17   9  28  1   
 18  10  29  1   
 19  10  30  1   
 20  10  31  1   
 21  11  32  1   
 22  11  33  1   
 23  11  34  1   
 24  12  13  1   
 25  12  35  1   
 26  12  36  1   
 27  13  14  1   
 28  14  15  ar  
 29  14  16  ar  
 30  15  17  ar  
 31  15  18  1   
 32  16  19  ar  
 33  16  37  1   
 34  17  20  ar  
 35  17  38  1   
 36  18  21  1   
 37  18  22  1   
 38  18  39  1   
 39  19  20  ar  
 40  19  23  1   
 41  20  40  1   
 42  21  41  1   
 43  21  42  1   
 44  21  43  1   
 45  22  44  1   
 46  22  45  1   
 47  22  46  1   
 48  23  47  1   
 49  23  48  1   
 50  23  49  1   
@<TRIPOS>SUBSTRUCTURE
  1 ****   9 GROUP 4 **** **** 0

# MOE 2024.06 (io_trps.svl 2023.06)
