@<TRIPOS>MOLECULE
NONAME
43 44 1 0 0 
SMALL
USER_CHARGES


@<TRIPOS>ATOM
  1 F       -8.0800    -5.1370    -1.1230 F     1 <1>  -0.1900 
  2 C       -6.8850    -5.3250    -0.6320 C.ar  1 <1>   0.1900 
  3 C       -6.3110    -6.5770    -0.7340 C.ar  1 <1>  -0.1500 
  4 C       -6.2390    -4.2630    -0.0290 C.ar  1 <1>  -0.1500 
  5 C       -5.0430    -6.7680    -0.2110 C.ar  1 <1>  -0.1500 
  6 C       -4.9710    -4.4670     0.4910 C.ar  1 <1>  -0.1500 
  7 C       -4.3700    -5.7180     0.4020 C.ar  1 <1>  -0.1430 
  8 C       -2.9780    -5.9370     0.9770 C.3   1 <1>   0.2640 
  9 O       -2.1300    -6.4140    -0.0490 O.3   1 <1>  -0.3630 
 10 C       -0.8020    -6.3100     0.1800 C.ar  1 <1>   0.0830 
 11 C       -0.1300    -5.0830     0.1800 C.ar  1 <1>   0.0830 
 12 C       -0.1010    -7.4780     0.4280 C.ar  1 <1>  -0.1500 
 13 O       -0.7240    -3.8940    -0.0940 O.3   1 <1>  -0.3620 
 14 C        1.2230    -5.0480     0.4740 C.ar  1 <1>  -0.1500 
 15 C        1.2550    -7.4350     0.7050 C.ar  1 <1>  -0.1500 
 16 C       -1.4710    -3.7760    -1.2900 C.3   1 <1>   0.0400 
 17 C        1.9230    -6.2180     0.7310 C.ar  1 <1>  -0.1430 
 18 C        3.4050    -6.1660     1.0190 C.3   1 <1>   0.4860 
 19 N        4.0840    -6.2420    -0.2910 N.4   1 <1>  -0.9060 
 20 C        5.5700    -6.2400    -0.1760 C.3   1 <1>   0.3430 
 21 C        6.2470    -6.3350    -1.5490 C.3   1 <1>   0.1200 
 22 O        7.6120    -6.3530    -1.3340 O.3   1 <1>  -0.6800 
 23 H       -6.8440    -7.3780    -1.2130 H     1 <1>   0.1500 
 24 H       -6.7190    -3.3040     0.0300 H     1 <1>   0.1500 
 25 H       -4.5760    -7.7360    -0.2860 H     1 <1>   0.1500 
 26 H       -4.4560    -3.6480     0.9620 H     1 <1>   0.1500 
 27 H       -3.0020    -6.6730     1.7600 H     1 <1>   0.0800 
 28 H       -2.5780    -5.0170     1.3640 H     1 <1>   0.0800 
 29 H       -0.6260    -8.4170     0.4090 H     1 <1>   0.1500 
 30 H        1.7060    -4.0860     0.4920 H     1 <1>   0.1500 
 31 H        1.7690    -8.3610     0.9040 H     1 <1>   0.1500 
 32 H       -1.5740    -2.7310    -1.5200 H     1 <1>   0.0800 
 33 H       -2.4440    -4.2100    -1.1520 H     1 <1>   0.0800 
 34 H       -0.9480    -4.2770    -2.0860 H     1 <1>   0.0800 
 35 H        3.6900    -6.9960     1.6450 H     1 <1>   0.0800 
 36 H        3.6520    -5.2450     1.5240 H     1 <1>   0.0800 
 37 H        3.7550    -5.4500    -0.8570 H     1 <1>   0.4500 
 38 H        3.7500    -7.0910    -0.7620 H     1 <1>   0.4500 
 39 H        5.8900    -7.0780     0.4210 H     1 <1>   0.0800 
 40 H        5.8990    -5.3320     0.3060 H     1 <1>   0.0800 
 41 H        6.0170    -5.4790    -2.1600 H     1 <1>   0.0800 
 42 H        5.9790    -7.2470    -2.0560 H     1 <1>   0.0800 
 43 H        8.1160    -6.4130    -2.1750 H     1 <1>   0.4000 
@<TRIPOS>BOND
  1   1   2  1   
  2   2   3  ar  
  3   2   4  ar  
  4   3   5  ar  
  5   3  23  1   
  6   4   6  ar  
  7   4  24  1   
  8   5   7  ar  
  9   5  25  1   
 10   6   7  ar  
 11   6  26  1   
 12   7   8  1   
 13   8   9  1   
 14   8  27  1   
 15   8  28  1   
 16   9  10  1   
 17  10  11  ar  
 18  10  12  ar  
 19  11  13  1   
 20  11  14  ar  
 21  12  15  ar  
 22  12  29  1   
 23  13  16  1   
 24  14  17  ar  
 25  14  30  1   
 26  15  17  ar  
 27  15  31  1   
 28  16  32  1   
 29  16  33  1   
 30  16  34  1   
 31  17  18  1   
 32  18  19  1   
 33  18  35  1   
 34  18  36  1   
 35  19  20  1   
 36  19  37  1   
 37  19  38  1   
 38  20  21  1   
 39  20  39  1   
 40  20  40  1   
 41  21  22  1   
 42  21  41  1   
 43  21  42  1   
 44  22  43  1   
@<TRIPOS>SUBSTRUCTURE
  1 ****  10 GROUP 4 **** **** 0

# MOE 2024.06 (io_trps.svl 2023.06)
