@<TRIPOS>MOLECULE
NONAME
34 34 1 0 0 
SMALL
USER_CHARGES


@<TRIPOS>ATOM
  1 CL       0.5590    -0.8100    -0.6690 Cl    1 <1>  -0.1770 
  2 C       -0.7130     0.3650    -0.3870 C.ar  1 <1>   0.1770 
  3 C       -0.4820     1.7000    -0.0090 C.ar  1 <1>   0.0830 
  4 C       -2.0020    -0.1130    -0.5600 C.ar  1 <1>  -0.1500 
  5 O        0.7180     2.3140     0.1970 O.3   1 <1>  -0.3630 
  6 C       -1.5820     2.5240     0.1860 C.ar  1 <1>  -0.1500 
  7 C       -3.0870     0.7230    -0.3610 C.ar  1 <1>  -0.1500 
  8 C        1.9640     1.6890     0.0180 C.3   1 <1>   0.1200 
  9 C       -2.8620     2.0340     0.0110 C.ar  1 <1>   0.1770 
 10 C        3.0590     2.7180     0.3180 C.3   1 <1>   0.3430 
 11 CL      -4.2250     3.0940     0.2630 Cl    1 <1>  -0.1770 
 12 N        4.4450     2.1920     0.0640 N.4   1 <1>  -0.9590 
 13 C        4.8020     1.0680     0.9760 C.3   1 <1>   0.3430 
 14 C        5.4270     3.3060     0.1560 C.3   1 <1>   0.3430 
 15 C        4.8370    -0.2200     0.1640 C.3   1 <1>  -0.2400 
 16 C        6.7240     2.9020    -0.5340 C.3   1 <1>  -0.2400 
 17 H       -2.1560    -1.1390    -0.8490 H     1 <1>   0.1500 
 18 H       -1.4450     3.5500     0.4760 H     1 <1>   0.1500 
 19 H       -4.0950     0.3670    -0.4910 H     1 <1>   0.1500 
 20 H        2.0280     1.3600    -1.0030 H     1 <1>   0.0800 
 21 H        2.0210     0.8650     0.7060 H     1 <1>   0.0800 
 22 H        2.9720     3.0290     1.3460 H     1 <1>   0.0800 
 23 H        2.8860     3.5770    -0.3100 H     1 <1>   0.0800 
 24 H        4.4870     1.8350    -0.9000 H     1 <1>   0.4500 
 25 H        4.0830     0.9850     1.7760 H     1 <1>   0.0800 
 26 H        5.7720     1.2360     1.4160 H     1 <1>   0.0800 
 27 H        5.6150     3.5560     1.1890 H     1 <1>   0.0800 
 28 H        5.0320     4.1810    -0.3360 H     1 <1>   0.0800 
 29 H        3.8790    -0.4410    -0.2680 H     1 <1>   0.0800 
 30 H        5.1010    -1.0370     0.8130 H     1 <1>   0.0800 
 31 H        5.5810    -0.1630    -0.6110 H     1 <1>   0.0800 
 32 H        7.1980     2.0750    -0.0380 H     1 <1>   0.0800 
 33 H        7.4090     3.7320    -0.5080 H     1 <1>   0.0800 
 34 H        6.5480     2.6540    -1.5660 H     1 <1>   0.0800 
@<TRIPOS>BOND
  1   1   2  1   
  2   2   3  ar  
  3   2   4  ar  
  4   3   5  1   
  5   3   6  ar  
  6   4   7  ar  
  7   4  17  1   
  8   5   8  1   
  9   6   9  ar  
 10   6  18  1   
 11   7   9  ar  
 12   7  19  1   
 13   8  10  1   
 14   8  20  1   
 15   8  21  1   
 16   9  11  1   
 17  10  12  1   
 18  10  22  1   
 19  10  23  1   
 20  12  13  1   
 21  12  14  1   
 22  12  24  1   
 23  13  15  1   
 24  13  25  1   
 25  13  26  1   
 26  14  16  1   
 27  14  27  1   
 28  14  28  1   
 29  15  29  1   
 30  15  30  1   
 31  15  31  1   
 32  16  32  1   
 33  16  33  1   
 34  16  34  1   
@<TRIPOS>SUBSTRUCTURE
  1 ****   5 GROUP 4 **** **** 0

# MOE 2024.06 (io_trps.svl 2023.06)
