@<TRIPOS>MOLECULE
NONAME
24 24 1 0 0 
SMALL
USER_CHARGES


@<TRIPOS>ATOM
  1 I       -0.3970    -0.0800     0.0020 I     1 <1>  -0.0810 
  2 C        1.5340     0.8200     0.0030 C.ar  1 <1>   0.0810 
  3 C        2.6480     0.0010    -0.0010 C.ar  1 <1>  -0.1500 
  4 C        1.6220     2.2000     0.0070 C.ar  1 <1>  -0.1500 
  5 C        3.9020     0.5890     0.0000 C.ar  1 <1>  -0.1500 
  6 C        2.8810     2.7750     0.0080 C.ar  1 <1>  -0.1500 
  7 C        4.0210     1.9800     0.0040 C.ar  1 <1>   0.0820 
  8 O        5.2110     2.6330     0.0050 O.3   1 <1>  -0.3630 
  9 C        6.4320     1.9330     0.0020 C.3   1 <1>   0.1200 
 10 C        7.5640     2.9600     0.0040 C.3   1 <1>  -0.1600 
 11 C        8.9290     2.2690     0.0000 C.3   1 <1>   0.0700 
 12 S       10.2330     3.5740     0.0030 S.3   1 <1>  -0.2660 
 13 C       11.7560     2.6080    -0.0020 C.1   1 <1>   0.5930 
 14 N       12.6970     1.9680    -0.0050 N.1   1 <1>  -0.5570 
 15 H        2.5390    -1.0690    -0.0040 H     1 <1>   0.1500 
 16 H        0.7360     2.8090     0.0100 H     1 <1>   0.1500 
 17 H        4.7650    -0.0470    -0.0030 H     1 <1>   0.1500 
 18 H        2.9890     3.8450     0.0110 H     1 <1>   0.1500 
 19 H        6.4690     1.3240    -0.8850 H     1 <1>   0.0800 
 20 H        6.4710     1.3180     0.8840 H     1 <1>   0.0800 
 21 H        7.4790     3.5760     0.8820 H     1 <1>   0.0800 
 22 H        7.4780     3.5820    -0.8700 H     1 <1>   0.0800 
 23 H        9.0730     1.6750    -0.8850 H     1 <1>   0.0800 
 24 H        9.0750     1.6690     0.8810 H     1 <1>   0.0800 
@<TRIPOS>BOND
  1   1   2  1   
  2   2   3  ar  
  3   2   4  ar  
  4   3   5  ar  
  5   3  15  1   
  6   4   6  ar  
  7   4  16  1   
  8   5   7  ar  
  9   5  17  1   
 10   6   7  ar  
 11   6  18  1   
 12   7   8  1   
 13   8   9  1   
 14   9  10  1   
 15   9  19  1   
 16   9  20  1   
 17  10  11  1   
 18  10  21  1   
 19  10  22  1   
 20  11  12  1   
 21  11  23  1   
 22  11  24  1   
 23  12  13  1   
 24  13  14  3   
@<TRIPOS>SUBSTRUCTURE
  1 ****   9 GROUP 4 **** **** 0

# MOE 2024.06 (io_trps.svl 2023.06)
