@<TRIPOS>MOLECULE
NONAME
45 47 1 0 0 
SMALL
USER_CHARGES


@<TRIPOS>ATOM
  1 S        0.4630    -0.3060     0.8640 S.3   1 <1>  -0.0800 
  2 C        0.2700    -2.0280     0.5850 C.2   1 <1>   0.0960 
  3 C        1.3700    -0.1390    -0.6300 C.2   1 <1>  -0.1400 
  4 S       -0.6430    -2.9560     1.8290 S.3   1 <1>  -0.2860 
  5 C        0.8600    -2.4230    -0.5630 C.2   1 <1>  -0.1810 
  6 C        1.4860    -1.3280    -1.2510 C.2   1 <1>  -0.1500 
  7 C        1.8640     1.2450    -0.9920 C.3   1 <1>  -0.0600 
  8 C       -1.0920    -1.7340     3.1380 C.3   1 <1>  -0.0100 
  9 C        0.9190    -3.8370    -1.1510 C.3   1 <1>   0.3770 
 10 C       -0.4650    -4.4880    -1.1140 C.2   1 <1>  -0.1240 
 11 C        1.9980    -4.6400    -0.4130 C.2   1 <1>  -0.1240 
 12 C       -0.6740    -5.5920    -0.3540 C.2   1 <1>  -0.0380 
 13 C       -1.4830    -3.8670    -1.8910 C.2   1 <1>   0.4950 
 14 C        1.6460    -5.7460     0.3000 C.2   1 <1>  -0.0380 
 15 C        3.3040    -4.0790    -0.5710 C.2   1 <1>   0.7060 
 16 N        0.3390    -6.1770     0.3630 N.pl3 1 <1>  -0.6000 
 17 C       -2.0440    -6.2450    -0.2390 C.3   1 <1>  -0.0220 
 18 O       -1.2930    -2.9980    -2.7090 O.2   1 <1>  -0.5700 
 19 C       -2.9100    -4.3480    -1.6930 C.3   1 <1>  -0.0990 
 20 C        2.6030    -6.6370     1.0760 C.3   1 <1>  -0.1020 
 21 O        3.6890    -3.5680    -1.6070 O.2   1 <1>  -0.5700 
 22 O        4.1440    -4.1020     0.4720 O.3   1 <1>  -0.4300 
 23 C       -2.9600    -5.8580    -1.4100 C.3   1 <1>  -0.1600 
 24 C        5.4250    -3.5080     0.4060 C.3   1 <1>   0.0400 
 25 H        1.9990    -1.4860    -2.1850 H     1 <1>   0.1500 
 26 H        1.0290     1.9140    -1.0950 H     1 <1>   0.0800 
 27 H        2.4010     1.2130    -1.9220 H     1 <1>   0.0800 
 28 H        2.5180     1.6130    -0.2230 H     1 <1>   0.0800 
 29 H       -1.6310    -2.2610     3.9040 H     1 <1>   0.0800 
 30 H       -1.7080    -0.9770     2.6880 H     1 <1>   0.0800 
 31 H       -0.1810    -1.3170     3.5280 H     1 <1>   0.0800 
 32 H        1.1990    -3.7710    -2.1880 H     1 <1>   0.0800 
 33 H        0.1190    -6.9760     0.9680 H     1 <1>   0.4000 
 34 H       -2.4900    -5.9340     0.6900 H     1 <1>   0.0800 
 35 H       -1.9390    -7.3150    -0.2180 H     1 <1>   0.0800 
 36 H       -3.4830    -4.1250    -2.5750 H     1 <1>   0.0800 
 37 H       -3.3360    -3.8040    -0.8700 H     1 <1>   0.0800 
 38 H        2.3660    -7.6720     0.9030 H     1 <1>   0.0800 
 39 H        2.5160    -6.4310     2.1280 H     1 <1>   0.0800 
 40 H        3.6220    -6.4900     0.7770 H     1 <1>   0.0800 
 41 H       -3.9710    -6.1610    -1.2010 H     1 <1>   0.0800 
 42 H       -2.6330    -6.3830    -2.2920 H     1 <1>   0.0800 
 43 H        5.9110    -3.6420     1.3560 H     1 <1>   0.0800 
 44 H        5.3100    -2.4600     0.1920 H     1 <1>   0.0800 
 45 H        5.9920    -3.9880    -0.3730 H     1 <1>   0.0800 
@<TRIPOS>BOND
  1   1   2  1   
  2   1   3  1   
  3   2   4  1   
  4   2   5  2   
  5   3   6  2   
  6   3   7  1   
  7   4   8  1   
  8   5   6  1   
  9   5   9  1   
 10   6  25  1   
 11   7  26  1   
 12   7  27  1   
 13   7  28  1   
 14   8  29  1   
 15   8  30  1   
 16   8  31  1   
 17   9  10  1   
 18   9  11  1   
 19   9  32  1   
 20  10  12  2   
 21  10  13  1   
 22  11  14  2   
 23  11  15  1   
 24  12  16  1   
 25  12  17  1   
 26  13  18  2   
 27  13  19  1   
 28  14  16  1   
 29  14  20  1   
 30  15  21  2   
 31  15  22  1   
 32  16  33  1   
 33  17  23  1   
 34  17  34  1   
 35  17  35  1   
 36  19  23  1   
 37  19  36  1   
 38  19  37  1   
 39  20  38  1   
 40  20  39  1   
 41  20  40  1   
 42  22  24  1   
 43  23  41  1   
 44  23  42  1   
 45  24  43  1   
 46  24  44  1   
 47  24  45  1   
@<TRIPOS>SUBSTRUCTURE
  1 ****   9 GROUP 4 **** **** 0

# MOE 2024.06 (io_trps.svl 2023.06)
