@<TRIPOS>MOLECULE
NONAME
47 49 1 0 0 
SMALL
USER_CHARGES


@<TRIPOS>ATOM
  1 O       -0.0720    -1.0290    -1.4100 O.2   1 <1>  -0.5700 
  2 C       -0.7060    -1.7320    -0.6450 C.2   1 <1>   0.5440 
  3 N       -0.0270    -2.6570     0.1210 N.am  1 <1>  -0.6600 
  4 C       -2.1450    -1.5770    -0.5730 C.ar  1 <1>   0.0860 
  5 C        1.4620    -2.6390     0.2520 C.3   1 <1>   0.1400 
  6 C       -0.6470    -3.9000     0.6700 C.3   1 <1>   0.1400 
  7 C       -2.9170    -1.4940    -1.7330 C.ar  1 <1>  -0.1500 
  8 C       -2.8180    -1.4890     0.6470 C.ar  1 <1>  -0.1500 
  9 C        2.0670    -3.9590    -0.2500 C.3   1 <1>   0.1200 
 10 C        0.0890    -5.1500     0.1540 C.3   1 <1>   0.1200 
 11 C       -4.2890    -1.3410    -1.6800 C.ar  1 <1>  -0.1500 
 12 C       -4.1900    -1.3370     0.7050 C.ar  1 <1>  -0.1500 
 13 O        1.4640    -5.0500     0.3890 O.3   1 <1>  -0.5600 
 14 C       -4.9440    -1.2530    -0.4590 C.ar  1 <1>   0.1170 
 15 N       -6.3260    -1.0820    -0.4180 N.am  1 <1>  -0.5470 
 16 C       -7.0630    -0.0360     0.0430 C.2   1 <1>   0.5690 
 17 O       -8.2630    -0.0730    -0.0340 O.2   1 <1>  -0.5700 
 18 C       -6.3990     1.1980     0.6250 C.3   1 <1>  -0.0990 
 19 C       -5.8260     2.1010    -0.4730 C.3   1 <1>  -0.0170 
 20 C       -5.0480     3.2490     0.1440 C.ar  1 <1>  -0.1430 
 21 C       -5.6990     4.4110     0.5290 C.ar  1 <1>  -0.1500 
 22 C       -3.6790     3.1410     0.3310 C.ar  1 <1>  -0.1500 
 23 C       -4.9880     5.4550     1.0960 C.ar  1 <1>  -0.1500 
 24 C       -2.9670     4.1840     0.8970 C.ar  1 <1>  -0.1500 
 25 C       -3.6210     5.3420     1.2800 C.ar  1 <1>  -0.1500 
 26 H        1.7240    -2.5020     1.2860 H     1 <1>   0.0800 
 27 H        1.8860    -1.8200    -0.3040 H     1 <1>   0.0800 
 28 H       -1.6820    -3.9680     0.3870 H     1 <1>   0.0800 
 29 H       -0.5930    -3.8790     1.7450 H     1 <1>   0.0800 
 30 H       -2.4180    -1.5470    -2.6870 H     1 <1>   0.1500 
 31 H       -2.2470    -1.5370     1.5590 H     1 <1>   0.1500 
 32 H        3.1200    -3.9910    -0.0330 H     1 <1>   0.0800 
 33 H        1.9280    -4.0570    -1.3130 H     1 <1>   0.0800 
 34 H       -0.0710    -5.2740    -0.9030 H     1 <1>   0.0800 
 35 H       -0.2670    -6.0280     0.6620 H     1 <1>   0.0800 
 36 H       -4.8570    -1.2790    -2.5910 H     1 <1>   0.1500 
 37 H       -4.6840    -1.2820     1.6590 H     1 <1>   0.1500 
 38 H       -6.8980    -1.7930    -0.8750 H     1 <1>   0.3700 
 39 H       -5.6200     0.9080     1.3030 H     1 <1>   0.0800 
 40 H       -7.1290     1.7490     1.1910 H     1 <1>   0.0800 
 41 H       -6.6280     2.4850    -1.0810 H     1 <1>   0.0800 
 42 H       -5.1740     1.5350    -1.1150 H     1 <1>   0.0800 
 43 H       -6.7620     4.5070     0.3900 H     1 <1>   0.1500 
 44 H       -3.1590     2.2450     0.0360 H     1 <1>   0.1500 
 45 H       -5.4980     6.3540     1.3930 H     1 <1>   0.1500 
 46 H       -1.9040     4.0950     1.0380 H     1 <1>   0.1500 
 47 H       -3.0680     6.1530     1.7200 H     1 <1>   0.1500 
@<TRIPOS>BOND
  1   1   2  2   
  2   2   3  am  
  3   2   4  1   
  4   3   5  1   
  5   3   6  1   
  6   4   7  ar  
  7   4   8  ar  
  8   5   9  1   
  9   5  26  1   
 10   5  27  1   
 11   6  10  1   
 12   6  28  1   
 13   6  29  1   
 14   7  11  ar  
 15   7  30  1   
 16   8  12  ar  
 17   8  31  1   
 18   9  13  1   
 19   9  32  1   
 20   9  33  1   
 21  10  13  1   
 22  10  34  1   
 23  10  35  1   
 24  11  14  ar  
 25  11  36  1   
 26  12  14  ar  
 27  12  37  1   
 28  14  15  1   
 29  15  16  am  
 30  15  38  1   
 31  16  17  2   
 32  16  18  1   
 33  18  19  1   
 34  18  39  1   
 35  18  40  1   
 36  19  20  1   
 37  19  41  1   
 38  19  42  1   
 39  20  21  ar  
 40  20  22  ar  
 41  21  23  ar  
 42  21  43  1   
 43  22  24  ar  
 44  22  44  1   
 45  23  25  ar  
 46  23  45  1   
 47  24  25  ar  
 48  24  46  1   
 49  25  47  1   
@<TRIPOS>SUBSTRUCTURE
  1 ****   8 GROUP 4 **** **** 0

# MOE 2024.06 (io_trps.svl 2023.06)
