@<TRIPOS>MOLECULE
NONAME
38 40 1 0 0 
SMALL
USER_CHARGES


@<TRIPOS>ATOM
  1 O       -0.5460    -0.6510     1.2200 O.2   1 <1>  -0.5700 
  2 C       -1.5160    -0.2450     0.6240 C.2   1 <1>   0.6340 
  3 O       -1.5720     0.9970     0.1480 O.3   1 <1>  -0.4300 
  4 C       -2.7260    -0.9440     0.3230 C.ar  1 <1>   0.0860 
  5 C       -2.8100     1.2400    -0.5070 C.3   1 <1>   0.2640 
  6 C       -3.5450    -0.0790    -0.3620 C.ar  1 <1>  -0.1440 
  7 C       -3.1540    -2.2370     0.5930 C.ar  1 <1>  -0.1500 
  8 C       -4.7990    -0.4660    -0.7920 C.ar  1 <1>  -0.1500 
  9 C       -4.4090    -2.6590     0.1710 C.ar  1 <1>   0.1170 
 10 C       -5.2230    -1.7570    -0.5180 C.ar  1 <1>  -0.1500 
 11 N       -4.8140    -3.9670     0.4700 N.am  1 <1>  -0.5470 
 12 C       -5.7150    -4.7830    -0.1490 C.2   1 <1>   0.6900 
 13 O       -6.2480    -4.4780    -1.1960 O.2   1 <1>  -0.5700 
 14 N       -5.9910    -5.9680     0.4470 N.am  1 <1>  -0.7300 
 15 C       -6.9210    -6.9810    -0.0800 C.3   1 <1>   0.2200 
 16 C       -8.1610    -7.0320     0.8190 C.3   1 <1>  -0.1600 
 17 C       -6.2060    -8.3350    -0.1210 C.3   1 <1>  -0.1600 
 18 C       -9.1190    -8.1490     0.3800 C.3   1 <1>  -0.1600 
 19 C       -7.1620    -9.4540    -0.5620 C.3   1 <1>  -0.1600 
 20 C       -8.4060    -9.5070     0.3350 C.3   1 <1>  -0.1600 
 21 H       -2.6150     1.4850    -1.5360 H     1 <1>   0.0800 
 22 H       -3.3170     2.0440    -0.0040 H     1 <1>   0.0800 
 23 H       -2.4980    -2.9000     1.1260 H     1 <1>   0.1500 
 24 H       -5.4390     0.2130    -1.3280 H     1 <1>   0.1500 
 25 H       -6.2010    -2.0640    -0.8450 H     1 <1>   0.1500 
 26 H       -4.2790    -4.4330     1.1930 H     1 <1>   0.3700 
 27 H       -5.6560    -6.1490     1.3880 H     1 <1>   0.3700 
 28 H       -7.2240    -6.7160    -1.0810 H     1 <1>   0.0800 
 29 H       -8.6720    -6.0870     0.7710 H     1 <1>   0.0800 
 30 H       -7.8620    -7.2090     1.8380 H     1 <1>   0.0800 
 31 H       -5.8210    -8.5710     0.8550 H     1 <1>   0.0800 
 32 H       -5.3830    -8.2800    -0.8110 H     1 <1>   0.0800 
 33 H       -9.5080    -7.9190    -0.5970 H     1 <1>   0.0800 
 34 H       -9.9510    -8.2000     1.0610 H     1 <1>   0.0800 
 35 H       -6.6500   -10.4010    -0.5280 H     1 <1>   0.0800 
 36 H       -7.4650    -9.2810    -1.5810 H     1 <1>   0.0800 
 37 H       -9.0840   -10.2580    -0.0350 H     1 <1>   0.0800 
 38 H       -8.1150    -9.7910     1.3320 H     1 <1>   0.0800 
@<TRIPOS>BOND
  1   1   2  2   
  2   2   3  1   
  3   2   4  1   
  4   3   5  1   
  5   4   6  ar  
  6   4   7  ar  
  7   5   6  1   
  8   5  21  1   
  9   5  22  1   
 10   6   8  ar  
 11   7   9  ar  
 12   7  23  1   
 13   8  10  ar  
 14   8  24  1   
 15   9  10  ar  
 16   9  11  1   
 17  10  25  1   
 18  11  12  am  
 19  11  26  1   
 20  12  13  2   
 21  12  14  am  
 22  14  15  1   
 23  14  27  1   
 24  15  16  1   
 25  15  17  1   
 26  15  28  1   
 27  16  18  1   
 28  16  29  1   
 29  16  30  1   
 30  17  19  1   
 31  17  31  1   
 32  17  32  1   
 33  18  20  1   
 34  18  33  1   
 35  18  34  1   
 36  19  20  1   
 37  19  35  1   
 38  19  36  1   
 39  20  37  1   
 40  20  38  1   
@<TRIPOS>SUBSTRUCTURE
  1 ****  11 GROUP 4 **** **** 0

# MOE 2024.06 (io_trps.svl 2023.06)
