@<TRIPOS>MOLECULE
NONAME
40 42 1 0 0 
SMALL
USER_CHARGES


@<TRIPOS>ATOM
  1 BR       0.8580    -0.0610    -0.7710 Br    1 <1>  -0.0580 
  2 C        1.2310     1.6070     0.1080 C.2   1 <1>   0.1980 
  3 O        2.4020     2.1570    -0.0910 O.3   1 <1>  -0.2800 
  4 C        0.4410     2.3240     0.9290 C.2   1 <1>  -0.1500 
  5 C        2.4230     3.2910     0.6150 C.2   1 <1>   0.0550 
  6 C        1.2250     3.4310     1.2620 C.2   1 <1>  -0.1500 
  7 C        3.5890     4.1390     0.6050 C.2   1 <1>   0.7150 
  8 O        3.6060     5.1790     1.2360 O.2   1 <1>  -0.5700 
  9 N        4.6750     3.7490    -0.1420 N.am  1 <1>  -0.5470 
 10 C        5.9320     4.3280    -0.3620 C.ar  1 <1>   0.1170 
 11 C        6.6660     3.9210    -1.4690 C.ar  1 <1>  -0.1500 
 12 C        6.4930     5.2850     0.4790 C.ar  1 <1>  -0.1500 
 13 C        7.9170     4.4500    -1.7340 C.ar  1 <1>  -0.1500 
 14 C        7.7400     5.8210     0.2190 C.ar  1 <1>  -0.1500 
 15 C        8.4650     5.4030    -0.8880 C.ar  1 <1>  -0.1430 
 16 C        9.8420     5.9760    -1.1630 C.3   1 <1>   0.4860 
 17 N       10.7900     5.4510    -0.1450 N.4   1 <1>  -0.9590 
 18 C       12.1580     6.0610    -0.2200 C.3   1 <1>   0.3430 
 19 C       10.8680     3.9510    -0.1050 C.3   1 <1>   0.3430 
 20 C       13.1230     5.4220     0.8060 C.3   1 <1>   0.1200 
 21 C       11.8210     3.4700     1.0140 C.3   1 <1>   0.1200 
 22 O       12.4390     4.5500     1.6640 O.3   1 <1>  -0.5600 
 23 H       -0.5600     2.1130     1.2630 H     1 <1>   0.1500 
 24 H        0.9310     4.2400     1.9090 H     1 <1>   0.1500 
 25 H        4.4830     2.8960    -0.6660 H     1 <1>   0.3700 
 26 H        6.2510     3.1860    -2.1360 H     1 <1>   0.1500 
 27 H        5.9550     5.6210     1.3470 H     1 <1>   0.1500 
 28 H        8.4490     4.1120    -2.6070 H     1 <1>   0.1500 
 29 H        8.1280     6.5680     0.8910 H     1 <1>   0.1500 
 30 H        9.7970     7.0510    -1.1100 H     1 <1>   0.0800 
 31 H       10.1640     5.6950    -2.1530 H     1 <1>   0.0800 
 32 H       10.4230     5.7030     0.7840 H     1 <1>   0.4500 
 33 H       12.0980     7.1200    -0.0280 H     1 <1>   0.0800 
 34 H       12.5690     5.9340    -1.2080 H     1 <1>   0.0800 
 35 H       11.2210     3.5750    -1.0510 H     1 <1>   0.0800 
 36 H        9.8900     3.5310     0.0660 H     1 <1>   0.0800 
 37 H       13.5840     6.1860     1.4100 H     1 <1>   0.0800 
 38 H       13.9040     4.8730     0.3080 H     1 <1>   0.0800 
 39 H       12.5840     2.8240     0.6150 H     1 <1>   0.0800 
 40 H       11.2690     2.9170     1.7560 H     1 <1>   0.0800 
@<TRIPOS>BOND
  1   1   2  1   
  2   2   3  1   
  3   2   4  2   
  4   3   5  1   
  5   4   6  1   
  6   4  23  1   
  7   5   6  2   
  8   5   7  1   
  9   6  24  1   
 10   7   8  2   
 11   7   9  am  
 12   9  10  1   
 13   9  25  1   
 14  10  11  ar  
 15  10  12  ar  
 16  11  13  ar  
 17  11  26  1   
 18  12  14  ar  
 19  12  27  1   
 20  13  15  ar  
 21  13  28  1   
 22  14  15  ar  
 23  14  29  1   
 24  15  16  1   
 25  16  17  1   
 26  16  30  1   
 27  16  31  1   
 28  17  18  1   
 29  17  19  1   
 30  17  32  1   
 31  18  20  1   
 32  18  33  1   
 33  18  34  1   
 34  19  21  1   
 35  19  35  1   
 36  19  36  1   
 37  20  22  1   
 38  20  37  1   
 39  20  38  1   
 40  21  22  1   
 41  21  39  1   
 42  21  40  1   
@<TRIPOS>SUBSTRUCTURE
  1 ****  10 GROUP 4 **** **** 0

# MOE 2024.06 (io_trps.svl 2023.06)
