@<TRIPOS>MOLECULE
NONAME
28 28 1 0 0 
SMALL
USER_CHARGES


@<TRIPOS>ATOM
  1 O        0.2550     0.3430     0.3710 O.2   1 <1>  -0.5700 
  2 C       -0.0220     1.4640    -0.0030 C.2   1 <1>   0.7800 
  3 O        0.9390     2.3660    -0.1900 O.3   1 <1>  -0.4300 
  4 N       -1.2820     1.9110    -0.2540 N.am  1 <1>  -0.5470 
  5 C        2.2970     2.0420     0.0390 C.3   1 <1>   0.0400 
  6 C       -2.5360     1.2830    -0.1800 C.ar  1 <1>   0.1170 
  7 C       -3.6750     2.0770    -0.1270 C.ar  1 <1>  -0.1500 
  8 C       -2.6900    -0.0980    -0.1700 C.ar  1 <1>  -0.1500 
  9 C       -4.9450     1.5140    -0.0600 C.ar  1 <1>   0.0830 
 10 C       -3.9460    -0.6750    -0.1040 C.ar  1 <1>  -0.1500 
 11 O       -6.0800     2.2700    -0.0050 O.3   1 <1>  -0.3620 
 12 C       -5.0840     0.1230    -0.0480 C.ar  1 <1>   0.0830 
 13 C       -6.0380     3.6780     0.0630 C.3   1 <1>   0.0400 
 14 O       -6.3460    -0.3980     0.0190 O.3   1 <1>  -0.3630 
 15 C       -6.5640    -1.7890     0.0820 C.3   1 <1>   0.0400 
 16 H       -1.2900     2.8950    -0.5070 H     1 <1>   0.3700 
 17 H        2.8960     2.9100    -0.1720 H     1 <1>   0.0800 
 18 H        2.5760     1.2310    -0.6120 H     1 <1>   0.0800 
 19 H        2.4160     1.7490     1.0680 H     1 <1>   0.0800 
 20 H       -3.5490     3.1400    -0.1370 H     1 <1>   0.1500 
 21 H       -1.8290    -0.7390    -0.2180 H     1 <1>   0.1500 
 22 H       -4.0110    -1.7450    -0.0980 H     1 <1>   0.1500 
 23 H       -7.0500     4.0360     0.1300 H     1 <1>   0.0800 
 24 H       -5.5760     4.0560    -0.8310 H     1 <1>   0.0800 
 25 H       -5.4890     3.9690     0.9400 H     1 <1>   0.0800 
 26 H       -7.6230    -1.9570     0.1480 H     1 <1>   0.0800 
 27 H       -6.0770    -2.1790     0.9590 H     1 <1>   0.0800 
 28 H       -6.1770    -2.2440    -0.8120 H     1 <1>   0.0800 
@<TRIPOS>BOND
  1   1   2  2   
  2   2   3  1   
  3   2   4  am  
  4   3   5  1   
  5   4   6  1   
  6   4  16  1   
  7   5  17  1   
  8   5  18  1   
  9   5  19  1   
 10   6   7  ar  
 11   6   8  ar  
 12   7   9  ar  
 13   7  20  1   
 14   8  10  ar  
 15   8  21  1   
 16   9  11  1   
 17   9  12  ar  
 18  10  12  ar  
 19  10  22  1   
 20  11  13  1   
 21  12  14  1   
 22  13  23  1   
 23  13  24  1   
 24  13  25  1   
 25  14  15  1   
 26  15  26  1   
 27  15  27  1   
 28  15  28  1   
@<TRIPOS>SUBSTRUCTURE
  1 ****   6 GROUP 4 **** **** 0

# MOE 2024.06 (io_trps.svl 2023.06)
