@<TRIPOS>MOLECULE
NONAME
30 30 1 0 0 
SMALL
USER_CHARGES


@<TRIPOS>ATOM
  1 BR       0.2140     0.9400     1.4720 Br    1 <1>  -0.1110 
  2 C       -1.5530     1.4270     0.8790 C.ar  1 <1>   0.1110 
  3 C       -1.7240     2.6200     0.2030 C.ar  1 <1>  -0.1500 
  4 C       -2.6050     0.5720     1.1430 C.ar  1 <1>  -0.1500 
  5 C       -2.9970     2.9630    -0.2190 C.ar  1 <1>  -0.1500 
  6 C       -3.8710     0.9300     0.7130 C.ar  1 <1>  -0.1500 
  7 C       -4.0850     2.1280     0.0300 C.ar  1 <1>   0.1170 
  8 N       -5.3510     2.5150    -0.4330 N.am  1 <1>  -0.5470 
  9 C       -6.5980     2.2010     0.0200 C.2   1 <1>   0.6900 
 10 O       -6.7640     1.5890     1.0550 O.2   1 <1>  -0.5700 
 11 N       -7.6470     2.6150    -0.7380 N.am  1 <1>  -0.7300 
 12 C       -9.0890     2.4390    -0.4660 C.3   1 <1>   0.2200 
 13 C       -9.4710     3.1060     0.8660 C.3   1 <1>  -0.1600 
 14 C       -9.4410     0.9520    -0.5290 C.3   1 <1>  -0.2400 
 15 C      -10.9890     3.2280     1.0650 C.3   1 <1>  -0.2400 
 16 H       -0.8810     3.2600     0.0160 H     1 <1>   0.1500 
 17 H       -2.4390    -0.3490     1.6720 H     1 <1>   0.1500 
 18 H       -3.1460     3.8890    -0.7430 H     1 <1>   0.1500 
 19 H       -4.6980     0.2720     0.9090 H     1 <1>   0.1500 
 20 H       -5.3480     3.2400    -1.1400 H     1 <1>   0.3700 
 21 H       -7.4470     2.9240    -1.6850 H     1 <1>   0.3700 
 22 H       -9.6270     2.9430    -1.2520 H     1 <1>   0.0800 
 23 H       -9.0460     4.0930     0.8930 H     1 <1>   0.0800 
 24 H       -9.0580     2.5440     1.6860 H     1 <1>   0.0800 
 25 H       -8.9890     0.4220     0.2910 H     1 <1>   0.0800 
 26 H       -9.0970     0.5280    -1.4550 H     1 <1>   0.0800 
 27 H      -10.5040     0.8180    -0.4730 H     1 <1>   0.0800 
 28 H      -11.4360     3.7710     0.2500 H     1 <1>   0.0800 
 29 H      -11.1930     3.7580     1.9790 H     1 <1>   0.0800 
 30 H      -11.4460     2.2570     1.1320 H     1 <1>   0.0800 
@<TRIPOS>BOND
  1   1   2  1   
  2   2   3  ar  
  3   2   4  ar  
  4   3   5  ar  
  5   3  16  1   
  6   4   6  ar  
  7   4  17  1   
  8   5   7  ar  
  9   5  18  1   
 10   6   7  ar  
 11   6  19  1   
 12   7   8  1   
 13   8   9  am  
 14   8  20  1   
 15   9  10  2   
 16   9  11  am  
 17  11  12  1   
 18  11  21  1   
 19  12  13  1   
 20  12  14  1   
 21  12  22  1   
 22  13  15  1   
 23  13  23  1   
 24  13  24  1   
 25  14  25  1   
 26  14  26  1   
 27  14  27  1   
 28  15  28  1   
 29  15  29  1   
 30  15  30  1   
@<TRIPOS>SUBSTRUCTURE
  1 ****   8 GROUP 4 **** **** 0

# MOE 2024.06 (io_trps.svl 2023.06)
