@<TRIPOS>MOLECULE
NONAME
43 45 1 0 0 
SMALL
USER_CHARGES


@<TRIPOS>ATOM
  1 F        0.1610    -0.0190     0.8960 F     1 <1>  -0.1900 
  2 C        0.9530     0.6380     0.0820 C.ar  1 <1>   0.1900 
  3 C        0.6070     1.9390    -0.2850 C.ar  1 <1>   0.1170 
  4 C        2.0920    -0.0010    -0.3670 C.ar  1 <1>  -0.1500 
  5 N       -0.5760     2.5150     0.2250 N.am  1 <1>  -0.5470 
  6 C        1.4830     2.5960    -1.1470 C.ar  1 <1>  -0.1500 
  7 C        2.9400     0.6780    -1.2250 C.ar  1 <1>  -0.1500 
  8 C       -1.2210     3.6880    -0.0470 C.2   1 <1>   0.5690 
  9 C        2.6320     1.9730    -1.6100 C.ar  1 <1>  -0.1500 
 10 O       -0.8420     4.5000    -0.8520 O.2   1 <1>  -0.5700 
 11 C       -2.4990     3.9760     0.7160 C.3   1 <1>  -0.0990 
 12 C       -3.6580     3.0720     0.2640 C.3   1 <1>  -0.1600 
 13 C       -4.9440     3.3890     1.0320 C.3   1 <1>   0.1400 
 14 N       -6.0020     2.4350     0.6440 N.am  1 <1>  -0.4200 
 15 C       -6.1040     1.1620     1.1270 C.2   1 <1>   0.5690 
 16 C       -6.9970     2.7000    -0.2530 C.2   1 <1>   0.5690 
 17 O       -5.4460     0.6830     2.0140 O.2   1 <1>  -0.5700 
 18 C       -7.1470     0.4170     0.3280 C.3   1 <1>  -0.0190 
 19 O       -7.0990     3.6850    -0.9370 O.2   1 <1>  -0.5700 
 20 C       -7.9940     1.5640    -0.2280 C.3   1 <1>  -0.0190 
 21 C       -8.0590    -0.6410     0.9550 C.3   1 <1>  -0.0220 
 22 C       -8.7310     1.0960    -1.4860 C.3   1 <1>  -0.0220 
 23 C       -9.1460    -0.9750    -0.0690 C.2   1 <1>  -0.2880 
 24 C       -9.4270    -0.2250    -1.1480 C.2   1 <1>  -0.2880 
 25 H        2.3080    -1.0060    -0.0530 H     1 <1>   0.1500 
 26 H       -1.0500     1.9120     0.8980 H     1 <1>   0.3700 
 27 H        1.2790     3.6010    -1.4650 H     1 <1>   0.1500 
 28 H        3.8350     0.2030    -1.5910 H     1 <1>   0.1500 
 29 H        3.2910     2.5030    -2.2770 H     1 <1>   0.1500 
 30 H       -2.7650     5.0070     0.5560 H     1 <1>   0.0800 
 31 H       -2.3120     3.8450     1.7660 H     1 <1>   0.0800 
 32 H       -3.3900     2.0420     0.4290 H     1 <1>   0.0800 
 33 H       -3.8290     3.2190    -0.7890 H     1 <1>   0.0800 
 34 H       -5.2690     4.3930     0.8150 H     1 <1>   0.0800 
 35 H       -4.7740     3.3060     2.0920 H     1 <1>   0.0800 
 36 H       -6.6160    -0.0510    -0.4840 H     1 <1>   0.0800 
 37 H       -8.7360     1.8380     0.5030 H     1 <1>   0.0800 
 38 H       -8.5060    -0.2760     1.8640 H     1 <1>   0.0800 
 39 H       -7.4810    -1.5190     1.1860 H     1 <1>   0.0800 
 40 H       -8.0470     0.9560    -2.3050 H     1 <1>   0.0800 
 41 H       -9.4570     1.8390    -1.7700 H     1 <1>   0.0800 
 42 H       -9.6730    -1.8890     0.1570 H     1 <1>   0.1500 
 43 H      -10.1800    -0.5010    -1.8690 H     1 <1>   0.1500 
@<TRIPOS>BOND
  1   1   2  1   
  2   2   3  ar  
  3   2   4  ar  
  4   3   5  1   
  5   3   6  ar  
  6   4   7  ar  
  7   4  25  1   
  8   5   8  am  
  9   5  26  1   
 10   6   9  ar  
 11   6  27  1   
 12   7   9  ar  
 13   7  28  1   
 14   8  10  2   
 15   8  11  1   
 16   9  29  1   
 17  11  12  1   
 18  11  30  1   
 19  11  31  1   
 20  12  13  1   
 21  12  32  1   
 22  12  33  1   
 23  13  14  1   
 24  13  34  1   
 25  13  35  1   
 26  14  15  am  
 27  14  16  am  
 28  15  17  2   
 29  15  18  1   
 30  16  19  2   
 31  16  20  1   
 32  18  20  1   
 33  18  21  1   
 34  18  36  1   
 35  20  22  1   
 36  20  37  1   
 37  21  23  1   
 38  21  38  1   
 39  21  39  1   
 40  22  24  1   
 41  22  40  1   
 42  22  41  1   
 43  23  24  2   
 44  23  42  1   
 45  24  43  1   
@<TRIPOS>SUBSTRUCTURE
  1 ****  12 GROUP 4 **** **** 0

# MOE 2024.06 (io_trps.svl 2023.06)
