@<TRIPOS>MOLECULE
NONAME
43 44 1 0 0 
SMALL
USER_CHARGES


@<TRIPOS>ATOM
  1 S        0.0960    -0.0030    -0.4380 S.o2  1 <1>   1.3330 
  2 O       -0.4740     1.3210    -0.4370 O.2   1 <1>  -0.6500 
  3 O        1.1470    -0.3670    -1.3540 O.2   1 <1>  -0.6500 
  4 N       -1.1570    -1.1170    -0.8060 N.am  1 <1>  -0.7570 
  5 C        0.5680    -0.4910     1.2270 C.3   1 <1>  -0.0550 
  6 C       -2.4690    -1.1670    -0.3670 C.ar  1 <1>   0.1990 
  7 C        1.7330     0.3220     1.8200 C.3   1 <1>  -0.2400 
  8 C       -3.0130    -0.2530     0.5320 C.ar  1 <1>  -0.1500 
  9 C       -3.2940    -2.1850    -0.8330 C.ar  1 <1>  -0.1500 
 10 C       -4.3260    -0.3600     0.9460 C.ar  1 <1>  -0.1500 
 11 C       -4.6070    -2.2890    -0.4170 C.ar  1 <1>  -0.1500 
 12 C       -5.1640    -1.3760     0.4820 C.ar  1 <1>   0.0860 
 13 C       -6.5420    -1.4660     0.9210 C.2   1 <1>   0.5440 
 14 O       -6.8730    -1.0520     2.0160 O.2   1 <1>  -0.5700 
 15 N       -7.4980    -2.0020     0.1040 N.am  1 <1>  -0.7300 
 16 C       -8.9250    -2.1480     0.4360 C.3   1 <1>   0.2200 
 17 C       -9.3470    -3.5980     0.1770 C.3   1 <1>  -0.1600 
 18 C       -9.7350    -1.1710    -0.4220 C.3   1 <1>  -0.1600 
 19 C      -10.8550    -3.7860     0.4010 C.3   1 <1>  -0.1600 
 20 C      -11.2430    -1.3540    -0.1990 C.3   1 <1>  -0.1600 
 21 C      -11.6700    -2.8060    -0.4540 C.3   1 <1>  -0.1600 
 22 H       -0.8690    -1.7050    -1.5820 H     1 <1>   0.4200 
 23 H        0.8450    -1.5280     1.2180 H     1 <1>   0.0800 
 24 H       -0.2820    -0.3900     1.8740 H     1 <1>   0.0800 
 25 H        2.6100     0.2150     1.2060 H     1 <1>   0.0800 
 26 H        1.9610    -0.0230     2.8130 H     1 <1>   0.0800 
 27 H        1.4710     1.3650     1.8660 H     1 <1>   0.0800 
 28 H       -2.4180     0.5560     0.9120 H     1 <1>   0.1500 
 29 H       -2.8980    -2.9050    -1.5250 H     1 <1>   0.1500 
 30 H       -4.7250     0.3570     1.6440 H     1 <1>   0.1500 
 31 H       -5.2110    -3.0980    -0.7880 H     1 <1>   0.1500 
 32 H       -7.2620    -2.2220    -0.8620 H     1 <1>   0.3700 
 33 H       -9.0850    -1.9180     1.4770 H     1 <1>   0.0800 
 34 H       -8.8060    -4.2480     0.8420 H     1 <1>   0.0800 
 35 H       -9.1090    -3.8680    -0.8370 H     1 <1>   0.0800 
 36 H       -9.5130    -1.3330    -1.4620 H     1 <1>   0.0800 
 37 H       -9.4580    -0.1630    -0.1650 H     1 <1>   0.0800 
 38 H      -11.0820    -3.6230     1.4420 H     1 <1>   0.0800 
 39 H      -11.1340    -4.7970     0.1590 H     1 <1>   0.0800 
 40 H      -11.7880    -0.6960    -0.8540 H     1 <1>   0.0800 
 41 H      -11.4870    -1.0850     0.8150 H     1 <1>   0.0800 
 42 H      -12.7170    -2.9180    -0.2310 H     1 <1>   0.0800 
 43 H      -11.5300    -3.0410    -1.4960 H     1 <1>   0.0800 
@<TRIPOS>BOND
  1   1   2  2   
  2   1   3  2   
  3   1   4  am  
  4   1   5  1   
  5   4   6  1   
  6   4  22  1   
  7   5   7  1   
  8   5  23  1   
  9   5  24  1   
 10   6   8  ar  
 11   6   9  ar  
 12   7  25  1   
 13   7  26  1   
 14   7  27  1   
 15   8  10  ar  
 16   8  28  1   
 17   9  11  ar  
 18   9  29  1   
 19  10  12  ar  
 20  10  30  1   
 21  11  12  ar  
 22  11  31  1   
 23  12  13  1   
 24  13  14  2   
 25  13  15  am  
 26  15  16  1   
 27  15  32  1   
 28  16  17  1   
 29  16  18  1   
 30  16  33  1   
 31  17  19  1   
 32  17  34  1   
 33  17  35  1   
 34  18  20  1   
 35  18  36  1   
 36  18  37  1   
 37  19  21  1   
 38  19  38  1   
 39  19  39  1   
 40  20  21  1   
 41  20  40  1   
 42  20  41  1   
 43  21  42  1   
 44  21  43  1   
@<TRIPOS>SUBSTRUCTURE
  1 ****  12 GROUP 4 **** **** 0

# MOE 2024.06 (io_trps.svl 2023.06)
