@<TRIPOS>MOLECULE
NONAME
38 40 1 0 0 
SMALL
USER_CHARGES


@<TRIPOS>ATOM
  1 S        0.6890    -0.4680    -1.5760 S.3   1 <1>  -0.0800 
  2 C       -0.4580    -1.3010    -0.5340 C.2   1 <1>  -0.1400 
  3 C        0.8360     0.8580    -0.4360 C.2   1 <1>  -0.1100 
  4 C       -0.6790    -0.5790     0.5840 C.2   1 <1>  -0.1500 
  5 C       -1.0080    -2.6370    -1.0160 C.3   1 <1>   0.5380 
  6 C        0.0580     0.6470     0.6400 C.2   1 <1>  -0.1500 
  7 N       -2.4050    -2.7320    -0.5440 N.am  1 <1>  -0.7300 
  8 C       -0.1520    -3.7880    -0.4940 C.2   1 <1>  -0.1240 
  9 C       -2.8150    -3.5780     0.4140 C.2   1 <1>   0.6900 
 10 C       -0.6610    -4.6690     0.4060 C.2   1 <1>  -0.0290 
 11 C        1.1560    -3.7850    -1.0640 C.2   1 <1>   0.6160 
 12 O       -3.9260    -3.4870     0.8830 O.2   1 <1>  -0.5700 
 13 N       -1.9560    -4.5280     0.8620 N.am  1 <1>  -0.5390 
 14 C        0.0830    -5.8640     0.9770 C.3   1 <1>  -0.1020 
 15 O        1.2670    -3.8500    -2.2750 O.2   1 <1>  -0.5700 
 16 N        2.2910    -3.6790    -0.2890 N.am  1 <1>  -0.6600 
 17 C        2.2820    -3.1490     1.1090 C.3   1 <1>   0.1400 
 18 C        3.6620    -3.7340    -0.8800 C.3   1 <1>   0.1400 
 19 C        3.0990    -1.8490     1.2020 C.3   1 <1>   0.1200 
 20 C        4.3850    -2.3920    -0.6810 C.3   1 <1>   0.1200 
 21 O        4.3810    -2.0280     0.6710 O.3   1 <1>  -0.5600 
 22 H        1.4980     1.6640    -0.6980 H     1 <1>   0.1500 
 23 H       -1.3410    -0.8610     1.3850 H     1 <1>   0.1500 
 24 H       -1.0180    -2.6550    -2.0930 H     1 <1>   0.0800 
 25 H       -0.0370     1.3090     1.4830 H     1 <1>   0.1500 
 26 H       -3.0210    -1.9600    -0.7820 H     1 <1>   0.3700 
 27 H       -2.3640    -5.1640     1.5470 H     1 <1>   0.3700 
 28 H       -0.4760    -6.7640     0.7910 H     1 <1>   0.0800 
 29 H        0.2110    -5.7470     2.0370 H     1 <1>   0.0800 
 30 H        1.0520    -5.9790     0.5260 H     1 <1>   0.0800 
 31 H        2.7130    -3.8830     1.7670 H     1 <1>   0.0800 
 32 H        1.2790    -2.9520     1.4420 H     1 <1>   0.0800 
 33 H        3.6210    -3.9640    -1.9300 H     1 <1>   0.0800 
 34 H        4.2250    -4.5130    -0.3960 H     1 <1>   0.0800 
 35 H        3.2070    -1.5510     2.2300 H     1 <1>   0.0800 
 36 H        2.6110    -1.0560     0.6640 H     1 <1>   0.0800 
 37 H        3.9030    -1.6170    -1.2520 H     1 <1>   0.0800 
 38 H        5.4100    -2.4710    -0.9980 H     1 <1>   0.0800 
@<TRIPOS>BOND
  1   1   2  1   
  2   1   3  1   
  3   2   4  2   
  4   2   5  1   
  5   3   6  2   
  6   3  22  1   
  7   4   6  1   
  8   4  23  1   
  9   5   7  1   
 10   5   8  1   
 11   5  24  1   
 12   6  25  1   
 13   7   9  am  
 14   7  26  1   
 15   8  10  2   
 16   8  11  1   
 17   9  12  2   
 18   9  13  am  
 19  10  13  1   
 20  10  14  1   
 21  11  15  2   
 22  11  16  am  
 23  13  27  1   
 24  14  28  1   
 25  14  29  1   
 26  14  30  1   
 27  16  17  1   
 28  16  18  1   
 29  17  19  1   
 30  17  31  1   
 31  17  32  1   
 32  18  20  1   
 33  18  33  1   
 34  18  34  1   
 35  19  21  1   
 36  19  35  1   
 37  19  36  1   
 38  20  21  1   
 39  20  37  1   
 40  20  38  1   
@<TRIPOS>SUBSTRUCTURE
  1 ****   8 GROUP 4 **** **** 0

# MOE 2024.06 (io_trps.svl 2023.06)
