@<TRIPOS>MOLECULE
NONAME
45 45 1 0 0 
SMALL
USER_CHARGES


@<TRIPOS>ATOM
  1 O       -0.0760     0.8130     1.5280 O.2   1 <1>  -0.5700 
  2 C       -0.1130     1.6650     0.6620 C.2   1 <1>   0.5440 
  3 N        1.0220     1.9350    -0.0490 N.am  1 <1>  -0.7300 
  4 C       -1.3500     2.3720     0.3720 C.ar  1 <1>   0.0860 
  5 C        2.3430     1.2860     0.1370 C.3   1 <1>   0.2200 
  6 C       -1.3550     3.6440    -0.2000 C.ar  1 <1>  -0.1500 
  7 C       -2.5850     1.7920     0.6600 C.ar  1 <1>  -0.1500 
  8 C        3.3830     2.3850     0.4960 C.3   1 <1>  -0.0800 
  9 C        2.7280     0.4380    -1.1170 C.3   1 <1>  -0.0800 
 10 C       -2.5330     4.3070    -0.4910 C.ar  1 <1>   0.0830 
 11 C       -3.7780     2.4480     0.3780 C.ar  1 <1>   0.0830 
 12 C        4.7910     1.8230     0.7620 C.3   1 <1>  -0.2400 
 13 C        2.9580     3.1950     1.7370 C.3   1 <1>  -0.2400 
 14 C        1.5650     0.1210    -2.0790 C.3   1 <1>  -0.2400 
 15 C        3.3500    -0.9040    -0.6910 C.3   1 <1>  -0.2400 
 16 O       -2.4160     5.5360    -1.0540 O.3   1 <1>  -0.3630 
 17 C       -3.7500     3.7040    -0.2010 C.ar  1 <1>  -0.1500 
 18 O       -5.0030     1.9260     0.6390 O.3   1 <1>  -0.3630 
 19 C       -3.5560     6.3060    -1.3670 C.3   1 <1>   0.0400 
 20 C       -5.1450     0.6740     1.2740 C.3   1 <1>   0.0400 
 21 H        0.9710     2.5680    -0.8440 H     1 <1>   0.3700 
 22 H        2.2680     0.6200     0.9810 H     1 <1>   0.0800 
 23 H       -0.4290     4.1400    -0.4210 H     1 <1>   0.1500 
 24 H       -2.5830     0.8170     1.1090 H     1 <1>   0.1500 
 25 H        3.4560     3.0630    -0.3370 H     1 <1>   0.0800 
 26 H        3.4660     0.9800    -1.6830 H     1 <1>   0.0800 
 27 H        4.7620     1.0940     1.5520 H     1 <1>   0.0800 
 28 H        5.4600     2.6130     1.0530 H     1 <1>   0.0800 
 29 H        5.1980     1.3660    -0.1210 H     1 <1>   0.0800 
 30 H        2.8130     2.5400     2.5790 H     1 <1>   0.0800 
 31 H        2.0380     3.7220     1.5580 H     1 <1>   0.0800 
 32 H        3.7070     3.9230     1.9910 H     1 <1>   0.0800 
 33 H        0.7740    -0.3910    -1.5580 H     1 <1>   0.0800 
 34 H        1.9030    -0.5080    -2.8840 H     1 <1>   0.0800 
 35 H        1.1690     1.0210    -2.5140 H     1 <1>   0.0800 
 36 H        2.6230    -1.5000    -0.1660 H     1 <1>   0.0800 
 37 H        4.1940    -0.7590    -0.0440 H     1 <1>   0.0800 
 38 H        3.6830    -1.4550    -1.5530 H     1 <1>   0.0800 
 39 H       -4.6860     4.1830    -0.4090 H     1 <1>   0.1500 
 40 H       -3.2250     7.2370    -1.7910 H     1 <1>   0.0800 
 41 H       -4.1100     6.4930    -0.4640 H     1 <1>   0.0800 
 42 H       -4.1540     5.7710    -2.0830 H     1 <1>   0.0800 
 43 H       -6.1950     0.4790     1.3950 H     1 <1>   0.0800 
 44 H       -4.6670     0.7140     2.2360 H     1 <1>   0.0800 
 45 H       -4.7020    -0.0850     0.6540 H     1 <1>   0.0800 
@<TRIPOS>BOND
  1   1   2  2   
  2   2   3  am  
  3   2   4  1   
  4   3   5  1   
  5   3  21  1   
  6   4   6  ar  
  7   4   7  ar  
  8   5   8  1   
  9   5   9  1   
 10   5  22  1   
 11   6  10  ar  
 12   6  23  1   
 13   7  11  ar  
 14   7  24  1   
 15   8  12  1   
 16   8  13  1   
 17   8  25  1   
 18   9  14  1   
 19   9  15  1   
 20   9  26  1   
 21  10  16  1   
 22  10  17  ar  
 23  11  17  ar  
 24  11  18  1   
 25  12  27  1   
 26  12  28  1   
 27  12  29  1   
 28  13  30  1   
 29  13  31  1   
 30  13  32  1   
 31  14  33  1   
 32  14  34  1   
 33  14  35  1   
 34  15  36  1   
 35  15  37  1   
 36  15  38  1   
 37  16  19  1   
 38  17  39  1   
 39  18  20  1   
 40  19  40  1   
 41  19  41  1   
 42  19  42  1   
 43  20  43  1   
 44  20  44  1   
 45  20  45  1   
@<TRIPOS>SUBSTRUCTURE
  1 ****   2 GROUP 4 **** **** 0

# MOE 2024.06 (io_trps.svl 2023.06)
