@<TRIPOS>MOLECULE
NONAME
29 29 1 0 0 
SMALL
USER_CHARGES


@<TRIPOS>ATOM
  1 CL       1.1310    -0.7920    -2.4440 Cl    1 <1>  -0.1770 
  2 C        1.2670    -1.7690    -0.9950 C.ar  1 <1>   0.1770 
  3 C        0.2390    -2.6600    -0.6720 C.ar  1 <1>   0.1990 
  4 C        2.3980    -1.6230    -0.2120 C.ar  1 <1>  -0.1500 
  5 N       -0.8850    -2.7580    -1.4940 N.am  1 <1>  -0.7570 
  6 C        0.3870    -3.4160     0.4890 C.ar  1 <1>  -0.1500 
  7 C        2.5250    -2.3820     0.9400 C.ar  1 <1>  -0.1500 
  8 S       -2.0490    -4.0130    -1.6040 S.o2  1 <1>   1.3330 
  9 C        1.5160    -3.2680     1.2720 C.ar  1 <1>   0.1770 
 10 O       -2.6270    -3.8310    -2.9110 O.2   1 <1>  -0.6500 
 11 O       -1.3950    -5.2420    -1.2320 O.2   1 <1>  -0.6500 
 12 C       -3.2450    -3.5360    -0.3540 C.3   1 <1>  -0.0550 
 13 CL       1.6730    -4.2210     2.7250 Cl    1 <1>  -0.1770 
 14 C       -4.4420    -4.4940    -0.2490 C.3   1 <1>  -0.1600 
 15 C       -5.4270    -4.0390     0.8340 C.3   1 <1>  -0.1600 
 16 C       -6.6160    -4.9980     0.9300 C.3   1 <1>  -0.2400 
 17 H        3.1650    -0.9260    -0.5000 H     1 <1>   0.1500 
 18 H       -0.8630    -2.2410    -2.3730 H     1 <1>   0.4200 
 19 H       -0.3590    -4.1240     0.7920 H     1 <1>   0.1500 
 20 H        3.3920    -2.2930     1.5720 H     1 <1>   0.1500 
 21 H       -3.6090    -2.5520    -0.5800 H     1 <1>   0.0800 
 22 H       -2.7560    -3.4910     0.6000 H     1 <1>   0.0800 
 23 H       -4.0840    -5.4850    -0.0200 H     1 <1>   0.0800 
 24 H       -4.9460    -4.5360    -1.2010 H     1 <1>   0.0800 
 25 H       -5.7890    -3.0510     0.6060 H     1 <1>   0.0800 
 26 H       -4.9280    -4.0010     1.7880 H     1 <1>   0.0800 
 27 H       -7.1460    -5.0370    -0.0060 H     1 <1>   0.0800 
 28 H       -7.2970    -4.6650     1.6940 H     1 <1>   0.0800 
 29 H       -6.2820    -5.9900     1.1800 H     1 <1>   0.0800 
@<TRIPOS>BOND
  1   1   2  1   
  2   2   3  ar  
  3   2   4  ar  
  4   3   5  1   
  5   3   6  ar  
  6   4   7  ar  
  7   4  17  1   
  8   5   8  am  
  9   5  18  1   
 10   6   9  ar  
 11   6  19  1   
 12   7   9  ar  
 13   7  20  1   
 14   8  10  2   
 15   8  11  2   
 16   8  12  1   
 17   9  13  1   
 18  12  14  1   
 19  12  21  1   
 20  12  22  1   
 21  14  15  1   
 22  14  23  1   
 23  14  24  1   
 24  15  16  1   
 25  15  25  1   
 26  15  26  1   
 27  16  27  1   
 28  16  28  1   
 29  16  29  1   
@<TRIPOS>SUBSTRUCTURE
  1 ****   5 GROUP 4 **** **** 0

# MOE 2024.06 (io_trps.svl 2023.06)
