@<TRIPOS>MOLECULE
NONAME
38 39 1 0 0 
SMALL
USER_CHARGES


@<TRIPOS>ATOM
  1 O        0.3570    -3.0890     1.8170 O.2   1 <1>  -0.5700 
  2 C       -0.2230    -2.3850     1.0270 C.2   1 <1>   0.5690 
  3 N        0.4300    -1.5130     0.2190 N.am  1 <1>  -0.7300 
  4 C       -1.7380    -2.4820     0.9430 C.3   1 <1>   0.0440 
  5 C        1.8800    -1.2870     0.1750 C.3   1 <1>   0.2200 
  6 C       -2.3410    -1.5390    -0.0960 C.ar  1 <1>  -0.1440 
  7 C        2.1620     0.1720     0.5490 C.3   1 <1>  -0.1600 
  8 C        2.3870    -1.6090    -1.2340 C.3   1 <1>  -0.1600 
  9 C       -2.6380    -0.2270     0.2440 C.ar  1 <1>  -0.1500 
 10 C       -2.5740    -1.9770    -1.3900 C.ar  1 <1>  -0.1500 
 11 C        3.6560     0.5020     0.4100 C.3   1 <1>  -0.1600 
 12 C        3.8810    -1.2820    -1.3760 C.3   1 <1>  -0.1600 
 13 C       -3.1620     0.6440    -0.6970 C.ar  1 <1>  -0.1430 
 14 C       -3.0970    -1.1110    -2.3330 C.ar  1 <1>  -0.1500 
 15 C        4.1670     0.1790    -1.0010 C.3   1 <1>  -0.1600 
 16 C       -3.3890     0.1970    -1.9880 C.ar  1 <1>  -0.1500 
 17 C       -3.4810     2.0790    -0.3170 C.3   1 <1>  -0.0970 
 18 H       -0.1290    -0.9460    -0.4250 H     1 <1>   0.3700 
 19 H       -2.1440    -2.2610     1.9120 H     1 <1>   0.0800 
 20 H       -1.9970    -3.4980     0.7080 H     1 <1>   0.0800 
 21 H        2.3700    -1.9350     0.8840 H     1 <1>   0.0800 
 22 H        1.8530     0.3430     1.5650 H     1 <1>   0.0800 
 23 H        1.5980     0.8240    -0.0950 H     1 <1>   0.0800 
 24 H        1.8330    -1.0340    -1.9560 H     1 <1>   0.0800 
 25 H        2.2310    -2.6540    -1.4360 H     1 <1>   0.0800 
 26 H       -2.4570     0.1190     1.2460 H     1 <1>   0.1500 
 27 H       -2.3470    -2.9910    -1.6700 H     1 <1>   0.1500 
 28 H        4.2150    -0.0700     1.1310 H     1 <1>   0.0800 
 29 H        3.8160     1.5450     0.6230 H     1 <1>   0.0800 
 30 H        4.1950    -1.4630    -2.3900 H     1 <1>   0.0800 
 31 H        4.4490    -1.9320    -0.7330 H     1 <1>   0.0800 
 32 H       -3.2770    -1.4540    -3.3370 H     1 <1>   0.1500 
 33 H        5.2260     0.3630    -1.0510 H     1 <1>   0.0800 
 34 H        3.6860     0.8300    -1.7110 H     1 <1>   0.0800 
 35 H       -3.7940     0.8630    -2.7280 H     1 <1>   0.1500 
 36 H       -4.3030     2.4490    -0.9030 H     1 <1>   0.0800 
 37 H       -2.6220     2.7010    -0.4920 H     1 <1>   0.0800 
 38 H       -3.7510     2.1420     0.7220 H     1 <1>   0.0800 
@<TRIPOS>BOND
  1   1   2  2   
  2   2   3  am  
  3   2   4  1   
  4   3   5  1   
  5   3  18  1   
  6   4   6  1   
  7   4  19  1   
  8   4  20  1   
  9   5   7  1   
 10   5   8  1   
 11   5  21  1   
 12   6   9  ar  
 13   6  10  ar  
 14   7  11  1   
 15   7  22  1   
 16   7  23  1   
 17   8  12  1   
 18   8  24  1   
 19   8  25  1   
 20   9  13  ar  
 21   9  26  1   
 22  10  14  ar  
 23  10  27  1   
 24  11  15  1   
 25  11  28  1   
 26  11  29  1   
 27  12  15  1   
 28  12  30  1   
 29  12  31  1   
 30  13  16  ar  
 31  13  17  1   
 32  14  16  ar  
 33  14  32  1   
 34  15  33  1   
 35  15  34  1   
 36  16  35  1   
 37  17  36  1   
 38  17  37  1   
 39  17  38  1   
@<TRIPOS>SUBSTRUCTURE
  1 ****   3 GROUP 4 **** **** 0

# MOE 2024.06 (io_trps.svl 2023.06)
