@<TRIPOS>MOLECULE
NONAME
46 46 1 0 0 
SMALL
USER_CHARGES


@<TRIPOS>ATOM
  1 O        2.4670    -3.3920     0.9580 O.3   1 <1>  -0.3630 
  2 C        3.7240    -3.0970     0.5530 C.ar  1 <1>   0.0820 
  3 C        1.4890    -3.3540    -0.0460 C.3   1 <1>   0.1200 
  4 C        4.5570    -4.1040     0.0620 C.ar  1 <1>  -0.1440 
  5 C        4.1620    -1.7780     0.6360 C.ar  1 <1>  -0.1440 
  6 C        0.1520    -3.6940     0.6100 C.3   1 <1>  -0.1600 
  7 C        5.8250    -3.7660    -0.4030 C.ar  1 <1>  -0.1430 
  8 C        4.0930    -5.5610     0.0390 C.3   1 <1>  -0.0960 
  9 C        5.4280    -1.4630     0.1780 C.ar  1 <1>  -0.1500 
 10 C        3.2880    -0.6780     1.2220 C.3   1 <1>  -0.0970 
 11 C       -0.9740    -3.6710    -0.4160 C.3   1 <1>   0.3430 
 12 C        6.2480    -2.4470    -0.3420 C.ar  1 <1>  -0.1500 
 13 C        6.7790    -4.8040    -0.9790 C.3   1 <1>  -0.0970 
 14 N       -2.2470    -4.0060     0.2650 N.4   1 <1>  -0.9060 
 15 C       -3.4080    -4.0100    -0.6570 C.3   1 <1>   0.3430 
 16 C       -4.6650    -4.3630     0.1320 C.3   1 <1>  -0.1600 
 17 C       -5.8960    -4.3790    -0.7820 C.3   1 <1>  -0.1600 
 18 C       -7.1590    -4.7330     0.0070 C.3   1 <1>  -0.2400 
 19 H        1.7560    -4.0730    -0.8030 H     1 <1>   0.0800 
 20 H        1.4840    -2.3650    -0.4720 H     1 <1>   0.0800 
 21 H       -0.0400    -2.9680     1.3810 H     1 <1>   0.0800 
 22 H        0.2290    -4.6740     1.0480 H     1 <1>   0.0800 
 23 H        3.2630    -5.7210     0.7020 H     1 <1>   0.0800 
 24 H        4.8840    -6.2110     0.3650 H     1 <1>   0.0800 
 25 H        3.8030    -5.8360    -0.9570 H     1 <1>   0.0800 
 26 H        5.7860    -0.4500     0.2240 H     1 <1>   0.1500 
 27 H        2.7760    -1.0390     2.0960 H     1 <1>   0.0800 
 28 H        2.5650    -0.3570     0.4970 H     1 <1>   0.0800 
 29 H        3.8860     0.1670     1.5120 H     1 <1>   0.0800 
 30 H       -0.7700    -4.3900    -1.1950 H     1 <1>   0.0800 
 31 H       -1.0390    -2.6910    -0.8620 H     1 <1>   0.0800 
 32 H        7.2270    -2.1760    -0.6940 H     1 <1>   0.1500 
 33 H        6.2810    -5.3970    -1.7240 H     1 <1>   0.0800 
 34 H        7.1360    -5.4480    -0.1950 H     1 <1>   0.0800 
 35 H        7.6280    -4.3330    -1.4420 H     1 <1>   0.0800 
 36 H       -2.4190    -3.3330     1.0220 H     1 <1>   0.4500 
 37 H       -2.1660    -4.9290     0.7100 H     1 <1>   0.4500 
 38 H       -3.2580    -4.7360    -1.4410 H     1 <1>   0.0800 
 39 H       -3.5270    -3.0380    -1.1090 H     1 <1>   0.0800 
 40 H       -4.8230    -3.6370     0.9120 H     1 <1>   0.0800 
 41 H       -4.5540    -5.3360     0.5800 H     1 <1>   0.0800 
 42 H       -5.7650    -5.1040    -1.5690 H     1 <1>   0.0800 
 43 H       -6.0320    -3.4120    -1.2390 H     1 <1>   0.0800 
 44 H       -7.0710    -5.7080     0.4540 H     1 <1>   0.0800 
 45 H       -8.0130    -4.7390    -0.6490 H     1 <1>   0.0800 
 46 H       -7.3390    -4.0110     0.7850 H     1 <1>   0.0800 
@<TRIPOS>BOND
  1   1   2  1   
  2   1   3  1   
  3   2   4  ar  
  4   2   5  ar  
  5   3   6  1   
  6   3  19  1   
  7   3  20  1   
  8   4   7  ar  
  9   4   8  1   
 10   5   9  ar  
 11   5  10  1   
 12   6  11  1   
 13   6  21  1   
 14   6  22  1   
 15   7  12  ar  
 16   7  13  1   
 17   8  23  1   
 18   8  24  1   
 19   8  25  1   
 20   9  12  ar  
 21   9  26  1   
 22  10  27  1   
 23  10  28  1   
 24  10  29  1   
 25  11  14  1   
 26  11  30  1   
 27  11  31  1   
 28  12  32  1   
 29  13  33  1   
 30  13  34  1   
 31  13  35  1   
 32  14  15  1   
 33  14  36  1   
 34  14  37  1   
 35  15  16  1   
 36  15  38  1   
 37  15  39  1   
 38  16  17  1   
 39  16  40  1   
 40  16  41  1   
 41  17  18  1   
 42  17  42  1   
 43  17  43  1   
 44  18  44  1   
 45  18  45  1   
 46  18  46  1   
@<TRIPOS>SUBSTRUCTURE
  1 ****   3 GROUP 4 **** **** 0

# MOE 2024.06 (io_trps.svl 2023.06)
