@<TRIPOS>MOLECULE
NONAME
44 47 1 0 0 
SMALL
USER_CHARGES


@<TRIPOS>ATOM
  1 S       -0.0520     0.0790     0.1580 S.3   1 <1>  -0.0800 
  2 C       -1.6300     0.8340     0.2470 C.ar  1 <1>   0.2970 
  3 C        0.7970     1.6370     0.0830 C.2   1 <1>  -0.0450 
  4 N       -2.7320     0.1340     0.3240 N.ar  1 <1>  -0.5670 
  5 C       -1.5070     2.2000     0.2200 C.ar  1 <1>   0.0000 
  6 C       -0.1340     2.6380     0.1360 C.2   1 <1>  -0.1810 
  7 C        2.2350     1.5570    -0.0170 C.2   1 <1>   0.8050 
  8 C       -3.8380     0.8730     0.3790 C.ar  1 <1>   0.6200 
  9 C       -2.7380     2.8660     0.2770 C.ar  1 <1>   0.4100 
 10 C        0.1680     4.1320     0.1220 C.3   1 <1>  -0.0590 
 11 O        2.8560     0.5140     0.0460 O.2   1 <1>  -0.5700 
 12 O        2.9290     2.6880    -0.1960 O.3   1 <1>  -0.4300 
 13 N       -3.8770     2.2090     0.3590 N.ar  1 <1>  -0.6200 
 14 C       -5.1120     0.1700     0.4670 C.ar  1 <1>   0.0000 
 15 N       -2.8430     4.2350     0.2470 N.pl3 1 <1>  -0.8380 
 16 C        4.3390     2.6930    -0.3110 C.3   1 <1>   0.0400 
 17 C       -6.2460     0.7700     1.0260 C.ar  1 <1>  -0.1500 
 18 C       -5.2650    -1.1390    -0.0040 C.ar  1 <1>  -0.1500 
 19 C       -3.3770     4.9280     1.4440 C.3   1 <1>   0.2090 
 20 C       -3.3850     4.8630    -0.9820 C.3   1 <1>   0.2090 
 21 C       -7.4560     0.1070     1.1110 C.ar  1 <1>  -0.1500 
 22 C       -6.4720    -1.8080     0.0780 C.ar  1 <1>  -0.1500 
 23 C       -4.4810     5.8370     0.9240 C.3   1 <1>  -0.1600 
 24 C       -4.0750     6.1380    -0.5130 C.3   1 <1>  -0.1600 
 25 C       -7.5730    -1.1860     0.6370 C.ar  1 <1>  -0.1500 
 26 H        1.2170     4.3470     0.1210 H     1 <1>   0.0800 
 27 H       -0.2580     4.5960     0.9930 H     1 <1>   0.0800 
 28 H       -0.2660     4.5820    -0.7520 H     1 <1>   0.0800 
 29 H        4.7650     2.2850     0.5900 H     1 <1>   0.0800 
 30 H        4.6660     3.7080    -0.4480 H     1 <1>   0.0800 
 31 H        4.6220     2.0950    -1.1600 H     1 <1>   0.0800 
 32 H       -6.1790     1.7760     1.4020 H     1 <1>   0.1500 
 33 H       -4.4220    -1.6440    -0.4440 H     1 <1>   0.1500 
 34 H       -2.5890     5.5120     1.8880 H     1 <1>   0.0800 
 35 H       -3.7550     4.2280     2.1710 H     1 <1>   0.0800 
 36 H       -4.1010     4.2010    -1.4410 H     1 <1>   0.0800 
 37 H       -2.5950     5.0770    -1.6810 H     1 <1>   0.0800 
 38 H       -8.3090     0.5980     1.5470 H     1 <1>   0.1500 
 39 H       -6.5540    -2.8150    -0.2930 H     1 <1>   0.1500 
 40 H       -4.5840     6.7260     1.5200 H     1 <1>   0.0800 
 41 H       -5.4090     5.2930     0.9350 H     1 <1>   0.0800 
 42 H       -4.9160     6.3870    -1.1350 H     1 <1>   0.0800 
 43 H       -3.3660     6.9470    -0.5340 H     1 <1>   0.0800 
 44 H       -8.5130    -1.7050     0.7020 H     1 <1>   0.1500 
@<TRIPOS>BOND
  1   1   2  1   
  2   1   3  1   
  3   2   4  ar  
  4   2   5  ar  
  5   3   6  2   
  6   3   7  1   
  7   4   8  ar  
  8   5   6  1   
  9   5   9  ar  
 10   6  10  1   
 11   7  11  2   
 12   7  12  1   
 13   8  13  ar  
 14   8  14  1   
 15   9  13  ar  
 16   9  15  1   
 17  10  26  1   
 18  10  27  1   
 19  10  28  1   
 20  12  16  1   
 21  14  17  ar  
 22  14  18  ar  
 23  15  19  1   
 24  15  20  1   
 25  16  29  1   
 26  16  30  1   
 27  16  31  1   
 28  17  21  ar  
 29  17  32  1   
 30  18  22  ar  
 31  18  33  1   
 32  19  23  1   
 33  19  34  1   
 34  19  35  1   
 35  20  24  1   
 36  20  36  1   
 37  20  37  1   
 38  21  25  ar  
 39  21  38  1   
 40  22  25  ar  
 41  22  39  1   
 42  23  24  1   
 43  23  40  1   
 44  23  41  1   
 45  24  42  1   
 46  24  43  1   
 47  25  44  1   
@<TRIPOS>SUBSTRUCTURE
  1 ****   5 GROUP 4 **** **** 0

# MOE 2024.06 (io_trps.svl 2023.06)
