@<TRIPOS>MOLECULE
NONAME
41 41 1 0 0 
SMALL
USER_CHARGES


@<TRIPOS>ATOM
  1 O        1.1220    -3.3710     0.7670 O.2   1 <1>  -0.5700 
  2 C        0.5070    -2.9800    -0.2050 C.2   1 <1>   0.5440 
  3 N        1.2150    -2.6450    -1.3320 N.am  1 <1>  -0.7300 
  4 C       -0.9400    -2.8590    -0.1730 C.ar  1 <1>   0.0860 
  5 C        2.6380    -2.9620    -1.7040 C.3   1 <1>   0.1400 
  6 C       -1.6280    -1.9360    -0.9650 C.ar  1 <1>  -0.1500 
  7 C       -1.7070    -3.6740     0.6630 C.ar  1 <1>  -0.1500 
  8 C        3.6570    -3.1060    -0.5460 C.3   1 <1>   0.3430 
  9 C       -3.0070    -1.8450    -0.9320 C.ar  1 <1>  -0.1500 
 10 C       -3.0870    -3.5880     0.7010 C.ar  1 <1>  -0.1500 
 11 N        3.5100    -2.0580     0.5130 N.4   1 <1>  -0.9590 
 12 C       -3.7510    -2.6690    -0.1050 C.ar  1 <1>   0.0830 
 13 C        3.6590    -0.6580     0.0200 C.3   1 <1>   0.2630 
 14 C        4.3800    -2.3410     1.6890 C.3   1 <1>   0.2630 
 15 O       -5.0950    -2.5100    -0.1410 O.3   1 <1>  -0.3630 
 16 C       -5.9980    -3.2860     0.6140 C.3   1 <1>   0.2000 
 17 C       -6.2170    -4.6240    -0.0980 C.3   1 <1>  -0.2400 
 18 C       -7.3000    -2.4950     0.7070 C.3   1 <1>  -0.2400 
 19 H        0.6380    -2.4080    -2.1460 H     1 <1>   0.3700 
 20 H        2.9920    -2.1890    -2.3640 H     1 <1>   0.0800 
 21 H        2.6440    -3.8780    -2.2700 H     1 <1>   0.0800 
 22 H       -1.0870    -1.2700    -1.6120 H     1 <1>   0.1500 
 23 H       -1.2090    -4.3910     1.2930 H     1 <1>   0.1500 
 24 H        4.6570    -3.0890    -0.9460 H     1 <1>   0.0800 
 25 H        3.5020    -4.0730    -0.0950 H     1 <1>   0.0800 
 26 H       -3.5250    -1.1310    -1.5480 H     1 <1>   0.1500 
 27 H       -3.6260    -4.2420     1.3600 H     1 <1>   0.1500 
 28 H        2.5210    -2.1980     0.8250 H     1 <1>   0.4500 
 29 H        4.6530    -0.4980    -0.3640 H     1 <1>   0.0800 
 30 H        3.4810     0.0390     0.8240 H     1 <1>   0.0800 
 31 H        2.9450    -0.4610    -0.7630 H     1 <1>   0.0800 
 32 H        5.4200    -2.2710     1.4140 H     1 <1>   0.0800 
 33 H        4.1840    -3.3330     2.0650 H     1 <1>   0.0800 
 34 H        4.1810    -1.6340     2.4780 H     1 <1>   0.0800 
 35 H       -5.5990    -3.4240     1.6040 H     1 <1>   0.0800 
 36 H       -6.6020    -4.4580    -1.0880 H     1 <1>   0.0800 
 37 H       -6.9240    -5.2190     0.4510 H     1 <1>   0.0800 
 38 H       -5.2960    -5.1730    -0.1670 H     1 <1>   0.0800 
 39 H       -7.7000    -2.3150    -0.2750 H     1 <1>   0.0800 
 40 H       -7.1210    -1.5540     1.1950 H     1 <1>   0.0800 
 41 H       -8.0260    -3.0430     1.2800 H     1 <1>   0.0800 
@<TRIPOS>BOND
  1   1   2  2   
  2   2   3  am  
  3   2   4  1   
  4   3   5  1   
  5   3  19  1   
  6   4   6  ar  
  7   4   7  ar  
  8   5   8  1   
  9   5  20  1   
 10   5  21  1   
 11   6   9  ar  
 12   6  22  1   
 13   7  10  ar  
 14   7  23  1   
 15   8  11  1   
 16   8  24  1   
 17   8  25  1   
 18   9  12  ar  
 19   9  26  1   
 20  10  12  ar  
 21  10  27  1   
 22  11  13  1   
 23  11  14  1   
 24  11  28  1   
 25  12  15  1   
 26  13  29  1   
 27  13  30  1   
 28  13  31  1   
 29  14  32  1   
 30  14  33  1   
 31  14  34  1   
 32  15  16  1   
 33  16  17  1   
 34  16  18  1   
 35  16  35  1   
 36  17  36  1   
 37  17  37  1   
 38  17  38  1   
 39  18  39  1   
 40  18  40  1   
 41  18  41  1   
@<TRIPOS>SUBSTRUCTURE
  1 ****   4 GROUP 4 **** **** 0

# MOE 2024.06 (io_trps.svl 2023.06)
