@<TRIPOS>MOLECULE
NONAME
34 34 1 0 0 
SMALL
USER_CHARGES


@<TRIPOS>ATOM
  1 BR      -0.5290    -0.3670     1.7330 Br    1 <1>  -0.1110 
  2 C       -1.8200     0.7910     0.8980 C.ar  1 <1>   0.1110 
  3 C       -3.1440     0.4020     0.8750 C.ar  1 <1>  -0.1500 
  4 C       -1.3840     1.9770     0.3400 C.ar  1 <1>  -0.1500 
  5 C       -4.0780     1.2330     0.2780 C.ar  1 <1>  -0.1440 
  6 C       -2.3090     2.8160    -0.2590 C.ar  1 <1>  -0.1440 
  7 C       -3.6560     2.4470    -0.2680 C.ar  1 <1>   0.0830 
  8 C       -5.5330     0.7870     0.2260 C.3   1 <1>  -0.0960 
  9 C       -1.8250     4.1090    -0.9010 C.3   1 <1>  -0.0960 
 10 O       -4.5670     3.2790    -0.8220 O.3   1 <1>  -0.3630 
 11 C       -5.1530     4.2060     0.0560 C.3   1 <1>   0.1200 
 12 C       -6.1260     5.0610    -0.7620 C.3   1 <1>   0.3430 
 13 N       -6.8810     6.0560     0.0770 N.4   1 <1>  -0.9590 
 14 C       -7.9620     6.6950    -0.7370 C.3   1 <1>   0.2630 
 15 C       -5.9850     7.1070     0.6580 C.3   1 <1>   0.2630 
 16 H       -3.4270    -0.5380     1.3140 H     1 <1>   0.1500 
 17 H       -0.3390     2.2260     0.3750 H     1 <1>   0.1500 
 18 H       -5.6050    -0.2810     0.3330 H     1 <1>   0.0800 
 19 H       -5.9740     1.0550    -0.7170 H     1 <1>   0.0800 
 20 H       -6.0900     1.2480     1.0210 H     1 <1>   0.0800 
 21 H       -0.7720     4.0570    -1.1100 H     1 <1>   0.0800 
 22 H       -2.0020     4.9390    -0.2420 H     1 <1>   0.0800 
 23 H       -2.3390     4.2790    -1.8310 H     1 <1>   0.0800 
 24 H       -4.3660     4.8020     0.4830 H     1 <1>   0.0800 
 25 H       -5.6670     3.6590     0.8250 H     1 <1>   0.0800 
 26 H       -6.8270     4.3970    -1.2420 H     1 <1>   0.0800 
 27 H       -5.5730     5.5790    -1.5280 H     1 <1>   0.0800 
 28 H       -7.3330     5.5450     0.8520 H     1 <1>   0.4500 
 29 H       -7.5370     7.2390    -1.5660 H     1 <1>   0.0800 
 30 H       -8.5320     7.3800    -0.1310 H     1 <1>   0.0800 
 31 H       -8.6320     5.9440    -1.1260 H     1 <1>   0.0800 
 32 H       -5.4840     7.6500    -0.1270 H     1 <1>   0.0800 
 33 H       -5.2400     6.6590     1.2970 H     1 <1>   0.0800 
 34 H       -6.5600     7.8050     1.2460 H     1 <1>   0.0800 
@<TRIPOS>BOND
  1   1   2  1   
  2   2   3  ar  
  3   2   4  ar  
  4   3   5  ar  
  5   3  16  1   
  6   4   6  ar  
  7   4  17  1   
  8   5   7  ar  
  9   5   8  1   
 10   6   7  ar  
 11   6   9  1   
 12   7  10  1   
 13   8  18  1   
 14   8  19  1   
 15   8  20  1   
 16   9  21  1   
 17   9  22  1   
 18   9  23  1   
 19  10  11  1   
 20  11  12  1   
 21  11  24  1   
 22  11  25  1   
 23  12  13  1   
 24  12  26  1   
 25  12  27  1   
 26  13  14  1   
 27  13  15  1   
 28  13  28  1   
 29  14  29  1   
 30  14  30  1   
 31  14  31  1   
 32  15  32  1   
 33  15  33  1   
 34  15  34  1   
@<TRIPOS>SUBSTRUCTURE
  1 ****   7 GROUP 4 **** **** 0

# MOE 2024.06 (io_trps.svl 2023.06)
