@<TRIPOS>MOLECULE
NONAME
42 44 1 0 0 
SMALL
USER_CHARGES


@<TRIPOS>ATOM
  1 CL       1.8400     1.5750    -0.6970 Cl    1 <1>  -0.1770 
  2 C        1.0090     3.0370    -0.2340 C.ar  1 <1>   0.1770 
  3 C       -0.0930     3.4520    -0.9540 C.ar  1 <1>  -0.1500 
  4 C        1.4640     3.7610     0.8500 C.ar  1 <1>  -0.1500 
  5 C       -0.7450     4.6170    -0.5820 C.ar  1 <1>  -0.1500 
  6 C        0.8030     4.9240     1.2090 C.ar  1 <1>  -0.1500 
  7 C       -0.3030     5.3810     0.4950 C.ar  1 <1>  -0.0090 
  8 S       -1.1490     6.9070     1.0030 S.o2  1 <1>   1.4470 
  9 O       -2.2090     6.5210     1.9090 O.2   1 <1>  -0.6500 
 10 O       -0.1690     7.8610     1.4780 O.2   1 <1>  -0.6500 
 11 N       -1.8920     7.5330    -0.3950 N.am  1 <1>  -0.8490 
 12 C       -1.0140     8.3510    -1.2640 C.3   1 <1>   0.3370 
 13 C       -3.0510     8.3810    -0.1190 C.3   1 <1>   0.1960 
 14 C        0.3650     7.7320    -1.6480 C.2   1 <1>   0.5690 
 15 C       -1.1370     9.7660    -0.6860 C.3   1 <1>  -0.1600 
 16 C       -2.5460     9.8220    -0.1030 C.3   1 <1>  -0.1600 
 17 O        0.3050     6.7840    -2.3990 O.2   1 <1>  -0.5700 
 18 N        1.6050     8.1340    -1.1990 N.am  1 <1>  -0.6600 
 19 C        2.0910     9.5070    -0.8760 C.3   1 <1>   0.1400 
 20 C        2.7140     7.1380    -1.0920 C.3   1 <1>   0.1400 
 21 C        2.7700     9.5090     0.5030 C.3   1 <1>   0.1200 
 22 C        3.4110     7.2620     0.2760 C.3   1 <1>   0.1200 
 23 O        3.8190     8.5810     0.5150 O.3   1 <1>  -0.5600 
 24 H       -0.4340     2.8760    -1.7960 H     1 <1>   0.1500 
 25 H        2.3190     3.4160     1.4030 H     1 <1>   0.1500 
 26 H       -1.6030     4.9430    -1.1460 H     1 <1>   0.1500 
 27 H        1.1470     5.4890     2.0590 H     1 <1>   0.1500 
 28 H       -1.5260     8.3990    -2.2100 H     1 <1>   0.0800 
 29 H       -3.5540     8.1240     0.7980 H     1 <1>   0.0800 
 30 H       -3.7550     8.2630    -0.9260 H     1 <1>   0.0800 
 31 H       -0.9790    10.5150    -1.4420 H     1 <1>   0.0800 
 32 H       -0.4410     9.9140     0.1170 H     1 <1>   0.0800 
 33 H       -2.5260    10.1970     0.9060 H     1 <1>   0.0800 
 34 H       -3.1960    10.4460    -0.6920 H     1 <1>   0.0800 
 35 H        1.3150    10.2400    -0.9190 H     1 <1>   0.0800 
 36 H        2.8240     9.7920    -1.6100 H     1 <1>   0.0800 
 37 H        3.4280     7.3110    -1.8770 H     1 <1>   0.0800 
 38 H        2.3340     6.1370    -1.2030 H     1 <1>   0.0800 
 39 H        2.0680     9.2560     1.2790 H     1 <1>   0.0800 
 40 H        3.1880    10.4770     0.7130 H     1 <1>   0.0800 
 41 H        4.2840     6.6360     0.3060 H     1 <1>   0.0800 
 42 H        2.7440     6.9670     1.0660 H     1 <1>   0.0800 
@<TRIPOS>BOND
  1   1   2  1   
  2   2   3  ar  
  3   2   4  ar  
  4   3   5  ar  
  5   3  24  1   
  6   4   6  ar  
  7   4  25  1   
  8   5   7  ar  
  9   5  26  1   
 10   6   7  ar  
 11   6  27  1   
 12   7   8  1   
 13   8   9  2   
 14   8  10  2   
 15   8  11  am  
 16  11  12  1   
 17  11  13  1   
 18  12  14  1   
 19  12  15  1   
 20  12  28  1   
 21  13  16  1   
 22  13  29  1   
 23  13  30  1   
 24  14  17  2   
 25  14  18  am  
 26  15  16  1   
 27  15  31  1   
 28  15  32  1   
 29  16  33  1   
 30  16  34  1   
 31  18  19  1   
 32  18  20  1   
 33  19  21  1   
 34  19  35  1   
 35  19  36  1   
 36  20  22  1   
 37  20  37  1   
 38  20  38  1   
 39  21  23  1   
 40  21  39  1   
 41  21  40  1   
 42  22  23  1   
 43  22  41  1   
 44  22  42  1   
@<TRIPOS>SUBSTRUCTURE
  1 ****   7 GROUP 4 **** **** 0

# MOE 2024.06 (io_trps.svl 2023.06)
