@<TRIPOS>MOLECULE
NONAME
48 48 1 0 0 
SMALL
USER_CHARGES


@<TRIPOS>ATOM
  1 S        0.1970     0.3220     1.0770 S.o2  1 <1>   1.3330 
  2 O        0.1390    -1.1200     1.1130 O.2   1 <1>  -0.6500 
  3 O       -1.0150     1.0970     0.9630 O.2   1 <1>  -0.6500 
  4 N        1.2410     0.7540    -0.2430 N.am  1 <1>  -0.6930 
  5 C        1.1020     0.8800     2.5020 C.3   1 <1>  -0.1350 
  6 C        1.3620     2.0680    -0.6910 C.ar  1 <1>   0.1990 
  7 C        2.1860    -0.2880    -0.7130 C.3   1 <1>   0.1160 
  8 C        2.5410     2.8280    -0.5560 C.ar  1 <1>   0.0860 
  9 C        0.2620     2.6440    -1.3220 C.ar  1 <1>  -0.1500 
 10 C        3.7290     2.3180     0.0870 C.2   1 <1>   0.5440 
 11 C        2.5570     4.1290    -1.0670 C.ar  1 <1>  -0.1500 
 12 C        0.2990     3.9300    -1.8180 C.ar  1 <1>  -0.1500 
 13 O        3.6940     1.8560     1.2120 O.2   1 <1>  -0.5700 
 14 N        4.9280     2.3710    -0.5670 N.am  1 <1>  -0.7300 
 15 C        1.4550     4.6780    -1.6910 C.ar  1 <1>  -0.1500 
 16 C        6.2410     1.9380    -0.0260 C.3   1 <1>   0.2200 
 17 C        7.1310     3.1970     0.1790 C.3   1 <1>  -0.0800 
 18 C        6.8910     0.8510    -0.9410 C.3   1 <1>  -0.0800 
 19 C        8.5080     2.8730     0.7830 C.3   1 <1>  -0.2400 
 20 C        6.4550     4.2420     1.0880 C.3   1 <1>  -0.2400 
 21 C        5.9350     0.1740    -1.9440 C.3   1 <1>  -0.2400 
 22 C        7.5260    -0.2640    -0.0910 C.3   1 <1>  -0.2400 
 23 H        0.5460     0.6770     3.3950 H     1 <1>   0.0800 
 24 H        1.2800     1.9350     2.4380 H     1 <1>   0.0800 
 25 H        2.0470     0.3760     2.5610 H     1 <1>   0.0800 
 26 H        1.6410    -1.1740    -0.9910 H     1 <1>   0.0800 
 27 H        2.8790    -0.5330     0.0730 H     1 <1>   0.0800 
 28 H        2.7320     0.0640    -1.5710 H     1 <1>   0.0800 
 29 H       -0.6390     2.0630    -1.4220 H     1 <1>   0.1500 
 30 H        3.4490     4.7210    -0.9620 H     1 <1>   0.1500 
 31 H       -0.5680     4.3500    -2.2990 H     1 <1>   0.1500 
 32 H        4.9620     2.7260    -1.5220 H     1 <1>   0.3700 
 33 H        1.4890     5.6840    -2.0740 H     1 <1>   0.1500 
 34 H        6.0700     1.4980     0.9430 H     1 <1>   0.0800 
 35 H        7.2990     3.6500    -0.7840 H     1 <1>   0.0800 
 36 H        7.6730     1.3140    -1.5170 H     1 <1>   0.0800 
 37 H        8.3970     2.3650     1.7250 H     1 <1>   0.0800 
 38 H        9.0650     3.7780     0.9510 H     1 <1>   0.0800 
 39 H        9.0890     2.2590     0.1200 H     1 <1>   0.0800 
 40 H        6.2100     3.8050     2.0400 H     1 <1>   0.0800 
 41 H        5.5490     4.6130     0.6440 H     1 <1>   0.0800 
 42 H        7.1060     5.0820     1.2520 H     1 <1>   0.0800 
 43 H        5.1200    -0.2960    -1.4240 H     1 <1>   0.0800 
 44 H        6.4570    -0.5810    -2.5060 H     1 <1>   0.0800 
 45 H        5.5420     0.8870    -2.6460 H     1 <1>   0.0800 
 46 H        8.2370     0.1320     0.6100 H     1 <1>   0.0800 
 47 H        8.0400    -0.9690    -0.7200 H     1 <1>   0.0800 
 48 H        6.7680    -0.7910     0.4620 H     1 <1>   0.0800 
@<TRIPOS>BOND
  1   1   2  2   
  2   1   3  2   
  3   1   4  am  
  4   1   5  1   
  5   4   6  1   
  6   4   7  1   
  7   5  23  1   
  8   5  24  1   
  9   5  25  1   
 10   6   8  ar  
 11   6   9  ar  
 12   7  26  1   
 13   7  27  1   
 14   7  28  1   
 15   8  10  1   
 16   8  11  ar  
 17   9  12  ar  
 18   9  29  1   
 19  10  13  2   
 20  10  14  am  
 21  11  15  ar  
 22  11  30  1   
 23  12  15  ar  
 24  12  31  1   
 25  14  16  1   
 26  14  32  1   
 27  15  33  1   
 28  16  17  1   
 29  16  18  1   
 30  16  34  1   
 31  17  19  1   
 32  17  20  1   
 33  17  35  1   
 34  18  21  1   
 35  18  22  1   
 36  18  36  1   
 37  19  37  1   
 38  19  38  1   
 39  19  39  1   
 40  20  40  1   
 41  20  41  1   
 42  20  42  1   
 43  21  43  1   
 44  21  44  1   
 45  21  45  1   
 46  22  46  1   
 47  22  47  1   
 48  22  48  1   
@<TRIPOS>SUBSTRUCTURE
  1 ****  10 GROUP 4 **** **** 0

# MOE 2024.06 (io_trps.svl 2023.06)
