@<TRIPOS>MOLECULE
NONAME
37 38 1 0 0 
SMALL
USER_CHARGES


@<TRIPOS>ATOM
  1 O        0.7870     0.9550    -2.4760 O.2   1 <1>  -0.5700 
  2 C        0.7070     1.6200    -1.4600 C.2   1 <1>   0.5440 
  3 N        1.7300     1.5630    -0.5320 N.am  1 <1>  -0.6600 
  4 C       -0.4550     2.4600    -1.2650 C.ar  1 <1>   0.0860 
  5 C        2.8820     0.6360    -0.7110 C.3   1 <1>   0.1400 
  6 C        1.8170     2.4650     0.6460 C.3   1 <1>   0.1400 
  7 C       -1.3920     2.1760    -0.2650 C.ar  1 <1>  -0.1500 
  8 C       -0.6700     3.5800    -2.0830 C.ar  1 <1>  -0.1500 
  9 C        2.6170    -0.6650     0.0500 C.3   1 <1>  -0.1600 
 10 C        2.5210     3.7580     0.2450 C.3   1 <1>  -0.2400 
 11 C       -2.4740     3.0140    -0.1070 C.ar  1 <1>   0.0830 
 12 C       -1.7660     4.4130    -1.9130 C.ar  1 <1>  -0.1500 
 13 C        3.7860    -1.6460    -0.1020 C.3   1 <1>  -0.1600 
 14 O       -3.4670     2.9260     0.7850 O.3   1 <1>  -0.3630 
 15 C       -2.6590     4.1050    -0.9070 C.ar  1 <1>   0.0830 
 16 C        3.5150    -2.9470     0.6590 C.3   1 <1>  -0.2400 
 17 C       -4.3440     4.0230     0.5300 C.3   1 <1>   0.4000 
 18 O       -3.7720     4.7490    -0.5550 O.3   1 <1>  -0.3630 
 19 H        3.7820     1.1010    -0.3500 H     1 <1>   0.0800 
 20 H        3.0220     0.4210    -1.7580 H     1 <1>   0.0800 
 21 H        2.3670     1.9790     1.4340 H     1 <1>   0.0800 
 22 H        0.8360     2.6880     1.0250 H     1 <1>   0.0800 
 23 H       -1.2700     1.3180     0.3690 H     1 <1>   0.1500 
 24 H        0.0420     3.7870    -2.8630 H     1 <1>   0.1500 
 25 H        1.7210    -1.1170    -0.3420 H     1 <1>   0.0800 
 26 H        2.4650    -0.4480     1.0920 H     1 <1>   0.0800 
 27 H        3.5130     3.5520    -0.1130 H     1 <1>   0.0800 
 28 H        2.5930     4.4100     1.0960 H     1 <1>   0.0800 
 29 H        1.9640     4.2630    -0.5240 H     1 <1>   0.0800 
 30 H       -1.9290     5.2720    -2.5400 H     1 <1>   0.1500 
 31 H        4.6890    -1.1960     0.2750 H     1 <1>   0.0800 
 32 H        3.9340    -1.8710    -1.1450 H     1 <1>   0.0800 
 33 H        3.3850    -2.7490     1.7090 H     1 <1>   0.0800 
 34 H        4.3430    -3.6230     0.5390 H     1 <1>   0.0800 
 35 H        2.6270    -3.4230     0.2830 H     1 <1>   0.0800 
 36 H       -4.3970     4.6530     1.4000 H     1 <1>   0.0800 
 37 H       -5.3130     3.6520     0.2460 H     1 <1>   0.0800 
@<TRIPOS>BOND
  1   1   2  2   
  2   2   3  am  
  3   2   4  1   
  4   3   5  1   
  5   3   6  1   
  6   4   7  ar  
  7   4   8  ar  
  8   5   9  1   
  9   5  19  1   
 10   5  20  1   
 11   6  10  1   
 12   6  21  1   
 13   6  22  1   
 14   7  11  ar  
 15   7  23  1   
 16   8  12  ar  
 17   8  24  1   
 18   9  13  1   
 19   9  25  1   
 20   9  26  1   
 21  10  27  1   
 22  10  28  1   
 23  10  29  1   
 24  11  14  1   
 25  11  15  ar  
 26  12  15  ar  
 27  12  30  1   
 28  13  16  1   
 29  13  31  1   
 30  13  32  1   
 31  14  17  1   
 32  15  18  1   
 33  16  33  1   
 34  16  34  1   
 35  16  35  1   
 36  17  18  1   
 37  17  36  1   
 38  17  37  1   
@<TRIPOS>SUBSTRUCTURE
  1 ****   4 GROUP 4 **** **** 0

# MOE 2024.06 (io_trps.svl 2023.06)
