@<TRIPOS>MOLECULE
NONAME
50 51 1 0 0 
SMALL
USER_CHARGES


@<TRIPOS>ATOM
  1 O        0.5730     1.3700     1.9390 O.2   1 <1>  -0.5700 
  2 C        0.3670     1.8830     0.8560 C.2   1 <1>   0.5440 
  3 N        1.3540     1.8550    -0.1240 N.am  1 <1>  -0.4770 
  4 C       -0.9070     2.5290     0.6240 C.ar  1 <1>   0.0860 
  5 C        2.5570     1.1410     0.0160 C.ar  1 <1>   0.1170 
  6 C        1.2620     2.7210    -1.3320 C.3   1 <1>   0.1400 
  7 C       -1.2550     3.6860     1.3140 C.ar  1 <1>  -0.1500 
  8 C       -1.8210     2.0290    -0.3000 C.ar  1 <1>  -0.1500 
  9 C        2.8790     0.1200    -0.8720 C.ar  1 <1>  -0.1500 
 10 C        3.4580     1.4480     1.0290 C.ar  1 <1>  -0.1500 
 11 C        1.6930     4.1510    -0.9910 C.3   1 <1>  -0.1600 
 12 C       -2.4530     4.3320     1.0790 C.ar  1 <1>   0.0830 
 13 C       -3.0290     2.6540    -0.5540 C.ar  1 <1>   0.0830 
 14 C        4.0750    -0.5660    -0.7610 C.ar  1 <1>  -0.1500 
 15 C        4.6550     0.7650     1.1450 C.ar  1 <1>  -0.1500 
 16 C        1.5570     5.0760    -2.2070 C.3   1 <1>  -0.1600 
 17 O       -2.6880     5.4690     1.7810 O.3   1 <1>  -0.3630 
 18 C       -3.3710     3.8110     0.1600 C.ar  1 <1>   0.0830 
 19 O       -3.8000     2.0550    -1.5040 O.3   1 <1>  -0.3630 
 20 C        4.9660    -0.2420     0.2480 C.ar  1 <1>  -0.1500 
 21 C        1.9780     6.5060    -1.8570 C.3   1 <1>  -0.2400 
 22 C       -2.7410     6.6690     1.0410 C.3   1 <1>   0.0400 
 23 O       -4.5780     4.4090    -0.0060 O.3   1 <1>  -0.3630 
 24 C       -4.6430     2.8160    -2.3410 C.3   1 <1>   0.0400 
 25 C       -5.5090     4.2140     1.0350 C.3   1 <1>   0.0400 
 26 H        0.2600     2.7170    -1.7210 H     1 <1>   0.0800 
 27 H        1.9080     2.3320    -2.1010 H     1 <1>   0.0800 
 28 H       -0.5750     4.0860     2.0460 H     1 <1>   0.1500 
 29 H       -1.5810     1.1280    -0.8360 H     1 <1>   0.1500 
 30 H        2.1840    -0.1370    -1.6500 H     1 <1>   0.1500 
 31 H        3.2090     2.2240     1.7300 H     1 <1>   0.1500 
 32 H        2.7180     4.1390    -0.6620 H     1 <1>   0.0800 
 33 H        1.0830     4.5320    -0.1910 H     1 <1>   0.0800 
 34 H        4.3120    -1.3530    -1.4550 H     1 <1>   0.1500 
 35 H        5.3420     1.0140     1.9360 H     1 <1>   0.1500 
 36 H        0.5340     5.0820    -2.5460 H     1 <1>   0.0800 
 37 H        2.1750     4.7120    -3.0100 H     1 <1>   0.0800 
 38 H        5.8970    -0.7750     0.3370 H     1 <1>   0.1500 
 39 H        1.3580     6.9000    -1.0710 H     1 <1>   0.0800 
 40 H        1.8780     7.1400    -2.7210 H     1 <1>   0.0800 
 41 H        3.0040     6.5280    -1.5340 H     1 <1>   0.0800 
 42 H       -2.8060     7.4880     1.7350 H     1 <1>   0.0800 
 43 H       -3.6090     6.6600     0.4070 H     1 <1>   0.0800 
 44 H       -1.8460     6.7550     0.4520 H     1 <1>   0.0800 
 45 H       -4.8590     2.2340    -3.2180 H     1 <1>   0.0800 
 46 H       -4.1410     3.7260    -2.6170 H     1 <1>   0.0800 
 47 H       -5.5560     3.0290    -1.8150 H     1 <1>   0.0800 
 48 H       -6.4300     4.6930     0.7590 H     1 <1>   0.0800 
 49 H       -5.1250     4.6500     1.9400 H     1 <1>   0.0800 
 50 H       -5.6650     3.1570     1.1660 H     1 <1>   0.0800 
@<TRIPOS>BOND
  1   1   2  2   
  2   2   3  am  
  3   2   4  1   
  4   3   5  1   
  5   3   6  1   
  6   4   7  ar  
  7   4   8  ar  
  8   5   9  ar  
  9   5  10  ar  
 10   6  11  1   
 11   6  26  1   
 12   6  27  1   
 13   7  12  ar  
 14   7  28  1   
 15   8  13  ar  
 16   8  29  1   
 17   9  14  ar  
 18   9  30  1   
 19  10  15  ar  
 20  10  31  1   
 21  11  16  1   
 22  11  32  1   
 23  11  33  1   
 24  12  17  1   
 25  12  18  ar  
 26  13  18  ar  
 27  13  19  1   
 28  14  20  ar  
 29  14  34  1   
 30  15  20  ar  
 31  15  35  1   
 32  16  21  1   
 33  16  36  1   
 34  16  37  1   
 35  17  22  1   
 36  18  23  1   
 37  19  24  1   
 38  20  38  1   
 39  21  39  1   
 40  21  40  1   
 41  21  41  1   
 42  22  42  1   
 43  22  43  1   
 44  22  44  1   
 45  23  25  1   
 46  24  45  1   
 47  24  46  1   
 48  24  47  1   
 49  25  48  1   
 50  25  49  1   
 51  25  50  1   
@<TRIPOS>SUBSTRUCTURE
  1 ****   4 GROUP 4 **** **** 0

# MOE 2024.06 (io_trps.svl 2023.06)
