@<TRIPOS>MOLECULE
NONAME
50 53 1 0 0 
SMALL
USER_CHARGES


@<TRIPOS>ATOM
  1 O        1.3520     3.3480     2.1980 O.2   1 <1>  -0.5700 
  2 C        1.6240     2.6060     1.2850 C.2   1 <1>   0.5690 
  3 N        0.6910     2.1470     0.4140 N.am  1 <1>  -0.7300 
  4 C        3.0730     2.1500     1.0860 C.3   1 <1>   0.1710 
  5 C       -0.7600     2.4300     0.4480 C.3   1 <1>   0.2200 
  6 N        3.2150     0.8280     0.4060 N.3   1 <1>  -0.8100 
  7 C       -1.6300     1.0670     0.7080 C.3   1 <1>  -0.0800 
  8 C       -1.2430     3.0640    -1.0170 C.3   1 <1>  -0.1600 
  9 C        2.7830    -0.2730     1.3040 C.3   1 <1>   0.1100 
 10 C        4.6200     0.5980    -0.0030 C.3   1 <1>   0.1100 
 11 C       -2.0940     1.6290    -0.4150 C.3   1 <1>  -0.1600 
 12 C       -2.9210     0.2030     0.1930 C.3   1 <1>  -0.1600 
 13 C       -2.5260     2.1950    -1.5460 C.3   1 <1>  -0.0800 
 14 C        2.9320    -1.6570     0.6430 C.3   1 <1>   0.2090 
 15 C        4.8080    -0.7660    -0.6950 C.3   1 <1>   0.2090 
 16 C       -3.4100     0.8450    -1.2740 C.3   1 <1>  -0.1600 
 17 N        4.3310    -1.8790     0.1750 N.pl3 1 <1>  -0.8380 
 18 C        4.6300    -3.1670    -0.2530 C.ar  1 <1>   0.1000 
 19 C        5.4820    -3.9580     0.5050 C.ar  1 <1>  -0.1500 
 20 C        4.0970    -3.6900    -1.4260 C.ar  1 <1>  -0.1500 
 21 C        5.7970    -5.2440     0.1050 C.ar  1 <1>  -0.1500 
 22 C        4.4090    -4.9760    -1.8310 C.ar  1 <1>  -0.1500 
 23 C        5.2600    -5.7550    -1.0650 C.ar  1 <1>  -0.1500 
 24 H        1.0200     1.4830    -0.2920 H     1 <1>   0.3700 
 25 H        3.5590     2.1230     2.0450 H     1 <1>   0.0800 
 26 H        3.5580     2.9050     0.4930 H     1 <1>   0.0800 
 27 H       -0.9640     3.1420     1.2350 H     1 <1>   0.0800 
 28 H       -0.8620     0.3060     0.6910 H     1 <1>   0.0800 
 29 H       -0.4400     3.0160    -1.7360 H     1 <1>   0.0800 
 30 H       -1.5110     4.1000    -0.8930 H     1 <1>   0.0800 
 31 H        1.7520    -0.1360     1.5800 H     1 <1>   0.0800 
 32 H        3.3720    -0.2630     2.2060 H     1 <1>   0.0800 
 33 H        5.2640     0.6360     0.8590 H     1 <1>   0.0800 
 34 H        4.9240     1.3740    -0.6840 H     1 <1>   0.0800 
 35 H       -1.3360     0.9740    -1.0380 H     1 <1>   0.0800 
 36 H       -2.8390     2.2970     0.2060 H     1 <1>   0.0800 
 37 H       -3.7230     0.2690     0.9140 H     1 <1>   0.0800 
 38 H       -2.6700    -0.8410     0.0830 H     1 <1>   0.0800 
 39 H       -3.3010     2.9490    -1.5410 H     1 <1>   0.0800 
 40 H        2.2570    -1.7260    -0.1910 H     1 <1>   0.0800 
 41 H        2.6720    -2.4230     1.3520 H     1 <1>   0.0800 
 42 H        5.8500    -0.9150    -0.9170 H     1 <1>   0.0800 
 43 H        4.2620    -0.7710    -1.6220 H     1 <1>   0.0800 
 44 H       -4.4650     1.0700    -1.2540 H     1 <1>   0.0800 
 45 H       -3.2470     0.1300    -2.0670 H     1 <1>   0.0800 
 46 H        5.8910    -3.5500     1.4100 H     1 <1>   0.1500 
 47 H        3.4370    -3.0860    -2.0180 H     1 <1>   0.1500 
 48 H        6.4580    -5.8460     0.7020 H     1 <1>   0.1500 
 49 H        3.9910    -5.3710    -2.7400 H     1 <1>   0.1500 
 50 H        5.5040    -6.7550    -1.3780 H     1 <1>   0.1500 
@<TRIPOS>BOND
  1   1   2  2   
  2   2   3  am  
  3   2   4  1   
  4   3   5  1   
  5   3  24  1   
  6   4   6  1   
  7   4  25  1   
  8   4  26  1   
  9   5   7  1   
 10   5   8  1   
 11   5  27  1   
 12   6   9  1   
 13   6  10  1   
 14   7  11  1   
 15   7  12  1   
 16   7  28  1   
 17   8  13  1   
 18   8  29  1   
 19   8  30  1   
 20   9  14  1   
 21   9  31  1   
 22   9  32  1   
 23  10  15  1   
 24  10  33  1   
 25  10  34  1   
 26  11  13  1   
 27  11  35  1   
 28  11  36  1   
 29  12  16  1   
 30  12  37  1   
 31  12  38  1   
 32  13  16  1   
 33  13  39  1   
 34  14  17  1   
 35  14  40  1   
 36  14  41  1   
 37  15  17  1   
 38  15  42  1   
 39  15  43  1   
 40  16  44  1   
 41  16  45  1   
 42  17  18  1   
 43  18  19  ar  
 44  18  20  ar  
 45  19  21  ar  
 46  19  46  1   
 47  20  22  ar  
 48  20  47  1   
 49  21  23  ar  
 50  21  48  1   
 51  22  23  ar  
 52  22  49  1   
 53  23  50  1   
@<TRIPOS>SUBSTRUCTURE
  1 ****   9 GROUP 4 **** **** 0

# MOE 2024.06 (io_trps.svl 2023.06)
