@<TRIPOS>MOLECULE
NONAME
49 51 1 0 0 
SMALL
USER_CHARGES


@<TRIPOS>ATOM
  1 S        1.0440    -0.2700    -1.4530 S.3   1 <1>  -0.0800 
  2 C        1.6020    -1.1660    -0.0330 C.2   1 <1>  -0.0450 
  3 C       -0.6360    -0.4530    -0.9990 C.2   1 <1>  -0.1100 
  4 C        3.0120    -1.3670     0.1720 C.2   1 <1>   0.7150 
  5 C        0.5170    -1.5450     0.6900 C.2   1 <1>  -0.1500 
  6 C       -0.7390    -1.1460     0.1490 C.2   1 <1>  -0.1500 
  7 O        3.4150    -1.9520     1.1580 O.2   1 <1>  -0.5700 
  8 N        3.9140    -0.8690    -0.7320 N.am  1 <1>  -0.5390 
  9 C        5.3180    -0.9570    -0.7930 C.2   1 <1>   0.1230 
 10 C        5.9690     0.2180    -1.3420 C.2   1 <1>   0.6160 
 11 C        5.9790    -2.0810    -0.3890 C.2   1 <1>  -0.1050 
 12 O        5.6540     0.5860    -2.4610 O.2   1 <1>  -0.5700 
 13 N        6.8800     0.9770    -0.6350 N.am  1 <1>  -0.6600 
 14 C        7.3720    -2.3840    -0.4650 C.2   1 <1>  -0.0050 
 15 C        7.6380     2.0750    -1.3210 C.3   1 <1>   0.1400 
 16 C        7.1720     0.7860     0.8250 C.3   1 <1>   0.1400 
 17 S        7.9580    -3.7390     0.5030 S.3   1 <1>  -0.0800 
 18 C        8.4250    -1.8540    -1.1430 C.2   1 <1>  -0.1500 
 19 C        8.4010     2.9900    -0.3490 C.3   1 <1>   0.1400 
 20 C        8.6740     0.9240     1.1210 C.3   1 <1>   0.1400 
 21 C        9.6080    -3.5130    -0.0390 C.2   1 <1>  -0.1100 
 22 C        9.6800    -2.4820    -0.9000 C.2   1 <1>  -0.1500 
 23 N        9.2440     2.2060     0.6060 N.am  1 <1>  -0.6600 
 24 C       10.4930     2.6050     0.9940 C.2   1 <1>   0.7800 
 25 O       11.1860     1.9410     1.7420 O.2   1 <1>  -0.5700 
 26 O       10.9470     3.7690     0.5280 O.3   1 <1>  -0.4300 
 27 C       12.2230     4.2430     0.8900 C.3   1 <1>   0.1200 
 28 C       12.4450     5.5840     0.1970 C.3   1 <1>  -0.2400 
 29 H       -1.3780    -0.0180    -1.6450 H     1 <1>   0.1500 
 30 H        0.5720    -2.1070     1.6080 H     1 <1>   0.1500 
 31 H       -1.6620    -1.3960     0.6440 H     1 <1>   0.1500 
 32 H        3.5060    -0.2440    -1.4320 H     1 <1>   0.3700 
 33 H        5.4030    -2.8780     0.0460 H     1 <1>   0.1500 
 34 H        8.3400     1.6320    -2.0050 H     1 <1>   0.0800 
 35 H        6.9530     2.6730    -1.8980 H     1 <1>   0.0800 
 36 H        6.8390    -0.1770     1.1650 H     1 <1>   0.0800 
 37 H        6.6350     1.5290     1.3880 H     1 <1>   0.0800 
 38 H        8.3620    -1.0250    -1.8260 H     1 <1>   0.1500 
 39 H        7.6960     3.5790     0.2100 H     1 <1>   0.0800 
 40 H        9.0130     3.6660    -0.9210 H     1 <1>   0.0800 
 41 H        9.2020     0.1020     0.6710 H     1 <1>   0.0800 
 42 H        8.8310     0.8690     2.1850 H     1 <1>   0.0800 
 43 H       10.3570    -4.1820     0.3470 H     1 <1>   0.1500 
 44 H       10.5780    -2.1350    -1.3800 H     1 <1>   0.1500 
 45 H       12.2560     4.3500     1.9620 H     1 <1>   0.0800 
 46 H       12.9570     3.5190     0.5770 H     1 <1>   0.0800 
 47 H       11.6990     6.2910     0.5130 H     1 <1>   0.0800 
 48 H       12.3980     5.4610    -0.8700 H     1 <1>   0.0800 
 49 H       13.4140     5.9690     0.4560 H     1 <1>   0.0800 
@<TRIPOS>BOND
  1   1   2  1   
  2   1   3  1   
  3   2   4  1   
  4   2   5  2   
  5   3   6  2   
  6   3  29  1   
  7   4   7  2   
  8   4   8  am  
  9   5   6  1   
 10   5  30  1   
 11   6  31  1   
 12   8   9  1   
 13   8  32  1   
 14   9  10  1   
 15   9  11  2   
 16  10  12  2   
 17  10  13  am  
 18  11  14  1   
 19  11  33  1   
 20  13  15  1   
 21  13  16  1   
 22  14  17  1   
 23  14  18  2   
 24  15  19  1   
 25  15  34  1   
 26  15  35  1   
 27  16  20  1   
 28  16  36  1   
 29  16  37  1   
 30  17  21  1   
 31  18  22  1   
 32  18  38  1   
 33  19  23  1   
 34  19  39  1   
 35  19  40  1   
 36  20  23  1   
 37  20  41  1   
 38  20  42  1   
 39  21  22  2   
 40  21  43  1   
 41  22  44  1   
 42  23  24  am  
 43  24  25  2   
 44  24  26  1   
 45  26  27  1   
 46  27  28  1   
 47  27  45  1   
 48  27  46  1   
 49  28  47  1   
 50  28  48  1   
 51  28  49  1   
@<TRIPOS>SUBSTRUCTURE
  1 ****  13 GROUP 4 **** **** 0

# MOE 2024.06 (io_trps.svl 2023.06)
