@<TRIPOS>MOLECULE
NONAME
46 49 1 0 0 
SMALL
USER_CHARGES


@<TRIPOS>ATOM
  1 S       -1.5840     0.2740    -1.4640 S.3   1 <1>  -0.0800 
  2 C       -1.9800     1.1200     0.0260 C.2   1 <1>  -0.1400 
  3 C       -0.1840     1.2940    -1.7270 C.2   1 <1>  -0.1100 
  4 C       -1.0830     2.0990     0.2660 C.2   1 <1>  -0.1810 
  5 C       -3.2130     0.6340     0.7690 C.3   1 <1>   0.2900 
  6 C       -0.0630     2.1950    -0.7350 C.2   1 <1>  -0.1500 
  7 C       -1.0560     3.0560     1.4440 C.3   1 <1>  -0.0590 
  8 N       -4.4300     0.8230    -0.0480 N.3   1 <1>  -0.8100 
  9 C       -4.6500     2.2330    -0.4290 C.3   1 <1>   0.1100 
 10 C       -5.6210     0.2330     0.5880 C.3   1 <1>   0.1100 
 11 C       -5.8610     2.3650    -1.3720 C.3   1 <1>   0.3430 
 12 C       -6.8490     0.3400    -0.3380 C.3   1 <1>   0.3430 
 13 N       -7.1010     1.7610    -0.7740 N.4   1 <1>  -0.9590 
 14 C       -8.2590     1.8530    -1.6990 C.3   1 <1>   0.4860 
 15 C       -9.5050     1.4190    -0.9510 C.ar  1 <1>  -0.1430 
 16 C      -10.0470     2.2460     0.0300 C.ar  1 <1>  -0.1500 
 17 C      -10.1030     0.1900    -1.2380 C.ar  1 <1>  -0.1500 
 18 C      -11.1660     1.8060     0.7050 C.ar  1 <1>   0.0830 
 19 C      -11.2330    -0.2310    -0.5470 C.ar  1 <1>  -0.1500 
 20 O      -11.8380     2.4260     1.6790 O.3   1 <1>  -0.3630 
 21 C      -11.7440     0.6030     0.4270 C.ar  1 <1>   0.0830 
 22 C      -12.9250     1.5710     2.0350 C.3   1 <1>   0.4000 
 23 O      -12.8080     0.4110     1.2120 O.3   1 <1>  -0.3620 
 24 H        0.4070     1.1080    -2.6050 H     1 <1>   0.1500 
 25 H       -3.3130     1.1610     1.7020 H     1 <1>   0.0800 
 26 H       -3.0850    -0.4130     0.9870 H     1 <1>   0.0800 
 27 H        0.7160     2.9330    -0.6650 H     1 <1>   0.1500 
 28 H       -1.8820     2.8820     2.1080 H     1 <1>   0.0800 
 29 H       -1.1060     4.0710     1.0920 H     1 <1>   0.0800 
 30 H       -0.1420     2.9270     1.9950 H     1 <1>   0.0800 
 31 H       -3.7840     2.6090    -0.9480 H     1 <1>   0.0800 
 32 H       -4.7960     2.8380     0.4500 H     1 <1>   0.0800 
 33 H       -5.8250     0.7240     1.5250 H     1 <1>   0.0800 
 34 H       -5.4350    -0.8080     0.7920 H     1 <1>   0.0800 
 35 H       -5.6200     1.8630    -2.2940 H     1 <1>   0.0800 
 36 H       -6.0250     3.4070    -1.5920 H     1 <1>   0.0800 
 37 H       -7.7140    -0.0460     0.1770 H     1 <1>   0.0800 
 38 H       -6.6730    -0.2780    -1.2020 H     1 <1>   0.0800 
 39 H       -7.3440     2.2890     0.0710 H     1 <1>   0.4500 
 40 H       -8.1030     1.2210    -2.5580 H     1 <1>   0.0800 
 41 H       -8.3850     2.8680    -2.0390 H     1 <1>   0.0800 
 42 H       -9.6350     3.2080     0.2780 H     1 <1>   0.1500 
 43 H       -9.7020    -0.4540    -2.0020 H     1 <1>   0.1500 
 44 H      -11.7100    -1.1730    -0.7540 H     1 <1>   0.1500 
 45 H      -13.8570     2.0660     1.8290 H     1 <1>   0.0800 
 46 H      -12.8430     1.2900     3.0700 H     1 <1>   0.0800 
@<TRIPOS>BOND
  1   1   2  1   
  2   1   3  1   
  3   2   4  2   
  4   2   5  1   
  5   3   6  2   
  6   3  24  1   
  7   4   6  1   
  8   4   7  1   
  9   5   8  1   
 10   5  25  1   
 11   5  26  1   
 12   6  27  1   
 13   7  28  1   
 14   7  29  1   
 15   7  30  1   
 16   8   9  1   
 17   8  10  1   
 18   9  11  1   
 19   9  31  1   
 20   9  32  1   
 21  10  12  1   
 22  10  33  1   
 23  10  34  1   
 24  11  13  1   
 25  11  35  1   
 26  11  36  1   
 27  12  13  1   
 28  12  37  1   
 29  12  38  1   
 30  13  14  1   
 31  13  39  1   
 32  14  15  1   
 33  14  40  1   
 34  14  41  1   
 35  15  16  ar  
 36  15  17  ar  
 37  16  18  ar  
 38  16  42  1   
 39  17  19  ar  
 40  17  43  1   
 41  18  20  1   
 42  18  21  ar  
 43  19  21  ar  
 44  19  44  1   
 45  20  22  1   
 46  21  23  1   
 47  22  23  1   
 48  22  45  1   
 49  22  46  1   
@<TRIPOS>SUBSTRUCTURE
  1 ****  13 GROUP 4 **** **** 0

# MOE 2024.06 (io_trps.svl 2023.06)
