@<TRIPOS>MOLECULE
NONAME
44 47 1 0 0 
SMALL
USER_CHARGES


@<TRIPOS>ATOM
  1 CL       0.0630    -0.0670    -0.2090 Cl    1 <1>  -0.1230 
  2 C        0.6080     1.6020    -0.2980 C.2   1 <1>   0.1230 
  3 C        1.9040     1.9930    -0.2860 C.2   1 <1>  -0.0260 
  4 C       -0.1840     2.7400    -0.3910 C.2   1 <1>   0.2030 
  5 N        3.0570     1.2670    -0.1810 N.2   1 <1>  -0.5760 
  6 N        1.8690     3.3600    -0.3930 N.pl3 1 <1>   0.6010 
  7 N        0.5990     3.8130    -0.4390 N.2   1 <1>  -0.7070 
  8 C       -1.6430     2.7390    -0.4190 C.2   1 <1>   0.7160 
  9 C        4.1850     1.9150    -0.1430 C.2   1 <1>   0.3490 
 10 C        3.0560     4.0700    -0.3890 C.2   1 <1>  -0.1690 
 11 O       -2.2680     3.6190    -0.9830 O.2   1 <1>  -0.5700 
 12 N       -2.3540     1.7440     0.1980 N.am  1 <1>  -0.7300 
 13 C        5.4240     1.1580    -0.0400 C.ar  1 <1>   0.0860 
 14 C        4.2210     3.3590    -0.2130 C.2   1 <1>  -0.1240 
 15 C        2.8360     5.5690    -0.5950 C.3   1 <1>   1.1580 
 16 C       -3.8130     1.6200     0.2450 C.3   1 <1>   0.2200 
 17 C        6.5910     1.7640     0.4300 C.ar  1 <1>  -0.1440 
 18 C        5.5030    -0.1890    -0.4040 C.ar  1 <1>  -0.1500 
 19 C        5.6130     4.0000    -0.0940 C.3   1 <1>  -0.0220 
 20 F        2.2460     6.1450     0.4440 F     1 <1>  -0.3400 
 21 F        3.9610     6.2450    -0.7760 F     1 <1>  -0.3400 
 22 F        2.1110     5.8550    -1.6690 F     1 <1>  -0.3400 
 23 C       -4.2420     1.6290     1.7070 C.3   1 <1>  -0.2400 
 24 C       -4.1990     0.3140    -0.4390 C.3   1 <1>  -0.2400 
 25 C        7.7780     1.0570     0.5260 C.ar  1 <1>  -0.1500 
 26 C        6.5340     3.2190     0.8450 C.3   1 <1>  -0.0170 
 27 C        6.6860    -0.8980    -0.3090 C.ar  1 <1>  -0.1500 
 28 C        7.8280    -0.2740     0.1560 C.ar  1 <1>  -0.1500 
 29 H       -1.8440     0.9720     0.6290 H     1 <1>   0.3700 
 30 H       -4.2750     2.4480    -0.2710 H     1 <1>   0.0800 
 31 H        4.6220    -0.6890    -0.7670 H     1 <1>   0.1500 
 32 H        5.5650     4.9950     0.3030 H     1 <1>   0.0800 
 33 H        6.0640     4.0450    -1.0710 H     1 <1>   0.0800 
 34 H       -3.8000     0.8080     2.2430 H     1 <1>   0.0800 
 35 H       -5.3110     1.5460     1.7740 H     1 <1>   0.0800 
 36 H       -3.9490     2.5550     2.1680 H     1 <1>   0.0800 
 37 H       -3.7520    -0.5280     0.0580 H     1 <1>   0.0800 
 38 H       -3.8810     0.3310    -1.4670 H     1 <1>   0.0800 
 39 H       -5.2670     0.1950    -0.4210 H     1 <1>   0.0800 
 40 H        8.6710     1.5340     0.8920 H     1 <1>   0.1500 
 41 H        7.5180     3.6540     0.8260 H     1 <1>   0.0800 
 42 H        6.1610     3.2800     1.8530 H     1 <1>   0.0800 
 43 H        6.7180    -1.9350    -0.5960 H     1 <1>   0.1500 
 44 H        8.7510    -0.8240     0.2320 H     1 <1>   0.1500 
@<TRIPOS>BOND
  1   1   2  1   
  2   2   3  2   
  3   2   4  1   
  4   3   5  1   
  5   3   6  1   
  6   4   7  2   
  7   4   8  1   
  8   5   9  2   
  9   6   7  1   
 10   6  10  1   
 11   8  11  2   
 12   8  12  am  
 13   9  13  1   
 14   9  14  1   
 15  10  14  2   
 16  10  15  1   
 17  12  16  1   
 18  12  29  1   
 19  13  17  ar  
 20  13  18  ar  
 21  14  19  1   
 22  15  20  1   
 23  15  21  1   
 24  15  22  1   
 25  16  23  1   
 26  16  24  1   
 27  16  30  1   
 28  17  25  ar  
 29  17  26  1   
 30  18  27  ar  
 31  18  31  1   
 32  19  26  1   
 33  19  32  1   
 34  19  33  1   
 35  23  34  1   
 36  23  35  1   
 37  23  36  1   
 38  24  37  1   
 39  24  38  1   
 40  24  39  1   
 41  25  28  ar  
 42  25  40  1   
 43  26  41  1   
 44  26  42  1   
 45  27  28  ar  
 46  27  43  1   
 47  28  44  1   
@<TRIPOS>SUBSTRUCTURE
  1 ****   3 GROUP 4 **** **** 0

# MOE 2024.06 (io_trps.svl 2023.06)
