@<TRIPOS>MOLECULE
NONAME
42 43 1 0 0 
SMALL
USER_CHARGES


@<TRIPOS>ATOM
  1 S        0.3060    -1.9080    -1.9220 S.3   1 <1>  -0.3320 
  2 C       -1.1250    -1.8150    -0.8290 C.ar  1 <1>   0.1020 
  3 C        1.0440    -3.6070    -1.7370 C.3   1 <1>   0.1310 
  4 C       -1.6650    -0.5600    -0.6170 C.ar  1 <1>  -0.1500 
  5 C       -1.6780    -2.9330    -0.2260 C.ar  1 <1>  -0.1500 
  6 C        1.5070    -3.8960    -0.3120 C.2   1 <1>   0.5690 
  7 C       -2.7630    -0.4170     0.2140 C.ar  1 <1>  -0.1500 
  8 C       -2.7750    -2.7820     0.6050 C.ar  1 <1>  -0.1500 
  9 O        1.0290    -4.8450     0.2590 O.2   1 <1>  -0.5700 
 10 N        2.4510    -3.1580     0.3190 N.am  1 <1>  -0.7300 
 11 C       -3.3210    -1.5270     0.8300 C.ar  1 <1>  -0.1430 
 12 C        3.2060    -1.9860    -0.1650 C.3   1 <1>   0.2200 
 13 C       -4.5240    -1.3710     1.7420 C.3   1 <1>  -0.0970 
 14 C        4.7230    -2.2400    -0.0430 C.3   1 <1>  -0.0800 
 15 C        2.7720    -0.7670     0.6570 C.3   1 <1>  -0.1600 
 16 C        5.5110    -0.9790    -0.4410 C.3   1 <1>  -0.1600 
 17 C        5.1820    -3.4280    -0.9060 C.3   1 <1>  -0.2400 
 18 C        3.5630     0.4850     0.2560 C.3   1 <1>  -0.1600 
 19 C        5.0730     0.2440     0.3770 C.3   1 <1>  -0.1600 
 20 H        1.8780    -3.6610    -2.4110 H     1 <1>   0.0800 
 21 H        0.2940    -4.3130    -2.0400 H     1 <1>   0.0800 
 22 H       -1.2280     0.2960    -1.0980 H     1 <1>   0.1500 
 23 H       -1.2810    -3.9160    -0.3890 H     1 <1>   0.1500 
 24 H       -3.1810     0.5600     0.3770 H     1 <1>   0.1500 
 25 H       -3.2020    -3.6500     1.0760 H     1 <1>   0.1500 
 26 H        2.6610    -3.4410     1.2770 H     1 <1>   0.3700 
 27 H        2.9770    -1.8020    -1.2000 H     1 <1>   0.0800 
 28 H       -4.5170    -0.4050     2.2130 H     1 <1>   0.0800 
 29 H       -4.5120    -2.1230     2.5110 H     1 <1>   0.0800 
 30 H       -5.4290    -1.4730     1.1700 H     1 <1>   0.0800 
 31 H        4.9480    -2.4580     0.9870 H     1 <1>   0.0800 
 32 H        2.9320    -0.9630     1.7030 H     1 <1>   0.0800 
 33 H        1.7220    -0.5880     0.5030 H     1 <1>   0.0800 
 34 H        5.3590    -0.7740    -1.4870 H     1 <1>   0.0800 
 35 H        6.5640    -1.1450    -0.2880 H     1 <1>   0.0800 
 36 H        4.9510    -3.2550    -1.9420 H     1 <1>   0.0800 
 37 H        4.6960    -4.3350    -0.5930 H     1 <1>   0.0800 
 38 H        6.2440    -3.5700    -0.8090 H     1 <1>   0.0800 
 39 H        3.2760     1.3100     0.8850 H     1 <1>   0.0800 
 40 H        3.3220     0.7470    -0.7610 H     1 <1>   0.0800 
 41 H        5.6040     1.1160     0.0340 H     1 <1>   0.0800 
 42 H        5.3270     0.0910     1.4120 H     1 <1>   0.0800 
@<TRIPOS>BOND
  1   1   2  1   
  2   1   3  1   
  3   2   4  ar  
  4   2   5  ar  
  5   3   6  1   
  6   3  20  1   
  7   3  21  1   
  8   4   7  ar  
  9   4  22  1   
 10   5   8  ar  
 11   5  23  1   
 12   6   9  2   
 13   6  10  am  
 14   7  11  ar  
 15   7  24  1   
 16   8  11  ar  
 17   8  25  1   
 18  10  12  1   
 19  10  26  1   
 20  11  13  1   
 21  12  14  1   
 22  12  15  1   
 23  12  27  1   
 24  13  28  1   
 25  13  29  1   
 26  13  30  1   
 27  14  16  1   
 28  14  17  1   
 29  14  31  1   
 30  15  18  1   
 31  15  32  1   
 32  15  33  1   
 33  16  19  1   
 34  16  34  1   
 35  16  35  1   
 36  17  36  1   
 37  17  37  1   
 38  17  38  1   
 39  18  19  1   
 40  18  39  1   
 41  18  40  1   
 42  19  41  1   
 43  19  42  1   
@<TRIPOS>SUBSTRUCTURE
  1 ****  10 GROUP 4 **** **** 0

# MOE 2024.06 (io_trps.svl 2023.06)
