@<TRIPOS>MOLECULE
NONAME
39 40 1 0 0 
SMALL
USER_CHARGES


@<TRIPOS>ATOM
  1 F       -0.1840     0.7210     1.2140 F     1 <1>  -0.1900 
  2 C        0.5040     1.7370     0.7520 C.ar  1 <1>   0.1900 
  3 C       -0.1710     2.9070     0.4130 C.ar  1 <1>   0.1170 
  4 C        1.8700     1.5920     0.6270 C.ar  1 <1>  -0.1500 
  5 N       -1.5710     2.9720     0.5710 N.am  1 <1>  -0.5470 
  6 C        0.6050     3.9620    -0.0610 C.ar  1 <1>  -0.1500 
  7 C        2.6120     2.6570     0.1470 C.ar  1 <1>  -0.1500 
  8 C       -2.5060     3.8640     0.1230 C.2   1 <1>   0.5690 
  9 C        1.9880     3.8550    -0.1990 C.ar  1 <1>  -0.1440 
 10 O       -2.2320     4.8250    -0.5540 O.2   1 <1>  -0.5700 
 11 C       -3.9640     3.5960     0.4990 C.3   1 <1>  -0.0190 
 12 C        2.8000     5.0480    -0.7350 C.3   1 <1>   1.1640 
 13 C       -4.6250     2.6370    -0.5080 C.3   1 <1>  -0.1600 
 14 C       -4.7970     4.8890     0.6160 C.3   1 <1>  -0.1600 
 15 F        4.0900     4.9760    -0.4240 F     1 <1>  -0.3400 
 16 F        2.7410     5.1350    -2.0560 F     1 <1>  -0.3400 
 17 F        2.3730     6.2120    -0.2610 F     1 <1>  -0.3400 
 18 C       -6.0890     2.3610    -0.1520 C.3   1 <1>   0.1400 
 19 C       -6.2570     4.5910     0.9670 C.3   1 <1>   0.1400 
 20 N       -6.8260     3.6500    -0.0370 N.am  1 <1>  -0.6600 
 21 C       -7.9170     3.9070    -0.8290 C.2   1 <1>   0.5690 
 22 O       -8.3560     3.0940    -1.6060 O.2   1 <1>  -0.5700 
 23 C       -8.6230     5.2410    -0.7610 C.3   1 <1>  -0.1790 
 24 H        2.3430     0.6640     0.9000 H     1 <1>   0.1500 
 25 H       -1.9520     2.1610     1.0600 H     1 <1>   0.3700 
 26 H        0.1270     4.8880    -0.3280 H     1 <1>   0.1500 
 27 H        3.6800     2.5430     0.0460 H     1 <1>   0.1500 
 28 H       -3.9690     3.1230     1.4650 H     1 <1>   0.0800 
 29 H       -4.0900     1.7050    -0.5380 H     1 <1>   0.0800 
 30 H       -4.5860     3.0660    -1.4960 H     1 <1>   0.0800 
 31 H       -4.7710     5.4270    -0.3160 H     1 <1>   0.0800 
 32 H       -4.3710     5.5270     1.3710 H     1 <1>   0.0800 
 33 H       -6.1520     1.8370     0.7860 H     1 <1>   0.0800 
 34 H       -6.5290     1.7350    -0.9100 H     1 <1>   0.0800 
 35 H       -6.8100     5.5120     1.0020 H     1 <1>   0.0800 
 36 H       -6.3130     4.1360     1.9410 H     1 <1>   0.0800 
 37 H       -7.9360     6.0300    -0.9990 H     1 <1>   0.0800 
 38 H       -9.0300     5.3890     0.2210 H     1 <1>   0.0800 
 39 H       -9.4280     5.2610    -1.4730 H     1 <1>   0.0800 
@<TRIPOS>BOND
  1   1   2  1   
  2   2   3  ar  
  3   2   4  ar  
  4   3   5  1   
  5   3   6  ar  
  6   4   7  ar  
  7   4  24  1   
  8   5   8  am  
  9   5  25  1   
 10   6   9  ar  
 11   6  26  1   
 12   7   9  ar  
 13   7  27  1   
 14   8  10  2   
 15   8  11  1   
 16   9  12  1   
 17  11  13  1   
 18  11  14  1   
 19  11  28  1   
 20  12  15  1   
 21  12  16  1   
 22  12  17  1   
 23  13  18  1   
 24  13  29  1   
 25  13  30  1   
 26  14  19  1   
 27  14  31  1   
 28  14  32  1   
 29  18  20  1   
 30  18  33  1   
 31  18  34  1   
 32  19  20  1   
 33  19  35  1   
 34  19  36  1   
 35  20  21  am  
 36  21  22  2   
 37  21  23  1   
 38  23  37  1   
 39  23  38  1   
 40  23  39  1   
@<TRIPOS>SUBSTRUCTURE
  1 ****   8 GROUP 4 **** **** 0

# MOE 2024.06 (io_trps.svl 2023.06)
