@<TRIPOS>MOLECULE
NONAME
46 47 1 0 0 
SMALL
USER_CHARGES


@<TRIPOS>ATOM
  1 S        0.2470     0.0860    -1.2470 S.o2  1 <1>   1.4470 
  2 O        0.5880     1.3260    -1.9120 O.2   1 <1>  -0.6500 
  3 O       -0.1790    -1.0350    -2.0570 O.2   1 <1>  -0.6500 
  4 N       -0.9840     0.4270    -0.1160 N.am  1 <1>  -0.8490 
  5 C        1.6360    -0.4960    -0.2330 C.ar  1 <1>  -0.0090 
  6 C       -0.8770     1.7690     0.4820 C.3   1 <1>   0.1960 
  7 C       -2.3240     0.2120    -0.6790 C.3   1 <1>   0.1960 
  8 C        2.9130     0.0270    -0.3860 C.ar  1 <1>  -0.1500 
  9 C        1.4520    -1.4930     0.7180 C.ar  1 <1>  -0.1500 
 10 C        0.3000     1.8660     1.4490 C.3   1 <1>  -0.2400 
 11 C       -3.3490    -0.0310     0.4290 C.3   1 <1>  -0.2400 
 12 C        3.9950    -0.4100     0.3740 C.ar  1 <1>   0.0860 
 13 C        2.5040    -1.9440     1.4940 C.ar  1 <1>  -0.1500 
 14 C        5.3150     0.1590     0.1840 C.2   1 <1>   0.5440 
 15 C        3.7630    -1.4020     1.3230 C.ar  1 <1>  -0.1500 
 16 O        5.4670     1.3550     0.3390 O.2   1 <1>  -0.5700 
 17 N        6.3950    -0.6210    -0.1730 N.am  1 <1>  -0.6600 
 18 C        6.2800    -1.9940    -0.7380 C.3   1 <1>   0.1400 
 19 C        7.7880    -0.0960    -0.1280 C.3   1 <1>   0.1400 
 20 C        7.1350    -2.9610     0.0860 C.3   1 <1>  -0.1600 
 21 C        8.6670    -1.0470     0.6930 C.3   1 <1>  -0.1600 
 22 C        8.5940    -2.4890     0.1690 C.3   1 <1>  -0.1600 
 23 H       -1.7620     1.9880     1.0510 H     1 <1>   0.0800 
 24 H       -0.7970     2.5240    -0.2840 H     1 <1>   0.0800 
 25 H       -2.3340    -0.6690    -1.2980 H     1 <1>   0.0800 
 26 H       -2.6110     1.0480    -1.2970 H     1 <1>   0.0800 
 27 H        3.0820     0.8030    -1.1140 H     1 <1>   0.1500 
 28 H        0.4690    -1.9150     0.8500 H     1 <1>   0.1500 
 29 H        0.3050     1.0290     2.1240 H     1 <1>   0.0800 
 30 H        0.2090     2.7680     2.0280 H     1 <1>   0.0800 
 31 H        1.2330     1.9210     0.9200 H     1 <1>   0.0800 
 32 H       -2.9990    -0.8020     1.0910 H     1 <1>   0.0800 
 33 H       -4.2730    -0.3580    -0.0110 H     1 <1>   0.0800 
 34 H       -3.5530     0.8610     0.9900 H     1 <1>   0.0800 
 35 H        2.3400    -2.7130     2.2300 H     1 <1>   0.1500 
 36 H        4.5840    -1.7440     1.9300 H     1 <1>   0.1500 
 37 H        6.6320    -1.9780    -1.7560 H     1 <1>   0.0800 
 38 H        5.2580    -2.3270    -0.7500 H     1 <1>   0.0800 
 39 H        7.8110     0.8850     0.3160 H     1 <1>   0.0800 
 40 H        8.1660    -0.0170    -1.1320 H     1 <1>   0.0800 
 41 H        7.0980    -3.9390    -0.3620 H     1 <1>   0.0800 
 42 H        6.7210    -3.0370     1.0760 H     1 <1>   0.0800 
 43 H        8.3420    -1.0160     1.7190 H     1 <1>   0.0800 
 44 H        9.6850    -0.7020     0.6630 H     1 <1>   0.0800 
 45 H        9.0400    -2.5340    -0.8100 H     1 <1>   0.0800 
 46 H        9.1520    -3.1410     0.8190 H     1 <1>   0.0800 
@<TRIPOS>BOND
  1   1   2  2   
  2   1   3  2   
  3   1   4  am  
  4   1   5  1   
  5   4   6  1   
  6   4   7  1   
  7   5   8  ar  
  8   5   9  ar  
  9   6  10  1   
 10   6  23  1   
 11   6  24  1   
 12   7  11  1   
 13   7  25  1   
 14   7  26  1   
 15   8  12  ar  
 16   8  27  1   
 17   9  13  ar  
 18   9  28  1   
 19  10  29  1   
 20  10  30  1   
 21  10  31  1   
 22  11  32  1   
 23  11  33  1   
 24  11  34  1   
 25  12  14  1   
 26  12  15  ar  
 27  13  15  ar  
 28  13  35  1   
 29  14  16  2   
 30  14  17  am  
 31  15  36  1   
 32  17  18  1   
 33  17  19  1   
 34  18  20  1   
 35  18  37  1   
 36  18  38  1   
 37  19  21  1   
 38  19  39  1   
 39  19  40  1   
 40  20  22  1   
 41  20  41  1   
 42  20  42  1   
 43  21  22  1   
 44  21  43  1   
 45  21  44  1   
 46  22  45  1   
 47  22  46  1   
@<TRIPOS>SUBSTRUCTURE
  1 ****   8 GROUP 4 **** **** 0

# MOE 2024.06 (io_trps.svl 2023.06)
