@<TRIPOS>MOLECULE
NONAME
45 47 1 0 0 
SMALL
USER_CHARGES


@<TRIPOS>ATOM
  1 CL      -0.9470     0.7850     0.6150 Cl    1 <1>  -0.1770 
  2 C       -2.4270     1.3130    -0.1450 C.ar  1 <1>   0.1770 
  3 C       -3.6280     0.7650     0.2530 C.ar  1 <1>  -0.1500 
  4 C       -2.3670     2.2730    -1.1350 C.ar  1 <1>  -0.1500 
  5 C       -4.8140     1.1790    -0.3450 C.ar  1 <1>   0.1170 
  6 C       -3.5410     2.6900    -1.7380 C.ar  1 <1>  -0.1500 
  7 N       -6.0580     0.6470     0.0250 N.am  1 <1>  -0.5470 
  8 C       -4.7600     2.1510    -1.3510 C.ar  1 <1>  -0.1430 
  9 C       -6.4910    -0.1230     1.0650 C.2   1 <1>   0.5690 
 10 C       -6.0290     2.6390    -2.0410 C.3   1 <1>  -0.0960 
 11 O       -5.7850    -0.5440     1.9500 O.2   1 <1>  -0.5700 
 12 C       -7.9850    -0.4480     1.0800 C.3   1 <1>   0.1710 
 13 N       -8.8180     0.5350     0.3190 N.3   1 <1>  -0.8100 
 14 C      -10.1560    -0.0270     0.0390 C.3   1 <1>   0.1100 
 15 C       -8.9560     1.8010     1.0840 C.3   1 <1>   0.1100 
 16 C      -11.0380     0.9580    -0.7500 C.3   1 <1>   0.1400 
 17 C       -9.7940     2.8350     0.3160 C.3   1 <1>   0.1400 
 18 N      -11.1290     2.2680    -0.0400 N.am  1 <1>  -0.6600 
 19 C      -12.2920     2.7220     0.5530 C.2   1 <1>   0.7150 
 20 O      -12.1990     3.4590     1.5190 O.2   1 <1>  -0.5700 
 21 C      -13.5930     2.3430     0.0420 C.2   1 <1>   0.0550 
 22 O      -14.5940     2.0400     0.8650 O.3   1 <1>  -0.2800 
 23 C      -14.0430     2.2180    -1.2390 C.2   1 <1>  -0.1500 
 24 C      -15.6530     1.7300     0.1540 C.2   1 <1>  -0.0100 
 25 C      -15.3780     1.8190    -1.1650 C.2   1 <1>  -0.1500 
 26 H       -3.6260     0.0190     1.0240 H     1 <1>   0.1500 
 27 H       -1.4170     2.6840    -1.4260 H     1 <1>   0.1500 
 28 H       -3.4940     3.4380    -2.5110 H     1 <1>   0.1500 
 29 H       -6.8510     0.9410    -0.5530 H     1 <1>   0.3700 
 30 H       -6.5170     1.8210    -2.5400 H     1 <1>   0.0800 
 31 H       -5.8040     3.3930    -2.7740 H     1 <1>   0.0800 
 32 H       -6.7020     3.0640    -1.3180 H     1 <1>   0.0800 
 33 H       -8.3200    -0.5060     2.1010 H     1 <1>   0.0800 
 34 H       -8.0960    -1.4230     0.6420 H     1 <1>   0.0800 
 35 H      -10.6510    -0.2760     0.9630 H     1 <1>   0.0800 
 36 H      -10.0510    -0.9310    -0.5360 H     1 <1>   0.0800 
 37 H       -7.9850     2.2210     1.2790 H     1 <1>   0.0800 
 38 H       -9.4300     1.6110     2.0330 H     1 <1>   0.0800 
 39 H      -12.0120     0.5200    -0.8760 H     1 <1>   0.0800 
 40 H      -10.6120     1.1120    -1.7260 H     1 <1>   0.0800 
 41 H       -9.2770     3.1130    -0.5860 H     1 <1>   0.0800 
 42 H       -9.9030     3.7220     0.9160 H     1 <1>   0.0800 
 43 H      -13.4950     2.3960    -2.1470 H     1 <1>   0.1500 
 44 H      -16.5620     1.4590     0.6620 H     1 <1>   0.1500 
 45 H      -16.0300     1.6320    -2.0000 H     1 <1>   0.1500 
@<TRIPOS>BOND
  1   1   2  1   
  2   2   3  ar  
  3   2   4  ar  
  4   3   5  ar  
  5   3  26  1   
  6   4   6  ar  
  7   4  27  1   
  8   5   7  1   
  9   5   8  ar  
 10   6   8  ar  
 11   6  28  1   
 12   7   9  am  
 13   7  29  1   
 14   8  10  1   
 15   9  11  2   
 16   9  12  1   
 17  10  30  1   
 18  10  31  1   
 19  10  32  1   
 20  12  13  1   
 21  12  33  1   
 22  12  34  1   
 23  13  14  1   
 24  13  15  1   
 25  14  16  1   
 26  14  35  1   
 27  14  36  1   
 28  15  17  1   
 29  15  37  1   
 30  15  38  1   
 31  16  18  1   
 32  16  39  1   
 33  16  40  1   
 34  17  18  1   
 35  17  41  1   
 36  17  42  1   
 37  18  19  am  
 38  19  20  2   
 39  19  21  1   
 40  21  22  1   
 41  21  23  2   
 42  22  24  1   
 43  23  25  1   
 44  23  43  1   
 45  24  25  2   
 46  24  44  1   
 47  25  45  1   
@<TRIPOS>SUBSTRUCTURE
  1 ****  13 GROUP 4 **** **** 0

# MOE 2024.06 (io_trps.svl 2023.06)
