@<TRIPOS>MOLECULE
NONAME
36 36 1 0 0 
SMALL
USER_CHARGES


@<TRIPOS>ATOM
  1 O       -4.1980     4.2000    -1.1550 O.2   1 <1>  -0.5700 
  2 C       -4.6350     3.1820    -0.6820 C.2   1 <1>   0.4950 
  3 C       -6.0450     2.9190    -0.5210 C.2   1 <1>  -0.1240 
  4 C       -3.6110     2.1440    -0.2500 C.3   1 <1>  -0.0990 
  5 C       -6.5800     1.7880     0.0130 C.2   1 <1>  -0.1780 
  6 C       -6.9560     4.0540    -1.0000 C.3   1 <1>  -0.1020 
  7 C       -2.1980     2.6140    -0.6100 C.3   1 <1>   0.3430 
  8 C       -7.9610     1.4200     0.1700 C.ar  1 <1>   0.0280 
  9 N       -1.1570     1.5950    -0.2640 N.4   1 <1>  -0.9590 
 10 C       -8.8390     1.3890    -0.9120 C.ar  1 <1>  -0.1500 
 11 C       -8.4560     1.0550     1.4200 C.ar  1 <1>  -0.1500 
 12 C       -0.9680     1.4530     1.2150 C.3   1 <1>   0.2630 
 13 C        0.1400     1.9630    -0.9120 C.3   1 <1>   0.2630 
 14 C      -10.1610     1.0190    -0.7520 C.ar  1 <1>  -0.1500 
 15 C       -9.7780     0.6830     1.5860 C.ar  1 <1>  -0.1500 
 16 C      -10.6340     0.6660     0.4990 C.ar  1 <1>  -0.1500 
 17 H       -3.7020     2.0070     0.8110 H     1 <1>   0.0800 
 18 H       -3.8250     1.2220    -0.7580 H     1 <1>   0.0800 
 19 H       -5.9340     1.0170     0.3910 H     1 <1>   0.1500 
 20 H       -6.6310     4.9910    -0.5820 H     1 <1>   0.0800 
 21 H       -7.9790     3.9130    -0.7030 H     1 <1>   0.0800 
 22 H       -6.9160     4.1310    -2.0720 H     1 <1>   0.0800 
 23 H       -1.9910     3.5430    -0.1020 H     1 <1>   0.0800 
 24 H       -2.1700     2.8140    -1.6700 H     1 <1>   0.0800 
 25 H       -1.4560     0.6860    -0.6500 H     1 <1>   0.4500 
 26 H       -8.4780     1.6540    -1.8900 H     1 <1>   0.1500 
 27 H       -7.8010     1.0670     2.2720 H     1 <1>   0.1500 
 28 H       -0.6740     2.3960     1.6470 H     1 <1>   0.0800 
 29 H       -0.2010     0.7250     1.4260 H     1 <1>   0.0800 
 30 H       -1.8820     1.1280     1.6850 H     1 <1>   0.0800 
 31 H        0.4880     2.9140    -0.5430 H     1 <1>   0.0800 
 32 H        0.0180     2.0330    -1.9810 H     1 <1>   0.0800 
 33 H        0.8900     1.2170    -0.7020 H     1 <1>   0.0800 
 34 H      -10.8240     1.0030    -1.6000 H     1 <1>   0.1500 
 35 H      -10.1430     0.4080     2.5600 H     1 <1>   0.1500 
 36 H      -11.6630     0.3780     0.6270 H     1 <1>   0.1500 
@<TRIPOS>BOND
  1   1   2  2   
  2   2   3  1   
  3   2   4  1   
  4   3   5  2   
  5   3   6  1   
  6   4   7  1   
  7   4  17  1   
  8   4  18  1   
  9   5   8  1   
 10   5  19  1   
 11   6  20  1   
 12   6  21  1   
 13   6  22  1   
 14   7   9  1   
 15   7  23  1   
 16   7  24  1   
 17   8  10  ar  
 18   8  11  ar  
 19   9  12  1   
 20   9  13  1   
 21   9  25  1   
 22  10  14  ar  
 23  10  26  1   
 24  11  15  ar  
 25  11  27  1   
 26  12  28  1   
 27  12  29  1   
 28  12  30  1   
 29  13  31  1   
 30  13  32  1   
 31  13  33  1   
 32  14  16  ar  
 33  14  34  1   
 34  15  16  ar  
 35  15  35  1   
 36  16  36  1   
@<TRIPOS>SUBSTRUCTURE
  1 ****   5 GROUP 4 **** **** 0

# MOE 2024.06 (io_trps.svl 2023.06)
