@<TRIPOS>MOLECULE
NONAME
41 41 1 0 0 
SMALL
USER_CHARGES


@<TRIPOS>ATOM
  1 O        0.4070    -1.6080     0.2580 O.3   1 <1>  -0.3630 
  2 C       -0.9320    -1.4660     0.0590 C.ar  1 <1>   0.0820 
  3 C        1.3300    -0.6630    -0.2200 C.3   1 <1>   0.1200 
  4 C       -1.7670    -2.4510     0.5770 C.ar  1 <1>  -0.1440 
  5 C       -1.4850    -0.3890    -0.6320 C.ar  1 <1>  -0.1500 
  6 C        2.7250    -1.1400     0.1890 C.3   1 <1>  -0.1600 
  7 C       -3.1370    -2.3470     0.4000 C.ar  1 <1>  -0.1500 
  8 C       -1.1930    -3.6390     1.3350 C.3   1 <1>  -0.0970 
  9 C       -2.8550    -0.2920    -0.8080 C.ar  1 <1>  -0.1430 
 10 C        3.8210    -0.1740    -0.2840 C.3   1 <1>  -0.1600 
 11 C       -3.6780    -1.2750    -0.2870 C.ar  1 <1>  -0.1500 
 12 C       -3.4510     0.8850    -1.5600 C.3   1 <1>  -0.0970 
 13 C        5.1970    -0.6820     0.1430 C.3   1 <1>   0.3430 
 14 N        6.2340     0.2680    -0.3250 N.4   1 <1>  -0.9060 
 15 C        7.6060    -0.1770     0.0650 C.3   1 <1>   0.3430 
 16 C        8.6830     0.8020    -0.4170 C.3   1 <1>   0.1200 
 17 O        9.9050     0.3030    -0.0080 O.3   1 <1>  -0.6800 
 18 H        1.0990     0.2890     0.2260 H     1 <1>   0.0800 
 19 H        1.2350    -0.6110    -1.2910 H     1 <1>   0.0800 
 20 H       -0.8650     0.3840    -1.0410 H     1 <1>   0.1500 
 21 H        2.8880    -2.1150    -0.2380 H     1 <1>   0.0800 
 22 H        2.7520    -1.2270     1.2620 H     1 <1>   0.0800 
 23 H       -3.7930    -3.1020     0.7960 H     1 <1>   0.1500 
 24 H       -0.5210    -4.1850     0.6990 H     1 <1>   0.0800 
 25 H       -1.9700    -4.3030     1.6650 H     1 <1>   0.0800 
 26 H       -0.6490    -3.2920     2.1950 H     1 <1>   0.0800 
 27 H        3.6400     0.7950     0.1470 H     1 <1>   0.0800 
 28 H        3.7770    -0.0960    -1.3570 H     1 <1>   0.0800 
 29 H       -4.7440    -1.2120    -0.4130 H     1 <1>   0.1500 
 30 H       -2.7900     1.2030    -2.3460 H     1 <1>   0.0800 
 31 H       -3.6090     1.7050    -0.8840 H     1 <1>   0.0800 
 32 H       -4.3930     0.6120    -2.0010 H     1 <1>   0.0800 
 33 H        5.3690    -1.6590    -0.2830 H     1 <1>   0.0800 
 34 H        5.2320    -0.7700     1.2180 H     1 <1>   0.0800 
 35 H        6.0440     1.1960     0.0730 H     1 <1>   0.4500 
 36 H        6.1750     0.3540    -1.3480 H     1 <1>   0.4500 
 37 H        7.8090    -1.1460    -0.3620 H     1 <1>   0.0800 
 38 H        7.6710    -0.2570     1.1380 H     1 <1>   0.0800 
 39 H        8.5560     1.7750     0.0280 H     1 <1>   0.0800 
 40 H        8.6960     0.8750    -1.4910 H     1 <1>   0.0800 
 41 H       10.6490     0.8820    -0.2830 H     1 <1>   0.4000 
@<TRIPOS>BOND
  1   1   2  1   
  2   1   3  1   
  3   2   4  ar  
  4   2   5  ar  
  5   3   6  1   
  6   3  18  1   
  7   3  19  1   
  8   4   7  ar  
  9   4   8  1   
 10   5   9  ar  
 11   5  20  1   
 12   6  10  1   
 13   6  21  1   
 14   6  22  1   
 15   7  11  ar  
 16   7  23  1   
 17   8  24  1   
 18   8  25  1   
 19   8  26  1   
 20   9  11  ar  
 21   9  12  1   
 22  10  13  1   
 23  10  27  1   
 24  10  28  1   
 25  11  29  1   
 26  12  30  1   
 27  12  31  1   
 28  12  32  1   
 29  13  14  1   
 30  13  33  1   
 31  13  34  1   
 32  14  15  1   
 33  14  35  1   
 34  14  36  1   
 35  15  16  1   
 36  15  37  1   
 37  15  38  1   
 38  16  17  1   
 39  16  39  1   
 40  16  40  1   
 41  17  41  1   
@<TRIPOS>SUBSTRUCTURE
  1 ****   3 GROUP 4 **** **** 0

# MOE 2024.06 (io_trps.svl 2023.06)
