@<TRIPOS>MOLECULE
NONAME
38 39 1 0 0 
SMALL
USER_CHARGES


@<TRIPOS>ATOM
  1 I       -2.7530     2.2890    -3.4760 I     1 <1>  -0.0810 
  2 C       -2.6840     1.5320    -1.4780 C.ar  1 <1>   0.0810 
  3 C       -1.6540     1.9000    -0.6190 C.ar  1 <1>   0.0830 
  4 C       -3.7010     0.6760    -1.0990 C.ar  1 <1>  -0.1500 
  5 O       -0.6880     2.7480    -1.0620 O.3   1 <1>  -0.3630 
  6 C       -1.6730     1.3700     0.6670 C.ar  1 <1>  -0.1500 
  7 C       -3.7220     0.1530     0.1890 C.ar  1 <1>  -0.0090 
  8 C        0.3950     3.1320    -0.2440 C.3   1 <1>   0.0400 
  9 C       -2.6920     0.5120     1.0540 C.ar  1 <1>  -0.1500 
 10 S       -5.0450    -0.9710     0.7150 S.o2  1 <1>   1.4470 
 11 O       -5.1780    -0.9400     2.1560 O.2   1 <1>  -0.6500 
 12 O       -4.8750    -2.2430     0.0470 O.2   1 <1>  -0.6500 
 13 N       -6.4420    -0.2460     0.0830 N.am  1 <1>  -0.8490 
 14 C       -6.8080     0.9730     0.8120 C.3   1 <1>   0.1960 
 15 C       -7.5570    -1.1930     0.0200 C.3   1 <1>   0.1960 
 16 C       -7.9640     1.6820     0.1050 C.3   1 <1>  -0.1600 
 17 C       -8.7500    -0.5600    -0.7020 C.3   1 <1>  -0.1600 
 18 C       -9.1830     0.7540    -0.0310 C.3   1 <1>  -0.0190 
 19 C      -10.3200     1.4240    -0.8000 C.2   1 <1>   0.5690 
 20 O      -10.1370     1.8590    -1.9070 O.2   1 <1>  -0.5700 
 21 N      -11.5360     1.5280    -0.2350 N.am  1 <1>  -0.8000 
 22 H       -4.4780     0.4140    -1.7970 H     1 <1>   0.1500 
 23 H       -0.9070     1.6100     1.3800 H     1 <1>   0.1500 
 24 H        1.0250     3.7910    -0.8150 H     1 <1>   0.0800 
 25 H        0.9480     2.2540     0.0390 H     1 <1>   0.0800 
 26 H        0.0160     3.6480     0.6200 H     1 <1>   0.0800 
 27 H       -2.6880     0.1110     2.0550 H     1 <1>   0.1500 
 28 H       -5.9640     1.6410     0.8520 H     1 <1>   0.0800 
 29 H       -7.0910     0.7270     1.8230 H     1 <1>   0.0800 
 30 H       -7.8370    -1.4950     1.0160 H     1 <1>   0.0800 
 31 H       -7.2590    -2.0730    -0.5260 H     1 <1>   0.0800 
 32 H       -7.6330     1.9970    -0.8710 H     1 <1>   0.0800 
 33 H       -8.2370     2.5620     0.6580 H     1 <1>   0.0800 
 34 H       -9.5720    -1.2530    -0.7090 H     1 <1>   0.0800 
 35 H       -8.4730    -0.3710    -1.7250 H     1 <1>   0.0800 
 36 H       -9.5370     0.5240     0.9580 H     1 <1>   0.0800 
 37 H      -12.2860     1.9760    -0.7640 H     1 <1>   0.3700 
 38 H      -11.7770     1.1840     0.6930 H     1 <1>   0.3700 
@<TRIPOS>BOND
  1   1   2  1   
  2   2   3  ar  
  3   2   4  ar  
  4   3   5  1   
  5   3   6  ar  
  6   4   7  ar  
  7   4  22  1   
  8   5   8  1   
  9   6   9  ar  
 10   6  23  1   
 11   7   9  ar  
 12   7  10  1   
 13   8  24  1   
 14   8  25  1   
 15   8  26  1   
 16   9  27  1   
 17  10  11  2   
 18  10  12  2   
 19  10  13  am  
 20  13  14  1   
 21  13  15  1   
 22  14  16  1   
 23  14  28  1   
 24  14  29  1   
 25  15  17  1   
 26  15  30  1   
 27  15  31  1   
 28  16  18  1   
 29  16  32  1   
 30  16  33  1   
 31  17  18  1   
 32  17  34  1   
 33  17  35  1   
 34  18  19  1   
 35  18  36  1   
 36  19  20  2   
 37  19  21  am  
 38  21  37  1   
 39  21  38  1   
@<TRIPOS>SUBSTRUCTURE
  1 ****  13 GROUP 4 **** **** 0

# MOE 2024.06 (io_trps.svl 2023.06)
