@<TRIPOS>MOLECULE
NONAME
49 51 1 0 0 
SMALL
USER_CHARGES


@<TRIPOS>ATOM
  1 N       -0.1150     0.0520    -0.2590 N.4   1 <1>  -0.9590 
  2 C        1.0900     0.6950     0.3550 C.3   1 <1>   0.4230 
  3 C       -1.4010     0.7490     0.1190 C.3   1 <1>   0.3430 
  4 C       -0.2340    -1.4140     0.0810 C.3   1 <1>   0.3430 
  5 C        1.1720     2.1770    -0.0590 C.3   1 <1>  -0.1600 
  6 C        2.3700    -0.0450    -0.0800 C.3   1 <1>  -0.1600 
  7 C       -2.6390     0.0780    -0.5060 C.3   1 <1>   0.1100 
  8 C       -1.4850    -2.0660    -0.5440 C.3   1 <1>   0.1100 
  9 C        2.4480     2.8550     0.4610 C.3   1 <1>  -0.1600 
 10 C        3.6420     0.6400     0.4400 C.3   1 <1>  -0.1600 
 11 N       -2.7090    -1.3530    -0.1470 N.3   1 <1>  -0.8100 
 12 C        3.7080     2.1090     0.0050 C.3   1 <1>  -0.0800 
 13 C       -3.9200    -2.0070    -0.6870 C.3   1 <1>   0.2530 
 14 C        4.9620     2.7790     0.5770 C.3   1 <1>  -0.2400 
 15 C       -5.1800    -1.3290    -0.1690 C.ar  1 <1>  -0.1430 
 16 C       -6.0740    -0.7340    -1.0460 C.ar  1 <1>  -0.1500 
 17 C       -5.4420    -1.2960     1.1930 C.ar  1 <1>  -0.1500 
 18 C       -7.2140    -0.1100    -0.5670 C.ar  1 <1>  -0.1500 
 19 C       -6.5800    -0.6740     1.6730 C.ar  1 <1>  -0.1500 
 20 C       -7.4670    -0.0790     0.7930 C.ar  1 <1>  -0.1500 
 21 H       -0.0150     0.1260    -1.2770 H     1 <1>   0.4500 
 22 H        1.0140     0.6440     1.4300 H     1 <1>   0.0800 
 23 H       -1.3770     1.7760    -0.2040 H     1 <1>   0.0800 
 24 H       -1.5170     0.7390     1.1900 H     1 <1>   0.0800 
 25 H       -0.2900    -1.5340     1.1500 H     1 <1>   0.0800 
 26 H        0.6340    -1.9470    -0.2680 H     1 <1>   0.0800 
 27 H        0.3410     2.7300     0.3390 H     1 <1>   0.0800 
 28 H        1.1570     2.2560    -1.1320 H     1 <1>   0.0800 
 29 H        2.4190    -0.0850    -1.1540 H     1 <1>   0.0800 
 30 H        2.3770    -1.0490     0.3030 H     1 <1>   0.0800 
 31 H       -2.6190     0.1930    -1.5760 H     1 <1>   0.0800 
 32 H       -3.5120     0.5880    -0.1350 H     1 <1>   0.0800 
 33 H       -1.5460    -3.0870    -0.2060 H     1 <1>   0.0800 
 34 H       -1.3920    -2.0760    -1.6170 H     1 <1>   0.0800 
 35 H        2.4220     2.8930     1.5370 H     1 <1>   0.0800 
 36 H        2.4850     3.8700     0.1010 H     1 <1>   0.0800 
 37 H        4.5070     0.1180     0.0660 H     1 <1>   0.0800 
 38 H        3.6680     0.5820     1.5160 H     1 <1>   0.0800 
 39 H        3.7680     2.1520    -1.0710 H     1 <1>   0.0800 
 40 H       -3.9390    -3.0390    -0.3780 H     1 <1>   0.0800 
 41 H       -3.9040    -1.9820    -1.7640 H     1 <1>   0.0800 
 42 H        4.9510     2.7630     1.6530 H     1 <1>   0.0800 
 43 H        5.0200     3.8030     0.2510 H     1 <1>   0.0800 
 44 H        5.8470     2.2700     0.2370 H     1 <1>   0.0800 
 45 H       -5.8940    -0.7520    -2.1070 H     1 <1>   0.1500 
 46 H       -4.7530    -1.7550     1.8810 H     1 <1>   0.1500 
 47 H       -7.9050     0.3490    -1.2520 H     1 <1>   0.1500 
 48 H       -6.7780    -0.6530     2.7310 H     1 <1>   0.1500 
 49 H       -8.3530     0.4050     1.1650 H     1 <1>   0.1500 
@<TRIPOS>BOND
  1   1   2  1   
  2   1   3  1   
  3   1   4  1   
  4   1  21  1   
  5   2   5  1   
  6   2   6  1   
  7   2  22  1   
  8   3   7  1   
  9   3  23  1   
 10   3  24  1   
 11   4   8  1   
 12   4  25  1   
 13   4  26  1   
 14   5   9  1   
 15   5  27  1   
 16   5  28  1   
 17   6  10  1   
 18   6  29  1   
 19   6  30  1   
 20   7  11  1   
 21   7  31  1   
 22   7  32  1   
 23   8  11  1   
 24   8  33  1   
 25   8  34  1   
 26   9  12  1   
 27   9  35  1   
 28   9  36  1   
 29  10  12  1   
 30  10  37  1   
 31  10  38  1   
 32  11  13  1   
 33  12  14  1   
 34  12  39  1   
 35  13  15  1   
 36  13  40  1   
 37  13  41  1   
 38  14  42  1   
 39  14  43  1   
 40  14  44  1   
 41  15  16  ar  
 42  15  17  ar  
 43  16  18  ar  
 44  16  45  1   
 45  17  19  ar  
 46  17  46  1   
 47  18  20  ar  
 48  18  47  1   
 49  19  20  ar  
 50  19  48  1   
 51  20  49  1   
@<TRIPOS>SUBSTRUCTURE
  1 ****   3 GROUP 4 **** **** 0

# MOE 2024.06 (io_trps.svl 2023.06)
