@<TRIPOS>MOLECULE
NONAME
38 39 1 0 0 
SMALL
USER_CHARGES


@<TRIPOS>ATOM
  1 O       -0.6680    -3.9770    -0.7610 O.2   1 <1>  -0.5700 
  2 C       -1.6700    -3.9090    -0.0770 C.2   1 <1>   0.5440 
  3 N       -1.6580    -3.1170     1.0410 N.am  1 <1>  -0.7300 
  4 C       -2.8570    -4.6570    -0.4390 C.ar  1 <1>   0.0860 
  5 C       -0.6070    -2.1930     1.5420 C.3   1 <1>   0.1400 
  6 C       -3.1160    -4.9650    -1.7740 C.ar  1 <1>   0.1600 
  7 C       -3.7820    -5.1030     0.5000 C.ar  1 <1>  -0.1500 
  8 C        0.7660    -2.8700     1.6500 C.3   1 <1>  -0.1600 
  9 N       -4.1660    -5.6320    -2.2280 N.ar  1 <1>  -0.6200 
 10 C       -4.8810    -5.8000     0.0470 C.ar  1 <1>  -0.1500 
 11 C        1.6200    -2.5980     0.4070 C.3   1 <1>   0.3430 
 12 C       -5.0270    -6.0350    -1.3090 C.ar  1 <1>   0.1600 
 13 N        2.6830    -3.6290     0.2730 N.4   1 <1>  -0.9590 
 14 C        3.8280    -3.1310    -0.5600 C.3   1 <1>   0.3430 
 15 C        2.1180    -4.8790    -0.3520 C.3   1 <1>   0.3430 
 16 C        4.8670    -4.2420    -0.8060 C.3   1 <1>   0.1200 
 17 C        3.2170    -5.9240    -0.6250 C.3   1 <1>   0.1200 
 18 O        4.2560    -5.3620    -1.3780 O.3   1 <1>  -0.5600 
 19 H       -2.5570    -3.0000     1.5190 H     1 <1>   0.3700 
 20 H       -0.9030    -1.8640     2.5250 H     1 <1>   0.0800 
 21 H       -0.5630    -1.3210     0.9100 H     1 <1>   0.0800 
 22 H       -2.4070    -4.6320    -2.5130 H     1 <1>   0.1500 
 23 H       -3.6480    -4.9220     1.5510 H     1 <1>   0.1500 
 24 H        0.6230    -3.9210     1.8210 H     1 <1>   0.0800 
 25 H        1.2810    -2.4590     2.5000 H     1 <1>   0.0800 
 26 H       -5.6240    -6.1650     0.7350 H     1 <1>   0.1500 
 27 H        2.0610    -1.6190     0.4970 H     1 <1>   0.0800 
 28 H        1.0060    -2.5970    -0.4790 H     1 <1>   0.0800 
 29 H       -5.8890    -6.5800    -1.6540 H     1 <1>   0.1500 
 30 H        3.0380    -3.8690     1.2050 H     1 <1>   0.4500 
 31 H        4.3060    -2.2980    -0.0710 H     1 <1>   0.0800 
 32 H        3.4630    -2.7910    -1.5160 H     1 <1>   0.0800 
 33 H        1.6400    -4.6340    -1.2870 H     1 <1>   0.0800 
 34 H        1.3640    -5.3070     0.2880 H     1 <1>   0.0800 
 35 H        5.3470    -4.5380     0.1100 H     1 <1>   0.0800 
 36 H        5.6220    -3.8980    -1.4920 H     1 <1>   0.0800 
 37 H        2.8120    -6.7450    -1.1900 H     1 <1>   0.0800 
 38 H        3.6240    -6.3080     0.2940 H     1 <1>   0.0800 
@<TRIPOS>BOND
  1   1   2  2   
  2   2   3  am  
  3   2   4  1   
  4   3   5  1   
  5   3  19  1   
  6   4   6  ar  
  7   4   7  ar  
  8   5   8  1   
  9   5  20  1   
 10   5  21  1   
 11   6   9  ar  
 12   6  22  1   
 13   7  10  ar  
 14   7  23  1   
 15   8  11  1   
 16   8  24  1   
 17   8  25  1   
 18   9  12  ar  
 19  10  12  ar  
 20  10  26  1   
 21  11  13  1   
 22  11  27  1   
 23  11  28  1   
 24  12  29  1   
 25  13  14  1   
 26  13  15  1   
 27  13  30  1   
 28  14  16  1   
 29  14  31  1   
 30  14  32  1   
 31  15  17  1   
 32  15  33  1   
 33  15  34  1   
 34  16  18  1   
 35  16  35  1   
 36  16  36  1   
 37  17  18  1   
 38  17  37  1   
 39  17  38  1   
@<TRIPOS>SUBSTRUCTURE
  1 ****   1 GROUP 4 **** **** 0

# MOE 2024.06 (io_trps.svl 2023.06)
