@<TRIPOS>MOLECULE
NONAME
44 44 1 0 0 
SMALL
USER_CHARGES


@<TRIPOS>ATOM
  1 O       -2.2650     3.2260     1.7560 O.co2 1 <1>  -0.9000 
  2 C       -1.3700     3.5470     0.9650 C.2   1 <1>   1.0330 
  3 O       -0.3670     2.8130     0.8670 O.co2 1 <1>  -0.9000 
  4 C       -1.4100     4.7900     0.2120 C.2   1 <1>  -0.2330 
  5 C       -2.3790     5.7440     0.1490 C.2   1 <1>  -0.0400 
  6 C       -0.4000     5.2770    -0.6550 C.2   1 <1>  -0.1810 
  7 O       -2.0330     6.7210    -0.6610 O.3   1 <1>  -0.2800 
  8 C       -3.7250     5.8220     0.8520 C.3   1 <1>   0.0200 
  9 C       -0.8490     6.4470    -1.1540 C.2   1 <1>  -0.0400 
 10 C        0.9070     4.5660    -0.9320 C.3   1 <1>   0.5240 
 11 C       -4.8500     5.1390     0.0510 C.3   1 <1>  -0.0800 
 12 C       -0.2540     7.4360    -2.1340 C.3   1 <1>  -0.0600 
 13 N        1.9610     5.1280    -0.0360 N.4   1 <1>  -0.9590 
 14 C       -5.0940     5.8160    -1.3060 C.3   1 <1>  -0.2400 
 15 C       -6.1510     5.1280     0.8640 C.3   1 <1>  -0.2400 
 16 C        3.3170     4.7610    -0.5040 C.3   1 <1>   0.3430 
 17 C        1.6990     4.6660     1.3580 C.3   1 <1>   0.3430 
 18 C        3.6800     5.5840    -1.7360 C.3   1 <1>  -0.2400 
 19 C        2.5700     5.4280     2.3510 C.3   1 <1>  -0.2400 
 20 H       -3.9690     6.8530     1.0340 H     1 <1>   0.0800 
 21 H       -3.6370     5.3380     1.8080 H     1 <1>   0.0800 
 22 H        1.1680     4.7370    -1.9610 H     1 <1>   0.0800 
 23 H        0.8070     3.5030    -0.7900 H     1 <1>   0.0800 
 24 H       -4.5530     4.1170    -0.1220 H     1 <1>   0.0800 
 25 H       -0.1540     8.3950    -1.6600 H     1 <1>   0.0800 
 26 H       -0.9120     7.5380    -2.9790 H     1 <1>   0.0800 
 27 H        0.7080     7.1080    -2.4780 H     1 <1>   0.0800 
 28 H        1.8230     6.1420    -0.0450 H     1 <1>   0.4500 
 29 H       -5.3400     6.8540    -1.1720 H     1 <1>   0.0800 
 30 H       -5.8990     5.3300    -1.8260 H     1 <1>   0.0800 
 31 H       -4.2130     5.7490    -1.9190 H     1 <1>   0.0800 
 32 H       -6.4790     6.1320     1.0700 H     1 <1>   0.0800 
 33 H       -5.9950     4.6150     1.7970 H     1 <1>   0.0800 
 34 H       -6.9240     4.6140     0.3230 H     1 <1>   0.0800 
 35 H        3.3580     3.7060    -0.7270 H     1 <1>   0.0800 
 36 H        4.0390     4.9670     0.2690 H     1 <1>   0.0800 
 37 H        1.8600     3.6010     1.4400 H     1 <1>   0.0800 
 38 H        0.6670     4.8500     1.6100 H     1 <1>   0.0800 
 39 H        3.0540     5.3410    -2.5740 H     1 <1>   0.0800 
 40 H        4.6960     5.3650    -2.0140 H     1 <1>   0.0800 
 41 H        3.6140     6.6360    -1.5230 H     1 <1>   0.0800 
 42 H        3.6080     5.1720     2.2490 H     1 <1>   0.0800 
 43 H        2.2660     5.1570     3.3470 H     1 <1>   0.0800 
 44 H        2.4350     6.4880     2.2400 H     1 <1>   0.0800 
@<TRIPOS>BOND
  1   1   2  ar  
  2   2   3  ar  
  3   2   4  1   
  4   4   5  2   
  5   4   6  1   
  6   5   7  1   
  7   5   8  1   
  8   6   9  2   
  9   6  10  1   
 10   7   9  1   
 11   8  11  1   
 12   8  20  1   
 13   8  21  1   
 14   9  12  1   
 15  10  13  1   
 16  10  22  1   
 17  10  23  1   
 18  11  14  1   
 19  11  15  1   
 20  11  24  1   
 21  12  25  1   
 22  12  26  1   
 23  12  27  1   
 24  13  16  1   
 25  13  17  1   
 26  13  28  1   
 27  14  29  1   
 28  14  30  1   
 29  14  31  1   
 30  15  32  1   
 31  15  33  1   
 32  15  34  1   
 33  16  18  1   
 34  16  35  1   
 35  16  36  1   
 36  17  19  1   
 37  17  37  1   
 38  17  38  1   
 39  18  39  1   
 40  18  40  1   
 41  18  41  1   
 42  19  42  1   
 43  19  43  1   
 44  19  44  1   
@<TRIPOS>SUBSTRUCTURE
  1 ****   4 GROUP 4 **** **** 0

# MOE 2024.06 (io_trps.svl 2023.06)
