@<TRIPOS>MOLECULE
NONAME
25 25 1 0 0 
SMALL
USER_CHARGES


@<TRIPOS>ATOM
  1 S       -0.1640    -0.0320     0.4160 S.3   1 <1>  -0.3710 
  2 C        1.3410     0.8270    -0.0530 C.2   1 <1>   0.6510 
  3 C       -1.4790     1.2300     0.1250 C.3   1 <1>   0.0700 
  4 N        1.2060     2.0420    -0.4320 N.2   1 <1>  -0.6210 
  5 N        2.5240     0.1240     0.0360 N.am  1 <1>  -0.4200 
  6 C       -2.8240     0.6020     0.4850 C.3   1 <1>  -0.2400 
  7 C        2.3340     2.7230    -0.7950 C.2   1 <1>   0.0210 
  8 C        3.6770     0.7930    -0.3410 C.2   1 <1>   0.6160 
  9 C        2.6070    -1.2760     0.5070 C.3   1 <1>   0.2780 
 10 O        2.2000     3.8940    -1.1510 O.3   1 <1>  -0.8500 
 11 C        3.5680     2.1070    -0.7570 C.2   1 <1>  -0.1360 
 12 O        4.7680     0.1940    -0.2880 O.2   1 <1>  -0.5700 
 13 C        2.4570    -2.2230    -0.6720 C.2   1 <1>  -0.2880 
 14 C        1.4790    -3.1210    -0.8280 C.2   1 <1>  -0.3000 
 15 H       -1.4270     1.5130    -0.9130 H     1 <1>   0.0800 
 16 H       -1.2490     2.0810     0.7440 H     1 <1>   0.0800 
 17 H       -3.0030    -0.2600    -0.1320 H     1 <1>   0.0800 
 18 H       -3.6110     1.3150     0.3240 H     1 <1>   0.0800 
 19 H       -2.8270     0.3060     1.5180 H     1 <1>   0.0800 
 20 H        1.8510    -1.4700     1.2450 H     1 <1>   0.0800 
 21 H        3.5570    -1.4460     0.9830 H     1 <1>   0.0800 
 22 H        4.4350     2.6580    -1.0510 H     1 <1>   0.1500 
 23 H        3.2450    -2.0860    -1.3940 H     1 <1>   0.1500 
 24 H        1.3980    -3.7770    -1.6770 H     1 <1>   0.1500 
 25 H        0.6760    -3.2690    -0.1260 H     1 <1>   0.1500 
@<TRIPOS>BOND
  1   1   2  1   
  2   1   3  1   
  3   2   4  2   
  4   2   5  1   
  5   3   6  1   
  6   3  15  1   
  7   3  16  1   
  8   4   7  1   
  9   5   8  am  
 10   5   9  1   
 11   6  17  1   
 12   6  18  1   
 13   6  19  1   
 14   7  10  1   
 15   7  11  2   
 16   8  11  1   
 17   8  12  2   
 18   9  13  1   
 19   9  20  1   
 20   9  21  1   
 21  11  22  1   
 22  13  14  2   
 23  13  23  1   
 24  14  24  1   
 25  14  25  1   
@<TRIPOS>SUBSTRUCTURE
  1 ****   2 GROUP 4 **** **** 0

# MOE 2024.06 (io_trps.svl 2023.06)
