@<TRIPOS>MOLECULE
NONAME
46 47 1 0 0 
SMALL
USER_CHARGES


@<TRIPOS>ATOM
  1 N       -0.0490     0.0320    -0.1340 N.4   1 <1>  -0.9590 
  2 C        1.3830    -0.4440    -0.2270 C.3   1 <1>   0.3430 
  3 C       -0.9720    -1.0710    -0.5380 C.3   1 <1>   0.3430 
  4 C       -0.3340     1.2560    -0.9450 C.3   1 <1>   0.3430 
  5 C        2.4460     0.5230     0.3730 C.3   1 <1>   0.3430 
  6 C       -2.3530    -0.8190     0.0560 C.3   1 <1>  -0.2400 
  7 C       -0.3260     2.4720    -0.0280 C.3   1 <1>  -0.2400 
  8 N        3.8600    -0.0130     0.3770 N.4   1 <1>  -0.9590 
  9 C        4.7800     0.8900     1.1860 C.3   1 <1>   0.4230 
 10 C        4.3970    -0.2720    -1.0140 C.3   1 <1>   0.2630 
 11 C        5.0940     2.2240     0.4680 C.3   1 <1>  -0.0170 
 12 C        6.1570     0.2210     1.3920 C.3   1 <1>  -0.0170 
 13 C        6.4010     1.9400    -0.2290 C.ar  1 <1>  -0.1440 
 14 C        6.9970     0.8160     0.2890 C.ar  1 <1>  -0.1440 
 15 C        6.9960     2.6470    -1.2570 C.ar  1 <1>  -0.1500 
 16 C        8.2040     0.3620    -0.2060 C.ar  1 <1>  -0.1500 
 17 C        8.2060     2.1980    -1.7620 C.ar  1 <1>  -0.1500 
 18 C        8.8070     1.0610    -1.2400 C.ar  1 <1>  -0.1500 
 19 H       -0.3010     0.2470     0.8430 H     1 <1>   0.4500 
 20 H        1.6210    -0.6210    -1.2640 H     1 <1>   0.0800 
 21 H        1.4610    -1.3850     0.2930 H     1 <1>   0.0800 
 22 H       -0.6070    -2.0150    -0.1630 H     1 <1>   0.0800 
 23 H       -1.0360    -1.1380    -1.6130 H     1 <1>   0.0800 
 24 H       -1.3080     1.1800    -1.4020 H     1 <1>   0.0800 
 25 H        0.3910     1.3710    -1.7360 H     1 <1>   0.0800 
 26 H        2.1610     0.7460     1.3880 H     1 <1>   0.0800 
 27 H        2.4260     1.4440    -0.1870 H     1 <1>   0.0800 
 28 H       -2.3090    -0.7690     1.1300 H     1 <1>   0.0800 
 29 H       -3.0010    -1.6370    -0.2060 H     1 <1>   0.0800 
 30 H       -2.7980     0.0810    -0.3300 H     1 <1>   0.0800 
 31 H       -1.0790     2.3770     0.7350 H     1 <1>   0.0800 
 32 H       -0.5660     3.3470    -0.6090 H     1 <1>   0.0800 
 33 H        0.6320     2.6370     0.4250 H     1 <1>   0.0800 
 34 H        3.8820    -0.9160     0.8770 H     1 <1>   0.4500 
 35 H        4.3330     1.0870     2.1470 H     1 <1>   0.0800 
 36 H        4.4440     0.6440    -1.5810 H     1 <1>   0.0800 
 37 H        3.7790    -0.9780    -1.5440 H     1 <1>   0.0800 
 38 H        5.3960    -0.6770    -0.9630 H     1 <1>   0.0800 
 39 H        5.2640     2.9980     1.1960 H     1 <1>   0.0800 
 40 H        4.3300     2.5430    -0.2160 H     1 <1>   0.0800 
 41 H        6.1210    -0.8520     1.3480 H     1 <1>   0.0800 
 42 H        6.5740     0.5250     2.3360 H     1 <1>   0.0800 
 43 H        6.5390     3.5330    -1.6630 H     1 <1>   0.1500 
 44 H        8.6780    -0.5150     0.2010 H     1 <1>   0.1500 
 45 H        8.6870     2.7350    -2.5620 H     1 <1>   0.1500 
 46 H        9.7490     0.7250    -1.6370 H     1 <1>   0.1500 
@<TRIPOS>BOND
  1   1   2  1   
  2   1   3  1   
  3   1   4  1   
  4   1  19  1   
  5   2   5  1   
  6   2  20  1   
  7   2  21  1   
  8   3   6  1   
  9   3  22  1   
 10   3  23  1   
 11   4   7  1   
 12   4  24  1   
 13   4  25  1   
 14   5   8  1   
 15   5  26  1   
 16   5  27  1   
 17   6  28  1   
 18   6  29  1   
 19   6  30  1   
 20   7  31  1   
 21   7  32  1   
 22   7  33  1   
 23   8   9  1   
 24   8  10  1   
 25   8  34  1   
 26   9  11  1   
 27   9  12  1   
 28   9  35  1   
 29  10  36  1   
 30  10  37  1   
 31  10  38  1   
 32  11  13  1   
 33  11  39  1   
 34  11  40  1   
 35  12  14  1   
 36  12  41  1   
 37  12  42  1   
 38  13  14  ar  
 39  13  15  ar  
 40  14  16  ar  
 41  15  17  ar  
 42  15  43  1   
 43  16  18  ar  
 44  16  44  1   
 45  17  18  ar  
 46  17  45  1   
 47  18  46  1   
@<TRIPOS>SUBSTRUCTURE
  1 ****   8 GROUP 4 **** **** 0

# MOE 2024.06 (io_trps.svl 2023.06)
