@<TRIPOS>MOLECULE
NONAME
40 40 1 0 0 
SMALL
USER_CHARGES


@<TRIPOS>ATOM
  1 S        1.0210    -0.3490    -0.8890 S.o2  1 <1>   0.8600 
  2 O        1.2460    -0.5060    -2.3160 O.co2 1 <1>  -0.6500 
  3 O        0.7510    -1.5370    -0.0980 O.co2 1 <1>  -0.6500 
  4 N        2.2560     0.5560    -0.1700 N.2   1 <1>  -0.3590 
  5 C       -0.4030     0.7110    -0.7020 C.3   1 <1>  -0.1350 
  6 N        2.2100     1.8420    -0.0530 N.2   1 <1>  -0.7560 
  7 C        3.2390     2.4710     0.5080 C.2   1 <1>   0.3030 
  8 C        3.2580     3.8930     0.6120 C.ar  1 <1>   0.0860 
  9 C        4.4370     1.6690     1.0550 C.3   1 <1>  -0.0990 
 10 C        2.1190     4.6540     0.2730 C.ar  1 <1>  -0.1500 
 11 C        4.3720     4.6510     1.0390 C.ar  1 <1>  -0.1500 
 12 C        5.5170     1.4630    -0.0200 C.3   1 <1>  -0.1600 
 13 C        2.0820     6.0290     0.3680 C.ar  1 <1>  -0.1500 
 14 C        4.3410     6.0270     1.1370 C.ar  1 <1>  -0.1500 
 15 C        6.7310     0.7120     0.5390 C.3   1 <1>  -0.1600 
 16 C        3.1940     6.7270     0.8040 C.ar  1 <1>  -0.1500 
 17 C        7.8010     0.5130    -0.5420 C.3   1 <1>  -0.1600 
 18 C        9.0180    -0.2360     0.0130 C.3   1 <1>  -0.1600 
 19 C       10.0840    -0.4330    -1.0680 C.3   1 <1>  -0.2400 
 20 H       -0.2420     1.6310    -1.2290 H     1 <1>   0.0800 
 21 H       -0.5560     0.9340     0.3350 H     1 <1>   0.0800 
 22 H       -1.2770     0.2310    -1.0940 H     1 <1>   0.0800 
 23 H        4.8500     2.1620     1.9120 H     1 <1>   0.0800 
 24 H        4.1100     0.7110     1.4160 H     1 <1>   0.0800 
 25 H        1.2450     4.1290    -0.0720 H     1 <1>   0.1500 
 26 H        5.2890     4.1560     1.2890 H     1 <1>   0.1500 
 27 H        5.0820     0.9000    -0.8300 H     1 <1>   0.0800 
 28 H        5.8230     2.4170    -0.4110 H     1 <1>   0.0800 
 29 H        1.1860     6.5610     0.1000 H     1 <1>   0.1500 
 30 H        5.2120     6.5650     1.4690 H     1 <1>   0.1500 
 31 H        7.1490     1.2650     1.3620 H     1 <1>   0.0800 
 32 H        6.4110    -0.2490     0.9060 H     1 <1>   0.0800 
 33 H        3.1680     7.8000     0.8810 H     1 <1>   0.1500 
 34 H        7.3770    -0.0460    -1.3590 H     1 <1>   0.0800 
 35 H        8.1100     1.4730    -0.9190 H     1 <1>   0.0800 
 36 H        9.4410     0.3190     0.8330 H     1 <1>   0.0800 
 37 H        8.7080    -1.1980     0.3860 H     1 <1>   0.0800 
 38 H       10.4210     0.5180    -1.4410 H     1 <1>   0.0800 
 39 H        9.6860    -1.0050    -1.8870 H     1 <1>   0.0800 
 40 H       10.9290    -0.9600    -0.6600 H     1 <1>   0.0800 
@<TRIPOS>BOND
  1   1   2  ar  
  2   1   3  ar  
  3   1   4  2   
  4   1   5  1   
  5   4   6  1   
  6   5  20  1   
  7   5  21  1   
  8   5  22  1   
  9   6   7  2   
 10   7   8  1   
 11   7   9  1   
 12   8  10  ar  
 13   8  11  ar  
 14   9  12  1   
 15   9  23  1   
 16   9  24  1   
 17  10  13  ar  
 18  10  25  1   
 19  11  14  ar  
 20  11  26  1   
 21  12  15  1   
 22  12  27  1   
 23  12  28  1   
 24  13  16  ar  
 25  13  29  1   
 26  14  16  ar  
 27  14  30  1   
 28  15  17  1   
 29  15  31  1   
 30  15  32  1   
 31  16  33  1   
 32  17  18  1   
 33  17  34  1   
 34  17  35  1   
 35  18  19  1   
 36  18  36  1   
 37  18  37  1   
 38  19  38  1   
 39  19  39  1   
 40  19  40  1   
@<TRIPOS>SUBSTRUCTURE
  1 ****   7 GROUP 4 **** **** 0

# MOE 2024.06 (io_trps.svl 2023.06)
