@<TRIPOS>MOLECULE
NONAME
42 43 1 0 0 
SMALL
USER_CHARGES


@<TRIPOS>ATOM
  1 CL       0.2010     2.2490     1.7770 Cl    1 <1>  -0.1770 
  2 C       -0.0540     1.9690     0.0700 C.ar  1 <1>   0.1770 
  3 C        0.9580     2.1310    -0.8810 C.ar  1 <1>  -0.1440 
  4 C       -1.3290     1.5740    -0.2900 C.ar  1 <1>  -0.1500 
  5 C        0.6460     1.8720    -2.2140 C.ar  1 <1>  -0.1500 
  6 C        2.3980     2.5640    -0.5700 C.3   1 <1>   0.3440 
  7 C       -1.6030     1.3320    -1.6190 C.ar  1 <1>   0.1770 
  8 C       -0.6280     1.4760    -2.5860 C.ar  1 <1>  -0.1500 
  9 O        2.8430     1.9230     0.5960 O.3   1 <1>  -0.4300 
 10 C        2.6480     4.0880    -0.4760 C.3   1 <1>   0.0610 
 11 CL      -3.2080     0.8350    -2.0880 Cl    1 <1>  -0.1770 
 12 C        3.9550     2.2260     1.2520 C.2   1 <1>   0.6590 
 13 C        4.1580     4.2470    -0.2440 C.2   1 <1>   0.4480 
 14 C        1.8770     4.7840     0.6680 C.3   1 <1>  -0.2400 
 15 C        2.2170     4.7730    -1.7960 C.3   1 <1>  -0.2400 
 16 O        4.2350     1.5950     2.2350 O.2   1 <1>  -0.5700 
 17 C        4.8510     3.3560     0.7730 C.3   1 <1>   0.1830 
 18 O        4.7880     5.0640    -0.8500 O.2   1 <1>  -0.5700 
 19 C        5.9660     2.6450     0.0360 C.2   1 <1>   0.6590 
 20 C        5.3580     4.2230     1.9620 C.3   1 <1>  -0.2400 
 21 O        7.1150     2.6770     0.3980 O.2   1 <1>  -0.5700 
 22 O        5.5920     1.9540    -1.0410 O.3   1 <1>  -0.4300 
 23 C        6.4920     1.1750    -1.7980 C.3   1 <1>   0.1200 
 24 C        6.5690    -0.2170    -1.1760 C.3   1 <1>  -0.2400 
 25 H       -2.0950     1.4550     0.4540 H     1 <1>   0.1500 
 26 H        1.3950     1.9760    -2.9820 H     1 <1>   0.1500 
 27 H        3.0190     2.1800    -1.3620 H     1 <1>   0.0800 
 28 H       -0.8680     1.2780    -3.6160 H     1 <1>   0.1500 
 29 H        2.1500     5.8250     0.7170 H     1 <1>   0.0800 
 30 H        0.8160     4.7300     0.5010 H     1 <1>   0.0800 
 31 H        2.0930     4.3400     1.6230 H     1 <1>   0.0800 
 32 H        1.1580     4.6760    -1.9590 H     1 <1>   0.0800 
 33 H        2.4490     5.8250    -1.7660 H     1 <1>   0.0800 
 34 H        2.7370     4.3460    -2.6350 H     1 <1>   0.0800 
 35 H        5.9010     3.6150     2.6670 H     1 <1>   0.0800 
 36 H        6.0210     4.9930     1.6060 H     1 <1>   0.0800 
 37 H        4.5340     4.6860     2.4740 H     1 <1>   0.0800 
 38 H        7.4580     1.6550    -1.8140 H     1 <1>   0.0800 
 39 H        6.1130     1.1180    -2.8040 H     1 <1>   0.0800 
 40 H        6.9610    -0.1580    -0.1760 H     1 <1>   0.0800 
 41 H        7.2250    -0.8380    -1.7590 H     1 <1>   0.0800 
 42 H        5.5950    -0.6730    -1.1550 H     1 <1>   0.0800 
@<TRIPOS>BOND
  1   1   2  1   
  2   2   3  ar  
  3   2   4  ar  
  4   3   5  ar  
  5   3   6  1   
  6   4   7  ar  
  7   4  25  1   
  8   5   8  ar  
  9   5  26  1   
 10   6   9  1   
 11   6  10  1   
 12   6  27  1   
 13   7   8  ar  
 14   7  11  1   
 15   8  28  1   
 16   9  12  1   
 17  10  13  1   
 18  10  14  1   
 19  10  15  1   
 20  12  16  2   
 21  12  17  1   
 22  13  17  1   
 23  13  18  2   
 24  14  29  1   
 25  14  30  1   
 26  14  31  1   
 27  15  32  1   
 28  15  33  1   
 29  15  34  1   
 30  17  19  1   
 31  17  20  1   
 32  19  21  2   
 33  19  22  1   
 34  20  35  1   
 35  20  36  1   
 36  20  37  1   
 37  22  23  1   
 38  23  24  1   
 39  23  38  1   
 40  23  39  1   
 41  24  40  1   
 42  24  41  1   
 43  24  42  1   
@<TRIPOS>SUBSTRUCTURE
  1 ****   6 GROUP 4 **** **** 0

# MOE 2024.06 (io_trps.svl 2023.06)
