@<TRIPOS>MOLECULE
NONAME
37 38 1 0 0 
SMALL
USER_CHARGES


@<TRIPOS>ATOM
  1 S        0.4300     0.8440     1.7970 S.o2  1 <1>   1.3330 
  2 O        1.8050     1.0560     2.1860 O.2   1 <1>  -0.6500 
  3 O        0.0820    -0.2860     0.9740 O.2   1 <1>  -0.6500 
  4 N       -0.0610     2.2800     0.9650 N.am  1 <1>  -0.6930 
  5 C       -0.5940     0.8810     3.2510 C.3   1 <1>  -0.1350 
  6 C       -1.2910     2.3490     0.3280 C.ar  1 <1>   0.1990 
  7 C        1.0300     3.1550     0.4300 C.3   1 <1>   0.2570 
  8 C       -1.5440     1.6230    -0.8310 C.ar  1 <1>  -0.1500 
  9 C       -2.2920     3.1610     0.8420 C.ar  1 <1>  -0.1500 
 10 C        1.8270     2.5360    -0.7230 C.2   1 <1>   0.5690 
 11 C       -2.7750     1.6900    -1.4730 C.ar  1 <1>  -0.1440 
 12 C       -3.5220     3.2410     0.2190 C.ar  1 <1>  -0.1500 
 13 O        1.6410     2.9530    -1.8440 O.2   1 <1>  -0.5700 
 14 N        2.7210     1.5460    -0.4540 N.am  1 <1>  -0.5790 
 15 C       -3.7620     2.5090    -0.9310 C.ar  1 <1>  -0.1500 
 16 C       -3.0660     0.8870    -2.7510 C.3   1 <1>   1.1630 
 17 C        3.4920     0.7850    -1.4420 C.3   1 <1>   0.0490 
 18 F       -2.0040     0.2670    -3.2490 F     1 <1>  -0.3400 
 19 F       -3.9820    -0.0510    -2.5440 F     1 <1>  -0.3400 
 20 F       -3.5390     1.6550    -3.7250 F     1 <1>  -0.3400 
 21 C        3.5230    -0.6990    -1.2940 C.3   1 <1>  -0.2000 
 22 C        4.7450     0.1150    -0.9870 C.3   1 <1>  -0.2000 
 23 H       -0.3710     0.0400     3.8790 H     1 <1>   0.0800 
 24 H       -1.6290     0.8380     2.9760 H     1 <1>   0.0800 
 25 H       -0.4180     1.7820     3.8060 H     1 <1>   0.0800 
 26 H        1.7090     3.4070     1.2240 H     1 <1>   0.0800 
 27 H        0.5950     4.0730     0.0750 H     1 <1>   0.0800 
 28 H       -0.7550     1.0010    -1.2210 H     1 <1>   0.1500 
 29 H       -2.1010     3.7320     1.7330 H     1 <1>   0.1500 
 30 H       -4.2940     3.8720     0.6240 H     1 <1>   0.1500 
 31 H        2.7800     1.1860     0.5090 H     1 <1>   0.3700 
 32 H       -4.7270     2.5800    -1.4070 H     1 <1>   0.1500 
 33 H        3.4490     1.2030    -2.4360 H     1 <1>   0.1000 
 34 H        3.5190    -1.3030    -2.1830 H     1 <1>   0.1000 
 35 H        2.9640    -1.1440    -0.4880 H     1 <1>   0.1000 
 36 H        5.0530     0.2260     0.0370 H     1 <1>   0.1000 
 37 H        5.5760     0.0580    -1.6680 H     1 <1>   0.1000 
@<TRIPOS>BOND
  1   1   2  2   
  2   1   3  2   
  3   1   4  am  
  4   1   5  1   
  5   4   6  1   
  6   4   7  1   
  7   5  23  1   
  8   5  24  1   
  9   5  25  1   
 10   6   8  ar  
 11   6   9  ar  
 12   7  10  1   
 13   7  26  1   
 14   7  27  1   
 15   8  11  ar  
 16   8  28  1   
 17   9  12  ar  
 18   9  29  1   
 19  10  13  2   
 20  10  14  am  
 21  11  15  ar  
 22  11  16  1   
 23  12  15  ar  
 24  12  30  1   
 25  14  17  1   
 26  14  31  1   
 27  15  32  1   
 28  16  18  1   
 29  16  19  1   
 30  16  20  1   
 31  17  21  1   
 32  17  22  1   
 33  17  33  1   
 34  21  22  1   
 35  21  34  1   
 36  21  35  1   
 37  22  36  1   
 38  22  37  1   
@<TRIPOS>SUBSTRUCTURE
  1 ****   8 GROUP 4 **** **** 0

# MOE 2024.06 (io_trps.svl 2023.06)
