@<TRIPOS>MOLECULE
NONAME
51 52 1 0 0 
SMALL
USER_CHARGES


@<TRIPOS>ATOM
  1 CL      -2.2690    -0.6540     1.3160 Cl    1 <1>  -0.1770 
  2 C       -1.6850     0.9810     1.0840 C.ar  1 <1>   0.1770 
  3 C       -1.2730     1.4080    -0.1760 C.ar  1 <1>   0.0830 
  4 C       -1.6770     1.8350     2.1700 C.ar  1 <1>  -0.1500 
  5 O       -1.3010     0.5390    -1.2170 O.3   1 <1>  -0.3630 
  6 C       -0.8390     2.7190    -0.3430 C.ar  1 <1>  -0.1500 
  7 C       -1.2540     3.1370     1.9790 C.ar  1 <1>   0.1770 
  8 C       -2.0040     0.9050    -2.3990 C.3   1 <1>   0.2610 
  9 C       -0.8340     3.5870     0.7390 C.ar  1 <1>  -0.1500 
 10 CL      -1.2570     4.2370     3.3330 Cl    1 <1>  -0.1770 
 11 C       -3.4960     1.1100    -2.0930 C.2   1 <1>   0.5690 
 12 C       -1.7690    -0.2080    -3.4240 C.3   1 <1>  -0.2400 
 13 O       -4.1010     2.0050    -2.6340 O.2   1 <1>  -0.5700 
 14 N       -4.1080     0.2960    -1.1890 N.am  1 <1>  -0.7300 
 15 C       -5.4800     0.4770    -0.7120 C.3   1 <1>   0.2200 
 16 C       -5.4600     1.4370     0.4720 C.3   1 <1>  -0.1600 
 17 C       -6.0390    -0.8710    -0.2710 C.3   1 <1>  -0.1600 
 18 C       -6.8550     1.6410     1.0710 C.3   1 <1>   0.5030 
 19 C       -7.4530    -0.7410     0.3110 C.3   1 <1>   0.5030 
 20 N       -7.5310     0.3520     1.2960 N.4   1 <1>  -0.9060 
 21 C       -7.7280     2.5510     0.2010 C.3   1 <1>  -0.2400 
 22 C       -6.7260     2.2840     2.4500 C.3   1 <1>  -0.2400 
 23 C       -7.8040    -2.0120     1.0810 C.3   1 <1>  -0.2400 
 24 C       -8.5080    -0.5390    -0.7800 C.3   1 <1>  -0.2400 
 25 H       -1.9900     1.5000     3.1410 H     1 <1>   0.1500 
 26 H       -0.4980     3.0660    -1.3020 H     1 <1>   0.1500 
 27 H       -1.5920     1.8240    -2.7730 H     1 <1>   0.0800 
 28 H       -0.5040     4.6050     0.6260 H     1 <1>   0.1500 
 29 H       -2.1580    -1.1420    -3.0610 H     1 <1>   0.0800 
 30 H       -0.7180    -0.3090    -3.6240 H     1 <1>   0.0800 
 31 H       -2.2690     0.0370    -4.3450 H     1 <1>   0.0800 
 32 H       -3.5170    -0.3760    -0.6860 H     1 <1>   0.3700 
 33 H       -6.0710     0.8840    -1.5170 H     1 <1>   0.0800 
 34 H       -5.0690     2.3880     0.1500 H     1 <1>   0.0800 
 35 H       -4.7960     1.0540     1.2260 H     1 <1>   0.0800 
 36 H       -5.3840    -1.2990     0.4670 H     1 <1>   0.0800 
 37 H       -6.0600    -1.5400    -1.1140 H     1 <1>   0.0800 
 38 H       -8.5170     0.5430     1.4780 H     1 <1>   0.4500 
 39 H       -7.1470    -0.0210     2.1660 H     1 <1>   0.4500 
 40 H       -7.7460     2.2440    -0.8250 H     1 <1>   0.0800 
 41 H       -7.3250     3.5490     0.2080 H     1 <1>   0.0800 
 42 H       -8.7340     2.6040     0.5760 H     1 <1>   0.0800 
 43 H       -6.1420     1.6740     3.1160 H     1 <1>   0.0800 
 44 H       -7.6930     2.4610     2.8900 H     1 <1>   0.0800 
 45 H       -6.2290     3.2360     2.3660 H     1 <1>   0.0800 
 46 H       -7.1080    -2.1920     1.8820 H     1 <1>   0.0800 
 47 H       -7.7640    -2.8630     0.4220 H     1 <1>   0.0800 
 48 H       -8.8010    -1.9610     1.4850 H     1 <1>   0.0800 
 49 H       -8.2560     0.2540    -1.4550 H     1 <1>   0.0800 
 50 H       -9.4780    -0.3520    -0.3570 H     1 <1>   0.0800 
 51 H       -8.5820    -1.4310    -1.3790 H     1 <1>   0.0800 
@<TRIPOS>BOND
  1   1   2  1   
  2   2   3  ar  
  3   2   4  ar  
  4   3   5  1   
  5   3   6  ar  
  6   4   7  ar  
  7   4  25  1   
  8   5   8  1   
  9   6   9  ar  
 10   6  26  1   
 11   7   9  ar  
 12   7  10  1   
 13   8  11  1   
 14   8  12  1   
 15   8  27  1   
 16   9  28  1   
 17  11  13  2   
 18  11  14  am  
 19  12  29  1   
 20  12  30  1   
 21  12  31  1   
 22  14  15  1   
 23  14  32  1   
 24  15  16  1   
 25  15  17  1   
 26  15  33  1   
 27  16  18  1   
 28  16  34  1   
 29  16  35  1   
 30  17  19  1   
 31  17  36  1   
 32  17  37  1   
 33  18  20  1   
 34  18  21  1   
 35  18  22  1   
 36  19  20  1   
 37  19  23  1   
 38  19  24  1   
 39  20  38  1   
 40  20  39  1   
 41  21  40  1   
 42  21  41  1   
 43  21  42  1   
 44  22  43  1   
 45  22  44  1   
 46  22  45  1   
 47  23  46  1   
 48  23  47  1   
 49  23  48  1   
 50  24  49  1   
 51  24  50  1   
 52  24  51  1   
@<TRIPOS>SUBSTRUCTURE
  1 ****  16 GROUP 4 **** **** 0

# MOE 2024.06 (io_trps.svl 2023.06)
