@<TRIPOS>MOLECULE
NONAME
34 34 1 0 0 
SMALL
USER_CHARGES


@<TRIPOS>ATOM
  1 S       -0.2060    -0.1710     0.2010 S.o2  1 <1>   1.4470 
  2 O       -0.2730    -1.0200    -0.9660 O.2   1 <1>  -0.6500 
  3 O       -0.6170    -0.6720     1.4930 O.2   1 <1>  -0.6500 
  4 N       -1.2270     1.1020    -0.1810 N.am  1 <1>  -0.9140 
  5 C        1.4170     0.6250     0.3280 C.ar  1 <1>  -0.0090 
  6 C       -2.6190     0.8050     0.0950 C.3   1 <1>   0.1960 
  7 C        1.6460     1.6360     1.2530 C.ar  1 <1>  -0.1500 
  8 C        2.4770     0.2520    -0.4910 C.ar  1 <1>  -0.1500 
  9 C       -3.4770     1.9610    -0.4170 C.3   1 <1>  -0.1600 
 10 C        2.8810     2.2520     1.3550 C.ar  1 <1>  -0.1500 
 11 C        3.7130     0.8650    -0.3930 C.ar  1 <1>  -0.1500 
 12 C       -4.9660     1.7140    -0.1480 C.3   1 <1>  -0.2400 
 13 C        3.9360     1.8800     0.5320 C.ar  1 <1>   0.1170 
 14 N        5.1660     2.5330     0.6800 N.am  1 <1>  -0.5470 
 15 C        6.2750     2.5870    -0.1060 C.2   1 <1>   0.7800 
 16 O        6.3920     2.0360    -1.1810 O.2   1 <1>  -0.5700 
 17 O        7.2730     3.3190     0.3840 O.3   1 <1>  -0.4300 
 18 C        8.4860     3.4690    -0.3280 C.3   1 <1>   0.0400 
 19 H       -1.1390     1.1780    -1.1920 H     1 <1>   0.4200 
 20 H       -2.7620     0.6880     1.1580 H     1 <1>   0.0800 
 21 H       -2.9050    -0.1140    -0.3940 H     1 <1>   0.0800 
 22 H        0.8410     1.9420     1.9010 H     1 <1>   0.1500 
 23 H        2.3350    -0.5310    -1.2180 H     1 <1>   0.1500 
 24 H       -3.3280     2.0800    -1.4760 H     1 <1>   0.0800 
 25 H       -3.1760     2.8690     0.0770 H     1 <1>   0.0800 
 26 H        3.0200     3.0320     2.0810 H     1 <1>   0.1500 
 27 H        4.5050     0.5410    -1.0430 H     1 <1>   0.1500 
 28 H       -5.2970     0.8190    -0.6440 H     1 <1>   0.0800 
 29 H       -5.5470     2.5420    -0.5130 H     1 <1>   0.0800 
 30 H       -5.1450     1.6120     0.9090 H     1 <1>   0.0800 
 31 H        5.2690     3.1080     1.5110 H     1 <1>   0.3700 
 32 H        9.1440     4.0950     0.2470 H     1 <1>   0.0800 
 33 H        8.2760     3.9270    -1.2800 H     1 <1>   0.0800 
 34 H        8.9270     2.4980    -0.4730 H     1 <1>   0.0800 
@<TRIPOS>BOND
  1   1   2  2   
  2   1   3  2   
  3   1   4  am  
  4   1   5  1   
  5   4   6  1   
  6   4  19  1   
  7   5   7  ar  
  8   5   8  ar  
  9   6   9  1   
 10   6  20  1   
 11   6  21  1   
 12   7  10  ar  
 13   7  22  1   
 14   8  11  ar  
 15   8  23  1   
 16   9  12  1   
 17   9  24  1   
 18   9  25  1   
 19  10  13  ar  
 20  10  26  1   
 21  11  13  ar  
 22  11  27  1   
 23  12  28  1   
 24  12  29  1   
 25  12  30  1   
 26  13  14  1   
 27  14  15  am  
 28  14  31  1   
 29  15  16  2   
 30  15  17  1   
 31  17  18  1   
 32  18  32  1   
 33  18  33  1   
 34  18  34  1   
@<TRIPOS>SUBSTRUCTURE
  1 ****   5 GROUP 4 **** **** 0

# MOE 2024.06 (io_trps.svl 2023.06)
