@<TRIPOS>MOLECULE
NONAME
46 47 1 0 0 
SMALL
USER_CHARGES


@<TRIPOS>ATOM
  1 CL       0.1250    -1.0600    -2.3620 Cl    1 <1>  -0.1770 
  2 C        1.3950    -1.3480    -1.1870 C.ar  1 <1>   0.1770 
  3 C        1.2140    -2.2600    -0.1500 C.ar  1 <1>   0.0830 
  4 C        2.5780    -0.6480    -1.3230 C.ar  1 <1>  -0.1500 
  5 O        0.0540    -2.9470    -0.0120 O.3   1 <1>  -0.3630 
  6 C        2.2520    -2.4850     0.7500 C.ar  1 <1>  -0.1440 
  7 C        3.6070    -0.8590    -0.4190 C.ar  1 <1>  -0.1430 
  8 C       -1.0700    -2.2280     0.4340 C.3   1 <1>   0.1200 
  9 C        3.4370    -1.7770     0.6070 C.ar  1 <1>  -0.1500 
 10 C        2.0990    -3.4930     1.8790 C.3   1 <1>  -0.0960 
 11 C        4.9150    -0.1000    -0.5510 C.3   1 <1>  -0.0970 
 12 C       -2.3020    -2.8440    -0.2320 C.3   1 <1>  -0.1600 
 13 C       -3.5780    -2.0520     0.0850 C.3   1 <1>  -0.1600 
 14 C       -4.7730    -2.6590    -0.6540 C.3   1 <1>   0.3430 
 15 N       -5.9850    -1.8150    -0.4730 N.4   1 <1>  -0.9590 
 16 C       -6.5290    -1.8770     0.9320 C.3   1 <1>   0.3430 
 17 C       -7.0530    -2.2070    -1.4600 C.3   1 <1>   0.3430 
 18 C       -7.8200    -1.0420     1.0850 C.3   1 <1>   0.1100 
 19 C       -8.3370    -1.3680    -1.2810 C.3   1 <1>   0.1100 
 20 N       -8.8350    -1.4440     0.1000 N.3   1 <1>  -0.9000 
 21 H        2.6870     0.0500    -2.1320 H     1 <1>   0.1500 
 22 H       -0.9620    -1.1920     0.1610 H     1 <1>   0.0800 
 23 H       -1.1130    -2.3120     1.5060 H     1 <1>   0.0800 
 24 H        4.2420    -1.9430     1.3020 H     1 <1>   0.1500 
 25 H        1.3540    -3.1530     2.5750 H     1 <1>   0.0800 
 26 H        3.0260    -3.6300     2.4060 H     1 <1>   0.0800 
 27 H        1.7910    -4.4430     1.4800 H     1 <1>   0.0800 
 28 H        4.7770     0.7990    -1.1250 H     1 <1>   0.0800 
 29 H        5.6450    -0.7170    -1.0440 H     1 <1>   0.0800 
 30 H        5.2880     0.1720     0.4200 H     1 <1>   0.0800 
 31 H       -2.4040    -3.8610     0.1060 H     1 <1>   0.0800 
 32 H       -2.1390    -2.8510    -1.2970 H     1 <1>   0.0800 
 33 H       -3.4390    -1.0330    -0.2310 H     1 <1>   0.0800 
 34 H       -3.7430    -2.0730     1.1480 H     1 <1>   0.0800 
 35 H       -4.9600    -3.6590    -0.2950 H     1 <1>   0.0800 
 36 H       -4.5320    -2.7200    -1.7030 H     1 <1>   0.0800 
 37 H       -5.7360    -0.8370    -0.6680 H     1 <1>   0.4500 
 38 H       -5.7930    -1.5150     1.6310 H     1 <1>   0.0800 
 39 H       -6.7560    -2.8990     1.1870 H     1 <1>   0.0800 
 40 H       -7.3090    -3.2450    -1.3220 H     1 <1>   0.0800 
 41 H       -6.6890    -2.0850    -2.4660 H     1 <1>   0.0800 
 42 H       -7.5930     0.0040     0.9720 H     1 <1>   0.0800 
 43 H       -8.2170    -1.1890     2.0760 H     1 <1>   0.0800 
 44 H       -9.0970    -1.7410    -1.9470 H     1 <1>   0.0800 
 45 H       -8.1420    -0.3420    -1.5450 H     1 <1>   0.0800 
 46 H       -9.6780    -0.8560     0.2040 H     1 <1>   0.3600 
@<TRIPOS>BOND
  1   1   2  1   
  2   2   3  ar  
  3   2   4  ar  
  4   3   5  1   
  5   3   6  ar  
  6   4   7  ar  
  7   4  21  1   
  8   5   8  1   
  9   6   9  ar  
 10   6  10  1   
 11   7   9  ar  
 12   7  11  1   
 13   8  12  1   
 14   8  22  1   
 15   8  23  1   
 16   9  24  1   
 17  10  25  1   
 18  10  26  1   
 19  10  27  1   
 20  11  28  1   
 21  11  29  1   
 22  11  30  1   
 23  12  13  1   
 24  12  31  1   
 25  12  32  1   
 26  13  14  1   
 27  13  33  1   
 28  13  34  1   
 29  14  15  1   
 30  14  35  1   
 31  14  36  1   
 32  15  16  1   
 33  15  17  1   
 34  15  37  1   
 35  16  18  1   
 36  16  38  1   
 37  16  39  1   
 38  17  19  1   
 39  17  40  1   
 40  17  41  1   
 41  18  20  1   
 42  18  42  1   
 43  18  43  1   
 44  19  20  1   
 45  19  44  1   
 46  19  45  1   
 47  20  46  1   
@<TRIPOS>SUBSTRUCTURE
  1 ****   8 GROUP 4 **** **** 0

# MOE 2024.06 (io_trps.svl 2023.06)
