@<TRIPOS>MOLECULE
NONAME
41 42 1 0 0 
SMALL
USER_CHARGES


@<TRIPOS>ATOM
  1 O        0.3240     2.3390    -2.0970 O.2   1 <1>  -0.5700 
  2 C        0.1230     2.4830    -0.9160 C.2   1 <1>   0.5690 
  3 N        1.0110     2.0860     0.0280 N.am  1 <1>  -0.7300 
  4 C       -1.1700     3.1330    -0.4650 C.3   1 <1>  -0.0990 
  5 C        2.2840     1.4010    -0.2410 C.3   1 <1>   0.2200 
  6 C       -2.3570     2.1510    -0.4220 C.3   1 <1>  -0.0800 
  7 C        2.1970    -0.0290     0.2990 C.3   1 <1>  -0.1600 
  8 C        3.4190     2.1830     0.4280 C.3   1 <1>  -0.1600 
  9 C       -3.6550     2.9080    -0.0900 C.3   1 <1>  -0.1600 
 10 C       -2.1260     1.0100     0.5880 C.3   1 <1>  -0.1600 
 11 C        3.5380    -0.7630     0.1440 C.3   1 <1>  -0.1600 
 12 C        4.7620     1.4530     0.2720 C.3   1 <1>  -0.1600 
 13 C       -4.8610     1.9610    -0.0220 C.3   1 <1>  -0.1600 
 14 C       -3.3350     0.0670     0.6600 C.3   1 <1>  -0.1600 
 15 C        4.6790     0.0180     0.8110 C.3   1 <1>  -0.1600 
 16 C       -4.6210     0.8330     0.9880 C.3   1 <1>  -0.1600 
 17 H        0.7840     2.2040     1.0140 H     1 <1>   0.3700 
 18 H       -1.3910     3.9240    -1.1590 H     1 <1>   0.0800 
 19 H       -1.0270     3.5800     0.5010 H     1 <1>   0.0800 
 20 H        2.4600     1.3660    -1.3050 H     1 <1>   0.0800 
 21 H       -2.4620     1.7160    -1.4030 H     1 <1>   0.0800 
 22 H        1.4350    -0.5650    -0.2400 H     1 <1>   0.0800 
 23 H        1.9290    -0.0070     1.3400 H     1 <1>   0.0800 
 24 H        3.2070     2.3030     1.4750 H     1 <1>   0.0800 
 25 H        3.4910     3.1570    -0.0230 H     1 <1>   0.0800 
 26 H       -3.8400     3.6570    -0.8410 H     1 <1>   0.0800 
 27 H       -3.5490     3.4090     0.8570 H     1 <1>   0.0800 
 28 H       -1.9440     1.4230     1.5650 H     1 <1>   0.0800 
 29 H       -1.2620     0.4340     0.3030 H     1 <1>   0.0800 
 30 H        3.7550    -0.8870    -0.9040 H     1 <1>   0.0800 
 31 H        3.4650    -1.7440     0.5830 H     1 <1>   0.0800 
 32 H        5.5300     1.9920     0.7980 H     1 <1>   0.0800 
 33 H        5.0330     1.4260    -0.7700 H     1 <1>   0.0800 
 34 H       -5.0350     1.5370    -0.9960 H     1 <1>   0.0800 
 35 H       -5.7400     2.5160     0.2590 H     1 <1>   0.0800 
 36 H       -3.1610    -0.6850     1.4110 H     1 <1>   0.0800 
 37 H       -3.4500    -0.4340    -0.2860 H     1 <1>   0.0800 
 38 H        5.6120    -0.4880     0.6330 H     1 <1>   0.0800 
 39 H        4.5170     0.0450     1.8750 H     1 <1>   0.0800 
 40 H       -5.4580     0.1550     0.9770 H     1 <1>   0.0800 
 41 H       -4.5470     1.2490     1.9780 H     1 <1>   0.0800 
@<TRIPOS>BOND
  1   1   2  2   
  2   2   3  am  
  3   2   4  1   
  4   3   5  1   
  5   3  17  1   
  6   4   6  1   
  7   4  18  1   
  8   4  19  1   
  9   5   7  1   
 10   5   8  1   
 11   5  20  1   
 12   6   9  1   
 13   6  10  1   
 14   6  21  1   
 15   7  11  1   
 16   7  22  1   
 17   7  23  1   
 18   8  12  1   
 19   8  24  1   
 20   8  25  1   
 21   9  13  1   
 22   9  26  1   
 23   9  27  1   
 24  10  14  1   
 25  10  28  1   
 26  10  29  1   
 27  11  15  1   
 28  11  30  1   
 29  11  31  1   
 30  12  15  1   
 31  12  32  1   
 32  12  33  1   
 33  13  16  1   
 34  13  34  1   
 35  13  35  1   
 36  14  16  1   
 37  14  36  1   
 38  14  37  1   
 39  15  38  1   
 40  15  39  1   
 41  16  40  1   
 42  16  41  1   
@<TRIPOS>SUBSTRUCTURE
  1 ****   3 GROUP 4 **** **** 0

# MOE 2024.06 (io_trps.svl 2023.06)
