@<TRIPOS>MOLECULE
NONAME
42 43 1 0 0 
SMALL
USER_CHARGES


@<TRIPOS>ATOM
  1 O        0.6620    -0.9270     1.4870 O.2   1 <1>  -0.5700 
  2 C        0.4300    -2.0930     1.2290 C.2   1 <1>   0.5440 
  3 N        1.4610    -3.0100     1.2810 N.am  1 <1>  -0.6600 
  4 C       -0.9190    -2.4790     0.8720 C.ar  1 <1>   0.0860 
  5 C        2.8030    -2.6190     1.8010 C.3   1 <1>   0.2840 
  6 C        1.3370    -4.4060     0.7800 C.3   1 <1>   0.1400 
  7 C       -1.4880    -2.0690    -0.3290 C.ar  1 <1>  -0.1500 
  8 C       -1.6970    -3.2660     1.7180 C.ar  1 <1>  -0.1500 
  9 C        3.7890    -2.4460     0.6560 C.ar  1 <1>  -0.1430 
 10 C        1.4230    -4.4350    -0.7450 C.3   1 <1>  -0.2400 
 11 C       -2.7700    -2.4350    -0.6950 C.ar  1 <1>   0.0820 
 12 C       -2.9790    -3.6500     1.3690 C.ar  1 <1>  -0.1500 
 13 C        3.6410    -1.4290    -0.2650 C.ar  1 <1>  -0.1500 
 14 C        4.8710    -3.2840     0.4720 C.ar  1 <1>  -0.1500 
 15 O       -3.1910    -1.9580    -1.8990 O.3   1 <1>  -0.3630 
 16 C       -3.5340    -3.2510     0.1550 C.ar  1 <1>   0.0820 
 17 C        4.5530    -1.3030    -1.2990 C.ar  1 <1>   0.1600 
 18 C        5.7260    -3.0700    -0.5970 C.ar  1 <1>   0.1600 
 19 C       -4.5120    -1.4860    -2.0520 C.3   1 <1>   0.0400 
 20 O       -4.7790    -3.6480    -0.2250 O.3   1 <1>  -0.3630 
 21 N        5.5940    -2.1000    -1.4870 N.ar  1 <1>  -0.6200 
 22 C       -5.5650    -4.5290     0.5470 C.3   1 <1>   0.0400 
 23 H        3.1530    -3.3750     2.4810 H     1 <1>   0.0800 
 24 H        2.7400    -1.6970     2.3530 H     1 <1>   0.0800 
 25 H        0.4000    -4.8280     1.0970 H     1 <1>   0.0800 
 26 H        2.1240    -5.0120     1.1950 H     1 <1>   0.0800 
 27 H       -0.9140    -1.4470    -0.9920 H     1 <1>   0.1500 
 28 H       -1.2830    -3.5770     2.6610 H     1 <1>   0.1500 
 29 H        0.6300    -3.8570    -1.1830 H     1 <1>   0.0800 
 30 H        1.3310    -5.4480    -1.0920 H     1 <1>   0.0800 
 31 H        2.3680    -4.0500    -1.0810 H     1 <1>   0.0800 
 32 H       -3.5290    -4.2610     2.0590 H     1 <1>   0.1500 
 33 H        2.8190    -0.7400    -0.1840 H     1 <1>   0.1500 
 34 H        5.0580    -4.1000     1.1450 H     1 <1>   0.1500 
 35 H        4.4180    -0.5040    -2.0080 H     1 <1>   0.1500 
 36 H        6.5650    -3.7320    -0.7260 H     1 <1>   0.1500 
 37 H       -4.5280    -0.7990    -2.8780 H     1 <1>   0.0800 
 38 H       -4.8160    -0.9880    -1.1490 H     1 <1>   0.0800 
 39 H       -5.1560    -2.3210    -2.2630 H     1 <1>   0.0800 
 40 H       -6.4840    -4.7080     0.0180 H     1 <1>   0.0800 
 41 H       -5.7760    -4.0700     1.4970 H     1 <1>   0.0800 
 42 H       -5.0320    -5.4550     0.6730 H     1 <1>   0.0800 
@<TRIPOS>BOND
  1   1   2  2   
  2   2   3  am  
  3   2   4  1   
  4   3   5  1   
  5   3   6  1   
  6   4   7  ar  
  7   4   8  ar  
  8   5   9  1   
  9   5  23  1   
 10   5  24  1   
 11   6  10  1   
 12   6  25  1   
 13   6  26  1   
 14   7  11  ar  
 15   7  27  1   
 16   8  12  ar  
 17   8  28  1   
 18   9  13  ar  
 19   9  14  ar  
 20  10  29  1   
 21  10  30  1   
 22  10  31  1   
 23  11  15  1   
 24  11  16  ar  
 25  12  16  ar  
 26  12  32  1   
 27  13  17  ar  
 28  13  33  1   
 29  14  18  ar  
 30  14  34  1   
 31  15  19  1   
 32  16  20  1   
 33  17  21  ar  
 34  17  35  1   
 35  18  21  ar  
 36  18  36  1   
 37  19  37  1   
 38  19  38  1   
 39  19  39  1   
 40  20  22  1   
 41  22  40  1   
 42  22  41  1   
 43  22  42  1   
@<TRIPOS>SUBSTRUCTURE
  1 ****   2 GROUP 4 **** **** 0

# MOE 2024.06 (io_trps.svl 2023.06)
