@<TRIPOS>MOLECULE
NONAME
47 49 1 0 0 
SMALL
USER_CHARGES


@<TRIPOS>ATOM
  1 O        0.4810    -1.9030     2.9980 O.2   1 <1>  -0.5700 
  2 C        0.3410    -2.5190     1.9580 C.2   1 <1>   0.5440 
  3 N        1.4680    -2.9110     1.2700 N.am  1 <1>  -0.6600 
  4 C       -0.9960    -2.8340     1.4940 C.ar  1 <1>   0.0860 
  5 C        2.8020    -2.3520     1.6300 C.3   1 <1>   0.2840 
  6 C        1.5060    -4.0280     0.2900 C.3   1 <1>   0.1400 
  7 C       -1.3950    -2.5700     0.1850 C.ar  1 <1>  -0.1500 
  8 C       -1.9360    -3.4080     2.3480 C.ar  1 <1>  -0.1500 
  9 C        3.7700    -2.3130     0.4460 C.ar  1 <1>  -0.1430 
 10 C        2.1090    -3.5320    -1.0240 C.3   1 <1>  -0.0160 
 11 C       -2.6640    -2.8840    -0.2610 C.ar  1 <1>   0.0830 
 12 C       -3.2090    -3.7340     1.9140 C.ar  1 <1>  -0.1500 
 13 C        3.4570    -2.8660    -0.7920 C.ar  1 <1>  -0.1440 
 14 C        5.0050    -1.7070     0.6260 C.ar  1 <1>  -0.1500 
 15 O       -2.9520    -2.6060    -1.5570 O.3   1 <1>  -0.3620 
 16 C       -3.5890    -3.4860     0.5980 C.ar  1 <1>   0.0830 
 17 C        4.3760    -2.8040    -1.8280 C.ar  1 <1>  -0.1500 
 18 C        5.9200    -1.6490    -0.4110 C.ar  1 <1>  -0.1500 
 19 C       -3.9130    -1.6050    -1.8190 C.3   1 <1>   0.1200 
 20 O       -4.8170    -3.8140     0.1130 O.3   1 <1>  -0.3630 
 21 C        5.6050    -2.1990    -1.6390 C.ar  1 <1>  -0.1500 
 22 C       -3.2430    -0.2340    -1.7320 C.3   1 <1>  -0.2400 
 23 C       -5.7830    -4.4740     0.8980 C.3   1 <1>   0.1200 
 24 C       -7.0170    -4.7010     0.0300 C.3   1 <1>  -0.2400 
 25 H        3.2250    -2.9540     2.4150 H     1 <1>   0.0800 
 26 H        2.6780    -1.3520     2.0090 H     1 <1>   0.0800 
 27 H        0.5250    -4.4320     0.1170 H     1 <1>   0.0800 
 28 H        2.1240    -4.8160     0.6880 H     1 <1>   0.0800 
 29 H       -0.7050    -2.1060    -0.4950 H     1 <1>   0.1500 
 30 H       -1.6530    -3.5980     3.3690 H     1 <1>   0.1500 
 31 H        1.4400    -2.8270    -1.4820 H     1 <1>   0.0800 
 32 H        2.2230    -4.3660    -1.6920 H     1 <1>   0.0800 
 33 H       -3.8880    -4.1800     2.6160 H     1 <1>   0.1500 
 34 H        5.2610    -1.2750     1.5770 H     1 <1>   0.1500 
 35 H        4.1380    -3.2260    -2.7890 H     1 <1>   0.1500 
 36 H        6.8750    -1.1770    -0.2610 H     1 <1>   0.1500 
 37 H       -4.7220    -1.6870    -1.1150 H     1 <1>   0.0800 
 38 H       -4.2930    -1.7760    -2.8110 H     1 <1>   0.0800 
 39 H        6.3150    -2.1550    -2.4470 H     1 <1>   0.1500 
 40 H       -2.8870    -0.0540    -0.7340 H     1 <1>   0.0800 
 41 H       -3.9550     0.5320    -1.9810 H     1 <1>   0.0800 
 42 H       -2.4230    -0.1780    -2.4250 H     1 <1>   0.0800 
 43 H       -6.0210    -3.8500     1.7420 H     1 <1>   0.0800 
 44 H       -5.3710    -5.4120     1.2270 H     1 <1>   0.0800 
 45 H       -7.4100    -3.7580    -0.3060 H     1 <1>   0.0800 
 46 H       -7.7750    -5.2070     0.5990 H     1 <1>   0.0800 
 47 H       -6.7630    -5.3080    -0.8200 H     1 <1>   0.0800 
@<TRIPOS>BOND
  1   1   2  2   
  2   2   3  am  
  3   2   4  1   
  4   3   5  1   
  5   3   6  1   
  6   4   7  ar  
  7   4   8  ar  
  8   5   9  1   
  9   5  25  1   
 10   5  26  1   
 11   6  10  1   
 12   6  27  1   
 13   6  28  1   
 14   7  11  ar  
 15   7  29  1   
 16   8  12  ar  
 17   8  30  1   
 18   9  13  ar  
 19   9  14  ar  
 20  10  13  1   
 21  10  31  1   
 22  10  32  1   
 23  11  15  1   
 24  11  16  ar  
 25  12  16  ar  
 26  12  33  1   
 27  13  17  ar  
 28  14  18  ar  
 29  14  34  1   
 30  15  19  1   
 31  16  20  1   
 32  17  21  ar  
 33  17  35  1   
 34  18  21  ar  
 35  18  36  1   
 36  19  22  1   
 37  19  37  1   
 38  19  38  1   
 39  20  23  1   
 40  21  39  1   
 41  22  40  1   
 42  22  41  1   
 43  22  42  1   
 44  23  24  1   
 45  23  43  1   
 46  23  44  1   
 47  24  45  1   
 48  24  46  1   
 49  24  47  1   
@<TRIPOS>SUBSTRUCTURE
  1 ****   7 GROUP 4 **** **** 0

# MOE 2024.06 (io_trps.svl 2023.06)
