@<TRIPOS>MOLECULE
NONAME
38 39 1 0 0 
SMALL
USER_CHARGES


@<TRIPOS>ATOM
  1 BR      -0.3130     0.5020     1.1650 Br    1 <1>  -0.1110 
  2 C        1.4660     1.1570     0.8520 C.ar  1 <1>   0.1110 
  3 C        1.9070     2.2600     1.5550 C.ar  1 <1>  -0.1500 
  4 C        2.2660     0.5080    -0.0680 C.ar  1 <1>  -0.1500 
  5 C        3.1890     2.7250     1.3210 C.ar  1 <1>  -0.1500 
  6 C        3.5460     0.9860    -0.2880 C.ar  1 <1>  -0.1500 
  7 C        4.0360     2.1080     0.3930 C.ar  1 <1>   0.0860 
  8 C        5.3740     2.6240     0.1590 C.2   1 <1>   0.5440 
  9 O        5.9690     3.2390     1.0240 O.2   1 <1>  -0.5700 
 10 N        6.0050     2.4440    -1.0440 N.am  1 <1>  -0.7300 
 11 C        7.2930     3.0750    -1.3950 C.3   1 <1>   0.1400 
 12 C        8.4330     2.2830    -0.7480 C.3   1 <1>  -0.1600 
 13 C        9.6980     3.1330    -0.6770 C.3   1 <1>   0.3430 
 14 N       10.7040     2.4770     0.2020 N.4   1 <1>  -0.9590 
 15 C       11.8700     3.3430     0.4940 C.3   1 <1>   0.3430 
 16 C       11.2580     1.2080    -0.3300 C.3   1 <1>   0.3430 
 17 C       12.9380     2.3800     0.9940 C.3   1 <1>  -0.1600 
 18 C       12.5470     1.0010     0.4540 C.3   1 <1>  -0.1600 
 19 H        1.2610     2.7420     2.2680 H     1 <1>   0.1500 
 20 H        1.8910    -0.3530    -0.5930 H     1 <1>   0.1500 
 21 H        3.5480     3.5830     1.8630 H     1 <1>   0.1500 
 22 H        4.1740     0.4740    -0.9940 H     1 <1>   0.1500 
 23 H        5.4680     2.0520    -1.8210 H     1 <1>   0.3700 
 24 H        7.2850     4.0870    -1.0230 H     1 <1>   0.0800 
 25 H        7.4060     3.1070    -2.4660 H     1 <1>   0.0800 
 26 H        8.6050     1.3870    -1.3150 H     1 <1>   0.0800 
 27 H        8.1450     2.0190     0.2550 H     1 <1>   0.0800 
 28 H        9.4440     4.0970    -0.2630 H     1 <1>   0.0800 
 29 H       10.1020     3.2840    -1.6650 H     1 <1>   0.0800 
 30 H       10.2510     2.2630     1.1020 H     1 <1>   0.4500 
 31 H       11.6350     4.0970     1.2290 H     1 <1>   0.0800 
 32 H       12.2110     3.8170    -0.4130 H     1 <1>   0.0800 
 33 H       11.4880     1.3200    -1.3770 H     1 <1>   0.0800 
 34 H       10.5730     0.3850    -0.1970 H     1 <1>   0.0800 
 35 H       12.9460     2.3730     2.0710 H     1 <1>   0.0800 
 36 H       13.9110     2.6850     0.6490 H     1 <1>   0.0800 
 37 H       13.3110     0.5890    -0.1830 H     1 <1>   0.0800 
 38 H       12.3740     0.3150     1.2660 H     1 <1>   0.0800 
@<TRIPOS>BOND
  1   1   2  1   
  2   2   3  ar  
  3   2   4  ar  
  4   3   5  ar  
  5   3  19  1   
  6   4   6  ar  
  7   4  20  1   
  8   5   7  ar  
  9   5  21  1   
 10   6   7  ar  
 11   6  22  1   
 12   7   8  1   
 13   8   9  2   
 14   8  10  am  
 15  10  11  1   
 16  10  23  1   
 17  11  12  1   
 18  11  24  1   
 19  11  25  1   
 20  12  13  1   
 21  12  26  1   
 22  12  27  1   
 23  13  14  1   
 24  13  28  1   
 25  13  29  1   
 26  14  15  1   
 27  14  16  1   
 28  14  30  1   
 29  15  17  1   
 30  15  31  1   
 31  15  32  1   
 32  16  18  1   
 33  16  33  1   
 34  16  34  1   
 35  17  18  1   
 36  17  35  1   
 37  17  36  1   
 38  18  37  1   
 39  18  38  1   
@<TRIPOS>SUBSTRUCTURE
  1 ****   8 GROUP 4 **** **** 0

# MOE 2024.06 (io_trps.svl 2023.06)
