@<TRIPOS>MOLECULE
NONAME
36 37 1 0 0 
SMALL
USER_CHARGES


@<TRIPOS>ATOM
  1 BR       0.0160    -1.5970    -1.4420 Br    1 <1>  -0.1110 
  2 C        1.8740    -1.7430    -0.9590 C.ar  1 <1>   0.1110 
  3 C        2.3140    -1.1200     0.1930 C.ar  1 <1>  -0.1500 
  4 C        2.7200    -2.4680    -1.7770 C.ar  1 <1>  -0.1500 
  5 C        3.6500    -1.2250     0.5400 C.ar  1 <1>  -0.1500 
  6 C        4.0540    -2.5680    -1.4220 C.ar  1 <1>  -0.1500 
  7 C        4.5260    -1.9520    -0.2700 C.ar  1 <1>   0.0830 
  8 O        5.8470    -2.1030    -0.0010 O.3   1 <1>  -0.3630 
  9 C        6.4350    -1.5140     1.1540 C.3   1 <1>   0.1810 
 10 C        7.9260    -1.8190     1.2460 C.2   1 <1>   0.5690 
 11 O        8.5440    -1.3750     2.1840 O.2   1 <1>  -0.5700 
 12 N        8.5170    -2.5740     0.2830 N.am  1 <1>  -0.7300 
 13 C        9.9360    -2.9540     0.2300 C.3   1 <1>   0.2200 
 14 C       10.5520    -2.3890    -1.0540 C.3   1 <1>  -0.1600 
 15 C       10.0410    -4.4810     0.2730 C.3   1 <1>  -0.1600 
 16 C       12.0090    -2.8450    -1.2180 C.3   1 <1>  -0.1600 
 17 C       11.4980    -4.9420     0.1110 C.3   1 <1>  -0.1600 
 18 C       12.1200    -4.3750    -1.1730 C.3   1 <1>  -0.1600 
 19 H        1.6220    -0.5650     0.8020 H     1 <1>   0.1500 
 20 H        2.3430    -2.9400    -2.6670 H     1 <1>   0.1500 
 21 H        3.9850    -0.7380     1.4370 H     1 <1>   0.1500 
 22 H        4.7380    -3.1250    -2.0380 H     1 <1>   0.1500 
 23 H        5.9430    -1.9070     2.0240 H     1 <1>   0.0800 
 24 H        6.2980    -0.4510     1.1010 H     1 <1>   0.0800 
 25 H        7.9310    -2.9160    -0.4810 H     1 <1>   0.3700 
 26 H       10.4540    -2.5400     1.0810 H     1 <1>   0.0800 
 27 H       10.5180    -1.3140    -1.0200 H     1 <1>   0.0800 
 28 H        9.9830    -2.7220    -1.9040 H     1 <1>   0.0800 
 29 H        9.4500    -4.9060    -0.5190 H     1 <1>   0.0800 
 30 H        9.6590    -4.8360     1.2140 H     1 <1>   0.0800 
 31 H       12.6050    -2.4220    -0.4280 H     1 <1>   0.0800 
 32 H       12.3980    -2.4820    -2.1540 H     1 <1>   0.0800 
 33 H       11.5360    -6.0180     0.0870 H     1 <1>   0.0800 
 34 H       12.0710    -4.6110     0.9600 H     1 <1>   0.0800 
 35 H       13.1550    -4.6630    -1.2280 H     1 <1>   0.0800 
 36 H       11.6160    -4.7940    -2.0270 H     1 <1>   0.0800 
@<TRIPOS>BOND
  1   1   2  1   
  2   2   3  ar  
  3   2   4  ar  
  4   3   5  ar  
  5   3  19  1   
  6   4   6  ar  
  7   4  20  1   
  8   5   7  ar  
  9   5  21  1   
 10   6   7  ar  
 11   6  22  1   
 12   7   8  1   
 13   8   9  1   
 14   9  10  1   
 15   9  23  1   
 16   9  24  1   
 17  10  11  2   
 18  10  12  am  
 19  12  13  1   
 20  12  25  1   
 21  13  14  1   
 22  13  15  1   
 23  13  26  1   
 24  14  16  1   
 25  14  27  1   
 26  14  28  1   
 27  15  17  1   
 28  15  29  1   
 29  15  30  1   
 30  16  18  1   
 31  16  31  1   
 32  16  32  1   
 33  17  18  1   
 34  17  33  1   
 35  17  34  1   
 36  18  35  1   
 37  18  36  1   
@<TRIPOS>SUBSTRUCTURE
  1 ****   8 GROUP 4 **** **** 0

# MOE 2024.06 (io_trps.svl 2023.06)
