@<TRIPOS>MOLECULE
NONAME
32 34 1 0 0 
SMALL
USER_CHARGES


@<TRIPOS>ATOM
  1 S       -0.2840     0.2830     1.5580 S.3   1 <1>  -0.0800 
  2 C        0.5780     1.4680     0.5930 C.2   1 <1>   0.4340 
  3 C       -1.7450     0.7100     0.6890 C.ar  1 <1>   0.0400 
  4 S        2.3170     1.6280     0.9430 S.3   1 <1>  -0.2860 
  5 N       -0.1020     2.1110    -0.2670 N.2   1 <1>  -0.5650 
  6 C       -1.4310     1.6960    -0.2330 C.ar  1 <1>   0.2270 
  7 C       -3.0170     0.1930     0.8480 C.ar  1 <1>  -0.1500 
  8 C        2.8730     2.9600    -0.2310 C.3   1 <1>   0.1500 
  9 C       -2.4490     2.1880    -1.0370 C.ar  1 <1>  -0.1500 
 10 C       -4.0190     0.6960     0.0360 C.ar  1 <1>  -0.1500 
 11 C        4.4020     2.8730    -0.4630 C.3   1 <1>   0.2000 
 12 C        2.4250     4.3090     0.3710 C.3   1 <1>  -0.1600 
 13 C       -3.7350     1.6880    -0.9010 C.ar  1 <1>  -0.1500 
 14 O        4.8370     1.5600    -0.4440 O.3   1 <1>  -0.6800 
 15 C        5.1830     3.6590     0.5940 C.3   1 <1>  -0.1600 
 16 C        3.4030     5.4410     0.0250 C.3   1 <1>  -0.1600 
 17 C        4.8180     5.1570     0.5660 C.3   1 <1>  -0.1600 
 18 H       -3.2120    -0.5730     1.5770 H     1 <1>   0.1500 
 19 H        2.3700     2.7820    -1.1640 H     1 <1>   0.0800 
 20 H       -2.2220     2.9530    -1.7570 H     1 <1>   0.1500 
 21 H       -5.0240     0.3210     0.1270 H     1 <1>   0.1500 
 22 H        4.6390     3.2720    -1.4350 H     1 <1>   0.0800 
 23 H        2.3700     4.2310     1.4430 H     1 <1>   0.0800 
 24 H        1.4410     4.5500     0.0080 H     1 <1>   0.0800 
 25 H       -4.5250     2.0700    -1.5250 H     1 <1>   0.1500 
 26 H        4.4100     1.0980     0.3060 H     1 <1>   0.4000 
 27 H        6.2400     3.5450     0.4290 H     1 <1>   0.0800 
 28 H        4.9460     3.2610     1.5650 H     1 <1>   0.0800 
 29 H        3.0440     6.3730     0.4280 H     1 <1>   0.0800 
 30 H        3.4440     5.5490    -1.0460 H     1 <1>   0.0800 
 31 H        5.5290     5.6870    -0.0450 H     1 <1>   0.0800 
 32 H        4.9040     5.5470     1.5660 H     1 <1>   0.0800 
@<TRIPOS>BOND
  1   1   2  1   
  2   1   3  1   
  3   2   4  1   
  4   2   5  2   
  5   3   6  ar  
  6   3   7  ar  
  7   4   8  1   
  8   5   6  1   
  9   6   9  ar  
 10   7  10  ar  
 11   7  18  1   
 12   8  11  1   
 13   8  12  1   
 14   8  19  1   
 15   9  13  ar  
 16   9  20  1   
 17  10  13  ar  
 18  10  21  1   
 19  11  14  1   
 20  11  15  1   
 21  11  22  1   
 22  12  16  1   
 23  12  23  1   
 24  12  24  1   
 25  13  25  1   
 26  14  26  1   
 27  15  17  1   
 28  15  27  1   
 29  15  28  1   
 30  16  17  1   
 31  16  29  1   
 32  16  30  1   
 33  17  31  1   
 34  17  32  1   
@<TRIPOS>SUBSTRUCTURE
  1 ****   2 GROUP 4 **** **** 0

# MOE 2024.06 (io_trps.svl 2023.06)
