@<TRIPOS>MOLECULE
NONAME
61 65 1 0 0 
SMALL
USER_CHARGES


@<TRIPOS>ATOM
  1 O        0.3010    -3.7690    -0.2750 O.2   1 <1>  -0.5700 
  2 C       -0.0210    -3.0890     0.6830 C.2   1 <1>   0.6900 
  3 N        0.9420    -2.3880     1.3410 N.am  1 <1>  -0.6600 
  4 N       -1.2740    -3.0510     1.1740 N.am  1 <1>  -0.7300 
  5 C        1.9440    -1.6480     0.5080 C.3   1 <1>   0.1400 
  6 C        1.5780    -3.0860     2.4950 C.3   1 <1>   0.1400 
  7 C       -2.4910    -3.6840     0.6390 C.3   1 <1>   0.3000 
  8 C        3.2120    -2.4940     0.2300 C.3   1 <1>   0.3430 
  9 C        2.6410    -4.1070     2.0130 C.3   1 <1>   0.3430 
 10 C       -2.7910    -3.1790    -0.7860 C.3   1 <1>  -0.1600 
 11 C       -3.6610    -3.2910     1.5620 C.3   1 <1>  -0.1600 
 12 C       -2.3560    -5.2190     0.6350 C.3   1 <1>  -0.1600 
 13 N        2.9820    -3.9470     0.5500 N.4   1 <1>  -0.9590 
 14 C       -4.0960    -3.8150    -1.3050 C.3   1 <1>  -0.0800 
 15 C       -4.9740    -3.9210     1.0600 C.3   1 <1>  -0.0800 
 16 C       -3.6600    -5.8600     0.1190 C.3   1 <1>  -0.0800 
 17 C        4.0050    -4.8970     0.0220 C.3   1 <1>   0.4230 
 18 C       -5.2570    -3.4240    -0.3710 C.3   1 <1>  -0.1600 
 19 C       -3.9440    -5.3490    -1.3070 C.3   1 <1>  -0.1600 
 20 C       -4.8240    -5.4540     1.0430 C.3   1 <1>  -0.1600 
 21 C        4.1160    -4.7470    -1.5060 C.3   1 <1>  -0.1600 
 22 C        3.6220    -6.3440     0.3880 C.3   1 <1>  -0.1600 
 23 C        5.0680    -5.7820    -2.1250 C.3   1 <1>  -0.1600 
 24 C        4.5760    -7.3740    -0.2330 C.3   1 <1>  -0.1600 
 25 C        4.6560    -7.2080    -1.7530 C.3   1 <1>  -0.1600 
 26 H       -1.4570    -2.3390     1.8770 H     1 <1>   0.3700 
 27 H        2.2170    -0.7310     1.0000 H     1 <1>   0.0800 
 28 H        1.4910    -1.3820    -0.4330 H     1 <1>   0.0800 
 29 H        0.8270    -3.5970     3.0740 H     1 <1>   0.0800 
 30 H        2.0410    -2.3570     3.1390 H     1 <1>   0.0800 
 31 H        4.0290    -2.1180     0.8220 H     1 <1>   0.0800 
 32 H        3.4740    -2.3690    -0.8060 H     1 <1>   0.0800 
 33 H        2.2480    -5.0960     2.1800 H     1 <1>   0.0800 
 34 H        3.5290    -4.0050     2.6150 H     1 <1>   0.0800 
 35 H       -1.9880    -3.4450    -1.4490 H     1 <1>   0.0800 
 36 H       -2.8870    -2.1090    -0.7840 H     1 <1>   0.0800 
 37 H       -3.7690    -2.2210     1.5810 H     1 <1>   0.0800 
 38 H       -3.4670    -3.6310     2.5630 H     1 <1>   0.0800 
 39 H       -2.1490    -5.5710     1.6290 H     1 <1>   0.0800 
 40 H       -1.5480    -5.5180    -0.0070 H     1 <1>   0.0800 
 41 H        2.0860    -4.1620     0.0570 H     1 <1>   0.4500 
 42 H       -4.2980    -3.4680    -2.3040 H     1 <1>   0.0800 
 43 H       -5.7860    -3.6420     1.7090 H     1 <1>   0.0800 
 44 H       -3.5590    -6.9320     0.1090 H     1 <1>   0.0800 
 45 H        4.9640    -4.6750     0.4620 H     1 <1>   0.0800 
 46 H       -6.1740    -3.8560    -0.7320 H     1 <1>   0.0800 
 47 H       -5.3790    -2.3550    -0.3700 H     1 <1>   0.0800 
 48 H       -3.1400    -5.6350    -1.9630 H     1 <1>   0.0800 
 49 H       -4.8450    -5.8020    -1.6820 H     1 <1>   0.0800 
 50 H       -5.7370    -5.9050     0.6950 H     1 <1>   0.0800 
 51 H       -4.6420    -5.8150     2.0400 H     1 <1>   0.0800 
 52 H        4.4940    -3.7770    -1.7660 H     1 <1>   0.0800 
 53 H        3.1430    -4.8690    -1.9510 H     1 <1>   0.0800 
 54 H        2.6230    -6.5490     0.0400 H     1 <1>   0.0800 
 55 H        3.6520    -6.4860     1.4520 H     1 <1>   0.0800 
 56 H        6.0740    -5.6010    -1.7830 H     1 <1>   0.0800 
 57 H        5.0660    -5.6790    -3.1980 H     1 <1>   0.0800 
 58 H        4.2350    -8.3690    -0.0020 H     1 <1>   0.0800 
 59 H        5.5610    -7.2600     0.1900 H     1 <1>   0.0800 
 60 H        5.3710    -7.9070    -2.1550 H     1 <1>   0.0800 
 61 H        3.6990    -7.4340    -2.1920 H     1 <1>   0.0800 
@<TRIPOS>BOND
  1   1   2  2   
  2   2   3  am  
  3   2   4  am  
  4   3   5  1   
  5   3   6  1   
  6   4   7  1   
  7   4  26  1   
  8   5   8  1   
  9   5  27  1   
 10   5  28  1   
 11   6   9  1   
 12   6  29  1   
 13   6  30  1   
 14   7  10  1   
 15   7  11  1   
 16   7  12  1   
 17   8  13  1   
 18   8  31  1   
 19   8  32  1   
 20   9  13  1   
 21   9  33  1   
 22   9  34  1   
 23  10  14  1   
 24  10  35  1   
 25  10  36  1   
 26  11  15  1   
 27  11  37  1   
 28  11  38  1   
 29  12  16  1   
 30  12  39  1   
 31  12  40  1   
 32  13  17  1   
 33  13  41  1   
 34  14  18  1   
 35  14  19  1   
 36  14  42  1   
 37  15  18  1   
 38  15  20  1   
 39  15  43  1   
 40  16  19  1   
 41  16  20  1   
 42  16  44  1   
 43  17  21  1   
 44  17  22  1   
 45  17  45  1   
 46  18  46  1   
 47  18  47  1   
 48  19  48  1   
 49  19  49  1   
 50  20  50  1   
 51  20  51  1   
 52  21  23  1   
 53  21  52  1   
 54  21  53  1   
 55  22  24  1   
 56  22  54  1   
 57  22  55  1   
 58  23  25  1   
 59  23  56  1   
 60  23  57  1   
 61  24  25  1   
 62  24  58  1   
 63  24  59  1   
 64  25  60  1   
 65  25  61  1   
@<TRIPOS>SUBSTRUCTURE
  1 ****   1 GROUP 4 **** **** 0

# MOE 2024.06 (io_trps.svl 2023.06)
