@<TRIPOS>MOLECULE
NONAME
45 45 1 0 0 
SMALL
USER_CHARGES


@<TRIPOS>ATOM
  1 S        0.2830     0.5670     1.5470 S.o2  1 <1>   1.4470 
  2 O        0.1310    -0.7640     2.0900 O.2   1 <1>  -0.6500 
  3 O        0.9940     1.5780     2.2960 O.2   1 <1>  -0.6500 
  4 N        1.1320     0.4660     0.1040 N.am  1 <1>  -0.9140 
  5 C       -1.3310     1.2090     1.0260 C.ar  1 <1>  -0.0090 
  6 C        2.1910    -0.5340     0.0740 C.3   1 <1>   0.2760 
  7 C       -1.5860     2.5760     0.9820 C.ar  1 <1>  -0.1500 
  8 C       -2.3520     0.3550     0.6300 C.ar  1 <1>  -0.1500 
  9 C        3.5490     0.1870    -0.1620 C.3   1 <1>  -0.0800 
 10 C        1.8410    -1.6130    -0.9920 C.3   1 <1>  -0.0800 
 11 C       -2.8120     3.0660     0.5660 C.ar  1 <1>  -0.1500 
 12 C       -3.5780     0.8400     0.2120 C.ar  1 <1>  -0.1500 
 13 C        3.8910     1.1730     0.9680 C.3   1 <1>  -0.2400 
 14 C        3.6520     0.9170    -1.5150 C.3   1 <1>  -0.2400 
 15 C        0.5030    -2.3150    -0.7000 C.3   1 <1>  -0.2400 
 16 C        2.9270    -2.6970    -1.1180 C.3   1 <1>  -0.2400 
 17 C       -3.8320     2.2070     0.1760 C.ar  1 <1>   0.1170 
 18 N       -5.0520     2.7590    -0.2440 N.am  1 <1>  -0.5470 
 19 C       -6.2910     2.2020    -0.3910 C.2   1 <1>   0.5690 
 20 O       -6.5570     1.0540    -0.1430 O.2   1 <1>  -0.5700 
 21 C       -7.3940     3.1010    -0.8900 C.3   1 <1>  -0.1790 
 22 H        1.6190     1.3570     0.0640 H     1 <1>   0.4200 
 23 H        2.2630    -1.0330     1.0280 H     1 <1>   0.0800 
 24 H       -0.8150     3.2650     1.2820 H     1 <1>   0.1500 
 25 H       -2.1870    -0.7100     0.6510 H     1 <1>   0.1500 
 26 H        4.3200    -0.5630    -0.1390 H     1 <1>   0.0800 
 27 H        1.7460    -1.1280    -1.9480 H     1 <1>   0.0800 
 28 H       -2.9740     4.1280     0.5500 H     1 <1>   0.1500 
 29 H       -4.3370     0.1410    -0.0900 H     1 <1>   0.1500 
 30 H        3.2560     2.0400     0.9450 H     1 <1>   0.0800 
 31 H        4.9100     1.5060     0.8730 H     1 <1>   0.0800 
 32 H        3.7850     0.6970     1.9280 H     1 <1>   0.0800 
 33 H        2.8890     1.6680    -1.6130 H     1 <1>   0.0800 
 34 H        3.5560     0.2250    -2.3320 H     1 <1>   0.0800 
 35 H        4.6110     1.3950    -1.6060 H     1 <1>   0.0800 
 36 H        0.5230    -2.7810     0.2700 H     1 <1>   0.0800 
 37 H       -0.3070    -1.6090    -0.7250 H     1 <1>   0.0800 
 38 H        0.3000    -3.0690    -1.4390 H     1 <1>   0.0800 
 39 H        3.1120    -3.1580    -0.1640 H     1 <1>   0.0800 
 40 H        3.8460    -2.2850    -1.4920 H     1 <1>   0.0800 
 41 H        2.6140    -3.4600    -1.8090 H     1 <1>   0.0800 
 42 H       -5.0160     3.7550    -0.4440 H     1 <1>   0.3700 
 43 H       -7.5640     3.8960    -0.1880 H     1 <1>   0.0800 
 44 H       -8.3020     2.5350    -0.9960 H     1 <1>   0.0800 
 45 H       -7.1300     3.5110    -1.8460 H     1 <1>   0.0800 
@<TRIPOS>BOND
  1   1   2  2   
  2   1   3  2   
  3   1   4  am  
  4   1   5  1   
  5   4   6  1   
  6   4  22  1   
  7   5   7  ar  
  8   5   8  ar  
  9   6   9  1   
 10   6  10  1   
 11   6  23  1   
 12   7  11  ar  
 13   7  24  1   
 14   8  12  ar  
 15   8  25  1   
 16   9  13  1   
 17   9  14  1   
 18   9  26  1   
 19  10  15  1   
 20  10  16  1   
 21  10  27  1   
 22  11  17  ar  
 23  11  28  1   
 24  12  17  ar  
 25  12  29  1   
 26  13  30  1   
 27  13  31  1   
 28  13  32  1   
 29  14  33  1   
 30  14  34  1   
 31  14  35  1   
 32  15  36  1   
 33  15  37  1   
 34  15  38  1   
 35  16  39  1   
 36  16  40  1   
 37  16  41  1   
 38  17  18  1   
 39  18  19  am  
 40  18  42  1   
 41  19  20  2   
 42  19  21  1   
 43  21  43  1   
 44  21  44  1   
 45  21  45  1   
@<TRIPOS>SUBSTRUCTURE
  1 ****   5 GROUP 4 **** **** 0

# MOE 2024.06 (io_trps.svl 2023.06)
