@<TRIPOS>MOLECULE
NONAME
49 50 1 0 0 
SMALL
USER_CHARGES


@<TRIPOS>ATOM
  1 S       -0.0480     0.4510    -0.7520 S.o2  1 <1>   1.3330 
  2 O        0.2030     0.7910    -2.1350 O.2   1 <1>  -0.6500 
  3 O        0.6010    -0.7000    -0.1660 O.2   1 <1>  -0.6500 
  4 N       -1.7200     0.2390    -0.5610 N.am  1 <1>  -0.8490 
  5 C        0.2900     1.9070     0.2450 C.3   1 <1>  -0.0550 
  6 C       -2.0490    -0.4480     0.6940 C.3   1 <1>   0.1960 
  7 C       -2.3000    -0.4730    -1.7050 C.3   1 <1>   0.1960 
  8 C        1.7660     2.3370     0.2330 C.3   1 <1>  -0.1600 
  9 C       -3.5620    -0.4400     0.9100 C.3   1 <1>  -0.1600 
 10 C       -3.8260    -0.4880    -1.5960 C.3   1 <1>  -0.1600 
 11 C        1.9920     3.5800     1.0990 C.3   1 <1>  -0.2400 
 12 C       -4.2900    -1.1110    -0.2670 C.3   1 <1>  -0.0190 
 13 C       -5.8070    -1.0620    -0.1000 C.2   1 <1>   0.5690 
 14 O       -6.3920    -2.1040     0.0610 O.2   1 <1>  -0.5700 
 15 N       -6.4100     0.1660    -0.1320 N.am  1 <1>  -0.5470 
 16 C       -7.7450     0.5910    -0.0110 C.ar  1 <1>   0.1170 
 17 C       -8.0150     1.9600     0.0560 C.ar  1 <1>  -0.1440 
 18 C       -8.8140    -0.2990     0.0380 C.ar  1 <1>  -0.1500 
 19 C       -9.3230     2.4040     0.1720 C.ar  1 <1>  -0.1500 
 20 C       -6.8970     2.9950     0.0060 C.3   1 <1>  -0.0970 
 21 C      -10.1150     0.1530     0.1540 C.ar  1 <1>  -0.1500 
 22 C      -10.3790     1.5090     0.2230 C.ar  1 <1>  -0.1440 
 23 C      -11.8060     2.0100     0.3490 C.3   1 <1>  -0.0970 
 24 H       -0.0020     1.7150     1.2580 H     1 <1>   0.0800 
 25 H       -0.3090     2.7190    -0.1200 H     1 <1>   0.0800 
 26 H       -1.5730     0.0490     1.5220 H     1 <1>   0.0800 
 27 H       -1.6870    -1.4650     0.6640 H     1 <1>   0.0800 
 28 H       -1.9140    -1.4800    -1.7460 H     1 <1>   0.0800 
 29 H       -2.0330     0.0240    -2.6240 H     1 <1>   0.0800 
 30 H        2.0680     2.5470    -0.7810 H     1 <1>   0.0800 
 31 H        2.3780     1.5290     0.5980 H     1 <1>   0.0800 
 32 H       -3.8880     0.5790     1.0280 H     1 <1>   0.0800 
 33 H       -3.7940    -0.9660     1.8200 H     1 <1>   0.0800 
 34 H       -4.2340    -1.0500    -2.4180 H     1 <1>   0.0800 
 35 H       -4.1780     0.5250    -1.6860 H     1 <1>   0.0800 
 36 H        1.4060     4.4070     0.7360 H     1 <1>   0.0800 
 37 H        3.0300     3.8620     1.0720 H     1 <1>   0.0800 
 38 H        1.7210     3.3840     2.1220 H     1 <1>   0.0800 
 39 H       -4.0060    -2.1500    -0.2780 H     1 <1>   0.0800 
 40 H       -5.7600     0.9370    -0.2560 H     1 <1>   0.3700 
 41 H       -8.6450    -1.3570    -0.0170 H     1 <1>   0.1500 
 42 H       -9.5310     3.4580     0.2220 H     1 <1>   0.1500 
 43 H       -6.2100     2.8370     0.8190 H     1 <1>   0.0800 
 44 H       -7.2910     3.9920     0.0920 H     1 <1>   0.0800 
 45 H       -6.3690     2.9240    -0.9280 H     1 <1>   0.0800 
 46 H      -10.9210    -0.5590     0.1880 H     1 <1>   0.1500 
 47 H      -11.8370     2.9040     0.9450 H     1 <1>   0.0800 
 48 H      -12.4260     1.2680     0.8190 H     1 <1>   0.0800 
 49 H      -12.2020     2.2260    -0.6270 H     1 <1>   0.0800 
@<TRIPOS>BOND
  1   1   2  2   
  2   1   3  2   
  3   1   4  am  
  4   1   5  1   
  5   4   6  1   
  6   4   7  1   
  7   5   8  1   
  8   5  24  1   
  9   5  25  1   
 10   6   9  1   
 11   6  26  1   
 12   6  27  1   
 13   7  10  1   
 14   7  28  1   
 15   7  29  1   
 16   8  11  1   
 17   8  30  1   
 18   8  31  1   
 19   9  12  1   
 20   9  32  1   
 21   9  33  1   
 22  10  12  1   
 23  10  34  1   
 24  10  35  1   
 25  11  36  1   
 26  11  37  1   
 27  11  38  1   
 28  12  13  1   
 29  12  39  1   
 30  13  14  2   
 31  13  15  am  
 32  15  16  1   
 33  15  40  1   
 34  16  17  ar  
 35  16  18  ar  
 36  17  19  ar  
 37  17  20  1   
 38  18  21  ar  
 39  18  41  1   
 40  19  22  ar  
 41  19  42  1   
 42  20  43  1   
 43  20  44  1   
 44  20  45  1   
 45  21  22  ar  
 46  21  46  1   
 47  22  23  1   
 48  23  47  1   
 49  23  48  1   
 50  23  49  1   
@<TRIPOS>SUBSTRUCTURE
  1 ****  12 GROUP 4 **** **** 0

# MOE 2024.06 (io_trps.svl 2023.06)
