@<TRIPOS>MOLECULE
NONAME
38 38 1 0 0 
SMALL
USER_CHARGES


@<TRIPOS>ATOM
  1 O        0.4930    -3.5970    -0.0860 O.2   1 <1>  -0.5700 
  2 C        0.9940    -2.5360    -0.3530 C.2   1 <1>   0.5690 
  3 N        0.2950    -1.6330    -1.0650 N.am  1 <1>  -0.8000 
  4 C        2.4200    -2.2680     0.0940 C.3   1 <1>   0.0420 
  5 C        2.6410    -0.8150     0.4780 C.2   1 <1>   0.5690 
  6 C        3.4140    -2.7250    -0.9860 C.3   1 <1>  -0.0170 
  7 O        2.3450     0.0810    -0.2750 O.2   1 <1>  -0.5700 
  8 N        3.2060    -0.5200     1.6660 N.am  1 <1>  -0.8000 
  9 C        4.8670    -2.4890    -0.5750 C.ar  1 <1>  -0.1440 
 10 C        5.4560    -3.1780     0.4830 C.ar  1 <1>   0.0820 
 11 C        5.6230    -1.5530    -1.2610 C.ar  1 <1>  -0.1500 
 12 O        4.7700    -4.0900     1.1940 O.3   1 <1>  -0.3630 
 13 C        6.7640    -2.9060     0.8440 C.ar  1 <1>  -0.1500 
 14 C        6.9520    -1.2670    -0.9330 C.ar  1 <1>   0.0860 
 15 C        4.7090    -5.4080     0.6950 C.3   1 <1>   0.1200 
 16 C        7.5000    -1.9700     0.1460 C.ar  1 <1>  -0.1500 
 17 C        7.6960    -0.2840    -1.6950 C.2   1 <1>   0.4230 
 18 C        5.8040    -6.2420     1.3570 C.3   1 <1>  -0.2400 
 19 O        7.2670     0.2430    -2.6890 O.2   1 <1>  -0.5700 
 20 C        9.0870     0.1350    -1.2600 C.3   1 <1>  -0.1790 
 21 H       -0.6690    -1.8170    -1.3400 H     1 <1>   0.3700 
 22 H        0.6620    -0.6850    -1.2250 H     1 <1>   0.3700 
 23 H        2.5750    -2.8620     0.9730 H     1 <1>   0.0800 
 24 H        3.2030    -2.1930    -1.8980 H     1 <1>   0.0800 
 25 H        3.2630    -3.7700    -1.1880 H     1 <1>   0.0800 
 26 H        3.4020     0.4530     1.9000 H     1 <1>   0.3700 
 27 H        3.5960    -1.2270     2.2930 H     1 <1>   0.3700 
 28 H        5.1780    -1.0100    -2.0790 H     1 <1>   0.1500 
 29 H        7.1970    -3.4340     1.6740 H     1 <1>   0.1500 
 30 H        4.8280    -5.3900    -0.3750 H     1 <1>   0.0800 
 31 H        3.7370    -5.8020     0.9380 H     1 <1>   0.0800 
 32 H        8.5150    -1.7930     0.4500 H     1 <1>   0.1500 
 33 H        6.7750    -5.8700     1.0830 H     1 <1>   0.0800 
 34 H        5.7280    -7.2620     1.0290 H     1 <1>   0.0800 
 35 H        5.6940    -6.2160     2.4260 H     1 <1>   0.0800 
 36 H        9.7650    -0.6940    -1.3490 H     1 <1>   0.0800 
 37 H        9.0690     0.4850    -0.2450 H     1 <1>   0.0800 
 38 H        9.4410     0.9330    -1.8880 H     1 <1>   0.0800 
@<TRIPOS>BOND
  1   1   2  2   
  2   2   3  am  
  3   2   4  1   
  4   3  21  1   
  5   3  22  1   
  6   4   5  1   
  7   4   6  1   
  8   4  23  1   
  9   5   7  2   
 10   5   8  am  
 11   6   9  1   
 12   6  24  1   
 13   6  25  1   
 14   8  26  1   
 15   8  27  1   
 16   9  10  ar  
 17   9  11  ar  
 18  10  12  1   
 19  10  13  ar  
 20  11  14  ar  
 21  11  28  1   
 22  12  15  1   
 23  13  16  ar  
 24  13  29  1   
 25  14  16  ar  
 26  14  17  1   
 27  15  18  1   
 28  15  30  1   
 29  15  31  1   
 30  16  32  1   
 31  17  19  2   
 32  17  20  1   
 33  18  33  1   
 34  18  34  1   
 35  18  35  1   
 36  20  36  1   
 37  20  37  1   
 38  20  38  1   
@<TRIPOS>SUBSTRUCTURE
  1 ****   9 GROUP 4 **** **** 0

# MOE 2024.06 (io_trps.svl 2023.06)
