@<TRIPOS>MOLECULE
NONAME
38 39 1 0 0 
SMALL
USER_CHARGES


@<TRIPOS>ATOM
  1 O       -0.7890     0.3550    -1.7760 O.2   1 <1>  -0.5700 
  2 C       -1.5940     1.0190    -1.1550 C.2   1 <1>   0.7060 
  3 O       -2.8740     0.9080    -1.5410 O.3   1 <1>  -0.2330 
  4 C       -1.3050     1.8630    -0.0430 C.2   1 <1>  -0.2360 
  5 C       -3.9070     1.4990    -0.9000 C.ar  1 <1>   0.0830 
  6 C        0.0720     2.0110     0.2930 C.2   1 <1>   1.0500 
  7 C       -2.3190     2.4720     0.6350 C.2   1 <1>  -0.1780 
  8 C       -3.6670     2.2990     0.2220 C.ar  1 <1>   0.0280 
  9 C       -5.1960     1.3030    -1.3620 C.ar  1 <1>  -0.1500 
 10 O        0.8190     2.7160    -0.4040 O.co2 1 <1>  -0.9000 
 11 O        0.4970     1.5380     1.3600 O.co2 1 <1>  -0.9000 
 12 C       -4.7570     2.8890     0.8640 C.ar  1 <1>  -0.1500 
 13 C       -6.2600     1.9010    -0.7140 C.ar  1 <1>   0.0830 
 14 C       -6.0510     2.7030     0.4110 C.ar  1 <1>  -0.1440 
 15 O       -7.4940     1.6960    -1.1910 O.3   1 <1>  -0.5320 
 16 C       -7.2030     3.3790     1.1520 C.3   1 <1>  -0.0170 
 17 C       -7.7180     4.6300     0.4200 C.3   1 <1>  -0.1600 
 18 C       -6.6330     5.7080     0.2680 C.3   1 <1>  -0.1600 
 19 C       -7.1890     6.9650    -0.4100 C.3   1 <1>  -0.1600 
 20 C       -6.0980     8.0290    -0.5720 C.3   1 <1>  -0.1600 
 21 C       -6.6490     9.2820    -1.2590 C.3   1 <1>  -0.2400 
 22 H       -2.1120     3.0930     1.4900 H     1 <1>   0.1500 
 23 H       -5.3690     0.6880    -2.2250 H     1 <1>   0.1500 
 24 H       -4.5650     3.5020     1.7260 H     1 <1>   0.1500 
 25 H       -8.1740     2.1890    -0.7010 H     1 <1>   0.4500 
 26 H       -6.8800     3.6620     2.1390 H     1 <1>   0.0800 
 27 H       -8.0080     2.6770     1.2820 H     1 <1>   0.0800 
 28 H       -8.5450     5.0380     0.9750 H     1 <1>   0.0800 
 29 H       -8.0790     4.3570    -0.5560 H     1 <1>   0.0800 
 30 H       -5.8210     5.3220    -0.3250 H     1 <1>   0.0800 
 31 H       -6.2440     5.9670     1.2380 H     1 <1>   0.0800 
 32 H       -7.9950     7.3660     0.1810 H     1 <1>   0.0800 
 33 H       -7.5810     6.7050    -1.3790 H     1 <1>   0.0800 
 34 H       -5.2880     7.6310    -1.1600 H     1 <1>   0.0800 
 35 H       -5.7080     8.2990     0.3950 H     1 <1>   0.0800 
 36 H       -7.0240     9.0400    -2.2380 H     1 <1>   0.0800 
 37 H       -5.8700    10.0160    -1.3640 H     1 <1>   0.0800 
 38 H       -7.4470     9.7100    -0.6780 H     1 <1>   0.0800 
@<TRIPOS>BOND
  1   1   2  2   
  2   2   3  1   
  3   2   4  1   
  4   3   5  1   
  5   4   6  1   
  6   4   7  2   
  7   5   8  ar  
  8   5   9  ar  
  9   6  10  ar  
 10   6  11  ar  
 11   7   8  1   
 12   7  22  1   
 13   8  12  ar  
 14   9  13  ar  
 15   9  23  1   
 16  12  14  ar  
 17  12  24  1   
 18  13  14  ar  
 19  13  15  1   
 20  14  16  1   
 21  15  25  1   
 22  16  17  1   
 23  16  26  1   
 24  16  27  1   
 25  17  18  1   
 26  17  28  1   
 27  17  29  1   
 28  18  19  1   
 29  18  30  1   
 30  18  31  1   
 31  19  20  1   
 32  19  32  1   
 33  19  33  1   
 34  20  21  1   
 35  20  34  1   
 36  20  35  1   
 37  21  36  1   
 38  21  37  1   
 39  21  38  1   
@<TRIPOS>SUBSTRUCTURE
  1 ****   8 GROUP 4 **** **** 0

# MOE 2024.06 (io_trps.svl 2023.06)
