@<TRIPOS>MOLECULE
NONAME
32 34 1 0 0 
SMALL
USER_CHARGES


@<TRIPOS>ATOM
  1 N       -0.5520     0.0840    -0.2400 N.4   1 <1>  -0.9590 
  2 C       -1.8950     0.6080     0.1750 C.3   1 <1>   0.5240 
  3 C       -0.2170    -1.2000     0.4810 C.3   1 <1>   0.3430 
  4 C        0.4900     1.1300    -0.1090 C.3   1 <1>   0.3430 
  5 C       -2.8980    -0.5120     0.0240 C.2   1 <1>  -0.1810 
  6 C       -1.1630    -2.3480     0.0710 C.3   1 <1>   0.0200 
  7 C        1.7140     0.7410    -0.9300 C.3   1 <1>  -0.2400 
  8 C       -4.2990    -0.3970    -0.0890 C.ar  1 <1>   0.0000 
  9 C       -2.5820    -1.8250    -0.0260 C.2   1 <1>  -0.3320 
 10 C       -4.7810    -1.6980    -0.2140 C.ar  1 <1>  -0.1520 
 11 C       -5.1970     0.6770    -0.0970 C.ar  1 <1>  -0.1500 
 12 N       -3.7190    -2.5680    -0.1750 N.pl3 1 <1>   0.0330 
 13 C       -6.1480    -1.9460    -0.3490 C.ar  1 <1>  -0.1500 
 14 C       -6.5440     0.4290    -0.2310 C.ar  1 <1>  -0.1500 
 15 C       -7.0200    -0.8820    -0.3570 C.ar  1 <1>  -0.1500 
 16 H       -0.6670    -0.1580    -1.2320 H     1 <1>   0.4500 
 17 H       -2.1830     1.4350    -0.4530 H     1 <1>   0.0800 
 18 H       -1.8750     0.9360     1.2010 H     1 <1>   0.0800 
 19 H       -0.3070    -1.0400     1.5430 H     1 <1>   0.0800 
 20 H        0.7980    -1.4950     0.2730 H     1 <1>   0.0800 
 21 H        0.7620     1.2610     0.9260 H     1 <1>   0.0800 
 22 H        0.1100     2.0700    -0.4800 H     1 <1>   0.0800 
 23 H       -1.1040    -3.1340     0.8040 H     1 <1>   0.0800 
 24 H       -0.8580    -2.7510    -0.8780 H     1 <1>   0.0800 
 25 H        2.1890    -0.1400    -0.5400 H     1 <1>   0.0800 
 26 H        2.4320     1.5420    -0.8890 H     1 <1>   0.0800 
 27 H        1.4510     0.5880    -1.9620 H     1 <1>   0.0800 
 28 H       -4.8360     1.6830     0.0000 H     1 <1>   0.1500 
 29 H       -3.7990    -3.5890    -0.2440 H     1 <1>   0.2700 
 30 H       -6.5090    -2.9550    -0.4450 H     1 <1>   0.1500 
 31 H       -7.2500     1.2410    -0.2400 H     1 <1>   0.1500 
 32 H       -8.0780    -1.0470    -0.4600 H     1 <1>   0.1500 
@<TRIPOS>BOND
  1   1   2  1   
  2   1   3  1   
  3   1   4  1   
  4   1  16  1   
  5   2   5  1   
  6   2  17  1   
  7   2  18  1   
  8   3   6  1   
  9   3  19  1   
 10   3  20  1   
 11   4   7  1   
 12   4  21  1   
 13   4  22  1   
 14   5   8  1   
 15   5   9  2   
 16   6   9  1   
 17   6  23  1   
 18   6  24  1   
 19   7  25  1   
 20   7  26  1   
 21   7  27  1   
 22   8  10  ar  
 23   8  11  ar  
 24   9  12  1   
 25  10  12  1   
 26  10  13  ar  
 27  11  14  ar  
 28  11  28  1   
 29  12  29  1   
 30  13  15  ar  
 31  13  30  1   
 32  14  15  ar  
 33  14  31  1   
 34  15  32  1   
@<TRIPOS>SUBSTRUCTURE
  1 ****   5 GROUP 4 **** **** 0

# MOE 2024.06 (io_trps.svl 2023.06)
