@<TRIPOS>MOLECULE
NONAME
50 51 1 0 0 
SMALL
USER_CHARGES


@<TRIPOS>ATOM
  1 O       -0.0410     1.2640    -1.7340 O.2   1 <1>  -0.5700 
  2 C       -0.7220     1.9110    -0.9860 C.2   1 <1>   0.6590 
  3 O       -2.0410     1.8410    -1.1070 O.3   1 <1>  -0.4300 
  4 C       -0.0820     2.7900     0.1030 C.3   1 <1>   0.1220 
  5 C       -2.9650     2.4700    -0.2450 C.3   1 <1>   0.2610 
  6 C       -1.1190     3.7200     0.7470 C.2   1 <1>   0.4480 
  7 C        1.0570     3.6490    -0.4960 C.3   1 <1>  -0.2400 
  8 C        0.5350     1.8660     1.1810 C.3   1 <1>  -0.2400 
  9 C       -4.3810     2.2920    -0.8190 C.2   1 <1>   0.4230 
 10 C       -2.4810     3.9080     0.0620 C.3   1 <1>   0.0610 
 11 O       -0.8670     4.2750     1.7790 O.2   1 <1>  -0.5700 
 12 O       -4.8810     3.1740    -1.4730 O.2   1 <1>  -0.5700 
 13 C       -5.0910     1.0650    -0.5200 C.ar  1 <1>   0.0860 
 14 C       -2.3090     4.8040    -1.1900 C.3   1 <1>  -0.2400 
 15 C       -3.4810     4.6130     1.0120 C.3   1 <1>  -0.2400 
 16 C       -6.4840     1.0560    -0.4740 C.ar  1 <1>  -0.1500 
 17 C       -4.4520    -0.1500    -0.2660 C.ar  1 <1>  -0.1500 
 18 C       -7.1950    -0.0890    -0.1700 C.ar  1 <1>  -0.1500 
 19 C       -5.1630    -1.2960     0.0400 C.ar  1 <1>  -0.1500 
 20 C       -6.5530    -1.2910     0.0990 C.ar  1 <1>  -0.1430 
 21 C       -7.3900    -2.5450     0.4350 C.3   1 <1>   0.1430 
 22 C       -8.3140    -2.8750    -0.7470 C.3   1 <1>  -0.2400 
 23 C       -6.5310    -3.7900     0.7150 C.3   1 <1>  -0.2400 
 24 C       -8.2380    -2.2770     1.6870 C.3   1 <1>  -0.2400 
 25 H       -2.9380     1.9210     0.6810 H     1 <1>   0.0800 
 26 H        0.6810     4.2880    -1.2750 H     1 <1>   0.0800 
 27 H        1.8240     3.0210    -0.9170 H     1 <1>   0.0800 
 28 H        1.5030     4.2660     0.2650 H     1 <1>   0.0800 
 29 H       -0.2280     1.2700     1.6490 H     1 <1>   0.0800 
 30 H        1.0270     2.4450     1.9430 H     1 <1>   0.0800 
 31 H        1.2600     1.2030     0.7390 H     1 <1>   0.0800 
 32 H       -1.7200     4.3250    -1.9510 H     1 <1>   0.0800 
 33 H       -1.8230     5.7250    -0.9180 H     1 <1>   0.0800 
 34 H       -3.2600     5.0550    -1.6220 H     1 <1>   0.0800 
 35 H       -3.6240     4.0400     1.9110 H     1 <1>   0.0800 
 36 H       -4.4370     4.7570     0.5420 H     1 <1>   0.0800 
 37 H       -3.1060     5.5820     1.2940 H     1 <1>   0.0800 
 38 H       -7.0190     1.9670    -0.6820 H     1 <1>   0.1500 
 39 H       -3.3810    -0.2210    -0.3170 H     1 <1>   0.1500 
 40 H       -8.2690    -0.0310    -0.1470 H     1 <1>   0.1500 
 41 H       -4.6010    -2.1930     0.2250 H     1 <1>   0.1500 
 42 H       -7.7310    -3.0320    -1.6370 H     1 <1>   0.0800 
 43 H       -9.0060    -2.0750    -0.9340 H     1 <1>   0.0800 
 44 H       -8.8820    -3.7670    -0.5480 H     1 <1>   0.0800 
 45 H       -7.1550    -4.6350     0.9470 H     1 <1>   0.0800 
 46 H       -5.8780    -3.6190     1.5520 H     1 <1>   0.0800 
 47 H       -5.9400    -4.0430    -0.1470 H     1 <1>   0.0800 
 48 H       -8.8040    -3.1510     1.9560 H     1 <1>   0.0800 
 49 H       -8.9300    -1.4720     1.5230 H     1 <1>   0.0800 
 50 H       -7.6030    -2.0140     2.5130 H     1 <1>   0.0800 
@<TRIPOS>BOND
  1   1   2  2   
  2   2   3  1   
  3   2   4  1   
  4   3   5  1   
  5   4   6  1   
  6   4   7  1   
  7   4   8  1   
  8   5   9  1   
  9   5  10  1   
 10   5  25  1   
 11   6  10  1   
 12   6  11  2   
 13   7  26  1   
 14   7  27  1   
 15   7  28  1   
 16   8  29  1   
 17   8  30  1   
 18   8  31  1   
 19   9  12  2   
 20   9  13  1   
 21  10  14  1   
 22  10  15  1   
 23  13  16  ar  
 24  13  17  ar  
 25  14  32  1   
 26  14  33  1   
 27  14  34  1   
 28  15  35  1   
 29  15  36  1   
 30  15  37  1   
 31  16  18  ar  
 32  16  38  1   
 33  17  19  ar  
 34  17  39  1   
 35  18  20  ar  
 36  18  40  1   
 37  19  20  ar  
 38  19  41  1   
 39  20  21  1   
 40  21  22  1   
 41  21  23  1   
 42  21  24  1   
 43  22  42  1   
 44  22  43  1   
 45  22  44  1   
 46  23  45  1   
 47  23  46  1   
 48  23  47  1   
 49  24  48  1   
 50  24  49  1   
 51  24  50  1   
@<TRIPOS>SUBSTRUCTURE
  1 ****   9 GROUP 4 **** **** 0

# MOE 2024.06 (io_trps.svl 2023.06)
