@<TRIPOS>MOLECULE
NONAME
33 34 1 0 0 
SMALL
USER_CHARGES


@<TRIPOS>ATOM
  1 S        0.0300     0.4680    -0.1220 S.3   1 <1>  -0.3320 
  2 C       -1.4280    -0.5910    -0.1070 C.ar  1 <1>   0.1020 
  3 C        1.4570    -0.5950     0.3730 C.3   1 <1>   0.0700 
  4 C       -1.3730    -1.9210     0.2790 C.ar  1 <1>  -0.1500 
  5 C       -2.6240    -0.0190    -0.4990 C.ar  1 <1>  -0.1500 
  6 C        2.7150     0.2710     0.3550 C.3   1 <1>  -0.0990 
  7 C       -2.5320    -2.6800     0.2650 C.ar  1 <1>  -0.1500 
  8 C       -3.7780    -0.7830    -0.5100 C.ar  1 <1>  -0.1500 
  9 C        3.9410    -0.5640     0.6490 C.2   1 <1>   0.5690 
 10 C       -3.7360    -2.1160    -0.1310 C.ar  1 <1>  -0.1440 
 11 O        3.9520    -1.2470     1.6440 O.2   1 <1>  -0.5700 
 12 N        4.9830    -0.5170    -0.2220 N.am  1 <1>  -0.5790 
 13 C       -5.0030    -2.9530    -0.1420 C.3   1 <1>  -0.0970 
 14 C        6.2400    -1.2650    -0.0870 C.3   1 <1>   0.0490 
 15 C        7.4960    -0.6180    -0.5660 C.3   1 <1>  -0.2000 
 16 C        6.8980    -1.7600    -1.3320 C.3   1 <1>  -0.2000 
 17 H        1.5200    -1.4010    -0.3360 H     1 <1>   0.0800 
 18 H        1.2570    -0.9750     1.3600 H     1 <1>   0.0800 
 19 H       -0.4540    -2.3770     0.5890 H     1 <1>   0.1500 
 20 H       -2.6490     1.0150    -0.7930 H     1 <1>   0.1500 
 21 H        2.6330     1.0350     1.1050 H     1 <1>   0.0800 
 22 H        2.8120     0.7410    -0.6060 H     1 <1>   0.0800 
 23 H       -2.4920    -3.7120     0.5650 H     1 <1>   0.1500 
 24 H       -4.7080    -0.3360    -0.8150 H     1 <1>   0.1500 
 25 H        4.9280     0.0810    -1.0460 H     1 <1>   0.3700 
 26 H       -4.7710    -3.9850    -0.3320 H     1 <1>   0.0800 
 27 H       -5.6720    -2.6100    -0.9100 H     1 <1>   0.0800 
 28 H       -5.4970    -2.8760     0.8090 H     1 <1>   0.0800 
 29 H        6.2790    -1.8800     0.8000 H     1 <1>   0.1000 
 30 H        8.4060    -0.7940    -0.0180 H     1 <1>   0.1000 
 31 H        7.4480     0.3740    -0.9790 H     1 <1>   0.1000 
 32 H        6.4320    -1.5680    -2.2810 H     1 <1>   0.1000 
 33 H        7.4030    -2.7100    -1.3030 H     1 <1>   0.1000 
@<TRIPOS>BOND
  1   1   2  1   
  2   1   3  1   
  3   2   4  ar  
  4   2   5  ar  
  5   3   6  1   
  6   3  17  1   
  7   3  18  1   
  8   4   7  ar  
  9   4  19  1   
 10   5   8  ar  
 11   5  20  1   
 12   6   9  1   
 13   6  21  1   
 14   6  22  1   
 15   7  10  ar  
 16   7  23  1   
 17   8  10  ar  
 18   8  24  1   
 19   9  11  2   
 20   9  12  am  
 21  10  13  1   
 22  12  14  1   
 23  12  25  1   
 24  13  26  1   
 25  13  27  1   
 26  13  28  1   
 27  14  15  1   
 28  14  16  1   
 29  14  29  1   
 30  15  16  1   
 31  15  30  1   
 32  15  31  1   
 33  16  32  1   
 34  16  33  1   
@<TRIPOS>SUBSTRUCTURE
  1 ****   3 GROUP 4 **** **** 0

# MOE 2024.06 (io_trps.svl 2023.06)
