@<TRIPOS>MOLECULE
NONAME
41 42 1 0 0 
SMALL
USER_CHARGES


@<TRIPOS>ATOM
  1 CL       1.0690     0.5740     0.5920 Cl    1 <1>  -0.1770 
  2 C        2.1340    -0.7300     0.1120 C.ar  1 <1>   0.1770 
  3 C        1.6120    -1.9570    -0.2800 C.ar  1 <1>   0.0830 
  4 C        3.4960    -0.4990     0.1350 C.ar  1 <1>  -0.1500 
  5 O        0.2630    -2.1180    -0.2800 O.3   1 <1>  -0.3630 
  6 C        2.5010    -2.9610    -0.6510 C.ar  1 <1>  -0.1500 
  7 C        4.3900    -1.4960    -0.2340 C.ar  1 <1>  -0.0090 
  8 C       -0.3440    -3.3270    -0.6780 C.3   1 <1>   0.0400 
  9 C        3.8660    -2.7250    -0.6260 C.ar  1 <1>  -0.1500 
 10 S        6.1770    -1.1970    -0.1970 S.o2  1 <1>   1.4470 
 11 O        6.4850     0.0000    -0.9480 O.2   1 <1>  -0.6500 
 12 O        6.8900    -2.4220    -0.4580 O.2   1 <1>  -0.6500 
 13 N        6.4630    -0.8470     1.4160 N.am  1 <1>  -0.9140 
 14 C        7.7360    -0.1590     1.6210 C.3   1 <1>   0.3370 
 15 C        8.9590    -1.0840     1.3960 C.2   1 <1>   0.5690 
 16 C        7.7070     0.3860     3.0510 C.3   1 <1>  -0.2400 
 17 O        9.0500    -2.0640     2.1050 O.2   1 <1>  -0.5700 
 18 N        9.8930    -0.8210     0.4280 N.am  1 <1>  -0.6600 
 19 C        9.8390     0.2580    -0.5860 C.3   1 <1>   0.1400 
 20 C       11.0020    -1.7570     0.1400 C.3   1 <1>   0.1400 
 21 C       11.1410     0.1220    -1.3670 C.3   1 <1>  -0.1600 
 22 C       11.5110    -1.3520    -1.2380 C.3   1 <1>  -0.1600 
 23 H        3.8620     0.4640     0.4450 H     1 <1>   0.1500 
 24 H        2.1520    -3.9280    -0.9620 H     1 <1>   0.1500 
 25 H       -1.4090    -3.2060    -0.5990 H     1 <1>   0.0800 
 26 H       -0.0170    -4.1150    -0.0230 H     1 <1>   0.0800 
 27 H       -0.0750    -3.5340    -1.6990 H     1 <1>   0.0800 
 28 H        4.5410    -3.5150    -0.9170 H     1 <1>   0.1500 
 29 H        6.6210    -1.7660     1.8350 H     1 <1>   0.4200 
 30 H        7.7960     0.6900     0.9640 H     1 <1>   0.0800 
 31 H        7.6310    -0.4190     3.7600 H     1 <1>   0.0800 
 32 H        6.8740     1.0540     3.1770 H     1 <1>   0.0800 
 33 H        8.6140     0.9280     3.2500 H     1 <1>   0.0800 
 34 H        9.7580     1.2280    -0.1260 H     1 <1>   0.0800 
 35 H        9.0010     0.0890    -1.2420 H     1 <1>   0.0800 
 36 H       10.6560    -2.7780     0.1520 H     1 <1>   0.0800 
 37 H       11.7700    -1.6280     0.8830 H     1 <1>   0.0800 
 38 H       11.8950     0.7310    -0.9010 H     1 <1>   0.0800 
 39 H       11.0250     0.4280    -2.3920 H     1 <1>   0.0800 
 40 H       10.9870    -1.9270    -1.9830 H     1 <1>   0.0800 
 41 H       12.5670    -1.5240    -1.3410 H     1 <1>   0.0800 
@<TRIPOS>BOND
  1   1   2  1   
  2   2   3  ar  
  3   2   4  ar  
  4   3   5  1   
  5   3   6  ar  
  6   4   7  ar  
  7   4  23  1   
  8   5   8  1   
  9   6   9  ar  
 10   6  24  1   
 11   7   9  ar  
 12   7  10  1   
 13   8  25  1   
 14   8  26  1   
 15   8  27  1   
 16   9  28  1   
 17  10  11  2   
 18  10  12  2   
 19  10  13  am  
 20  13  14  1   
 21  13  29  1   
 22  14  15  1   
 23  14  16  1   
 24  14  30  1   
 25  15  17  2   
 26  15  18  am  
 27  16  31  1   
 28  16  32  1   
 29  16  33  1   
 30  18  19  1   
 31  18  20  1   
 32  19  21  1   
 33  19  34  1   
 34  19  35  1   
 35  20  22  1   
 36  20  36  1   
 37  20  37  1   
 38  21  22  1   
 39  21  38  1   
 40  21  39  1   
 41  22  40  1   
 42  22  41  1   
@<TRIPOS>SUBSTRUCTURE
  1 ****  10 GROUP 4 **** **** 0

# MOE 2024.06 (io_trps.svl 2023.06)
