@<TRIPOS>MOLECULE
NONAME
58 62 1 0 0 
SMALL
USER_CHARGES


@<TRIPOS>ATOM
  1 N       -0.1670    -0.1840     0.5480 N.4   1 <1>  -0.9590 
  2 C        0.3680    -1.4380    -0.0630 C.3   1 <1>   0.3430 
  3 C        0.7970     0.4960     1.4560 C.3   1 <1>   0.3430 
  4 C       -1.4680    -0.4440     1.2410 C.3   1 <1>   0.4860 
  5 C        1.6550    -1.1330    -0.8310 C.3   1 <1>  -0.1600 
  6 C        2.0930     0.8110     0.7030 C.3   1 <1>  -0.1600 
  7 C       -2.4730    -0.8860     0.1980 C.ar  1 <1>  -0.1440 
  8 C        2.6870    -0.4510     0.0660 C.3   1 <1>   0.4230 
  9 C       -3.0110     0.0350    -0.6900 C.ar  1 <1>  -0.1500 
 10 C       -2.8540    -2.2180     0.1160 C.ar  1 <1>  -0.1500 
 11 N        3.8760    -0.1150    -0.7520 N.4   1 <1>  -0.9060 
 12 C       -3.9060    -0.3770    -1.6620 C.ar  1 <1>  -0.1500 
 13 C       -3.7490    -2.6270    -0.8560 C.ar  1 <1>  -0.1500 
 14 C        5.0810     0.3500    -0.0150 C.3   1 <1>   0.4230 
 15 C       -4.2720    -1.7080    -1.7470 C.ar  1 <1>  -0.1500 
 16 C        6.1470     0.8000    -1.0380 C.3   1 <1>  -0.0800 
 17 C        5.6640    -0.7770     0.8720 C.3   1 <1>  -0.0800 
 18 C        6.6220    -0.3910    -1.9040 C.3   1 <1>  -0.1600 
 19 C        7.3610     1.3570    -0.2660 C.3   1 <1>  -0.1600 
 20 C        6.1360    -1.9710     0.0080 C.3   1 <1>  -0.1600 
 21 C        6.8800    -0.2150     1.6360 C.3   1 <1>  -0.1600 
 22 C        7.2000    -1.4990    -1.0020 C.3   1 <1>  -0.0800 
 23 C        7.9540     0.2640     0.6430 C.3   1 <1>  -0.0800 
 24 C        8.4010    -0.9260    -0.2260 C.3   1 <1>  -0.1600 
 25 H       -0.4230     0.4490    -0.2240 H     1 <1>   0.4500 
 26 H       -0.3610    -1.8580    -0.7410 H     1 <1>   0.0800 
 27 H        0.5630    -2.1670     0.7080 H     1 <1>   0.0800 
 28 H        1.0120    -0.1410     2.3010 H     1 <1>   0.0800 
 29 H        0.3660     1.4130     1.8310 H     1 <1>   0.0800 
 30 H       -1.8270     0.4550     1.7170 H     1 <1>   0.0800 
 31 H       -1.3540    -1.2080     1.9930 H     1 <1>   0.0800 
 32 H        1.4120    -0.5130    -1.6770 H     1 <1>   0.0800 
 33 H        2.0510    -2.0630    -1.1990 H     1 <1>   0.0800 
 34 H        2.7880     1.2300     1.4080 H     1 <1>   0.0800 
 35 H        1.8860     1.5540    -0.0470 H     1 <1>   0.0800 
 36 H        2.9720    -1.1400     0.8460 H     1 <1>   0.0800 
 37 H       -2.7560     1.0800    -0.6410 H     1 <1>   0.1500 
 38 H       -2.4700    -2.9540     0.8030 H     1 <1>   0.1500 
 39 H        3.6490     0.5910    -1.4610 H     1 <1>   0.4500 
 40 H        4.1920    -0.9430    -1.2710 H     1 <1>   0.4500 
 41 H       -4.3260     0.3350    -2.3530 H     1 <1>   0.1500 
 42 H       -4.0470    -3.6610    -0.9210 H     1 <1>   0.1500 
 43 H        4.8290     1.1940     0.6070 H     1 <1>   0.0800 
 44 H       -4.9700    -2.0280    -2.5030 H     1 <1>   0.1500 
 45 H        5.7570     1.5830    -1.6650 H     1 <1>   0.0800 
 46 H        4.9430    -1.1070     1.5980 H     1 <1>   0.0800 
 47 H        5.8240    -0.7850    -2.5090 H     1 <1>   0.0800 
 48 H        7.3880    -0.0560    -2.5850 H     1 <1>   0.0800 
 49 H        7.0710     2.2070     0.3280 H     1 <1>   0.0800 
 50 H        8.1140     1.6940    -0.9600 H     1 <1>   0.0800 
 51 H        5.3150    -2.4330    -0.5100 H     1 <1>   0.0800 
 52 H        6.5670    -2.7260     0.6440 H     1 <1>   0.0800 
 53 H        6.5820     0.6030     2.2700 H     1 <1>   0.0800 
 54 H        7.2980    -0.9770     2.2740 H     1 <1>   0.0800 
 55 H        7.5290    -2.3300    -1.6060 H     1 <1>   0.0800 
 56 H        8.8020     0.6560     1.1810 H     1 <1>   0.0800 
 57 H        9.1650    -0.6080    -0.9160 H     1 <1>   0.0800 
 58 H        8.8340    -1.6910     0.3970 H     1 <1>   0.0800 
@<TRIPOS>BOND
  1   1   2  1   
  2   1   3  1   
  3   1   4  1   
  4   1  25  1   
  5   2   5  1   
  6   2  26  1   
  7   2  27  1   
  8   3   6  1   
  9   3  28  1   
 10   3  29  1   
 11   4   7  1   
 12   4  30  1   
 13   4  31  1   
 14   5   8  1   
 15   5  32  1   
 16   5  33  1   
 17   6   8  1   
 18   6  34  1   
 19   6  35  1   
 20   7   9  ar  
 21   7  10  ar  
 22   8  11  1   
 23   8  36  1   
 24   9  12  ar  
 25   9  37  1   
 26  10  13  ar  
 27  10  38  1   
 28  11  14  1   
 29  11  39  1   
 30  11  40  1   
 31  12  15  ar  
 32  12  41  1   
 33  13  15  ar  
 34  13  42  1   
 35  14  16  1   
 36  14  17  1   
 37  14  43  1   
 38  15  44  1   
 39  16  18  1   
 40  16  19  1   
 41  16  45  1   
 42  17  20  1   
 43  17  21  1   
 44  17  46  1   
 45  18  22  1   
 46  18  47  1   
 47  18  48  1   
 48  19  23  1   
 49  19  49  1   
 50  19  50  1   
 51  20  22  1   
 52  20  51  1   
 53  20  52  1   
 54  21  23  1   
 55  21  53  1   
 56  21  54  1   
 57  22  24  1   
 58  22  55  1   
 59  23  24  1   
 60  23  56  1   
 61  24  57  1   
 62  24  58  1   
@<TRIPOS>SUBSTRUCTURE
  1 ****   8 GROUP 4 **** **** 0

# MOE 2024.06 (io_trps.svl 2023.06)
