@<TRIPOS>MOLECULE
NONAME
30 30 1 0 0 
SMALL
USER_CHARGES


@<TRIPOS>ATOM
  1 BR      -0.5020     0.4460    -0.0140 Br    1 <1>  -0.1110 
  2 C        1.3160     1.0810    -0.0100 C.ar  1 <1>   0.1110 
  3 C        2.3440     0.1570    -0.0120 C.ar  1 <1>  -0.1500 
  4 C        1.5450     2.4440    -0.0040 C.ar  1 <1>  -0.1500 
  5 C        3.6510     0.6160    -0.0090 C.ar  1 <1>  -0.1500 
  6 C        2.8550     2.8920    -0.0010 C.ar  1 <1>  -0.1500 
  7 C        3.9090     1.9880    -0.0030 C.ar  1 <1>   0.0830 
  8 O        5.1580     2.5180     0.0000 O.3   1 <1>  -0.3630 
  9 C        6.3030     1.6970    -0.0010 C.3   1 <1>   0.1200 
 10 C        7.5360     2.6020     0.0040 C.3   1 <1>  -0.1600 
 11 C        8.8320     1.7800     0.0020 C.3   1 <1>  -0.1600 
 12 C       10.0620     2.6960     0.0070 C.3   1 <1>  -0.1600 
 13 C       11.3580     1.8820     0.0060 C.3   1 <1>   0.0700 
 14 S       12.7760     3.0610     0.0120 S.3   1 <1>  -0.2660 
 15 C       14.2040     1.9580     0.0100 C.1   1 <1>   0.5930 
 16 N       15.0830     1.2370     0.0080 N.1   1 <1>  -0.5570 
 17 H        2.1240    -0.8950    -0.0170 H     1 <1>   0.1500 
 18 H        0.7210     3.1340    -0.0020 H     1 <1>   0.1500 
 19 H        4.4470    -0.1040    -0.0110 H     1 <1>   0.1500 
 20 H        3.0700     3.9450     0.0040 H     1 <1>   0.1500 
 21 H        6.2820     1.0870    -0.8880 H     1 <1>   0.0800 
 22 H        6.2800     1.0800     0.8800 H     1 <1>   0.0800 
 23 H        7.5060     3.2250     0.8800 H     1 <1>   0.0800 
 24 H        7.5080     3.2320    -0.8680 H     1 <1>   0.0800 
 25 H        8.8550     1.1520    -0.8730 H     1 <1>   0.0800 
 26 H        8.8530     1.1460     0.8730 H     1 <1>   0.0800 
 27 H       10.0400     3.3230     0.8820 H     1 <1>   0.0800 
 28 H       10.0420     3.3300    -0.8630 H     1 <1>   0.0800 
 29 H       11.4470     1.2770    -0.8790 H     1 <1>   0.0800 
 30 H       11.4450     1.2700     0.8870 H     1 <1>   0.0800 
@<TRIPOS>BOND
  1   1   2  1   
  2   2   3  ar  
  3   2   4  ar  
  4   3   5  ar  
  5   3  17  1   
  6   4   6  ar  
  7   4  18  1   
  8   5   7  ar  
  9   5  19  1   
 10   6   7  ar  
 11   6  20  1   
 12   7   8  1   
 13   8   9  1   
 14   9  10  1   
 15   9  21  1   
 16   9  22  1   
 17  10  11  1   
 18  10  23  1   
 19  10  24  1   
 20  11  12  1   
 21  11  25  1   
 22  11  26  1   
 23  12  13  1   
 24  12  27  1   
 25  12  28  1   
 26  13  14  1   
 27  13  29  1   
 28  13  30  1   
 29  14  15  1   
 30  15  16  3   
@<TRIPOS>SUBSTRUCTURE
  1 ****   9 GROUP 4 **** **** 0

# MOE 2024.06 (io_trps.svl 2023.06)
