@<TRIPOS>MOLECULE
NONAME
46 47 1 0 0 
SMALL
USER_CHARGES


@<TRIPOS>ATOM
  1 CL       1.2270     0.6300     2.8400 Cl    1 <1>  -0.1770 
  2 C        2.0130     1.1560     1.3750 C.ar  1 <1>   0.1770 
  3 C        3.1870     0.5400     0.9810 C.ar  1 <1>  -0.1500 
  4 C        1.4550     2.1800     0.6340 C.ar  1 <1>  -0.1500 
  5 C        3.8230     0.9550    -0.1800 C.ar  1 <1>  -0.1440 
  6 C        2.0860     2.5920    -0.5270 C.ar  1 <1>  -0.1500 
  7 C        3.2630     1.9810    -0.9310 C.ar  1 <1>  -0.1500 
  8 C        5.1190     0.3010    -0.6190 C.3   1 <1>  -0.0160 
  9 C        6.2880     1.0550     0.0180 C.3   1 <1>   0.3430 
 10 N        7.5980     0.4580    -0.3910 N.4   1 <1>  -0.9060 
 11 C        8.7830     1.1050     0.2290 C.3   1 <1>   0.4230 
 12 C        9.0000     2.5080    -0.3470 C.3   1 <1>  -0.1600 
 13 C       10.0130     0.2330    -0.0270 C.3   1 <1>  -0.1600 
 14 C       10.2790     3.1410     0.2090 C.3   1 <1>   0.3430 
 15 C       11.2810     0.8850     0.5290 C.3   1 <1>   0.3430 
 16 N       11.4490     2.2520    -0.0490 N.4   1 <1>  -0.9590 
 17 C       12.6940     2.9070     0.4620 C.3   1 <1>   0.3430 
 18 C       13.9360     2.2480    -0.1440 C.3   1 <1>  -0.1600 
 19 C       15.2060     2.9920     0.2800 C.3   1 <1>  -0.2400 
 20 H        3.5760    -0.2570     1.5890 H     1 <1>   0.1500 
 21 H        0.5410     2.6430     0.9630 H     1 <1>   0.1500 
 22 H        1.6570     3.3850    -1.1160 H     1 <1>   0.1500 
 23 H        3.7280     2.3160    -1.8430 H     1 <1>   0.1500 
 24 H        5.1870     0.3360    -1.6920 H     1 <1>   0.0800 
 25 H        5.1190    -0.7290    -0.3070 H     1 <1>   0.0800 
 26 H        6.1810     1.0170     1.0910 H     1 <1>   0.0800 
 27 H        6.2370     2.0880    -0.2860 H     1 <1>   0.0800 
 28 H        7.6720     0.4840    -1.4170 H     1 <1>   0.4500 
 29 H        7.5820    -0.5390    -0.1330 H     1 <1>   0.4500 
 30 H        8.6290     1.1800     1.2960 H     1 <1>   0.0800 
 31 H        8.1780     3.1490    -0.0820 H     1 <1>   0.0800 
 32 H        9.0690     2.4750    -1.4200 H     1 <1>   0.0800 
 33 H       10.1470     0.0600    -1.0810 H     1 <1>   0.0800 
 34 H        9.8900    -0.7210     0.4560 H     1 <1>   0.0800 
 35 H       10.1740     3.3030     1.2710 H     1 <1>   0.0800 
 36 H       10.4380     4.1010    -0.2580 H     1 <1>   0.0800 
 37 H       12.1340     0.2720     0.2830 H     1 <1>   0.0800 
 38 H       11.2190     0.9490     1.6040 H     1 <1>   0.0800 
 39 H       11.5820     2.1690    -1.0690 H     1 <1>   0.4500 
 40 H       12.7370     2.8500     1.5380 H     1 <1>   0.0800 
 41 H       12.6960     3.9500     0.1840 H     1 <1>   0.0800 
 42 H       13.8760     2.2660    -1.2190 H     1 <1>   0.0800 
 43 H       14.0230     1.2270     0.1830 H     1 <1>   0.0800 
 44 H       15.1830     4.0160    -0.0530 H     1 <1>   0.0800 
 45 H       16.0710     2.5200    -0.1540 H     1 <1>   0.0800 
 46 H       15.3220     2.9790     1.3510 H     1 <1>   0.0800 
@<TRIPOS>BOND
  1   1   2  1   
  2   2   3  ar  
  3   2   4  ar  
  4   3   5  ar  
  5   3  20  1   
  6   4   6  ar  
  7   4  21  1   
  8   5   7  ar  
  9   5   8  1   
 10   6   7  ar  
 11   6  22  1   
 12   7  23  1   
 13   8   9  1   
 14   8  24  1   
 15   8  25  1   
 16   9  10  1   
 17   9  26  1   
 18   9  27  1   
 19  10  11  1   
 20  10  28  1   
 21  10  29  1   
 22  11  12  1   
 23  11  13  1   
 24  11  30  1   
 25  12  14  1   
 26  12  31  1   
 27  12  32  1   
 28  13  15  1   
 29  13  33  1   
 30  13  34  1   
 31  14  16  1   
 32  14  35  1   
 33  14  36  1   
 34  15  16  1   
 35  15  37  1   
 36  15  38  1   
 37  16  17  1   
 38  16  39  1   
 39  17  18  1   
 40  17  40  1   
 41  17  41  1   
 42  18  19  1   
 43  18  42  1   
 44  18  43  1   
 45  19  44  1   
 46  19  45  1   
 47  19  46  1   
@<TRIPOS>SUBSTRUCTURE
  1 ****   9 GROUP 4 **** **** 0

# MOE 2024.06 (io_trps.svl 2023.06)
