@<TRIPOS>MOLECULE
NONAME
43 44 1 0 0 
SMALL
USER_CHARGES


@<TRIPOS>ATOM
  1 O       -0.4540    -0.1100    -0.3960 O.2   1 <1>  -0.5700 
  2 C       -0.2570    -1.2980    -0.2260 C.2   1 <1>   0.7800 
  3 O        0.9790    -1.7890    -0.3310 O.3   1 <1>  -0.4300 
  4 N       -1.2640    -2.1750     0.0760 N.am  1 <1>  -0.6600 
  5 C        2.0650    -0.9450    -0.6350 C.3   1 <1>   0.1200 
  6 C       -2.6610    -1.6870     0.2710 C.3   1 <1>   0.1400 
  7 C       -1.0220    -3.6330     0.2780 C.3   1 <1>   0.1400 
  8 C        3.3280    -1.7990    -0.6850 C.3   1 <1>  -0.2400 
  9 C       -3.4920    -2.6420     1.1410 C.3   1 <1>   0.1400 
 10 C       -2.2510    -4.4770    -0.1050 C.3   1 <1>   0.1400 
 11 N       -3.5040    -4.0460     0.6010 N.am  1 <1>  -0.6600 
 12 C       -4.6120    -4.8300     0.8020 C.2   1 <1>   0.5690 
 13 O       -5.5260    -4.4570     1.4980 O.2   1 <1>  -0.5700 
 14 C       -4.7660    -6.2210     0.1720 C.3   1 <1>  -0.0190 
 15 C       -6.1050    -6.3280    -0.5930 C.3   1 <1>  -0.1600 
 16 C       -4.6840    -7.3080     1.2650 C.3   1 <1>  -0.1600 
 17 C       -6.3950    -7.7460    -1.0790 C.3   1 <1>   0.3430 
 18 C       -5.0190    -8.7040     0.7390 C.3   1 <1>   0.3430 
 19 N       -6.3510    -8.6740     0.0800 N.4   1 <1>  -0.9060 
 20 H        2.1370    -0.1910     0.1320 H     1 <1>   0.0800 
 21 H        1.8770    -0.4760    -1.5860 H     1 <1>   0.0800 
 22 H       -3.1330    -1.5800    -0.6900 H     1 <1>   0.0800 
 23 H       -2.6410    -0.7160     0.7360 H     1 <1>   0.0800 
 24 H       -0.7780    -3.8060     1.3120 H     1 <1>   0.0800 
 25 H       -0.1820    -3.9510    -0.3160 H     1 <1>   0.0800 
 26 H        3.4970    -2.2680     0.2680 H     1 <1>   0.0800 
 27 H        4.1750    -1.1780    -0.9150 H     1 <1>   0.0800 
 28 H        3.2370    -2.5510    -1.4470 H     1 <1>   0.0800 
 29 H       -4.4970    -2.2630     1.2010 H     1 <1>   0.0800 
 30 H       -3.0880    -2.6520     2.1390 H     1 <1>   0.0800 
 31 H       -2.0370    -5.5040     0.1310 H     1 <1>   0.0800 
 32 H       -2.4030    -4.3970    -1.1680 H     1 <1>   0.0800 
 33 H       -3.9790    -6.3900    -0.5370 H     1 <1>   0.0800 
 34 H       -6.0810    -5.6620    -1.4390 H     1 <1>   0.0800 
 35 H       -6.9190    -6.0070     0.0350 H     1 <1>   0.0800 
 36 H       -5.3610    -7.0670     2.0680 H     1 <1>   0.0800 
 37 H       -3.6930    -7.3170     1.6830 H     1 <1>   0.0800 
 38 H       -5.6610    -8.0380    -1.8130 H     1 <1>   0.0800 
 39 H       -7.3690    -7.7760    -1.5420 H     1 <1>   0.0800 
 40 H       -5.0250    -9.4060     1.5580 H     1 <1>   0.0800 
 41 H       -4.2670    -9.0160     0.0310 H     1 <1>   0.0800 
 42 H       -6.6210    -9.6220    -0.2150 H     1 <1>   0.4500 
 43 H       -7.0480    -8.3640     0.7700 H     1 <1>   0.4500 
@<TRIPOS>BOND
  1   1   2  2   
  2   2   3  1   
  3   2   4  am  
  4   3   5  1   
  5   4   6  1   
  6   4   7  1   
  7   5   8  1   
  8   5  20  1   
  9   5  21  1   
 10   6   9  1   
 11   6  22  1   
 12   6  23  1   
 13   7  10  1   
 14   7  24  1   
 15   7  25  1   
 16   8  26  1   
 17   8  27  1   
 18   8  28  1   
 19   9  11  1   
 20   9  29  1   
 21   9  30  1   
 22  10  11  1   
 23  10  31  1   
 24  10  32  1   
 25  11  12  am  
 26  12  13  2   
 27  12  14  1   
 28  14  15  1   
 29  14  16  1   
 30  14  33  1   
 31  15  17  1   
 32  15  34  1   
 33  15  35  1   
 34  16  18  1   
 35  16  36  1   
 36  16  37  1   
 37  17  19  1   
 38  17  38  1   
 39  17  39  1   
 40  18  19  1   
 41  18  40  1   
 42  18  41  1   
 43  19  42  1   
 44  19  43  1   
@<TRIPOS>SUBSTRUCTURE
  1 ****  10 GROUP 4 **** **** 0

# MOE 2024.06 (io_trps.svl 2023.06)
