@<TRIPOS>MOLECULE
NONAME
43 44 1 0 0 
SMALL
USER_CHARGES


@<TRIPOS>ATOM
  1 F        0.3620    -0.3890     0.8680 F     1 <1>  -0.1900 
  2 C        1.4790    -0.9270     0.4610 C.ar  1 <1>   0.1900 
  3 C        2.0080    -1.9850     1.1730 C.ar  1 <1>  -0.1500 
  4 C        2.0910    -0.4200    -0.6680 C.ar  1 <1>  -0.1500 
  5 C        3.1950    -2.5510     0.7380 C.ar  1 <1>  -0.1500 
  6 C        3.2770    -0.9920    -1.0950 C.ar  1 <1>  -0.1500 
  7 C        3.8350    -2.0550    -0.3930 C.ar  1 <1>  -0.1430 
  8 C        5.1430    -2.6680    -0.8540 C.3   1 <1>  -0.0160 
  9 C        6.2910    -1.9640    -0.1290 C.3   1 <1>   0.3430 
 10 N        7.6140    -2.5210    -0.5500 N.4   1 <1>  -0.9060 
 11 C        8.7770    -1.9300     0.1600 C.3   1 <1>   0.4230 
 12 C        9.0050    -0.4800    -0.2810 C.3   1 <1>  -0.1600 
 13 C       10.0180    -2.7730    -0.1370 C.3   1 <1>  -0.1600 
 14 C       10.2640     0.1030     0.3670 C.3   1 <1>   0.3430 
 15 C       11.2660    -2.1710     0.5130 C.3   1 <1>   0.3430 
 16 N       11.4450    -0.7560     0.0650 N.4   1 <1>  -0.9590 
 17 C       12.6720    -0.1490     0.6640 C.3   1 <1>   0.3430 
 18 C       13.9140    -0.7450     0.0110 C.3   1 <1>  -0.2400 
 19 H        1.4970    -2.3540     2.0440 H     1 <1>   0.1500 
 20 H        1.6410     0.4020    -1.1970 H     1 <1>   0.1500 
 21 H        3.6040    -3.3810     1.2890 H     1 <1>   0.1500 
 22 H        3.7500    -0.6010    -1.9800 H     1 <1>   0.1500 
 23 H        5.2370    -2.5460    -1.9190 H     1 <1>   0.0800 
 24 H        5.1400    -3.7200    -0.6260 H     1 <1>   0.0800 
 25 H        6.1570    -2.0890     0.9340 H     1 <1>   0.0800 
 26 H        6.2420    -0.9100    -0.3500 H     1 <1>   0.0800 
 27 H        7.7190    -2.4050    -1.5670 H     1 <1>   0.4500 
 28 H        7.5940    -3.5370    -0.3820 H     1 <1>   0.4500 
 29 H        8.5920    -1.9510     1.2240 H     1 <1>   0.0800 
 30 H        8.1720     0.1320     0.0150 H     1 <1>   0.0800 
 31 H        9.1050    -0.4170    -1.3510 H     1 <1>   0.0800 
 32 H       10.1850    -2.8500    -1.1980 H     1 <1>   0.0800 
 33 H        9.8860    -3.7660     0.2550 H     1 <1>   0.0800 
 34 H       10.1270     0.1680     1.4360 H     1 <1>   0.0800 
 35 H       10.4320     1.1020    -0.0070 H     1 <1>   0.0800 
 36 H       12.1290    -2.7570     0.2380 H     1 <1>   0.0800 
 37 H       11.1720    -2.2030     1.5870 H     1 <1>   0.0800 
 38 H       11.6070    -0.7490    -0.9540 H     1 <1>   0.4500 
 39 H       12.6960    -0.3160     1.7300 H     1 <1>   0.0800 
 40 H       12.6730     0.9170     0.4920 H     1 <1>   0.0800 
 41 H       14.0220    -1.7900     0.2370 H     1 <1>   0.0800 
 42 H       14.7840    -0.2420     0.3960 H     1 <1>   0.0800 
 43 H       13.8990    -0.6000    -1.0550 H     1 <1>   0.0800 
@<TRIPOS>BOND
  1   1   2  1   
  2   2   3  ar  
  3   2   4  ar  
  4   3   5  ar  
  5   3  19  1   
  6   4   6  ar  
  7   4  20  1   
  8   5   7  ar  
  9   5  21  1   
 10   6   7  ar  
 11   6  22  1   
 12   7   8  1   
 13   8   9  1   
 14   8  23  1   
 15   8  24  1   
 16   9  10  1   
 17   9  25  1   
 18   9  26  1   
 19  10  11  1   
 20  10  27  1   
 21  10  28  1   
 22  11  12  1   
 23  11  13  1   
 24  11  29  1   
 25  12  14  1   
 26  12  30  1   
 27  12  31  1   
 28  13  15  1   
 29  13  32  1   
 30  13  33  1   
 31  14  16  1   
 32  14  34  1   
 33  14  35  1   
 34  15  16  1   
 35  15  36  1   
 36  15  37  1   
 37  16  17  1   
 38  16  38  1   
 39  17  18  1   
 40  17  39  1   
 41  17  40  1   
 42  18  41  1   
 43  18  42  1   
 44  18  43  1   
@<TRIPOS>SUBSTRUCTURE
  1 ****   9 GROUP 4 **** **** 0

# MOE 2024.06 (io_trps.svl 2023.06)
