@<TRIPOS>MOLECULE
NONAME
59 61 1 0 0 
SMALL
USER_CHARGES


@<TRIPOS>ATOM
  1 O        0.2180    -1.7010    -1.8120 O.2   1 <1>  -0.5700 
  2 C        1.0150    -1.8250    -0.9080 C.2   1 <1>   0.5690 
  3 N        1.1820    -3.0210    -0.2730 N.am  1 <1>  -0.6600 
  4 C        1.8650    -0.6280    -0.4820 C.3   1 <1>  -0.0190 
  5 C       -0.0060    -3.8880     0.1060 C.3   1 <1>   0.2810 
  6 C        2.4580    -3.7410    -0.5430 C.3   1 <1>   0.1400 
  7 C        0.9800     0.4870     0.1060 C.3   1 <1>  -0.1600 
  8 C        2.7150    -0.0860    -1.6470 C.3   1 <1>  -0.1600 
  9 C       -1.2870    -3.1190     0.5470 C.2   1 <1>   0.5690 
 10 C        0.4140    -4.8990     1.2000 C.3   1 <1>  -0.1600 
 11 C        2.8260    -4.6840     0.6010 C.3   1 <1>  -0.1600 
 12 C        1.8140     1.7030     0.5330 C.3   1 <1>  -0.1600 
 13 C        3.5490     1.1290    -1.2170 C.3   1 <1>  -0.1600 
 14 O       -1.6610    -3.1750     1.6970 O.2   1 <1>  -0.5700 
 15 N       -1.9790    -2.4070    -0.3940 N.am  1 <1>  -0.5470 
 16 C        1.6920    -5.6740     0.8660 C.3   1 <1>  -0.1600 
 17 C        2.6590     2.2390    -0.6330 C.3   1 <1>  -0.0800 
 18 C       -3.1530    -1.6450    -0.3080 C.ar  1 <1>   0.1170 
 19 C        3.5150     3.4240    -0.1740 C.3   1 <1>  -0.2400 
 20 C       -4.1640    -1.9110     0.6080 C.ar  1 <1>  -0.1500 
 21 C       -3.3200    -0.5840    -1.1880 C.ar  1 <1>  -0.1500 
 22 C       -5.3090    -1.1370     0.6420 C.ar  1 <1>  -0.1500 
 23 C       -4.4650     0.1900    -1.1570 C.ar  1 <1>  -0.1500 
 24 C       -5.4770    -0.0810    -0.2460 C.ar  1 <1>   0.1170 
 25 N       -6.6290     0.7140    -0.2290 N.am  1 <1>  -0.5470 
 26 C       -7.9380     0.3670    -0.3140 C.2   1 <1>   0.5690 
 27 O       -8.7880     1.2170    -0.2630 O.2   1 <1>  -0.5700 
 28 C       -8.3540    -1.0740    -0.4930 C.3   1 <1>  -0.1790 
 29 H        2.5320    -0.9550     0.2950 H     1 <1>   0.0800 
 30 H       -0.2750    -4.4540    -0.7680 H     1 <1>   0.0800 
 31 H        3.2570    -3.0350    -0.6920 H     1 <1>   0.0800 
 32 H        2.3470    -4.3080    -1.4520 H     1 <1>   0.0800 
 33 H        0.4390     0.1050     0.9560 H     1 <1>   0.0800 
 34 H        0.2560     0.7940    -0.6300 H     1 <1>   0.0800 
 35 H        2.0660     0.2000    -2.4580 H     1 <1>   0.0800 
 36 H        3.3690    -0.8590    -2.0100 H     1 <1>   0.0800 
 37 H       -0.3900    -5.5950     1.3610 H     1 <1>   0.0800 
 38 H        0.5630    -4.3670     2.1240 H     1 <1>   0.0800 
 39 H        3.0290    -4.1060     1.4860 H     1 <1>   0.0800 
 40 H        3.7210    -5.2210     0.3440 H     1 <1>   0.0800 
 41 H        2.4600     1.4200     1.3470 H     1 <1>   0.0800 
 42 H        1.1560     2.4760     0.8880 H     1 <1>   0.0800 
 43 H        4.0870     1.5090    -2.0680 H     1 <1>   0.0800 
 44 H        4.2710     0.8220    -0.4800 H     1 <1>   0.0800 
 45 H       -1.4210    -2.2250    -1.2410 H     1 <1>   0.3700 
 46 H        1.5310    -6.2910    -0.0010 H     1 <1>   0.0800 
 47 H        1.9540    -6.3150     1.6910 H     1 <1>   0.0800 
 48 H        1.9920     2.5830    -1.4070 H     1 <1>   0.0800 
 49 H        4.1970     3.1230     0.6020 H     1 <1>   0.0800 
 50 H        2.8870     4.2110     0.2070 H     1 <1>   0.0800 
 51 H        4.0830     3.8160    -0.9990 H     1 <1>   0.0800 
 52 H       -4.0550    -2.7260     1.3010 H     1 <1>   0.1500 
 53 H       -2.5440    -0.3620    -1.9000 H     1 <1>   0.1500 
 54 H       -6.0720    -1.3500     1.3680 H     1 <1>   0.1500 
 55 H       -4.5770     1.0070    -1.8460 H     1 <1>   0.1500 
 56 H       -6.4890     1.7240    -0.1990 H     1 <1>   0.3700 
 57 H       -8.3500    -1.5720     0.4570 H     1 <1>   0.0800 
 58 H       -7.6840    -1.5750    -1.1660 H     1 <1>   0.0800 
 59 H       -9.3470    -1.1130    -0.9010 H     1 <1>   0.0800 
@<TRIPOS>BOND
  1   1   2  2   
  2   2   3  am  
  3   2   4  1   
  4   3   5  1   
  5   3   6  1   
  6   4   7  1   
  7   4   8  1   
  8   4  29  1   
  9   5   9  1   
 10   5  10  1   
 11   5  30  1   
 12   6  11  1   
 13   6  31  1   
 14   6  32  1   
 15   7  12  1   
 16   7  33  1   
 17   7  34  1   
 18   8  13  1   
 19   8  35  1   
 20   8  36  1   
 21   9  14  2   
 22   9  15  am  
 23  10  16  1   
 24  10  37  1   
 25  10  38  1   
 26  11  16  1   
 27  11  39  1   
 28  11  40  1   
 29  12  17  1   
 30  12  41  1   
 31  12  42  1   
 32  13  17  1   
 33  13  43  1   
 34  13  44  1   
 35  15  18  1   
 36  15  45  1   
 37  16  46  1   
 38  16  47  1   
 39  17  19  1   
 40  17  48  1   
 41  18  20  ar  
 42  18  21  ar  
 43  19  49  1   
 44  19  50  1   
 45  19  51  1   
 46  20  22  ar  
 47  20  52  1   
 48  21  23  ar  
 49  21  53  1   
 50  22  24  ar  
 51  22  54  1   
 52  23  24  ar  
 53  23  55  1   
 54  24  25  1   
 55  25  26  am  
 56  25  56  1   
 57  26  27  2   
 58  26  28  1   
 59  28  57  1   
 60  28  58  1   
 61  28  59  1   
@<TRIPOS>SUBSTRUCTURE
  1 ****  15 GROUP 4 **** **** 0

# MOE 2024.06 (io_trps.svl 2023.06)
