@<TRIPOS>MOLECULE
NONAME
40 40 1 0 0 
SMALL
USER_CHARGES


@<TRIPOS>ATOM
  1 S       -0.0500    -0.0460     0.3560 S.o2  1 <1>   1.3330 
  2 O       -1.0760     0.9200     0.0430 O.2   1 <1>  -0.6500 
  3 O       -0.0960    -0.8020     1.5830 O.2   1 <1>  -0.6500 
  4 N        1.4620     0.7940     0.2960 N.am  1 <1>  -0.6930 
  5 C        0.0880    -1.1600    -1.0250 C.3   1 <1>  -0.1350 
  6 C        2.6780     0.1240     0.2970 C.ar  1 <1>   0.1990 
  7 C        1.3550     2.2690     0.2160 C.3   1 <1>   0.3340 
  8 C        3.0290    -0.7380     1.3300 C.ar  1 <1>  -0.1500 
  9 C        3.5780     0.2810    -0.7530 C.ar  1 <1>  -0.1500 
 10 C        2.6680     2.9520     0.5620 C.2   1 <1>  -0.2880 
 11 C        4.2320    -1.4170     1.3110 C.ar  1 <1>  -0.1500 
 12 C        4.7810    -0.3970    -0.7690 C.ar  1 <1>  -0.1500 
 13 C        3.3510     3.7800    -0.2360 C.2   1 <1>  -0.3000 
 14 C        5.1460    -1.2630     0.2660 C.ar  1 <1>   0.0860 
 15 C        6.4100    -1.9720     0.2680 C.2   1 <1>   0.5440 
 16 O        6.5170    -3.0480     0.8250 O.2   1 <1>  -0.5700 
 17 N        7.5100    -1.4380    -0.3460 N.am  1 <1>  -0.7300 
 18 C        8.8520    -2.0560    -0.4010 C.3   1 <1>   0.1400 
 19 C        9.8730    -1.0780     0.1790 C.3   1 <1>  -0.1600 
 20 C       11.2890    -1.6650     0.1420 C.3   1 <1>  -0.2400 
 21 H       -0.8130    -1.7330    -1.1250 H     1 <1>   0.0800 
 22 H        0.9080    -1.8350    -0.8770 H     1 <1>   0.0800 
 23 H        0.2490    -0.6100    -1.9310 H     1 <1>   0.0800 
 24 H        0.6030     2.6060     0.9110 H     1 <1>   0.0800 
 25 H        1.0400     2.5470    -0.7750 H     1 <1>   0.0800 
 26 H        2.3550    -0.8740     2.1570 H     1 <1>   0.1500 
 27 H        3.3230     0.9430    -1.5600 H     1 <1>   0.1500 
 28 H        3.0030     2.6940     1.5520 H     1 <1>   0.1500 
 29 H        4.4800    -2.0830     2.1200 H     1 <1>   0.1500 
 30 H        5.4460    -0.2600    -1.6030 H     1 <1>   0.1500 
 31 H        4.2800     4.2470     0.0440 H     1 <1>   0.1500 
 32 H        3.0460     4.0620    -1.2290 H     1 <1>   0.1500 
 33 H        7.4550    -0.4900    -0.7190 H     1 <1>   0.3700 
 34 H        9.0940    -2.2860    -1.4240 H     1 <1>   0.0800 
 35 H        8.8610    -2.9740     0.1640 H     1 <1>   0.0800 
 36 H        9.6110    -0.8610     1.2000 H     1 <1>   0.0800 
 37 H        9.8580    -0.1620    -0.3850 H     1 <1>   0.0800 
 38 H       11.3330    -2.5740     0.7170 H     1 <1>   0.0800 
 39 H       11.9890    -0.9630     0.5600 H     1 <1>   0.0800 
 40 H       11.5830    -1.8800    -0.8700 H     1 <1>   0.0800 
@<TRIPOS>BOND
  1   1   2  2   
  2   1   3  2   
  3   1   4  am  
  4   1   5  1   
  5   4   6  1   
  6   4   7  1   
  7   5  21  1   
  8   5  22  1   
  9   5  23  1   
 10   6   8  ar  
 11   6   9  ar  
 12   7  10  1   
 13   7  24  1   
 14   7  25  1   
 15   8  11  ar  
 16   8  26  1   
 17   9  12  ar  
 18   9  27  1   
 19  10  13  2   
 20  10  28  1   
 21  11  14  ar  
 22  11  29  1   
 23  12  14  ar  
 24  12  30  1   
 25  13  31  1   
 26  13  32  1   
 27  14  15  1   
 28  15  16  2   
 29  15  17  am  
 30  17  18  1   
 31  17  33  1   
 32  18  19  1   
 33  18  34  1   
 34  18  35  1   
 35  19  20  1   
 36  19  36  1   
 37  19  37  1   
 38  20  38  1   
 39  20  39  1   
 40  20  40  1   
@<TRIPOS>SUBSTRUCTURE
  1 ****  12 GROUP 4 **** **** 0

# MOE 2024.06 (io_trps.svl 2023.06)
