@<TRIPOS>MOLECULE
NONAME
33 34 1 0 0 
SMALL
USER_CHARGES


@<TRIPOS>ATOM
  1 O       -9.9760     2.5080     0.9620 O.3   1 <1>  -0.3630 
  2 C       -8.8840     2.0690     0.3310 C.ar  1 <1>   0.0830 
  3 C      -10.8770     1.4020     1.0380 C.3   1 <1>   0.4000 
  4 C       -9.0230     0.7520     0.0090 C.ar  1 <1>   0.0830 
  5 C       -7.7430     2.7760     0.0140 C.ar  1 <1>  -0.1500 
  6 O      -10.2110     0.3000     0.4230 O.3   1 <1>  -0.3630 
  7 C       -8.0260     0.0640    -0.6510 C.ar  1 <1>  -0.1500 
  8 C       -6.7180     2.1030    -0.6470 C.ar  1 <1>  -0.1440 
  9 C       -6.8660     0.7540    -0.9790 C.ar  1 <1>  -0.1500 
 10 C       -5.4430     2.8350    -0.9900 C.3   1 <1>   0.4870 
 11 N       -4.5750     2.7350     0.2030 N.4   1 <1>  -0.9060 
 12 C       -3.2700     3.3870     0.1490 C.3   1 <1>   0.5030 
 13 C       -2.4350     2.7760    -0.9760 C.3   1 <1>  -0.2400 
 14 C       -2.6030     3.1230     1.4940 C.3   1 <1>  -0.2400 
 15 C       -3.4530     4.8900    -0.0550 C.3   1 <1>  -0.2400 
 16 H      -11.7760     1.6300     0.4930 H     1 <1>   0.0800 
 17 H      -11.0830     1.1710     2.0680 H     1 <1>   0.0800 
 18 H       -7.6840     3.8160     0.2820 H     1 <1>   0.1500 
 19 H       -8.1620    -0.9740    -0.8990 H     1 <1>   0.1500 
 20 H       -6.0860     0.2230    -1.4990 H     1 <1>   0.1500 
 21 H       -5.6620     3.8660    -1.2180 H     1 <1>   0.0800 
 22 H       -4.9720     2.3780    -1.8450 H     1 <1>   0.0800 
 23 H       -4.4400     1.7420     0.4090 H     1 <1>   0.4500 
 24 H       -5.0980     3.1120     0.9990 H     1 <1>   0.4500 
 25 H       -2.8480     2.9950    -1.9440 H     1 <1>   0.0800 
 26 H       -2.3440     1.7110    -0.8580 H     1 <1>   0.0800 
 27 H       -1.4420     3.1920    -0.9540 H     1 <1>   0.0800 
 28 H       -2.4670     2.0690     1.6620 H     1 <1>   0.0800 
 29 H       -3.1780     3.5390     2.3030 H     1 <1>   0.0800 
 30 H       -1.6300     3.5830     1.5170 H     1 <1>   0.0800 
 31 H       -2.4960     5.3810     0.0010 H     1 <1>   0.0800 
 32 H       -3.8670     5.1150    -1.0220 H     1 <1>   0.0800 
 33 H       -4.0810     5.3130     0.7090 H     1 <1>   0.0800 
@<TRIPOS>BOND
  1   1   2  1   
  2   1   3  1   
  3   2   4  ar  
  4   2   5  ar  
  5   3   6  1   
  6   3  16  1   
  7   3  17  1   
  8   4   6  1   
  9   4   7  ar  
 10   5   8  ar  
 11   5  18  1   
 12   7   9  ar  
 13   7  19  1   
 14   8   9  ar  
 15   8  10  1   
 16   9  20  1   
 17  10  11  1   
 18  10  21  1   
 19  10  22  1   
 20  11  12  1   
 21  11  23  1   
 22  11  24  1   
 23  12  13  1   
 24  12  14  1   
 25  12  15  1   
 26  13  25  1   
 27  13  26  1   
 28  13  27  1   
 29  14  28  1   
 30  14  29  1   
 31  14  30  1   
 32  15  31  1   
 33  15  32  1   
 34  15  33  1   
@<TRIPOS>SUBSTRUCTURE
  1 ****   8 GROUP 4 **** **** 0

# MOE 2024.06 (io_trps.svl 2023.06)
