@<TRIPOS>MOLECULE
NONAME
36 37 1 0 0 
SMALL
USER_CHARGES


@<TRIPOS>ATOM
  1 O        0.2740     0.7490    -0.1070 O.2   1 <1>  -0.5700 
  2 C        0.9890     1.7110    -0.2780 C.2   1 <1>   0.6340 
  3 O        0.6100     2.7260    -1.0510 O.3   1 <1>  -0.4300 
  4 C        2.2840     1.9620     0.2650 C.ar  1 <1>   0.0860 
  5 C        1.6100     3.7330    -1.1000 C.3   1 <1>   0.2640 
  6 C        2.7020     3.1870    -0.2010 C.ar  1 <1>  -0.1440 
  7 C        3.1120     1.2330     1.1120 C.ar  1 <1>  -0.1500 
  8 C        3.9270     3.7170     0.1500 C.ar  1 <1>  -0.1500 
  9 C        4.3440     1.7520     1.4680 C.ar  1 <1>  -0.1500 
 10 C        4.7690     2.9930     0.9900 C.ar  1 <1>   0.1170 
 11 N        6.0120     3.5140     1.3380 N.am  1 <1>  -0.5470 
 12 C        7.2300     2.9090     1.3970 C.2   1 <1>   0.6900 
 13 O        8.0870     3.4080     2.0880 O.2   1 <1>  -0.5700 
 14 N        7.5330     1.7460     0.7630 N.am  1 <1>  -0.4900 
 15 C        7.1260     1.2620    -0.4460 C.2   1 <1>   0.5690 
 16 O        6.4720     1.9220    -1.2160 O.2   1 <1>  -0.5700 
 17 C        7.5570    -0.1790    -0.8220 C.3   1 <1>   0.0610 
 18 C        9.0930    -0.3110    -0.7980 C.3   1 <1>  -0.2400 
 19 C        6.9570    -1.1880     0.1760 C.3   1 <1>  -0.2400 
 20 C        7.0740    -0.5700    -2.2350 C.3   1 <1>  -0.2400 
 21 H        1.1970     4.6530    -0.7250 H     1 <1>   0.0800 
 22 H        1.9430     3.8430    -2.1180 H     1 <1>   0.0800 
 23 H        2.7820     0.2750     1.4770 H     1 <1>   0.1500 
 24 H        4.2460     4.6710    -0.2310 H     1 <1>   0.1500 
 25 H        4.9870     1.1940     2.1240 H     1 <1>   0.1500 
 26 H        6.0420     4.4790     1.6610 H     1 <1>   0.3700 
 27 H        8.3220     1.2780     1.1900 H     1 <1>   0.3700 
 28 H        9.5370     0.4020    -1.4720 H     1 <1>   0.0800 
 29 H        9.3930    -1.2970    -1.1070 H     1 <1>   0.0800 
 30 H        9.4880    -0.1380     0.1870 H     1 <1>   0.0800 
 31 H        7.3090    -1.0030     1.1750 H     1 <1>   0.0800 
 32 H        7.2250    -2.1940    -0.0950 H     1 <1>   0.0800 
 33 H        5.8840    -1.1120     0.1760 H     1 <1>   0.0800 
 34 H        7.4830     0.1020    -2.9690 H     1 <1>   0.0800 
 35 H        6.0010    -0.5110    -2.2920 H     1 <1>   0.0800 
 36 H        7.3740    -1.5720    -2.4850 H     1 <1>   0.0800 
@<TRIPOS>BOND
  1   1   2  2   
  2   2   3  1   
  3   2   4  1   
  4   3   5  1   
  5   4   6  ar  
  6   4   7  ar  
  7   5   6  1   
  8   5  21  1   
  9   5  22  1   
 10   6   8  ar  
 11   7   9  ar  
 12   7  23  1   
 13   8  10  ar  
 14   8  24  1   
 15   9  10  ar  
 16   9  25  1   
 17  10  11  1   
 18  11  12  am  
 19  11  26  1   
 20  12  13  2   
 21  12  14  am  
 22  14  15  am  
 23  14  27  1   
 24  15  16  2   
 25  15  17  1   
 26  17  18  1   
 27  17  19  1   
 28  17  20  1   
 29  18  28  1   
 30  18  29  1   
 31  18  30  1   
 32  19  31  1   
 33  19  32  1   
 34  19  33  1   
 35  20  34  1   
 36  20  35  1   
 37  20  36  1   
@<TRIPOS>SUBSTRUCTURE
  1 ****   9 GROUP 4 **** **** 0

# MOE 2024.06 (io_trps.svl 2023.06)
