@<TRIPOS>MOLECULE
NONAME
43 45 1 0 0 
SMALL
USER_CHARGES


@<TRIPOS>ATOM
  1 F       -2.4240     1.4070     1.8650 F     1 <1>  -0.1900 
  2 C       -1.4700     2.0510     1.2480 C.ar  1 <1>   0.1900 
  3 C       -1.5480     2.1990    -0.1320 C.ar  1 <1>  -0.1440 
  4 C       -0.4340     2.5670     2.0000 C.ar  1 <1>  -0.1500 
  5 C       -0.5350     2.8940    -0.7830 C.ar  1 <1>  -0.1500 
  6 C       -2.7140     1.6050    -0.9000 C.3   1 <1>   0.4870 
  7 C        0.5500     3.2530     1.3190 C.ar  1 <1>   0.1900 
  8 C        0.5200     3.4260    -0.0550 C.ar  1 <1>  -0.1500 
  9 N       -3.9690     2.2930    -0.5000 N.4   1 <1>  -0.9590 
 10 F        1.5450     3.7590     1.9930 F     1 <1>  -0.1900 
 11 C       -5.1730     1.6240    -1.0610 C.3   1 <1>   0.4860 
 12 C       -3.9770     3.7510    -0.8260 C.3   1 <1>   0.3430 
 13 C       -6.4330     2.3310    -0.5920 C.ar  1 <1>  -0.1430 
 14 C       -5.1250     4.4440    -0.0880 C.3   1 <1>  -0.0170 
 15 C       -6.4220     3.6480    -0.1500 C.ar  1 <1>  -0.1430 
 16 C       -7.6310     1.6380    -0.6180 C.ar  1 <1>  -0.1500 
 17 C       -7.6040     4.2460     0.2560 C.ar  1 <1>  -0.1500 
 18 C       -8.8200     2.2210    -0.2150 C.ar  1 <1>   0.0830 
 19 C       -8.8140     3.5550     0.2320 C.ar  1 <1>   0.0830 
 20 O       -9.8950     1.3850    -0.3100 O.3   1 <1>  -0.3620 
 21 O       -9.9720     4.1550     0.6340 O.3   1 <1>  -0.3620 
 22 C      -11.2100     1.7560     0.0370 C.3   1 <1>   0.0400 
 23 C      -10.0290     5.4890     1.0900 C.3   1 <1>   0.0400 
 24 H       -0.3890     2.4420     3.0670 H     1 <1>   0.1500 
 25 H       -0.5460     3.0280    -1.8530 H     1 <1>   0.1500 
 26 H       -2.7830     0.5530    -0.6710 H     1 <1>   0.0800 
 27 H       -2.5510     1.7130    -1.9600 H     1 <1>   0.0800 
 28 H        1.3160     3.9670    -0.5390 H     1 <1>   0.1500 
 29 H       -4.0450     2.2090     0.5240 H     1 <1>   0.4500 
 30 H       -5.2060     0.5950    -0.7400 H     1 <1>   0.0800 
 31 H       -5.1410     1.6440    -2.1380 H     1 <1>   0.0800 
 32 H       -4.1050     3.8830    -1.8880 H     1 <1>   0.0800 
 33 H       -3.0450     4.2090    -0.5360 H     1 <1>   0.0800 
 34 H       -5.2760     5.4190    -0.5170 H     1 <1>   0.0800 
 35 H       -4.8490     4.5830     0.9420 H     1 <1>   0.0800 
 36 H       -7.6710     0.6170    -0.9560 H     1 <1>   0.1500 
 37 H       -7.5650     5.2640     0.5950 H     1 <1>   0.1500 
 38 H      -11.8530     0.9130    -0.1360 H     1 <1>   0.0800 
 39 H      -11.5150     2.5820    -0.5810 H     1 <1>   0.0800 
 40 H      -11.2330     2.0260     1.0780 H     1 <1>   0.0800 
 41 H      -11.0510     5.7120     1.3400 H     1 <1>   0.0800 
 42 H       -9.6970     6.1430     0.3030 H     1 <1>   0.0800 
 43 H       -9.4120     5.5870     1.9650 H     1 <1>   0.0800 
@<TRIPOS>BOND
  1   1   2  1   
  2   2   3  ar  
  3   2   4  ar  
  4   3   5  ar  
  5   3   6  1   
  6   4   7  ar  
  7   4  24  1   
  8   5   8  ar  
  9   5  25  1   
 10   6   9  1   
 11   6  26  1   
 12   6  27  1   
 13   7   8  ar  
 14   7  10  1   
 15   8  28  1   
 16   9  11  1   
 17   9  12  1   
 18   9  29  1   
 19  11  13  1   
 20  11  30  1   
 21  11  31  1   
 22  12  14  1   
 23  12  32  1   
 24  12  33  1   
 25  13  15  ar  
 26  13  16  ar  
 27  14  15  1   
 28  14  34  1   
 29  14  35  1   
 30  15  17  ar  
 31  16  18  ar  
 32  16  36  1   
 33  17  19  ar  
 34  17  37  1   
 35  18  19  ar  
 36  18  20  1   
 37  19  21  1   
 38  20  22  1   
 39  21  23  1   
 40  22  38  1   
 41  22  39  1   
 42  22  40  1   
 43  23  41  1   
 44  23  42  1   
 45  23  43  1   
@<TRIPOS>SUBSTRUCTURE
  1 ****   9 GROUP 4 **** **** 0

# MOE 2024.06 (io_trps.svl 2023.06)
