@<TRIPOS>MOLECULE
NONAME
47 49 1 0 0 
SMALL
USER_CHARGES


@<TRIPOS>ATOM
  1 S        0.0990    -0.0910    -0.6280 S.o2  1 <1>   1.4470 
  2 O        0.7000    -0.1510    -1.9440 O.2   1 <1>  -0.6500 
  3 O       -0.0120     1.1840     0.0450 O.2   1 <1>  -0.6500 
  4 N        1.0440    -1.0840     0.3690 N.am  1 <1>  -0.8490 
  5 C       -1.5100    -0.9290    -0.6270 C.ar  1 <1>  -0.0090 
  6 C        2.2970    -0.4070     0.7520 C.3   1 <1>   0.1960 
  7 C        1.3270    -2.3880    -0.2610 C.3   1 <1>   0.1960 
  8 C       -2.1990    -1.1440     0.5590 C.ar  1 <1>  -0.1500 
  9 C       -2.0850    -1.3920    -1.8020 C.ar  1 <1>  -0.1500 
 10 C        3.1620    -1.2690     1.6880 C.3   1 <1>   0.1400 
 11 C        2.1460    -3.2990     0.6670 C.3   1 <1>   0.1400 
 12 C       -3.4180    -1.8020     0.5890 C.ar  1 <1>  -0.1440 
 13 C       -3.3000    -2.0510    -1.7900 C.ar  1 <1>  -0.1500 
 14 N        3.4030    -2.6130     1.0850 N.am  1 <1>  -0.6600 
 15 C       -3.9740    -2.2620    -0.5980 C.ar  1 <1>  -0.1430 
 16 C       -4.1190    -2.0010     1.9260 C.3   1 <1>  -0.0970 
 17 C        4.6670    -3.1300     0.9330 C.2   1 <1>   0.7150 
 18 C       -5.3110    -2.9900    -0.6230 C.3   1 <1>  -0.0970 
 19 O        5.5650    -2.6890     1.6250 O.2   1 <1>  -0.5700 
 20 C        4.9410    -4.1670    -0.0180 C.2   1 <1>  -0.2370 
 21 N        5.7430    -5.2340     0.2320 N.pl3 1 <1>   0.3140 
 22 C        4.5200    -4.3300    -1.3040 C.2   1 <1>  -0.1500 
 23 N        5.8210    -6.0650    -0.8180 N.2   1 <1>  -0.7070 
 24 C        6.4770    -5.5260     1.4740 C.3   1 <1>   0.0160 
 25 C        5.0910    -5.5120    -1.7370 C.2   1 <1>   0.1390 
 26 H        2.0680     0.5160     1.2580 H     1 <1>   0.0800 
 27 H        2.8670    -0.1640    -0.1310 H     1 <1>   0.0800 
 28 H        1.8720    -2.2460    -1.1800 H     1 <1>   0.0800 
 29 H        0.4000    -2.8840    -0.4970 H     1 <1>   0.0800 
 30 H       -1.7620    -0.7830     1.4750 H     1 <1>   0.1500 
 31 H       -1.5780    -1.2360    -2.7400 H     1 <1>   0.1500 
 32 H        2.6590    -1.3880     2.6310 H     1 <1>   0.0800 
 33 H        4.0950    -0.7650     1.8700 H     1 <1>   0.0800 
 34 H        2.3570    -4.2300     0.1740 H     1 <1>   0.0800 
 35 H        1.5610    -3.5210     1.5420 H     1 <1>   0.0800 
 36 H       -3.7200    -2.3970    -2.7190 H     1 <1>   0.1500 
 37 H       -3.5430    -1.5820     2.7310 H     1 <1>   0.0800 
 38 H       -4.2560    -3.0500     2.1190 H     1 <1>   0.0800 
 39 H       -5.0790    -1.5190     1.9130 H     1 <1>   0.0800 
 40 H       -6.0840    -2.3530    -0.2330 H     1 <1>   0.0800 
 41 H       -5.2570    -3.8820    -0.0260 H     1 <1>   0.0800 
 42 H       -5.5810    -3.2710    -1.6250 H     1 <1>   0.0800 
 43 H        3.8850    -3.6860    -1.8850 H     1 <1>   0.1500 
 44 H        5.8010    -5.4870     2.3060 H     1 <1>   0.0800 
 45 H        7.2540    -4.7960     1.6020 H     1 <1>   0.0800 
 46 H        6.9130    -6.5060     1.4060 H     1 <1>   0.0800 
 47 H        4.9580    -5.9380    -2.7170 H     1 <1>   0.1500 
@<TRIPOS>BOND
  1   1   2  2   
  2   1   3  2   
  3   1   4  am  
  4   1   5  1   
  5   4   6  1   
  6   4   7  1   
  7   5   8  ar  
  8   5   9  ar  
  9   6  10  1   
 10   6  26  1   
 11   6  27  1   
 12   7  11  1   
 13   7  28  1   
 14   7  29  1   
 15   8  12  ar  
 16   8  30  1   
 17   9  13  ar  
 18   9  31  1   
 19  10  14  1   
 20  10  32  1   
 21  10  33  1   
 22  11  14  1   
 23  11  34  1   
 24  11  35  1   
 25  12  15  ar  
 26  12  16  1   
 27  13  15  ar  
 28  13  36  1   
 29  14  17  am  
 30  15  18  1   
 31  16  37  1   
 32  16  38  1   
 33  16  39  1   
 34  17  19  2   
 35  17  20  1   
 36  18  40  1   
 37  18  41  1   
 38  18  42  1   
 39  20  21  1   
 40  20  22  2   
 41  21  23  1   
 42  21  24  1   
 43  22  25  1   
 44  22  43  1   
 45  23  25  2   
 46  24  44  1   
 47  24  45  1   
 48  24  46  1   
 49  25  47  1   
@<TRIPOS>SUBSTRUCTURE
  1 ****   7 GROUP 4 **** **** 0

# MOE 2024.06 (io_trps.svl 2023.06)
