@<TRIPOS>MOLECULE
NONAME
38 39 1 0 0 
SMALL
USER_CHARGES


@<TRIPOS>ATOM
  1 CL       0.1290    -0.1610    -0.6600 Cl    1 <1>  -0.1770 
  2 C        1.1520    -1.5730    -0.6170 C.ar  1 <1>   0.1770 
  3 C        0.5810    -2.8210    -0.7590 C.ar  1 <1>  -0.1500 
  4 C        2.5140    -1.4140    -0.4410 C.ar  1 <1>  -0.1500 
  5 C        1.4180    -3.9180    -0.7210 C.ar  1 <1>   0.1770 
  6 C        3.3650    -2.5200    -0.4010 C.ar  1 <1>   0.0530 
  7 CL       0.7360    -5.5140    -0.8970 Cl    1 <1>  -0.1770 
  8 C        2.7820    -3.7810    -0.5460 C.ar  1 <1>  -0.1500 
  9 C        4.7910    -2.3630    -0.2180 C.2   1 <1>   0.0870 
 10 O        5.5860    -3.4260    -0.1830 O.3   1 <1>  -0.2800 
 11 C        5.5590    -1.2520    -0.0590 C.2   1 <1>  -0.1500 
 12 C        6.8290    -3.0340    -0.0080 C.2   1 <1>  -0.0400 
 13 C        6.8800    -1.6850     0.0770 C.2   1 <1>  -0.1500 
 14 C        7.8900    -4.1160     0.0580 C.3   1 <1>   0.5230 
 15 N        9.2270    -3.4970     0.2570 N.4   1 <1>  -0.9060 
 16 C       10.3860    -4.4140     0.3450 C.3   1 <1>   0.5030 
 17 C       11.6730    -3.5600     0.5520 C.3   1 <1>   0.1200 
 18 C       10.1730    -5.3590     1.5340 C.3   1 <1>  -0.2400 
 19 C       10.4770    -5.2120    -0.9620 C.3   1 <1>  -0.2400 
 20 O       12.8070    -4.3600     0.6430 O.3   1 <1>  -0.6800 
 21 H       -0.4780    -2.9360    -0.8950 H     1 <1>   0.1500 
 22 H        2.9050    -0.4200    -0.3350 H     1 <1>   0.1500 
 23 H        3.3910    -4.6660    -0.5230 H     1 <1>   0.1500 
 24 H        5.2420    -0.2240    -0.0370 H     1 <1>   0.1500 
 25 H        7.7130    -1.0190     0.2180 H     1 <1>   0.1500 
 26 H        7.8690    -4.6800    -0.8600 H     1 <1>   0.0800 
 27 H        7.6570    -4.7820     0.8730 H     1 <1>   0.0800 
 28 H        9.1780    -2.9440     1.1180 H     1 <1>   0.4500 
 29 H        9.3780    -2.8480    -0.5200 H     1 <1>   0.4500 
 30 H       11.6070    -2.9940     1.4650 H     1 <1>   0.0800 
 31 H       11.8200    -2.8910    -0.2790 H     1 <1>   0.0800 
 32 H       10.0580    -4.8090     2.4510 H     1 <1>   0.0800 
 33 H       11.0340    -5.9950     1.6470 H     1 <1>   0.0800 
 34 H        9.3270    -6.0070     1.3930 H     1 <1>   0.0800 
 35 H       10.5770    -4.5580    -1.8100 H     1 <1>   0.0800 
 36 H        9.6320    -5.8600    -1.1040 H     1 <1>   0.0800 
 37 H       11.3490    -5.8430    -0.9380 H     1 <1>   0.0800 
 38 H       13.6230    -3.8310     0.7740 H     1 <1>   0.4000 
@<TRIPOS>BOND
  1   1   2  1   
  2   2   3  ar  
  3   2   4  ar  
  4   3   5  ar  
  5   3  21  1   
  6   4   6  ar  
  7   4  22  1   
  8   5   7  1   
  9   5   8  ar  
 10   6   8  ar  
 11   6   9  1   
 12   8  23  1   
 13   9  10  1   
 14   9  11  2   
 15  10  12  1   
 16  11  13  1   
 17  11  24  1   
 18  12  13  2   
 19  12  14  1   
 20  13  25  1   
 21  14  15  1   
 22  14  26  1   
 23  14  27  1   
 24  15  16  1   
 25  15  28  1   
 26  15  29  1   
 27  16  17  1   
 28  16  18  1   
 29  16  19  1   
 30  17  20  1   
 31  17  30  1   
 32  17  31  1   
 33  18  32  1   
 34  18  33  1   
 35  18  34  1   
 36  19  35  1   
 37  19  36  1   
 38  19  37  1   
 39  20  38  1   
@<TRIPOS>SUBSTRUCTURE
  1 ****  10 GROUP 4 **** **** 0

# MOE 2024.06 (io_trps.svl 2023.06)
