@<TRIPOS>MOLECULE
NONAME
46 48 1 0 0 
SMALL
USER_CHARGES


@<TRIPOS>ATOM
  1 CL      -0.5230    -1.1130     2.1590 Cl    1 <1>  -0.1770 
  2 C       -2.0670    -1.5140     1.4490 C.ar  1 <1>   0.1770 
  3 C       -2.1330    -1.8430     0.1090 C.ar  1 <1>  -0.1500 
  4 C       -3.2030    -1.4960     2.2360 C.ar  1 <1>  -0.1500 
  5 C       -3.3600    -2.1600    -0.4500 C.ar  1 <1>  -0.1500 
  6 C       -4.4250    -1.8130     1.6680 C.ar  1 <1>  -0.1500 
  7 C       -4.5210    -2.1530     0.3190 C.ar  1 <1>   0.1170 
  8 N       -5.7380    -2.4720    -0.3030 N.am  1 <1>  -0.5470 
  9 C       -6.9180    -2.9300     0.2190 C.2   1 <1>   0.5690 
 10 O       -7.0750    -3.1740     1.3900 O.2   1 <1>  -0.5700 
 11 C       -8.0810    -3.1560    -0.7470 C.3   1 <1>  -0.0190 
 12 C       -9.3720    -2.4730    -0.2550 C.3   1 <1>  -0.1600 
 13 C       -8.3280    -4.6590    -0.9710 C.3   1 <1>  -0.1600 
 14 C      -10.5530    -2.7420    -1.1920 C.3   1 <1>   0.1400 
 15 C       -9.5090    -4.9060    -1.9130 C.3   1 <1>   0.1400 
 16 N      -10.7160    -4.2090    -1.3890 N.am  1 <1>  -0.6600 
 17 C      -11.8750    -4.8960    -1.0840 C.2   1 <1>   0.5440 
 18 O      -11.9510    -6.0830    -1.3410 O.2   1 <1>  -0.5700 
 19 C      -13.0060    -4.2310    -0.4660 C.ar  1 <1>   0.0860 
 20 C      -13.1610    -4.1610     0.9240 C.ar  1 <1>  -0.1430 
 21 C      -13.9710    -3.6230    -1.2660 C.ar  1 <1>  -0.1500 
 22 C      -14.2390    -3.4870     1.4730 C.ar  1 <1>  -0.1500 
 23 C      -12.1490    -4.8330     1.8430 C.3   1 <1>  -0.0970 
 24 C      -15.0470    -2.9520    -0.7150 C.ar  1 <1>  -0.1500 
 25 C      -15.1790    -2.8810     0.6590 C.ar  1 <1>  -0.1500 
 26 H       -1.2350    -1.8500    -0.4820 H     1 <1>   0.1500 
 27 H       -3.1300    -1.2370     3.2770 H     1 <1>   0.1500 
 28 H       -3.4090    -2.4190    -1.4920 H     1 <1>   0.1500 
 29 H       -5.3060    -1.7920     2.2840 H     1 <1>   0.1500 
 30 H       -5.7220    -2.3880    -1.3170 H     1 <1>   0.3700 
 31 H       -7.8240    -2.7180    -1.6950 H     1 <1>   0.0800 
 32 H       -9.2150    -1.4120    -0.1780 H     1 <1>   0.0800 
 33 H       -9.6230    -2.8340     0.7270 H     1 <1>   0.0800 
 34 H       -8.5350    -5.1370    -0.0280 H     1 <1>   0.0800 
 35 H       -7.4470    -5.1190    -1.3810 H     1 <1>   0.0800 
 36 H      -10.3740    -2.2820    -2.1480 H     1 <1>   0.0800 
 37 H      -11.4430    -2.3030    -0.7760 H     1 <1>   0.0800 
 38 H       -9.6830    -5.9650    -1.9970 H     1 <1>   0.0800 
 39 H       -9.2880    -4.5290    -2.8970 H     1 <1>   0.0800 
 40 H      -13.8690    -3.6830    -2.3360 H     1 <1>   0.1500 
 41 H      -14.3570    -3.4310     2.5410 H     1 <1>   0.1500 
 42 H      -11.1710    -4.4140     1.6920 H     1 <1>   0.0800 
 43 H      -12.1060    -5.8870     1.6300 H     1 <1>   0.0800 
 44 H      -12.4170    -4.7080     2.8760 H     1 <1>   0.0800 
 45 H      -15.7800    -2.4880    -1.3520 H     1 <1>   0.1500 
 46 H      -16.0140    -2.3600     1.0940 H     1 <1>   0.1500 
@<TRIPOS>BOND
  1   1   2  1   
  2   2   3  ar  
  3   2   4  ar  
  4   3   5  ar  
  5   3  26  1   
  6   4   6  ar  
  7   4  27  1   
  8   5   7  ar  
  9   5  28  1   
 10   6   7  ar  
 11   6  29  1   
 12   7   8  1   
 13   8   9  am  
 14   8  30  1   
 15   9  10  2   
 16   9  11  1   
 17  11  12  1   
 18  11  13  1   
 19  11  31  1   
 20  12  14  1   
 21  12  32  1   
 22  12  33  1   
 23  13  15  1   
 24  13  34  1   
 25  13  35  1   
 26  14  16  1   
 27  14  36  1   
 28  14  37  1   
 29  15  16  1   
 30  15  38  1   
 31  15  39  1   
 32  16  17  am  
 33  17  18  2   
 34  17  19  1   
 35  19  20  ar  
 36  19  21  ar  
 37  20  22  ar  
 38  20  23  1   
 39  21  24  ar  
 40  21  40  1   
 41  22  25  ar  
 42  22  41  1   
 43  23  42  1   
 44  23  43  1   
 45  23  44  1   
 46  24  25  ar  
 47  24  45  1   
 48  25  46  1   
@<TRIPOS>SUBSTRUCTURE
  1 ****  11 GROUP 4 **** **** 0

# MOE 2024.06 (io_trps.svl 2023.06)
