@<TRIPOS>MOLECULE
NONAME
42 43 1 0 0 
SMALL
USER_CHARGES


@<TRIPOS>ATOM
  1 O        0.6800    -1.3050    -0.5970 O.3   1 <1>  -0.5600 
  2 C        0.3770    -1.6070     0.7230 C.3   1 <1>   0.2000 
  3 C       -0.3570    -0.7750    -1.3600 C.3   1 <1>   0.1200 
  4 C        1.6880    -1.8160     1.5200 C.3   1 <1>  -0.0800 
  5 C       -0.5710    -2.8190     0.7440 C.3   1 <1>  -0.1600 
  6 C       -1.7060    -1.4420    -1.0380 C.3   1 <1>  -0.1600 
  7 C        2.4340    -0.4820     1.6810 C.3   1 <1>  -0.2400 
  8 C        2.6410    -2.8500     0.8910 C.3   1 <1>  -0.2400 
  9 C       -1.6050    -2.8610    -0.4190 C.3   1 <1>   0.1430 
 10 C       -2.9720    -3.3330     0.1390 C.ar  1 <1>  -0.1440 
 11 C       -1.2350    -3.9190    -1.4950 C.3   1 <1>   0.0400 
 12 C       -3.0250    -4.4350     0.9890 C.ar  1 <1>  -0.1500 
 13 C       -4.1810    -2.7220    -0.1900 C.ar  1 <1>  -0.1500 
 14 C        0.0850    -3.8010    -2.1790 C.1   1 <1>   0.3570 
 15 C       -4.2240    -4.8980     1.5010 C.ar  1 <1>  -0.1500 
 16 C       -5.3810    -3.1840     0.3210 C.ar  1 <1>  -0.1500 
 17 N        1.0630    -3.7850    -2.7590 N.1   1 <1>  -0.5570 
 18 C       -5.4120    -4.2730     1.1720 C.ar  1 <1>  -0.1440 
 19 C       -6.7300    -4.7770     1.7320 C.3   1 <1>  -0.0970 
 20 H       -0.1380    -0.7550     1.1370 H     1 <1>   0.0800 
 21 H       -0.0930    -0.9330    -2.3920 H     1 <1>   0.0800 
 22 H       -0.4010     0.2850    -1.1780 H     1 <1>   0.0800 
 23 H        1.4230    -2.1580     2.5050 H     1 <1>   0.0800 
 24 H       -1.0870    -2.7650     1.6860 H     1 <1>   0.0800 
 25 H       -0.0110    -3.7330     0.7610 H     1 <1>   0.0800 
 26 H       -2.2990    -1.4560    -1.9340 H     1 <1>   0.0800 
 27 H       -2.2080    -0.8000    -0.3350 H     1 <1>   0.0800 
 28 H        2.7280    -0.1020     0.7170 H     1 <1>   0.0800 
 29 H        3.3170    -0.6150     2.2800 H     1 <1>   0.0800 
 30 H        1.8050     0.2460     2.1590 H     1 <1>   0.0800 
 31 H        2.9060    -2.5560    -0.1100 H     1 <1>   0.0800 
 32 H        2.1910    -3.8240     0.8450 H     1 <1>   0.0800 
 33 H        3.5430    -2.9290     1.4710 H     1 <1>   0.0800 
 34 H       -1.9910    -3.9100    -2.2580 H     1 <1>   0.0800 
 35 H       -1.2570    -4.8960    -1.0510 H     1 <1>   0.0800 
 36 H       -2.1260    -4.9560     1.2680 H     1 <1>   0.1500 
 37 H       -4.2280    -1.8770    -0.8510 H     1 <1>   0.1500 
 38 H       -4.2280    -5.7500     2.1570 H     1 <1>   0.1500 
 39 H       -6.2980    -2.6890     0.0500 H     1 <1>   0.1500 
 40 H       -6.5820    -5.2270     2.6970 H     1 <1>   0.0800 
 41 H       -7.1510    -5.5100     1.0670 H     1 <1>   0.0800 
 42 H       -7.4270    -3.9660     1.8410 H     1 <1>   0.0800 
@<TRIPOS>BOND
  1   1   2  1   
  2   1   3  1   
  3   2   4  1   
  4   2   5  1   
  5   2  20  1   
  6   3   6  1   
  7   3  21  1   
  8   3  22  1   
  9   4   7  1   
 10   4   8  1   
 11   4  23  1   
 12   5   9  1   
 13   5  24  1   
 14   5  25  1   
 15   6   9  1   
 16   6  26  1   
 17   6  27  1   
 18   7  28  1   
 19   7  29  1   
 20   7  30  1   
 21   8  31  1   
 22   8  32  1   
 23   8  33  1   
 24   9  10  1   
 25   9  11  1   
 26  10  12  ar  
 27  10  13  ar  
 28  11  14  1   
 29  11  34  1   
 30  11  35  1   
 31  12  15  ar  
 32  12  36  1   
 33  13  16  ar  
 34  13  37  1   
 35  14  17  3   
 36  15  18  ar  
 37  15  38  1   
 38  16  18  ar  
 39  16  39  1   
 40  18  19  1   
 41  19  40  1   
 42  19  41  1   
 43  19  42  1   
@<TRIPOS>SUBSTRUCTURE
  1 ****   9 GROUP 4 **** **** 0

# MOE 2024.06 (io_trps.svl 2023.06)
