@<TRIPOS>MOLECULE
NONAME
46 48 1 0 0 
SMALL
USER_CHARGES


@<TRIPOS>ATOM
  1 O       -0.2350     0.8740    -1.5800 O.2   1 <1>  -0.5700 
  2 C       -0.2630     1.6750    -0.6690 C.2   1 <1>   0.5440 
  3 N       -1.4330     1.9090     0.0190 N.am  1 <1>  -0.5470 
  4 C        0.9390     2.3930    -0.2860 C.ar  1 <1>   0.0860 
  5 C       -2.7310     1.3980    -0.1330 C.ar  1 <1>   0.1170 
  6 C        2.1890     1.7770    -0.3540 C.ar  1 <1>  -0.1500 
  7 C        0.8990     3.7150     0.1630 C.ar  1 <1>  -0.1500 
  8 C       -3.7940     2.1360     0.3680 C.ar  1 <1>  -0.1500 
  9 C       -3.0080     0.1800    -0.7450 C.ar  1 <1>  -0.1500 
 10 C        3.3480     2.4320     0.0240 C.ar  1 <1>  -0.1440 
 11 C        2.0510     4.3790     0.5450 C.ar  1 <1>  -0.1500 
 12 C       -5.1170     1.7080     0.2750 C.ar  1 <1>   0.0860 
 13 C       -4.3070    -0.2770    -0.8480 C.ar  1 <1>  -0.1500 
 14 C        3.2740     3.7370     0.4780 C.ar  1 <1>  -0.1500 
 15 C        4.6940     1.7340    -0.0560 C.3   1 <1>  -0.0970 
 16 C       -6.1970     2.5220     0.8060 C.2   1 <1>   0.5440 
 17 C       -5.3490     0.4770    -0.3410 C.ar  1 <1>  -0.1500 
 18 O       -5.9880     3.3220     1.6970 O.2   1 <1>  -0.5700 
 19 N       -7.4630     2.4160     0.3030 N.am  1 <1>  -0.7300 
 20 C       -8.6420     3.1720     0.7600 C.3   1 <1>   0.2200 
 21 C       -9.7640     2.1880     1.0640 C.3   1 <1>  -0.1600 
 22 C       -9.1900     3.9760    -0.4120 C.3   1 <1>  -0.1600 
 23 C      -10.3980     1.8450    -0.2890 C.3   1 <1>  -0.1600 
 24 C      -10.0320     2.9950    -1.2360 C.3   1 <1>  -0.1600 
 25 H       -1.3390     2.5840     0.7760 H     1 <1>   0.3700 
 26 H        2.2390     0.7620    -0.7110 H     1 <1>   0.1500 
 27 H       -0.0390     4.2380     0.2060 H     1 <1>   0.1500 
 28 H       -3.5980     3.0790     0.8460 H     1 <1>   0.1500 
 29 H       -2.2080    -0.4220    -1.1370 H     1 <1>   0.1500 
 30 H        2.0000     5.3970     0.8900 H     1 <1>   0.1500 
 31 H       -4.5030    -1.2240    -1.3220 H     1 <1>   0.1500 
 32 H        4.1680     4.2580     0.7770 H     1 <1>   0.1500 
 33 H        4.6250     0.8360    -0.6440 H     1 <1>   0.0800 
 34 H        5.0300     1.4750     0.9320 H     1 <1>   0.0800 
 35 H        5.4200     2.3820    -0.5120 H     1 <1>   0.0800 
 36 H       -6.3520     0.0980    -0.4200 H     1 <1>   0.1500 
 37 H       -7.6370     1.8350    -0.5140 H     1 <1>   0.3700 
 38 H       -8.3990     3.7920     1.6070 H     1 <1>   0.0800 
 39 H      -10.4950     2.6870     1.6750 H     1 <1>   0.0800 
 40 H       -9.4110     1.3200     1.5930 H     1 <1>   0.0800 
 41 H       -8.4080     4.4420    -0.9860 H     1 <1>   0.0800 
 42 H       -9.8320     4.7460    -0.0220 H     1 <1>   0.0800 
 43 H      -11.4650     1.7370    -0.1950 H     1 <1>   0.0800 
 44 H       -9.9880     0.9220    -0.6630 H     1 <1>   0.0800 
 45 H       -9.4530     2.6170    -2.0610 H     1 <1>   0.0800 
 46 H      -10.9120     3.4800    -1.6250 H     1 <1>   0.0800 
@<TRIPOS>BOND
  1   1   2  2   
  2   2   3  am  
  3   2   4  1   
  4   3   5  1   
  5   3  25  1   
  6   4   6  ar  
  7   4   7  ar  
  8   5   8  ar  
  9   5   9  ar  
 10   6  10  ar  
 11   6  26  1   
 12   7  11  ar  
 13   7  27  1   
 14   8  12  ar  
 15   8  28  1   
 16   9  13  ar  
 17   9  29  1   
 18  10  14  ar  
 19  10  15  1   
 20  11  14  ar  
 21  11  30  1   
 22  12  16  1   
 23  12  17  ar  
 24  13  17  ar  
 25  13  31  1   
 26  14  32  1   
 27  15  33  1   
 28  15  34  1   
 29  15  35  1   
 30  16  18  2   
 31  16  19  am  
 32  17  36  1   
 33  19  20  1   
 34  19  37  1   
 35  20  21  1   
 36  20  22  1   
 37  20  38  1   
 38  21  23  1   
 39  21  39  1   
 40  21  40  1   
 41  22  24  1   
 42  22  41  1   
 43  22  42  1   
 44  23  24  1   
 45  23  43  1   
 46  23  44  1   
 47  24  45  1   
 48  24  46  1   
@<TRIPOS>SUBSTRUCTURE
  1 ****   8 GROUP 4 **** **** 0

# MOE 2024.06 (io_trps.svl 2023.06)
