@<TRIPOS>MOLECULE
NONAME
40 43 1 0 0 
SMALL
USER_CHARGES


@<TRIPOS>ATOM
  1 CL      -0.5540     0.2570     0.0870 Cl    1 <1>  -0.1770 
  2 C       -2.1120     1.0480     0.0680 C.ar  1 <1>   0.1770 
  3 C       -2.2150     2.4300    -0.0890 C.ar  1 <1>   0.0860 
  4 C       -3.2260     0.2490     0.2380 C.ar  1 <1>  -0.1500 
  5 C       -1.0630     3.2760    -0.2880 C.2   1 <1>   0.6340 
  6 C       -3.4980     2.9780    -0.0460 C.ar  1 <1>  -0.1500 
  7 C       -4.4840     0.8220     0.2660 C.ar  1 <1>  -0.1500 
  8 O       -0.1890     3.0490    -1.0960 O.2   1 <1>  -0.5700 
  9 O       -0.9950     4.3890     0.4470 O.3   1 <1>  -0.4300 
 10 C       -4.6360     2.1980     0.1270 C.ar  1 <1>   0.1170 
 11 C        0.0820     5.2970     0.3260 C.3   1 <1>   0.0400 
 12 N       -5.9200     2.7860     0.1610 N.am  1 <1>  -0.2370 
 13 C       -7.0330     2.3390    -0.5340 C.2   1 <1>   0.5690 
 14 C       -6.2770     3.9020     0.9010 C.2   1 <1>   0.5690 
 15 O       -7.1690     1.3010    -1.1270 O.2   1 <1>  -0.5700 
 16 C       -8.0730     3.4250    -0.4700 C.3   1 <1>  -0.0190 
 17 O       -5.5530     4.6930     1.4460 O.2   1 <1>  -0.5700 
 18 C       -7.7790     3.9610     0.9320 C.3   1 <1>  -0.0190 
 19 C       -9.6060     3.4660    -0.7190 C.3   1 <1>   0.0580 
 20 C       -8.8200     5.0570     1.2740 C.3   1 <1>   0.0580 
 21 C      -10.3960     3.3400     0.5890 C.2   1 <1>  -0.2880 
 22 C       -9.8600     4.9590    -1.0790 C.3   1 <1>  -0.1600 
 23 C      -10.0430     4.1840     1.5700 C.2   1 <1>  -0.2880 
 24 C       -9.2200     5.8830     0.0170 C.3   1 <1>  -0.1600 
 25 H       -3.1070    -0.8150     0.3500 H     1 <1>   0.1500 
 26 H       -3.6020     4.0440    -0.1510 H     1 <1>   0.1500 
 27 H       -5.3500     0.1940     0.3950 H     1 <1>   0.1500 
 28 H        0.9980     4.7830     0.5610 H     1 <1>   0.0800 
 29 H       -0.0760     6.1080     1.0140 H     1 <1>   0.0800 
 30 H        0.1130     5.6670    -0.6840 H     1 <1>   0.0800 
 31 H       -7.6610     4.1130    -1.1890 H     1 <1>   0.0800 
 32 H       -7.9790     3.1730     1.6440 H     1 <1>   0.0800 
 33 H       -9.9360     2.7940    -1.4930 H     1 <1>   0.0800 
 34 H       -8.5240     5.6590     2.1170 H     1 <1>   0.0800 
 35 H      -11.1960     2.6190     0.6090 H     1 <1>   0.1500 
 36 H      -10.9220     5.1340    -1.1220 H     1 <1>   0.0800 
 37 H       -9.4600     5.1970    -2.0500 H     1 <1>   0.0800 
 38 H      -10.5030     4.2890     2.5390 H     1 <1>   0.1500 
 39 H       -8.3500     6.3810    -0.3740 H     1 <1>   0.0800 
 40 H       -9.9300     6.6410     0.3000 H     1 <1>   0.0800 
@<TRIPOS>BOND
  1   1   2  1   
  2   2   3  ar  
  3   2   4  ar  
  4   3   5  1   
  5   3   6  ar  
  6   4   7  ar  
  7   4  25  1   
  8   5   8  2   
  9   5   9  1   
 10   6  10  ar  
 11   6  26  1   
 12   7  10  ar  
 13   7  27  1   
 14   9  11  1   
 15  10  12  1   
 16  11  28  1   
 17  11  29  1   
 18  11  30  1   
 19  12  13  am  
 20  12  14  am  
 21  13  15  2   
 22  13  16  1   
 23  14  17  2   
 24  14  18  1   
 25  16  18  1   
 26  16  19  1   
 27  16  31  1   
 28  18  20  1   
 29  18  32  1   
 30  19  21  1   
 31  19  22  1   
 32  19  33  1   
 33  20  23  1   
 34  20  24  1   
 35  20  34  1   
 36  21  23  2   
 37  21  35  1   
 38  22  24  1   
 39  22  36  1   
 40  22  37  1   
 41  23  38  1   
 42  24  39  1   
 43  24  40  1   
@<TRIPOS>SUBSTRUCTURE
  1 ****  12 GROUP 4 **** **** 0

# MOE 2024.06 (io_trps.svl 2023.06)
