@<TRIPOS>MOLECULE
NONAME
43 44 1 0 0 
SMALL
USER_CHARGES


@<TRIPOS>ATOM
  1 O       -0.6710    -0.6610    -1.0990 O.2   1 <1>  -0.5700 
  2 C       -0.9930    -1.6160    -0.4350 C.2   1 <1>   0.5690 
  3 N       -0.1870    -2.6040     0.0370 N.am  1 <1>  -0.6600 
  4 C       -2.4250    -1.8420    -0.0430 C.3   1 <1>  -0.0990 
  5 C        1.2590    -2.7900    -0.2820 C.3   1 <1>   0.3000 
  6 C       -0.9740    -3.6090     0.7920 C.3   1 <1>   0.1400 
  7 C       -2.3290    -2.9310     1.0400 C.3   1 <1>  -0.0190 
  8 C        1.4150    -2.9670    -1.7950 C.3   1 <1>  -0.2400 
  9 C        1.8320    -4.0330     0.4140 C.3   1 <1>  -0.2400 
 10 C        2.0420    -1.5670     0.2020 C.3   1 <1>  -0.2400 
 11 C       -3.4960    -3.9080     1.0730 C.2   1 <1>   0.5690 
 12 O       -3.2770    -5.0770     1.2780 O.2   1 <1>  -0.5700 
 13 N       -4.7500    -3.4010     0.8770 N.am  1 <1>  -0.5470 
 14 C       -6.0260    -3.9810     0.8120 C.ar  1 <1>   0.1170 
 15 C       -7.0660    -3.2940     0.1540 C.ar  1 <1>   0.0860 
 16 C       -6.2890    -5.2170     1.3990 C.ar  1 <1>  -0.1500 
 17 C       -6.8480    -2.0120    -0.4960 C.2   1 <1>   0.5440 
 18 C       -8.3330    -3.8840     0.1300 C.ar  1 <1>  -0.1500 
 19 C       -7.5470    -5.7810     1.3510 C.ar  1 <1>  -0.1500 
 20 O       -6.0300    -1.2060    -0.0950 O.2   1 <1>  -0.5700 
 21 N       -7.5330    -1.6470    -1.6040 N.am  1 <1>  -0.8000 
 22 C       -8.5760    -5.1100     0.7160 C.ar  1 <1>  -0.1500 
 23 H       -2.9590    -2.1860    -0.9100 H     1 <1>   0.0800 
 24 H       -2.8690    -0.9360     0.3300 H     1 <1>   0.0800 
 25 H       -0.5070    -3.8630     1.7270 H     1 <1>   0.0800 
 26 H       -1.0860    -4.4940     0.1860 H     1 <1>   0.0800 
 27 H       -2.2760    -2.4530     2.0010 H     1 <1>   0.0800 
 28 H        1.0990    -2.0830    -2.3180 H     1 <1>   0.0800 
 29 H        0.8300    -3.8020    -2.1350 H     1 <1>   0.0800 
 30 H        2.4440    -3.1460    -2.0450 H     1 <1>   0.0800 
 31 H        1.3240    -4.9230     0.0920 H     1 <1>   0.0800 
 32 H        1.7610    -3.9390     1.4820 H     1 <1>   0.0800 
 33 H        2.8730    -4.1440     0.1660 H     1 <1>   0.0800 
 34 H        1.8830    -1.4140     1.2540 H     1 <1>   0.0800 
 35 H        1.7410    -0.6820    -0.3280 H     1 <1>   0.0800 
 36 H        3.0940    -1.7060     0.0320 H     1 <1>   0.0800 
 37 H       -4.7760    -2.3950     0.6570 H     1 <1>   0.3700 
 38 H       -5.5060    -5.7480     1.9080 H     1 <1>   0.1500 
 39 H       -9.1480    -3.3710    -0.3490 H     1 <1>   0.1500 
 40 H       -7.7280    -6.7380     1.8110 H     1 <1>   0.1500 
 41 H       -7.3220    -0.7460    -2.0380 H     1 <1>   0.3700 
 42 H       -8.1390    -2.2750    -2.1300 H     1 <1>   0.3700 
 43 H       -9.5600    -5.5460     0.6830 H     1 <1>   0.1500 
@<TRIPOS>BOND
  1   1   2  2   
  2   2   3  am  
  3   2   4  1   
  4   3   5  1   
  5   3   6  1   
  6   4   7  1   
  7   4  23  1   
  8   4  24  1   
  9   5   8  1   
 10   5   9  1   
 11   5  10  1   
 12   6   7  1   
 13   6  25  1   
 14   6  26  1   
 15   7  11  1   
 16   7  27  1   
 17   8  28  1   
 18   8  29  1   
 19   8  30  1   
 20   9  31  1   
 21   9  32  1   
 22   9  33  1   
 23  10  34  1   
 24  10  35  1   
 25  10  36  1   
 26  11  12  2   
 27  11  13  am  
 28  13  14  1   
 29  13  37  1   
 30  14  15  ar  
 31  14  16  ar  
 32  15  17  1   
 33  15  18  ar  
 34  16  19  ar  
 35  16  38  1   
 36  17  20  2   
 37  17  21  am  
 38  18  22  ar  
 39  18  39  1   
 40  19  22  ar  
 41  19  40  1   
 42  21  41  1   
 43  21  42  1   
 44  22  43  1   
@<TRIPOS>SUBSTRUCTURE
  1 ****  11 GROUP 4 **** **** 0

# MOE 2024.06 (io_trps.svl 2023.06)
