@<TRIPOS>MOLECULE
NONAME
51 53 1 0 0 
SMALL
USER_CHARGES


@<TRIPOS>ATOM
  1 O        0.4470     0.6640    -0.4590 O.2   1 <1>  -0.5700 
  2 C        0.2620     1.7030     0.1480 C.2   1 <1>   0.5440 
  3 N        1.3190     2.2780     0.8300 N.am  1 <1>  -0.6600 
  4 C       -1.0570     2.3020     0.1250 C.ar  1 <1>   0.0860 
  5 C        2.6160     1.5660     0.9960 C.3   1 <1>   0.1400 
  6 C        1.3250     3.6940     1.2940 C.3   1 <1>   0.1400 
  7 C       -1.7540     2.5840     1.3010 C.ar  1 <1>  -0.1500 
  8 C       -1.6810     2.6130    -1.0830 C.ar  1 <1>  -0.1500 
  9 C        3.7220     2.3280     0.2600 C.3   1 <1>  -0.1600 
 10 C        2.4270     4.4690     0.5680 C.3   1 <1>  -0.1600 
 11 C       -3.0060     3.1680     1.2710 C.ar  1 <1>  -0.1500 
 12 C       -2.9340     3.1960    -1.1230 C.ar  1 <1>  -0.1500 
 13 C        3.8060     3.7930     0.7240 C.3   1 <1>  -0.0190 
 14 C       -3.6060     3.4830     0.0620 C.ar  1 <1>   0.0820 
 15 C        4.9170     4.5400    -0.0170 C.2   1 <1>   0.5690 
 16 O       -4.8300     4.0550     0.1160 O.3   1 <1>  -0.3630 
 17 O        4.6550     5.1320    -1.0350 O.2   1 <1>  -0.5700 
 18 N        6.1750     4.4810     0.5190 N.am  1 <1>  -0.5470 
 19 C       -5.5460     4.3850    -1.0530 C.3   1 <1>   0.0400 
 20 C        7.3870     5.0580     0.1030 C.ar  1 <1>   0.1170 
 21 C        7.4560     6.1660    -0.7360 C.ar  1 <1>  -0.1500 
 22 C        8.5770     4.5090     0.5660 C.ar  1 <1>  -0.1500 
 23 C        8.6740     6.7070    -1.1090 C.ar  1 <1>  -0.1500 
 24 C        9.7980     5.0460     0.1990 C.ar  1 <1>  -0.1500 
 25 C        9.8580     6.1460    -0.6400 C.ar  1 <1>   0.0820 
 26 O       11.0960     6.6110    -0.9530 O.3   1 <1>  -0.3620 
 27 C       11.2570     7.7090    -1.8240 C.3   1 <1>   0.0400 
 28 H        2.5540     0.5610     0.6120 H     1 <1>   0.0800 
 29 H        2.8460     1.5020     2.0450 H     1 <1>   0.0800 
 30 H        1.4970     3.7140     2.3570 H     1 <1>   0.0800 
 31 H        0.3800     4.1710     1.0990 H     1 <1>   0.0800 
 32 H       -1.3020     2.3360     2.2450 H     1 <1>   0.1500 
 33 H       -1.1640     2.3850    -2.0000 H     1 <1>   0.1500 
 34 H        3.5190     2.2930    -0.7970 H     1 <1>   0.0800 
 35 H        4.6620     1.8330     0.4270 H     1 <1>   0.0800 
 36 H        2.4710     5.4720     0.9520 H     1 <1>   0.0800 
 37 H        2.1690     4.5320    -0.4760 H     1 <1>   0.0800 
 38 H       -3.5320     3.3830     2.1840 H     1 <1>   0.1500 
 39 H       -3.3710     3.4190    -2.0780 H     1 <1>   0.1500 
 40 H        4.0500     3.8010     1.7710 H     1 <1>   0.0800 
 41 H        6.2640     3.8800     1.3350 H     1 <1>   0.3700 
 42 H       -6.4870     4.8130    -0.7580 H     1 <1>   0.0800 
 43 H       -5.7140     3.4900    -1.6240 H     1 <1>   0.0800 
 44 H       -4.9790     5.1040    -1.6180 H     1 <1>   0.0800 
 45 H        6.5530     6.6180    -1.1050 H     1 <1>   0.1500 
 46 H        8.5570     3.6540     1.2150 H     1 <1>   0.1500 
 47 H        8.6780     7.5600    -1.7600 H     1 <1>   0.1500 
 48 H       10.7160     4.6160     0.5590 H     1 <1>   0.1500 
 49 H       12.3100     7.8930    -1.9370 H     1 <1>   0.0800 
 50 H       10.7800     8.5700    -1.3910 H     1 <1>   0.0800 
 51 H       10.8240     7.4640    -2.7770 H     1 <1>   0.0800 
@<TRIPOS>BOND
  1   1   2  2   
  2   2   3  am  
  3   2   4  1   
  4   3   5  1   
  5   3   6  1   
  6   4   7  ar  
  7   4   8  ar  
  8   5   9  1   
  9   5  28  1   
 10   5  29  1   
 11   6  10  1   
 12   6  30  1   
 13   6  31  1   
 14   7  11  ar  
 15   7  32  1   
 16   8  12  ar  
 17   8  33  1   
 18   9  13  1   
 19   9  34  1   
 20   9  35  1   
 21  10  13  1   
 22  10  36  1   
 23  10  37  1   
 24  11  14  ar  
 25  11  38  1   
 26  12  14  ar  
 27  12  39  1   
 28  13  15  1   
 29  13  40  1   
 30  14  16  1   
 31  15  17  2   
 32  15  18  am  
 33  16  19  1   
 34  18  20  1   
 35  18  41  1   
 36  19  42  1   
 37  19  43  1   
 38  19  44  1   
 39  20  21  ar  
 40  20  22  ar  
 41  21  23  ar  
 42  21  45  1   
 43  22  24  ar  
 44  22  46  1   
 45  23  25  ar  
 46  23  47  1   
 47  24  25  ar  
 48  24  48  1   
 49  25  26  1   
 50  26  27  1   
 51  27  49  1   
 52  27  50  1   
 53  27  51  1   
@<TRIPOS>SUBSTRUCTURE
  1 ****  10 GROUP 4 **** **** 0

# MOE 2024.06 (io_trps.svl 2023.06)
