@<TRIPOS>MOLECULE
NONAME
34 35 1 0 0 
SMALL
USER_CHARGES


@<TRIPOS>ATOM
  1 O       -2.1860    -1.2580    -2.3970 O.co2 1 <1>  -0.9000 
  2 C       -1.4260    -1.0320    -1.4490 C.2   1 <1>   0.9060 
  3 O       -1.3290     0.0930    -0.9520 O.co2 1 <1>  -0.9000 
  4 C       -0.6700    -2.2090    -0.8650 C.3   1 <1>  -0.1860 
  5 C       -1.6180    -3.2180    -0.1680 C.3   1 <1>  -0.0190 
  6 C        0.4890    -1.7960     0.0610 C.3   1 <1>  -0.0220 
  7 C       -2.3420    -2.6500     1.0690 C.2   1 <1>   0.5690 
  8 C       -0.8320    -4.5110     0.1580 C.3   1 <1>  -0.0220 
  9 C        1.1450    -3.0270     0.6700 C.2   1 <1>  -0.2880 
 10 O       -1.9140    -2.8660     2.1780 O.2   1 <1>  -0.5700 
 11 N       -3.5020    -1.9560     0.9800 N.am  1 <1>  -0.7300 
 12 C        0.5650    -4.2310     0.7020 C.2   1 <1>  -0.2880 
 13 C       -4.2150    -1.4420    -0.2070 C.3   1 <1>   0.2840 
 14 C       -5.6870    -1.2890     0.1400 C.ar  1 <1>  -0.1440 
 15 C       -6.3410    -0.0830    -0.0030 C.ar  1 <1>  -0.1500 
 16 C       -6.4450    -2.3420     0.6130 C.ar  1 <1>  -0.1500 
 17 C       -7.6830     0.0100     0.3260 C.ar  1 <1>   0.1600 
 18 C       -7.7810    -2.1420     0.9140 C.ar  1 <1>   0.1600 
 19 N       -8.4210    -0.9900     0.7820 N.ar  1 <1>  -0.6200 
 20 H       -0.2350    -2.7070    -1.7110 H     1 <1>   0.0800 
 21 H       -2.3780    -3.4960    -0.8740 H     1 <1>   0.0800 
 22 H        0.1270    -1.1570     0.8500 H     1 <1>   0.0800 
 23 H        1.2090    -1.2390    -0.5120 H     1 <1>   0.0800 
 24 H       -0.7290    -5.0950    -0.7390 H     1 <1>   0.0800 
 25 H       -1.3860    -5.0970     0.8700 H     1 <1>   0.0800 
 26 H        2.1190    -2.8290     1.0800 H     1 <1>   0.1500 
 27 H       -3.8280    -1.5560     1.8580 H     1 <1>   0.3700 
 28 H        1.0400    -5.0990     1.1250 H     1 <1>   0.1500 
 29 H       -4.1060    -2.1130    -1.0400 H     1 <1>   0.0800 
 30 H       -3.8050    -0.4840    -0.4820 H     1 <1>   0.0800 
 31 H       -5.8140     0.7810    -0.3690 H     1 <1>   0.1500 
 32 H       -5.9990    -3.3110     0.7500 H     1 <1>   0.1500 
 33 H       -8.1750     0.9600     0.2060 H     1 <1>   0.1500 
 34 H       -8.3550    -2.9750     1.2820 H     1 <1>   0.1500 
@<TRIPOS>BOND
  1   1   2  ar  
  2   2   3  ar  
  3   2   4  1   
  4   4   5  1   
  5   4   6  1   
  6   4  20  1   
  7   5   7  1   
  8   5   8  1   
  9   5  21  1   
 10   6   9  1   
 11   6  22  1   
 12   6  23  1   
 13   7  10  2   
 14   7  11  am  
 15   8  12  1   
 16   8  24  1   
 17   8  25  1   
 18   9  12  2   
 19   9  26  1   
 20  11  13  1   
 21  11  27  1   
 22  12  28  1   
 23  13  14  1   
 24  13  29  1   
 25  13  30  1   
 26  14  15  ar  
 27  14  16  ar  
 28  15  17  ar  
 29  15  31  1   
 30  16  18  ar  
 31  16  32  1   
 32  17  19  ar  
 33  17  33  1   
 34  18  19  ar  
 35  18  34  1   
@<TRIPOS>SUBSTRUCTURE
  1 ****  11 GROUP 4 **** **** 0

# MOE 2024.06 (io_trps.svl 2023.06)
