@<TRIPOS>MOLECULE
NONAME
48 49 1 0 0 
SMALL
USER_CHARGES


@<TRIPOS>ATOM
  1 S       -0.1360    -0.0610     0.1970 S.o2  1 <1>   1.4470 
  2 O       -0.2760     0.5720     1.4920 O.2   1 <1>  -0.6500 
  3 O       -0.4100     0.7260    -0.9880 O.2   1 <1>  -0.6500 
  4 N       -1.2890    -1.3080     0.1540 N.am  1 <1>  -0.8490 
  5 C        1.4650    -0.9150     0.1110 C.ar  1 <1>  -0.0090 
  6 C       -2.5930    -0.8130     0.6740 C.3   1 <1>   0.2570 
  7 C       -1.4420    -1.8900    -1.1890 C.3   1 <1>   0.1160 
  8 C        2.6180    -0.2160    -0.2370 C.ar  1 <1>   0.0830 
  9 C        1.5880    -2.2660     0.4190 C.ar  1 <1>  -0.1500 
 10 C       -3.7930    -1.7860     0.7380 C.2   1 <1>   0.5690 
 11 O        2.4890     1.1110    -0.4980 O.3   1 <1>  -0.3630 
 12 C        3.8480    -0.8680    -0.3040 C.ar  1 <1>  -0.1500 
 13 C        2.8050    -2.9220     0.3550 C.ar  1 <1>   0.0830 
 14 O       -3.5910    -2.9810     0.7450 O.2   1 <1>  -0.5700 
 15 N       -5.0790    -1.2910     0.7920 N.am  1 <1>  -0.6600 
 16 C        3.5860     1.9220    -0.8590 C.3   1 <1>   0.0400 
 17 C        3.9430    -2.2150    -0.0120 C.ar  1 <1>  -0.1500 
 18 O        2.8040    -4.2440     0.6650 O.3   1 <1>  -0.3630 
 19 C       -6.2600    -2.1920     0.6650 C.3   1 <1>   0.1400 
 20 C       -5.4510     0.1410     0.9750 C.3   1 <1>   0.1400 
 21 C        3.9980    -4.9930     0.6790 C.3   1 <1>   0.0400 
 22 C       -7.1030    -1.7560    -0.5390 C.3   1 <1>  -0.1600 
 23 C       -6.2660     0.6100    -0.2340 C.3   1 <1>  -0.1600 
 24 C       -7.5020    -0.2750    -0.4520 C.3   1 <1>  -0.1600 
 25 H       -2.8830     0.0280     0.0710 H     1 <1>   0.0800 
 26 H       -2.4490    -0.4600     1.6790 H     1 <1>   0.0800 
 27 H       -0.4810    -2.1730    -1.5830 H     1 <1>   0.0800 
 28 H       -1.8950    -1.1810    -1.8620 H     1 <1>   0.0800 
 29 H       -2.0530    -2.7760    -1.1500 H     1 <1>   0.0800 
 30 H        0.7230    -2.8330     0.7190 H     1 <1>   0.1500 
 31 H        4.7430    -0.3430    -0.5790 H     1 <1>   0.1500 
 32 H        3.2230     2.9220    -1.0110 H     1 <1>   0.0800 
 33 H        4.0120     1.5470    -1.7720 H     1 <1>   0.0800 
 34 H        4.3060     1.9120    -0.0600 H     1 <1>   0.0800 
 35 H        4.9020    -2.6920    -0.0740 H     1 <1>   0.1500 
 36 H       -6.8450    -2.1350     1.5660 H     1 <1>   0.0800 
 37 H       -5.9510    -3.2160     0.5340 H     1 <1>   0.0800 
 38 H       -4.5860     0.7670     1.1010 H     1 <1>   0.0800 
 39 H       -6.0480     0.2310     1.8670 H     1 <1>   0.0800 
 40 H        3.7560    -6.0000     0.9680 H     1 <1>   0.0800 
 41 H        4.6740    -4.5610     1.3950 H     1 <1>   0.0800 
 42 H        4.4250    -4.9900    -0.3080 H     1 <1>   0.0800 
 43 H       -7.9870    -2.3660    -0.5920 H     1 <1>   0.0800 
 44 H       -6.5350    -1.9270    -1.4370 H     1 <1>   0.0800 
 45 H       -5.6400     0.5850    -1.1100 H     1 <1>   0.0800 
 46 H       -6.5750     1.6290    -0.0820 H     1 <1>   0.0800 
 47 H       -8.1850    -0.1400     0.3700 H     1 <1>   0.0800 
 48 H       -8.0080     0.0200    -1.3550 H     1 <1>   0.0800 
@<TRIPOS>BOND
  1   1   2  2   
  2   1   3  2   
  3   1   4  am  
  4   1   5  1   
  5   4   6  1   
  6   4   7  1   
  7   5   8  ar  
  8   5   9  ar  
  9   6  10  1   
 10   6  25  1   
 11   6  26  1   
 12   7  27  1   
 13   7  28  1   
 14   7  29  1   
 15   8  11  1   
 16   8  12  ar  
 17   9  13  ar  
 18   9  30  1   
 19  10  14  2   
 20  10  15  am  
 21  11  16  1   
 22  12  17  ar  
 23  12  31  1   
 24  13  17  ar  
 25  13  18  1   
 26  15  19  1   
 27  15  20  1   
 28  16  32  1   
 29  16  33  1   
 30  16  34  1   
 31  17  35  1   
 32  18  21  1   
 33  19  22  1   
 34  19  36  1   
 35  19  37  1   
 36  20  23  1   
 37  20  38  1   
 38  20  39  1   
 39  21  40  1   
 40  21  41  1   
 41  21  42  1   
 42  22  24  1   
 43  22  43  1   
 44  22  44  1   
 45  23  24  1   
 46  23  45  1   
 47  23  46  1   
 48  24  47  1   
 49  24  48  1   
@<TRIPOS>SUBSTRUCTURE
  1 ****   4 GROUP 4 **** **** 0

# MOE 2024.06 (io_trps.svl 2023.06)
