@<TRIPOS>MOLECULE
NONAME
36 38 1 0 0 
SMALL
USER_CHARGES


@<TRIPOS>ATOM
  1 O       -0.4430     0.1840     0.4190 O.3   1 <1>  -0.3630 
  2 C       -1.5720     0.9230     0.3110 C.ar  1 <1>   0.0830 
  3 C        0.5240     0.1540    -0.6070 C.3   1 <1>   0.0400 
  4 C       -1.8860     1.7080    -0.7950 C.ar  1 <1>  -0.1500 
  5 C       -2.4520     0.8810     1.3800 C.ar  1 <1>  -0.1500 
  6 C       -3.0660     2.4260    -0.8210 C.ar  1 <1>  -0.1500 
  7 C       -3.6300     1.6010     1.3500 C.ar  1 <1>  -0.1500 
  8 C       -3.9650     2.3780     0.2430 C.ar  1 <1>   0.0280 
  9 C       -5.2030     3.1110     0.1920 C.2   1 <1>  -0.0410 
 10 N       -6.3620     2.4340    -0.1540 N.2   1 <1>   1.5890 
 11 C       -5.3070     4.4520     0.4600 C.2   1 <1>  -0.0380 
 12 O       -6.3330     1.1790    -0.4120 O.2   1 <1>  -0.5640 
 13 C       -7.5750     3.0670    -0.2370 C.2   1 <1>  -0.1510 
 14 N       -6.5300     5.0640     0.3660 N.pl3 1 <1>  -0.5080 
 15 C       -4.1300     5.3320     0.8680 C.3   1 <1>  -0.1020 
 16 C       -7.6480     4.3690     0.0220 C.2   1 <1>  -0.0380 
 17 C       -8.9230     2.4810    -0.6000 C.3   1 <1>  -0.0220 
 18 O       -6.6510     6.2930     0.5930 O.3   1 <1>  -0.6920 
 19 C       -9.0360     4.9300    -0.1090 C.3   1 <1>  -0.0220 
 20 C       -9.8760     3.6970    -0.5130 C.3   1 <1>  -0.1600 
 21 H        1.3220    -0.4950    -0.2950 H     1 <1>   0.0800 
 22 H        0.9020     1.1490    -0.7610 H     1 <1>   0.0800 
 23 H        0.0710    -0.2310    -1.5040 H     1 <1>   0.0800 
 24 H       -1.2200     1.7700    -1.6360 H     1 <1>   0.1500 
 25 H       -2.1980     0.2800     2.2360 H     1 <1>   0.1500 
 26 H       -3.2890     3.0390    -1.6790 H     1 <1>   0.1500 
 27 H       -4.2880     1.5590     2.2010 H     1 <1>   0.1500 
 28 H       -4.3470     5.7910     1.8160 H     1 <1>   0.0800 
 29 H       -4.0110     6.1180     0.1430 H     1 <1>   0.0800 
 30 H       -3.2090     4.7900     0.9500 H     1 <1>   0.0800 
 31 H       -9.2160     1.7170     0.1010 H     1 <1>   0.0800 
 32 H       -8.9140     2.0750    -1.5980 H     1 <1>   0.0800 
 33 H       -9.0480     5.6980    -0.8630 H     1 <1>   0.0800 
 34 H       -9.3490     5.3480     0.8310 H     1 <1>   0.0800 
 35 H      -10.6410     3.5220     0.2240 H     1 <1>   0.0800 
 36 H      -10.3480     3.8740    -1.4640 H     1 <1>   0.0800 
@<TRIPOS>BOND
  1   1   2  1   
  2   1   3  1   
  3   2   4  ar  
  4   2   5  ar  
  5   3  21  1   
  6   3  22  1   
  7   3  23  1   
  8   4   6  ar  
  9   4  24  1   
 10   5   7  ar  
 11   5  25  1   
 12   6   8  ar  
 13   6  26  1   
 14   7   8  ar  
 15   7  27  1   
 16   8   9  1   
 17   9  10  1   
 18   9  11  2   
 19  10  12  2   
 20  10  13  1   
 21  11  14  1   
 22  11  15  1   
 23  13  16  2   
 24  13  17  1   
 25  14  16  1   
 26  14  18  1   
 27  15  28  1   
 28  15  29  1   
 29  15  30  1   
 30  16  19  1   
 31  17  20  1   
 32  17  31  1   
 33  17  32  1   
 34  19  20  1   
 35  19  33  1   
 36  19  34  1   
 37  20  35  1   
 38  20  36  1   
@<TRIPOS>SUBSTRUCTURE
  1 ****   9 GROUP 4 **** **** 0

# MOE 2024.06 (io_trps.svl 2023.06)
