@<TRIPOS>MOLECULE
NONAME
43 45 1 0 0 
SMALL
USER_CHARGES


@<TRIPOS>ATOM
  1 O       -2.6750     4.4430     0.9170 O.3   1 <1>  -0.5600 
  2 C       -2.5940     3.0630     0.7180 C.3   1 <1>   0.1200 
  3 C       -1.7950     5.1710     0.1120 C.3   1 <1>   0.1200 
  4 C       -1.1680     2.5640     1.0150 C.3   1 <1>   0.1100 
  5 C       -0.3420     4.7450     0.3950 C.3   1 <1>   0.1100 
  6 N       -0.1590     3.2850     0.2030 N.3   1 <1>  -0.8100 
  7 C        1.1980     2.8350     0.5270 C.3   1 <1>   0.1100 
  8 C        2.1470     3.1700    -0.6310 C.3   1 <1>   0.3430 
  9 N        3.5080     2.6070    -0.4040 N.4   1 <1>  -0.9060 
 10 C        4.4470     2.8760    -1.5140 C.3   1 <1>   0.4860 
 11 C        5.7780     2.3070    -1.0840 C.ar  1 <1>  -0.1440 
 12 C        6.5970     3.0250    -0.1740 C.ar  1 <1>   0.0000 
 13 C        6.1640     1.0840    -1.5680 C.ar  1 <1>  -0.1500 
 14 C        7.8020     2.4240     0.2550 C.ar  1 <1>   0.0000 
 15 C        6.2870     4.3120     0.3340 C.ar  1 <1>  -0.1500 
 16 C        7.3690     0.5090    -1.1560 C.ar  1 <1>  -0.1500 
 17 C        8.1640     1.1650    -0.2610 C.ar  1 <1>  -0.1500 
 18 C        8.6170     3.0980     1.1860 C.ar  1 <1>  -0.1500 
 19 C        7.1000     4.9430     1.2330 C.ar  1 <1>  -0.1500 
 20 C        8.2760     4.3280     1.6690 C.ar  1 <1>  -0.1500 
 21 H       -2.8720     2.8420    -0.2980 H     1 <1>   0.0800 
 22 H       -3.3010     2.5950     1.3800 H     1 <1>   0.0800 
 23 H       -1.9320     6.2130     0.3390 H     1 <1>   0.0800 
 24 H       -2.0500     5.0020    -0.9190 H     1 <1>   0.0800 
 25 H       -1.1210     1.5100     0.7990 H     1 <1>   0.0800 
 26 H       -0.9690     2.7020     2.0640 H     1 <1>   0.0800 
 27 H       -0.1010     5.0200     1.4090 H     1 <1>   0.0800 
 28 H        0.3070     5.2900    -0.2670 H     1 <1>   0.0800 
 29 H        1.1850     1.7660     0.6590 H     1 <1>   0.0800 
 30 H        1.5280     3.2940     1.4440 H     1 <1>   0.0800 
 31 H        2.2050     4.2400    -0.7370 H     1 <1>   0.0800 
 32 H        1.7300     2.7590    -1.5370 H     1 <1>   0.0800 
 33 H        3.4660     1.5890    -0.2760 H     1 <1>   0.4500 
 34 H        3.9330     2.9790     0.4560 H     1 <1>   0.4500 
 35 H        4.5370     3.9340    -1.7000 H     1 <1>   0.0800 
 36 H        4.1110     2.3910    -2.4160 H     1 <1>   0.0800 
 37 H        5.5640     0.5290    -2.2700 H     1 <1>   0.1500 
 38 H        5.4050     4.8280     0.0100 H     1 <1>   0.1500 
 39 H        7.6590    -0.4510    -1.5490 H     1 <1>   0.1500 
 40 H        9.0910     0.7250     0.0630 H     1 <1>   0.1500 
 41 H        9.5260     2.6230     1.5120 H     1 <1>   0.1500 
 42 H        6.8600     5.9210     1.6160 H     1 <1>   0.1500 
 43 H        8.9060     4.8380     2.3800 H     1 <1>   0.1500 
@<TRIPOS>BOND
  1   1   2  1   
  2   1   3  1   
  3   2   4  1   
  4   2  21  1   
  5   2  22  1   
  6   3   5  1   
  7   3  23  1   
  8   3  24  1   
  9   4   6  1   
 10   4  25  1   
 11   4  26  1   
 12   5   6  1   
 13   5  27  1   
 14   5  28  1   
 15   6   7  1   
 16   7   8  1   
 17   7  29  1   
 18   7  30  1   
 19   8   9  1   
 20   8  31  1   
 21   8  32  1   
 22   9  10  1   
 23   9  33  1   
 24   9  34  1   
 25  10  11  1   
 26  10  35  1   
 27  10  36  1   
 28  11  12  ar  
 29  11  13  ar  
 30  12  14  ar  
 31  12  15  ar  
 32  13  16  ar  
 33  13  37  1   
 34  14  17  ar  
 35  14  18  ar  
 36  15  19  ar  
 37  15  38  1   
 38  16  17  ar  
 39  16  39  1   
 40  17  40  1   
 41  18  20  ar  
 42  18  41  1   
 43  19  20  ar  
 44  19  42  1   
 45  20  43  1   
@<TRIPOS>SUBSTRUCTURE
  1 ****   9 GROUP 4 **** **** 0

# MOE 2024.06 (io_trps.svl 2023.06)
