@<TRIPOS>MOLECULE
NONAME
52 54 1 0 0 
SMALL
USER_CHARGES


@<TRIPOS>ATOM
  1 S        0.4370    -0.0670    -1.9200 S.o2  1 <1>   1.4470 
  2 O        0.2560    -1.4180    -1.4370 O.2   1 <1>  -0.6500 
  3 O        0.7510     0.1570    -3.3090 O.2   1 <1>  -0.6500 
  4 N       -1.0640     0.6550    -1.7240 N.am  1 <1>  -0.9140 
  5 C        1.5250     0.8820    -0.8210 C.ar  1 <1>  -0.0090 
  6 C       -1.7440     0.2750    -0.4850 C.3   1 <1>   0.1960 
  7 C        1.3990     2.2600    -0.6930 C.ar  1 <1>  -0.1500 
  8 C        2.5180     0.2520    -0.0800 C.ar  1 <1>  -0.1500 
  9 C       -2.8610     1.2790    -0.0950 C.3   1 <1>   0.1430 
 10 C        2.2230     2.9820     0.1510 C.ar  1 <1>  -0.1500 
 11 C        3.3470     0.9690     0.7660 C.ar  1 <1>  -0.1500 
 12 C       -2.1960     2.6390     0.2400 C.ar  1 <1>  -0.1430 
 13 C       -3.5930     0.7900     1.1910 C.3   1 <1>  -0.1600 
 14 C       -3.8830     1.3550    -1.2600 C.3   1 <1>  -0.1600 
 15 C        3.2010     2.3390     0.8890 C.ar  1 <1>  -0.1430 
 16 C       -1.3600     2.7180     1.3530 C.ar  1 <1>  -0.1500 
 17 C       -2.3720     3.8010    -0.5110 C.ar  1 <1>  -0.1500 
 18 C       -4.9770     0.1920     0.9320 C.3   1 <1>   0.3430 
 19 C       -5.1720     2.0270    -0.7940 C.3   1 <1>   0.3430 
 20 C        4.1080     3.1290     1.8150 C.3   1 <1>  -0.0970 
 21 C       -0.7430     3.9020     1.7130 C.ar  1 <1>  -0.1500 
 22 C       -1.7550     4.9870    -0.1530 C.ar  1 <1>  -0.1500 
 23 N       -5.8630     1.1890     0.2430 N.4   1 <1>  -0.9590 
 24 C       -0.9420     5.0420     0.9610 C.ar  1 <1>  -0.1500 
 25 C       -6.5410     2.0790     1.2380 C.3   1 <1>   0.2630 
 26 H       -1.5830     0.3170    -2.5300 H     1 <1>   0.4200 
 27 H       -1.0210     0.2360     0.3140 H     1 <1>   0.0800 
 28 H       -2.1510    -0.7170    -0.5960 H     1 <1>   0.0800 
 29 H        0.6400     2.7790    -1.2550 H     1 <1>   0.1500 
 30 H        2.6440    -0.8140    -0.1640 H     1 <1>   0.1500 
 31 H        2.0950     4.0480     0.2280 H     1 <1>   0.1500 
 32 H        4.1070     0.4540     1.3280 H     1 <1>   0.1500 
 33 H       -3.7280     1.6080     1.8770 H     1 <1>   0.0800 
 34 H       -2.9930     0.0610     1.7060 H     1 <1>   0.0800 
 35 H       -4.1160     0.3720    -1.6290 H     1 <1>   0.0800 
 36 H       -3.4690     1.8900    -2.0950 H     1 <1>   0.0800 
 37 H       -1.1670     1.8530     1.9630 H     1 <1>   0.1500 
 38 H       -2.9770     3.8290    -1.3950 H     1 <1>   0.1500 
 39 H       -5.4240    -0.1230     1.8610 H     1 <1>   0.0800 
 40 H       -4.8650    -0.6790     0.3060 H     1 <1>   0.0800 
 41 H       -5.8290     2.1890    -1.6330 H     1 <1>   0.0800 
 42 H       -4.9210     2.9890    -0.3750 H     1 <1>   0.0800 
 43 H        3.6080     4.0120     2.1690 H     1 <1>   0.0800 
 44 H        4.9990     3.4220     1.2890 H     1 <1>   0.0800 
 45 H        4.3870     2.5330     2.6660 H     1 <1>   0.0800 
 46 H       -0.1010     3.9340     2.5770 H     1 <1>   0.1500 
 47 H       -1.9030     5.8730    -0.7470 H     1 <1>   0.1500 
 48 H       -6.6000     0.6510    -0.2380 H     1 <1>   0.4500 
 49 H       -0.4620     5.9650     1.2380 H     1 <1>   0.1500 
 50 H       -5.8120     2.6740     1.7650 H     1 <1>   0.0800 
 51 H       -7.0900     1.4910     1.9570 H     1 <1>   0.0800 
 52 H       -7.2310     2.7420     0.7410 H     1 <1>   0.0800 
@<TRIPOS>BOND
  1   1   2  2   
  2   1   3  2   
  3   1   4  am  
  4   1   5  1   
  5   4   6  1   
  6   4  26  1   
  7   5   7  ar  
  8   5   8  ar  
  9   6   9  1   
 10   6  27  1   
 11   6  28  1   
 12   7  10  ar  
 13   7  29  1   
 14   8  11  ar  
 15   8  30  1   
 16   9  12  1   
 17   9  13  1   
 18   9  14  1   
 19  10  15  ar  
 20  10  31  1   
 21  11  15  ar  
 22  11  32  1   
 23  12  16  ar  
 24  12  17  ar  
 25  13  18  1   
 26  13  33  1   
 27  13  34  1   
 28  14  19  1   
 29  14  35  1   
 30  14  36  1   
 31  15  20  1   
 32  16  21  ar  
 33  16  37  1   
 34  17  22  ar  
 35  17  38  1   
 36  18  23  1   
 37  18  39  1   
 38  18  40  1   
 39  19  23  1   
 40  19  41  1   
 41  19  42  1   
 42  20  43  1   
 43  20  44  1   
 44  20  45  1   
 45  21  24  ar  
 46  21  46  1   
 47  22  24  ar  
 48  22  47  1   
 49  23  25  1   
 50  23  48  1   
 51  24  49  1   
 52  25  50  1   
 53  25  51  1   
 54  25  52  1   
@<TRIPOS>SUBSTRUCTURE
  1 ****  12 GROUP 4 **** **** 0

# MOE 2024.06 (io_trps.svl 2023.06)
