@<TRIPOS>MOLECULE
NONAME
36 36 1 0 0 
SMALL
USER_CHARGES


@<TRIPOS>ATOM
  1 O       -0.4140    -0.1700     1.5890 O.2   1 <1>  -0.5700 
  2 C       -0.1250    -1.3490     1.5350 C.2   1 <1>   0.5440 
  3 N        1.2020    -1.7290     1.5240 N.am  1 <1>  -0.6600 
  4 C       -1.1810    -2.3380     1.4440 C.ar  1 <1>   0.0860 
  5 C        1.6290    -3.1560     1.3300 C.3   1 <1>   0.1400 
  6 C        2.3170    -0.7400     1.4980 C.3   1 <1>   0.0600 
  7 C       -1.8780    -2.5260     0.2520 C.ar  1 <1>  -0.1500 
  8 C       -1.5160    -3.1470     2.5280 C.ar  1 <1>  -0.1500 
  9 C        1.5530    -3.5980    -0.1440 C.3   1 <1>   0.4800 
 10 C       -2.8520    -3.5020     0.1280 C.ar  1 <1>  -0.1440 
 11 C       -2.4890    -4.1220     2.4170 C.ar  1 <1>  -0.1500 
 12 O        1.5460    -4.9900    -0.2330 O.3   1 <1>  -0.5600 
 13 O        2.6850    -3.1550    -0.8260 O.3   1 <1>  -0.5600 
 14 C       -3.1540    -4.3020     1.2170 C.ar  1 <1>  -0.1500 
 15 C       -3.5960    -3.6930    -1.1810 C.3   1 <1>  -0.0970 
 16 C        0.2760    -5.5620    -0.1750 C.3   1 <1>   0.0400 
 17 C        2.6370    -3.3310    -2.2060 C.3   1 <1>   0.0400 
 18 H        0.9980    -3.7900     1.9210 H     1 <1>   0.0800 
 19 H        2.6380    -3.2880     1.6790 H     1 <1>   0.0800 
 20 H        1.9450     0.2650     1.6020 H     1 <1>   0.0800 
 21 H        2.8470    -0.8160     0.5650 H     1 <1>   0.0800 
 22 H        2.9970    -0.9380     2.3070 H     1 <1>   0.0800 
 23 H       -1.6430    -1.8860    -0.5800 H     1 <1>   0.1500 
 24 H       -1.0020    -3.0030     3.4630 H     1 <1>   0.1500 
 25 H        0.6750    -3.2010    -0.6230 H     1 <1>   0.0800 
 26 H       -2.7340    -4.7400     3.2650 H     1 <1>   0.1500 
 27 H       -3.9120    -5.0620     1.1370 H     1 <1>   0.1500 
 28 H       -3.1040    -3.1720    -1.9830 H     1 <1>   0.0800 
 29 H       -4.5980    -3.3130    -1.0880 H     1 <1>   0.0800 
 30 H       -3.6440    -4.7380    -1.4320 H     1 <1>   0.0800 
 31 H        0.3870    -6.6290    -0.2540 H     1 <1>   0.0800 
 32 H       -0.3170    -5.1980    -0.9960 H     1 <1>   0.0800 
 33 H       -0.1920    -5.3170     0.7630 H     1 <1>   0.0800 
 34 H        2.5810    -4.3830    -2.4300 H     1 <1>   0.0800 
 35 H        3.5400    -2.9230    -2.6260 H     1 <1>   0.0800 
 36 H        1.7830    -2.8120    -2.6030 H     1 <1>   0.0800 
@<TRIPOS>BOND
  1   1   2  2   
  2   2   3  am  
  3   2   4  1   
  4   3   5  1   
  5   3   6  1   
  6   4   7  ar  
  7   4   8  ar  
  8   5   9  1   
  9   5  18  1   
 10   5  19  1   
 11   6  20  1   
 12   6  21  1   
 13   6  22  1   
 14   7  10  ar  
 15   7  23  1   
 16   8  11  ar  
 17   8  24  1   
 18   9  12  1   
 19   9  13  1   
 20   9  25  1   
 21  10  14  ar  
 22  10  15  1   
 23  11  14  ar  
 24  11  26  1   
 25  12  16  1   
 26  13  17  1   
 27  14  27  1   
 28  15  28  1   
 29  15  29  1   
 30  15  30  1   
 31  16  31  1   
 32  16  32  1   
 33  16  33  1   
 34  17  34  1   
 35  17  35  1   
 36  17  36  1   
@<TRIPOS>SUBSTRUCTURE
  1 ****   4 GROUP 4 **** **** 0

# MOE 2024.06 (io_trps.svl 2023.06)
