@<TRIPOS>MOLECULE
NONAME
40 42 1 0 0 
SMALL
USER_CHARGES


@<TRIPOS>ATOM
  1 O       -0.6650    -0.4370     0.0940 O.2   1 <1>  -0.5700 
  2 C       -0.4900     0.6680    -0.3570 C.2   1 <1>   0.5690 
  3 N        0.6250     1.3490     0.0050 N.am  1 <1>  -0.7300 
  4 C       -1.5420     1.2150    -1.3280 C.3   1 <1>   0.1810 
  5 C        1.0120     2.7420    -0.2860 C.3   1 <1>   0.2200 
  6 O       -1.9310     2.5590    -1.0720 O.3   1 <1>  -0.3630 
  7 C        2.5200     2.8910    -0.5820 C.3   1 <1>  -0.0800 
  8 C        0.8170     3.6300     0.9530 C.3   1 <1>  -0.1600 
  9 C       -2.5820     2.9390     0.0590 C.ar  1 <1>   0.0820 
 10 C        2.7330     4.3570    -0.2300 C.3   1 <1>  -0.1600 
 11 C        3.3760     2.2170     0.5100 C.3   1 <1>  -0.1600 
 12 C        2.2180     4.2180     1.1930 C.3   1 <1>  -0.0800 
 13 C       -2.8490     4.2970     0.2170 C.ar  1 <1>  -0.1440 
 14 C       -2.9800     2.0410     1.0480 C.ar  1 <1>  -0.1500 
 15 C        3.1240     3.1030     1.7430 C.3   1 <1>  -0.1600 
 16 C       -3.4940     4.7420     1.3600 C.ar  1 <1>  -0.1500 
 17 C       -2.4450     5.2990    -0.8570 C.3   1 <1>  -0.0970 
 18 C       -3.6230     2.4960     2.1840 C.ar  1 <1>  -0.1500 
 19 C       -3.8780     3.8460     2.3420 C.ar  1 <1>  -0.1500 
 20 H        1.2180     0.8860     0.6930 H     1 <1>   0.3700 
 21 H       -2.4230     0.6010    -1.2990 H     1 <1>   0.0800 
 22 H       -1.1400     1.1840    -2.3230 H     1 <1>   0.0800 
 23 H        0.4470     3.1340    -1.1130 H     1 <1>   0.0800 
 24 H        2.7920     2.6300    -1.5890 H     1 <1>   0.0800 
 25 H        0.4520     3.0850     1.8060 H     1 <1>   0.0800 
 26 H        0.1250     4.4200     0.7240 H     1 <1>   0.0800 
 27 H        2.1350     5.0250    -0.8270 H     1 <1>   0.0800 
 28 H        3.7690     4.6520    -0.2710 H     1 <1>   0.0800 
 29 H        4.4160     2.2630     0.2350 H     1 <1>   0.0800 
 30 H        3.1180     1.1880     0.6830 H     1 <1>   0.0800 
 31 H        2.2230     5.1200     1.7800 H     1 <1>   0.0800 
 32 H       -2.8020     0.9860     0.9580 H     1 <1>   0.1500 
 33 H        4.0520     3.5160     2.1000 H     1 <1>   0.0800 
 34 H        2.6490     2.5590     2.5410 H     1 <1>   0.0800 
 35 H       -3.7030     5.7880     1.4930 H     1 <1>   0.1500 
 36 H       -1.3910     5.2270    -1.0520 H     1 <1>   0.0800 
 37 H       -2.6690     6.3050    -0.5530 H     1 <1>   0.0800 
 38 H       -2.9790     5.0870    -1.7660 H     1 <1>   0.0800 
 39 H       -3.9240     1.7990     2.9470 H     1 <1>   0.1500 
 40 H       -4.3780     4.2000     3.2270 H     1 <1>   0.1500 
@<TRIPOS>BOND
  1   1   2  2   
  2   2   3  am  
  3   2   4  1   
  4   3   5  1   
  5   3  20  1   
  6   4   6  1   
  7   4  21  1   
  8   4  22  1   
  9   5   7  1   
 10   5   8  1   
 11   5  23  1   
 12   6   9  1   
 13   7  10  1   
 14   7  11  1   
 15   7  24  1   
 16   8  12  1   
 17   8  25  1   
 18   8  26  1   
 19   9  13  ar  
 20   9  14  ar  
 21  10  12  1   
 22  10  27  1   
 23  10  28  1   
 24  11  15  1   
 25  11  29  1   
 26  11  30  1   
 27  12  15  1   
 28  12  31  1   
 29  13  16  ar  
 30  13  17  1   
 31  14  18  ar  
 32  14  32  1   
 33  15  33  1   
 34  15  34  1   
 35  16  19  ar  
 36  16  35  1   
 37  17  36  1   
 38  17  37  1   
 39  17  38  1   
 40  18  19  ar  
 41  18  39  1   
 42  19  40  1   
@<TRIPOS>SUBSTRUCTURE
  1 ****   8 GROUP 4 **** **** 0

# MOE 2024.06 (io_trps.svl 2023.06)
