@<TRIPOS>MOLECULE
NONAME
49 52 1 0 0 
SMALL
USER_CHARGES


@<TRIPOS>ATOM
  1 CL       1.0500     0.0230     2.1040 Cl    1 <1>  -0.1770 
  2 C        2.5520    -0.0750     1.2170 C.ar  1 <1>   0.1770 
  3 C        3.3920     1.0210     1.1360 C.ar  1 <1>  -0.1440 
  4 C        2.8750    -1.2660     0.6000 C.ar  1 <1>  -0.1500 
  5 C        4.5740     0.8890     0.4250 C.ar  1 <1>  -0.1500 
  6 C        3.0340     2.3410     1.8020 C.3   1 <1>  -0.0960 
  7 C        4.0600    -1.3860    -0.1110 C.ar  1 <1>  -0.1430 
  8 C        4.9450    -0.3050    -0.1940 C.ar  1 <1>  -0.0090 
  9 C        4.3530    -2.7180    -0.7910 C.3   1 <1>  -0.0960 
 10 S        6.5260    -0.3940    -1.1030 S.o2  1 <1>   1.4470 
 11 O        6.3090     0.0400    -2.4660 O.2   1 <1>  -0.6500 
 12 O        7.1930    -1.6580    -0.8680 O.2   1 <1>  -0.6500 
 13 N        7.4980     0.7820    -0.3640 N.am  1 <1>  -0.8490 
 14 C        7.9910     0.3670     0.9760 C.3   1 <1>   0.1960 
 15 C        8.5900     1.2090    -1.2730 C.3   1 <1>   0.1960 
 16 C        9.4390    -0.1590     0.9700 C.3   1 <1>   0.2090 
 17 C        9.8000     1.8310    -0.5510 C.3   1 <1>   0.2090 
 18 N       10.3750     0.8950     0.4680 N.pl3 1 <1>  -0.8380 
 19 C       11.7500     0.6470     0.4030 C.ar  1 <1>   0.1000 
 20 C       12.6660     1.6800     0.6850 C.ar  1 <1>   0.0000 
 21 C       12.2680    -0.5890     0.0520 C.ar  1 <1>  -0.1500 
 22 C       14.0360     1.4550     0.5970 C.ar  1 <1>  -0.1520 
 23 C       12.5150     3.0280     1.0810 C.2   1 <1>  -0.1500 
 24 C       13.6460    -0.8120    -0.0270 C.ar  1 <1>  -0.1500 
 25 N       14.6890     2.6190     0.9150 N.pl3 1 <1>   0.0330 
 26 C       14.5370     0.2010     0.2420 C.ar  1 <1>  -0.1500 
 27 C       13.7500     3.5680     1.2080 C.2   1 <1>  -0.3020 
 28 H        2.1900    -2.0910     0.6800 H     1 <1>   0.1500 
 29 H        5.2280     1.7410     0.3470 H     1 <1>   0.1500 
 30 H        2.1110     2.7170     1.3970 H     1 <1>   0.0800 
 31 H        3.8000     3.0780     1.6430 H     1 <1>   0.0800 
 32 H        2.9130     2.1980     2.8620 H     1 <1>   0.0800 
 33 H        3.4830    -3.3510    -0.7940 H     1 <1>   0.0800 
 34 H        5.1410    -3.2350    -0.2730 H     1 <1>   0.0800 
 35 H        4.6490    -2.5650    -1.8140 H     1 <1>   0.0800 
 36 H        7.3420    -0.3780     1.4040 H     1 <1>   0.0800 
 37 H        7.9610     1.2220     1.6280 H     1 <1>   0.0800 
 38 H        8.1960     1.9140    -1.9850 H     1 <1>   0.0800 
 39 H        8.9530     0.3600    -1.8290 H     1 <1>   0.0800 
 40 H        9.4930    -1.0350     0.3490 H     1 <1>   0.0800 
 41 H        9.7290    -0.4340     1.9700 H     1 <1>   0.0800 
 42 H        9.4940     2.7390    -0.0630 H     1 <1>   0.0800 
 43 H       10.5560     2.0820    -1.2750 H     1 <1>   0.0800 
 44 H       11.6070    -1.4010    -0.1790 H     1 <1>   0.1500 
 45 H       11.5590     3.4910     1.2460 H     1 <1>   0.1500 
 46 H       14.0020    -1.7880    -0.3040 H     1 <1>   0.1500 
 47 H       15.7060     2.7390     0.9350 H     1 <1>   0.2700 
 48 H       15.5980     0.0380     0.1820 H     1 <1>   0.1500 
 49 H       14.0200     4.5690     1.4940 H     1 <1>   0.1500 
@<TRIPOS>BOND
  1   1   2  1   
  2   2   3  ar  
  3   2   4  ar  
  4   3   5  ar  
  5   3   6  1   
  6   4   7  ar  
  7   4  28  1   
  8   5   8  ar  
  9   5  29  1   
 10   6  30  1   
 11   6  31  1   
 12   6  32  1   
 13   7   8  ar  
 14   7   9  1   
 15   8  10  1   
 16   9  33  1   
 17   9  34  1   
 18   9  35  1   
 19  10  11  2   
 20  10  12  2   
 21  10  13  am  
 22  13  14  1   
 23  13  15  1   
 24  14  16  1   
 25  14  36  1   
 26  14  37  1   
 27  15  17  1   
 28  15  38  1   
 29  15  39  1   
 30  16  18  1   
 31  16  40  1   
 32  16  41  1   
 33  17  18  1   
 34  17  42  1   
 35  17  43  1   
 36  18  19  1   
 37  19  20  ar  
 38  19  21  ar  
 39  20  22  ar  
 40  20  23  1   
 41  21  24  ar  
 42  21  44  1   
 43  22  25  1   
 44  22  26  ar  
 45  23  27  2   
 46  23  45  1   
 47  24  26  ar  
 48  24  46  1   
 49  25  27  1   
 50  25  47  1   
 51  26  48  1   
 52  27  49  1   
@<TRIPOS>SUBSTRUCTURE
  1 ****  14 GROUP 4 **** **** 0

# MOE 2024.06 (io_trps.svl 2023.06)
