@<TRIPOS>MOLECULE
NONAME
48 50 1 0 0 
SMALL
USER_CHARGES


@<TRIPOS>ATOM
  1 S       -0.7020     0.6540     0.8850 S.o2  1 <1>   1.4470 
  2 O       -1.2860     1.9790     1.0210 O.2   1 <1>  -0.6500 
  3 O       -0.7290    -0.2070     2.0590 O.2   1 <1>  -0.6500 
  4 N       -1.4400    -0.0630    -0.3840 N.2   1 <1>  -0.2730 
  5 C        1.0190     0.9030     0.3370 C.ar  1 <1>  -0.0090 
  6 S       -1.0750    -1.5280    -1.0340 S.o   1 <1>   0.2590 
  7 C        2.0890     0.5980     1.1720 C.ar  1 <1>  -0.1500 
  8 C        1.3130     1.4240    -0.9200 C.ar  1 <1>  -0.1500 
  9 N       -2.2410    -2.6620    -0.5230 N.pl3 1 <1>  -0.6020 
 10 N        0.4060    -2.0310    -0.3670 N.pl3 1 <1>  -0.6020 
 11 C        3.3990     0.7950     0.7710 C.ar  1 <1>  -0.1500 
 12 C        2.6200     1.6220    -1.3320 C.ar  1 <1>  -0.1500 
 13 C       -3.0690    -2.2470     0.6200 C.3   1 <1>   0.1100 
 14 C       -3.0670    -3.1200    -1.6410 C.3   1 <1>   0.1100 
 15 C        0.3010    -3.0070     0.7280 C.3   1 <1>   0.1100 
 16 C        1.3220    -2.5000    -1.4070 C.3   1 <1>   0.1100 
 17 C        3.6660     1.3060    -0.4850 C.ar  1 <1>  -0.1500 
 18 C       -3.9260    -3.4170     1.1160 C.3   1 <1>  -0.1600 
 19 C       -3.9250    -4.3200    -1.2230 C.3   1 <1>  -0.1600 
 20 C        1.6700    -3.2420     1.3760 C.3   1 <1>  -0.1600 
 21 C        2.7280    -2.7170    -0.8370 C.3   1 <1>  -0.1600 
 22 C       -4.7980    -3.9840    -0.0090 C.3   1 <1>  -0.1600 
 23 C        2.7060    -3.6960     0.3420 C.3   1 <1>  -0.1600 
 24 H        1.8910     0.1980     2.1520 H     1 <1>   0.1500 
 25 H        0.5080     1.6810    -1.5870 H     1 <1>   0.1500 
 26 H        4.2080     0.5490     1.4370 H     1 <1>   0.1500 
 27 H        2.8220     2.0240    -2.3100 H     1 <1>   0.1500 
 28 H       -3.7020    -1.4260     0.3290 H     1 <1>   0.0800 
 29 H       -2.4380    -1.9190     1.4250 H     1 <1>   0.0800 
 30 H       -2.4260    -3.4140    -2.4540 H     1 <1>   0.0800 
 31 H       -3.6950    -2.3130    -1.9770 H     1 <1>   0.0800 
 32 H       -0.0910    -3.9350     0.3470 H     1 <1>   0.0800 
 33 H       -0.3750    -2.6390     1.4770 H     1 <1>   0.0800 
 34 H        1.3730    -1.7630    -2.1900 H     1 <1>   0.0800 
 35 H        0.9450    -3.4180    -1.8270 H     1 <1>   0.0800 
 36 H        4.6830     1.4590    -0.8010 H     1 <1>   0.1500 
 37 H       -4.5490    -3.0830     1.9270 H     1 <1>   0.0800 
 38 H       -3.2740    -4.1840     1.4960 H     1 <1>   0.0800 
 39 H       -3.2750    -5.1440    -0.9870 H     1 <1>   0.0800 
 40 H       -4.5490    -4.6180    -2.0470 H     1 <1>   0.0800 
 41 H        1.5750    -3.9860     2.1460 H     1 <1>   0.0800 
 42 H        1.9930    -2.3270     1.8410 H     1 <1>   0.0800 
 43 H        3.1200    -1.7680    -0.5160 H     1 <1>   0.0800 
 44 H        3.3730    -3.0950    -1.6100 H     1 <1>   0.0800 
 45 H       -5.5370    -3.2540    -0.2910 H     1 <1>   0.0800 
 46 H       -5.3110    -4.8670     0.3320 H     1 <1>   0.0800 
 47 H        2.4450    -4.6780    -0.0140 H     1 <1>   0.0800 
 48 H        3.6800    -3.7500     0.7960 H     1 <1>   0.0800 
@<TRIPOS>BOND
  1   1   2  2   
  2   1   3  2   
  3   1   4  1   
  4   1   5  1   
  5   4   6  2   
  6   5   7  ar  
  7   5   8  ar  
  8   6   9  1   
  9   6  10  1   
 10   7  11  ar  
 11   7  24  1   
 12   8  12  ar  
 13   8  25  1   
 14   9  13  1   
 15   9  14  1   
 16  10  15  1   
 17  10  16  1   
 18  11  17  ar  
 19  11  26  1   
 20  12  17  ar  
 21  12  27  1   
 22  13  18  1   
 23  13  28  1   
 24  13  29  1   
 25  14  19  1   
 26  14  30  1   
 27  14  31  1   
 28  15  20  1   
 29  15  32  1   
 30  15  33  1   
 31  16  21  1   
 32  16  34  1   
 33  16  35  1   
 34  17  36  1   
 35  18  22  1   
 36  18  37  1   
 37  18  38  1   
 38  19  22  1   
 39  19  39  1   
 40  19  40  1   
 41  20  23  1   
 42  20  41  1   
 43  20  42  1   
 44  21  23  1   
 45  21  43  1   
 46  21  44  1   
 47  22  45  1   
 48  22  46  1   
 49  23  47  1   
 50  23  48  1   
@<TRIPOS>SUBSTRUCTURE
  1 ****  10 GROUP 4 **** **** 0

# MOE 2024.06 (io_trps.svl 2023.06)
