@<TRIPOS>MOLECULE
NONAME
51 52 1 0 0 
SMALL
USER_CHARGES


@<TRIPOS>ATOM
  1 S       -0.4430    -0.2510     1.0130 S.o2  1 <1>   1.0900 
  2 O        0.6330    -0.7430     1.8410 O.2   1 <1>  -0.6500 
  3 O       -0.9300     1.1040     1.1370 O.2   1 <1>  -0.6500 
  4 C       -1.8000    -1.3870     1.0740 C.3   1 <1>  -0.0550 
  5 C       -0.1130    -0.6180    -0.6900 C.3   1 <1>  -0.0550 
  6 C       -2.4900    -1.3980    -0.3140 C.3   1 <1>   0.3000 
  7 C       -1.4720    -0.8500    -1.3550 C.3   1 <1>  -0.1600 
  8 N       -3.7580    -0.5700    -0.3860 N.am  1 <1>  -0.6600 
  9 C       -2.8550    -2.8640    -0.6120 C.3   1 <1>  -0.2400 
 10 C       -4.5260    -0.5240    -1.5410 C.2   1 <1>   0.5690 
 11 C       -4.1800     0.2060     0.8310 C.3   1 <1>   0.0600 
 12 O       -4.1140    -0.9230    -2.6070 O.2   1 <1>  -0.5700 
 13 C       -5.9380     0.0630    -1.5630 C.3   1 <1>   0.1810 
 14 O       -6.7600    -0.5180    -0.5600 O.3   1 <1>  -0.3630 
 15 C       -8.0100    -0.0500    -0.3250 C.ar  1 <1>   0.0830 
 16 C       -8.6750    -0.5680     0.7710 C.ar  1 <1>  -0.1500 
 17 C       -8.6430     0.9060    -1.1090 C.ar  1 <1>  -0.1500 
 18 C       -9.9500    -0.1380     1.0910 C.ar  1 <1>  -0.1500 
 19 C       -9.9180     1.3320    -0.7840 C.ar  1 <1>  -0.1500 
 20 C      -10.5980     0.8240     0.3200 C.ar  1 <1>  -0.1430 
 21 C      -12.0200     1.3380     0.6370 C.3   1 <1>   0.1430 
 22 C      -11.9750     2.8540     0.8810 C.3   1 <1>  -0.2400 
 23 C      -12.9500     1.0390    -0.5490 C.3   1 <1>  -0.2400 
 24 C      -12.6370     0.6850     1.8860 C.3   1 <1>  -0.2400 
 25 H       -2.4560    -1.1970     1.8960 H     1 <1>   0.0800 
 26 H       -1.3760    -2.3570     1.2490 H     1 <1>   0.0800 
 27 H        0.4660    -1.5200    -0.7530 H     1 <1>   0.0800 
 28 H        0.4290     0.1760    -1.1680 H     1 <1>   0.0800 
 29 H       -1.3720    -1.5070    -2.2020 H     1 <1>   0.0800 
 30 H       -1.8130     0.1040    -1.7210 H     1 <1>   0.0800 
 31 H       -1.9850    -3.4930    -0.5530 H     1 <1>   0.0800 
 32 H       -3.2590    -2.9850    -1.5990 H     1 <1>   0.0800 
 33 H       -3.5800    -3.2170     0.1000 H     1 <1>   0.0800 
 34 H       -3.3600     0.7820     1.2170 H     1 <1>   0.0800 
 35 H       -4.5370    -0.4700     1.5890 H     1 <1>   0.0800 
 36 H       -4.9670     0.9020     0.6100 H     1 <1>   0.0800 
 37 H       -6.3910    -0.1360    -2.5160 H     1 <1>   0.0800 
 38 H       -5.8890     1.1230    -1.4010 H     1 <1>   0.0800 
 39 H       -8.1880    -1.3120     1.3750 H     1 <1>   0.1500 
 40 H       -8.1690     1.3270    -1.9750 H     1 <1>   0.1500 
 41 H      -10.4170    -0.5750     1.9530 H     1 <1>   0.1500 
 42 H      -10.3820     2.0730    -1.4090 H     1 <1>   0.1500 
 43 H      -11.2990     3.0750     1.6870 H     1 <1>   0.0800 
 44 H      -12.9500     3.2260     1.1410 H     1 <1>   0.0800 
 45 H      -11.6410     3.3800     0.0070 H     1 <1>   0.0800 
 46 H      -12.6240     1.5470    -1.4370 H     1 <1>   0.0800 
 47 H      -13.9550     1.3570    -0.3330 H     1 <1>   0.0800 
 48 H      -12.9610    -0.0170    -0.7490 H     1 <1>   0.0800 
 49 H      -12.0340     0.8870     2.7540 H     1 <1>   0.0800 
 50 H      -12.7180    -0.3790     1.7540 H     1 <1>   0.0800 
 51 H      -13.6230     1.0740     2.0680 H     1 <1>   0.0800 
@<TRIPOS>BOND
  1   1   2  2   
  2   1   3  2   
  3   1   4  1   
  4   1   5  1   
  5   4   6  1   
  6   4  25  1   
  7   4  26  1   
  8   5   7  1   
  9   5  27  1   
 10   5  28  1   
 11   6   7  1   
 12   6   8  1   
 13   6   9  1   
 14   7  29  1   
 15   7  30  1   
 16   8  10  am  
 17   8  11  1   
 18   9  31  1   
 19   9  32  1   
 20   9  33  1   
 21  10  12  2   
 22  10  13  1   
 23  11  34  1   
 24  11  35  1   
 25  11  36  1   
 26  13  14  1   
 27  13  37  1   
 28  13  38  1   
 29  14  15  1   
 30  15  16  ar  
 31  15  17  ar  
 32  16  18  ar  
 33  16  39  1   
 34  17  19  ar  
 35  17  40  1   
 36  18  20  ar  
 37  18  41  1   
 38  19  20  ar  
 39  19  42  1   
 40  20  21  1   
 41  21  22  1   
 42  21  23  1   
 43  21  24  1   
 44  22  43  1   
 45  22  44  1   
 46  22  45  1   
 47  23  46  1   
 48  23  47  1   
 49  23  48  1   
 50  24  49  1   
 51  24  50  1   
 52  24  51  1   
@<TRIPOS>SUBSTRUCTURE
  1 ****  14 GROUP 4 **** **** 0

# MOE 2024.06 (io_trps.svl 2023.06)
