@<TRIPOS>MOLECULE
NONAME
40 42 1 0 0 
SMALL
USER_CHARGES


@<TRIPOS>ATOM
  1 BR      -0.1080    -2.2720     1.1330 Br    1 <1>  -0.1110 
  2 C        1.7340    -2.3540     0.5870 C.ar  1 <1>   0.1110 
  3 C        2.1100    -1.7290    -0.5860 C.ar  1 <1>  -0.1500 
  4 C        2.6350    -3.0370     1.3800 C.ar  1 <1>  -0.1500 
  5 C        3.4380    -1.7900    -0.9730 C.ar  1 <1>  -0.1500 
  6 C        3.9600    -3.0900     0.9830 C.ar  1 <1>  -0.1500 
  7 C        4.3690    -2.4620    -0.1890 C.ar  1 <1>  -0.1430 
  8 C        5.8290    -2.5210    -0.6170 C.3   1 <1>  -0.0160 
  9 C        6.4990    -1.1350    -0.6700 C.3   1 <1>   0.0420 
 10 C        7.9310    -1.2530    -1.1290 C.2   1 <1>   0.5690 
 11 C        6.7710    -0.4920     0.6820 C.2   1 <1>   0.3280 
 12 O        8.2430    -1.6880    -2.2130 O.2   1 <1>  -0.5700 
 13 N        8.7410    -0.7930    -0.1310 N.am  1 <1>  -0.1150 
 14 N        7.9920    -0.3280     0.9460 N.2   1 <1>  -0.5120 
 15 C        5.6370    -0.0620     1.5890 C.3   1 <1>  -0.1790 
 16 C       10.1330    -0.8100    -0.2110 C.ar  1 <1>   0.7370 
 17 N       10.7420    -1.9340     0.1710 N.ar  1 <1>  -0.6200 
 18 N       10.7250     0.2980    -0.6600 N.ar  1 <1>  -0.6200 
 19 C       12.0480    -1.9400     0.0890 C.ar  1 <1>   0.1670 
 20 C       12.0310     0.2660    -0.7330 C.ar  1 <1>   0.1670 
 21 C       12.7490    -0.8470    -0.3640 C.ar  1 <1>  -0.1500 
 22 C       12.7550    -3.2080     0.5150 C.3   1 <1>  -0.0970 
 23 C       12.7200     1.5140    -1.2420 C.3   1 <1>  -0.0970 
 24 H        1.3790    -1.2130    -1.1820 H     1 <1>   0.1500 
 25 H        2.3050    -3.5160     2.2850 H     1 <1>   0.1500 
 26 H        3.7400    -1.3150    -1.8910 H     1 <1>   0.1500 
 27 H        4.6710    -3.6220     1.5920 H     1 <1>   0.1500 
 28 H        6.3870    -3.1590     0.0470 H     1 <1>   0.0800 
 29 H        5.8740    -2.9670    -1.5960 H     1 <1>   0.0800 
 30 H        5.9730    -0.4580    -1.3150 H     1 <1>   0.0800 
 31 H        6.0140     0.5890     2.3570 H     1 <1>   0.0800 
 32 H        4.8890     0.4640     1.0250 H     1 <1>   0.0800 
 33 H        5.1930    -0.9170     2.0600 H     1 <1>   0.0800 
 34 H       13.8190    -0.8630    -0.4280 H     1 <1>   0.1500 
 35 H       12.4200    -4.0270    -0.0950 H     1 <1>   0.0800 
 36 H       12.5200    -3.4220     1.5410 H     1 <1>   0.0800 
 37 H       13.8200    -3.1110     0.4130 H     1 <1>   0.0800 
 38 H       12.3760     1.7320    -2.2370 H     1 <1>   0.0800 
 39 H       13.7860     1.3880    -1.2610 H     1 <1>   0.0800 
 40 H       12.4770     2.3440    -0.6040 H     1 <1>   0.0800 
@<TRIPOS>BOND
  1   1   2  1   
  2   2   3  ar  
  3   2   4  ar  
  4   3   5  ar  
  5   3  24  1   
  6   4   6  ar  
  7   4  25  1   
  8   5   7  ar  
  9   5  26  1   
 10   6   7  ar  
 11   6  27  1   
 12   7   8  1   
 13   8   9  1   
 14   8  28  1   
 15   8  29  1   
 16   9  10  1   
 17   9  11  1   
 18   9  30  1   
 19  10  12  2   
 20  10  13  am  
 21  11  14  2   
 22  11  15  1   
 23  13  14  1   
 24  13  16  1   
 25  15  31  1   
 26  15  32  1   
 27  15  33  1   
 28  16  17  ar  
 29  16  18  ar  
 30  17  19  ar  
 31  18  20  ar  
 32  19  21  ar  
 33  19  22  1   
 34  20  21  ar  
 35  20  23  1   
 36  21  34  1   
 37  22  35  1   
 38  22  36  1   
 39  22  37  1   
 40  23  38  1   
 41  23  39  1   
 42  23  40  1   
@<TRIPOS>SUBSTRUCTURE
  1 ****   9 GROUP 4 **** **** 0

# MOE 2024.06 (io_trps.svl 2023.06)
