@<TRIPOS>MOLECULE
NONAME
29 29 1 0 0 
SMALL
USER_CHARGES


@<TRIPOS>ATOM
  1 BR       0.4260     0.2070     0.0110 Br    1 <1>  -0.1110 
  2 C       -1.2050    -0.8060    -0.0910 C.ar  1 <1>   0.1110 
  3 C       -1.4680    -1.7490     0.8820 C.ar  1 <1>  -0.1500 
  4 C       -2.0760    -0.5660    -1.1350 C.ar  1 <1>  -0.1500 
  5 C       -2.6470    -2.4720     0.8010 C.ar  1 <1>  -0.1500 
  6 C       -3.2490    -1.3000    -1.1980 C.ar  1 <1>  -0.1500 
  7 C       -3.5550    -2.2600    -0.2350 C.ar  1 <1>  -0.0090 
  8 S       -5.1000    -3.2080    -0.3360 S.o2  1 <1>   1.4470 
  9 O       -5.3620    -3.8880     0.9140 O.2   1 <1>  -0.6500 
 10 O       -5.1170    -3.9660    -1.5660 O.2   1 <1>  -0.6500 
 11 N       -6.2920    -2.0090    -0.4790 N.am  1 <1>  -0.8490 
 12 C       -7.5650    -2.6100    -0.9670 C.3   1 <1>   0.2570 
 13 C       -6.4920    -1.2600     0.7700 C.3   1 <1>   0.1160 
 14 C       -8.7300    -1.6460    -1.2250 C.2   1 <1>   0.6590 
 15 O       -8.9920    -1.2380    -2.3280 O.2   1 <1>  -0.5700 
 16 O       -9.4550    -1.3020    -0.1620 O.3   1 <1>  -0.4300 
 17 C      -10.5660    -0.4350    -0.2730 C.3   1 <1>   0.0400 
 18 H       -0.7660    -1.9130     1.6810 H     1 <1>   0.1500 
 19 H       -1.8410     0.1750    -1.8790 H     1 <1>   0.1500 
 20 H       -2.8650    -3.2140     1.5530 H     1 <1>   0.1500 
 21 H       -3.9410    -1.1290    -2.0060 H     1 <1>   0.1500 
 22 H       -7.8980    -3.3560    -0.2660 H     1 <1>   0.0800 
 23 H       -7.3770    -3.1090    -1.9020 H     1 <1>   0.0800 
 24 H       -5.5500    -0.8830     1.1330 H     1 <1>   0.0800 
 25 H       -6.9250    -1.8930     1.5280 H     1 <1>   0.0800 
 26 H       -7.1400    -0.4170     0.6030 H     1 <1>   0.0800 
 27 H      -10.9930    -0.2990     0.7050 H     1 <1>   0.0800 
 28 H      -11.2900    -0.8790    -0.9350 H     1 <1>   0.0800 
 29 H      -10.2340     0.5090    -0.6690 H     1 <1>   0.0800 
@<TRIPOS>BOND
  1   1   2  1   
  2   2   3  ar  
  3   2   4  ar  
  4   3   5  ar  
  5   3  18  1   
  6   4   6  ar  
  7   4  19  1   
  8   5   7  ar  
  9   5  20  1   
 10   6   7  ar  
 11   6  21  1   
 12   7   8  1   
 13   8   9  2   
 14   8  10  2   
 15   8  11  am  
 16  11  12  1   
 17  11  13  1   
 18  12  14  1   
 19  12  22  1   
 20  12  23  1   
 21  13  24  1   
 22  13  25  1   
 23  13  26  1   
 24  14  15  2   
 25  14  16  1   
 26  16  17  1   
 27  17  27  1   
 28  17  28  1   
 29  17  29  1   
@<TRIPOS>SUBSTRUCTURE
  1 ****  11 GROUP 4 **** **** 0

# MOE 2024.06 (io_trps.svl 2023.06)
