@<TRIPOS>MOLECULE
NONAME
49 51 1 0 0 
SMALL
USER_CHARGES


@<TRIPOS>ATOM
  1 CL      -1.1100     1.9110    -2.1540 Cl    1 <1>  -0.1770 
  2 C       -2.3760     1.7800    -0.9590 C.ar  1 <1>   0.1770 
  3 C       -3.6560     1.4540    -1.3580 C.ar  1 <1>  -0.1500 
  4 C       -2.0720     2.0040     0.3690 C.ar  1 <1>  -0.1500 
  5 C       -4.6730     1.3470    -0.4140 C.ar  1 <1>   0.1170 
  6 C       -3.0760     1.8970     1.3150 C.ar  1 <1>  -0.1500 
  7 N       -5.9870     1.0140    -0.7740 N.am  1 <1>  -0.5470 
  8 C       -4.3700     1.5710     0.9330 C.ar  1 <1>  -0.1430 
  9 C       -6.6610     0.9530    -1.9590 C.2   1 <1>   0.5690 
 10 C       -5.4460     1.4660     2.0090 C.3   1 <1>  -0.0960 
 11 O       -6.1760     1.1890    -3.0390 O.2   1 <1>  -0.5700 
 12 C       -8.1370     0.5620    -1.8680 C.3   1 <1>   0.1710 
 13 N       -8.7480     0.8450    -0.5330 N.3   1 <1>  -0.8100 
 14 C      -10.0210     0.1030    -0.3810 C.3   1 <1>   0.1100 
 15 C       -8.9860     2.3030    -0.3660 C.3   1 <1>   0.1100 
 16 C      -10.6770     0.3810     0.9810 C.3   1 <1>   0.1400 
 17 C       -9.6360     2.6280     0.9900 C.3   1 <1>   0.1400 
 18 N      -10.8970     1.8490     1.1500 N.am  1 <1>  -0.6600 
 19 C      -12.1290     2.4640     1.1660 C.2   1 <1>   0.5690 
 20 O      -12.2090     3.6740     1.2030 O.2   1 <1>  -0.5700 
 21 C      -13.4360     1.6280     1.1340 C.3   1 <1>   0.2610 
 22 O      -13.5410     0.9020    -0.0640 O.3   1 <1>  -0.5600 
 23 C      -14.7390     2.4280     1.1630 C.3   1 <1>  -0.1600 
 24 C      -14.1270     1.6970    -1.0450 C.3   1 <1>   0.1200 
 25 C      -15.0310     2.6830    -0.3090 C.3   1 <1>  -0.1600 
 26 H       -3.8460     1.2840    -2.4000 H     1 <1>   0.1500 
 27 H       -1.0660     2.2560     0.6520 H     1 <1>   0.1500 
 28 H       -2.8390     2.0710     2.3500 H     1 <1>   0.1500 
 29 H       -6.6280     0.8480     0.0070 H     1 <1>   0.3700 
 30 H       -5.8500     0.4690     2.0300 H     1 <1>   0.0800 
 31 H       -6.2390     2.1640     1.8070 H     1 <1>   0.0800 
 32 H       -5.0440     1.6870     2.9810 H     1 <1>   0.0800 
 33 H       -8.1920    -0.4930    -2.0700 H     1 <1>   0.0800 
 34 H       -8.6820     1.0740    -2.6420 H     1 <1>   0.0800 
 35 H       -9.8320    -0.9530    -0.4630 H     1 <1>   0.0800 
 36 H      -10.7100     0.3820    -1.1610 H     1 <1>   0.0800 
 37 H       -9.6330     2.6620    -1.1490 H     1 <1>   0.0800 
 38 H       -8.0540     2.8370    -0.4380 H     1 <1>   0.0800 
 39 H      -10.0290     0.0290     1.7640 H     1 <1>   0.0800 
 40 H      -11.5980    -0.1680     1.0500 H     1 <1>   0.0800 
 41 H       -9.8300     3.6850     1.0470 H     1 <1>   0.0800 
 42 H       -8.9580     2.3740     1.7850 H     1 <1>   0.0800 
 43 H      -13.4140     0.9290     1.9490 H     1 <1>   0.0800 
 44 H      -14.6620     3.3340     1.7370 H     1 <1>   0.0800 
 45 H      -15.5120     1.8130     1.5880 H     1 <1>   0.0800 
 46 H      -14.6760     1.0640    -1.7210 H     1 <1>   0.0800 
 47 H      -13.3420     2.2110    -1.5740 H     1 <1>   0.0800 
 48 H      -14.7670     3.6900    -0.5840 H     1 <1>   0.0800 
 49 H      -16.0670     2.5140    -0.5430 H     1 <1>   0.0800 
@<TRIPOS>BOND
  1   1   2  1   
  2   2   3  ar  
  3   2   4  ar  
  4   3   5  ar  
  5   3  26  1   
  6   4   6  ar  
  7   4  27  1   
  8   5   7  1   
  9   5   8  ar  
 10   6   8  ar  
 11   6  28  1   
 12   7   9  am  
 13   7  29  1   
 14   8  10  1   
 15   9  11  2   
 16   9  12  1   
 17  10  30  1   
 18  10  31  1   
 19  10  32  1   
 20  12  13  1   
 21  12  33  1   
 22  12  34  1   
 23  13  14  1   
 24  13  15  1   
 25  14  16  1   
 26  14  35  1   
 27  14  36  1   
 28  15  17  1   
 29  15  37  1   
 30  15  38  1   
 31  16  18  1   
 32  16  39  1   
 33  16  40  1   
 34  17  18  1   
 35  17  41  1   
 36  17  42  1   
 37  18  19  am  
 38  19  20  2   
 39  19  21  1   
 40  21  22  1   
 41  21  23  1   
 42  21  43  1   
 43  22  24  1   
 44  23  25  1   
 45  23  44  1   
 46  23  45  1   
 47  24  25  1   
 48  24  46  1   
 49  24  47  1   
 50  25  48  1   
 51  25  49  1   
@<TRIPOS>SUBSTRUCTURE
  1 ****  15 GROUP 4 **** **** 0

# MOE 2024.06 (io_trps.svl 2023.06)
