@<TRIPOS>MOLECULE
NONAME
34 34 1 0 0 
SMALL
USER_CHARGES


@<TRIPOS>ATOM
  1 CL      -0.6160    -0.0930     0.0180 Cl    1 <1>  -0.1770 
  2 C       -0.3430     1.6400     0.0150 C.ar  1 <1>   0.1770 
  3 C        0.9490     2.1390     0.0160 C.ar  1 <1>   0.1770 
  4 C       -1.4320     2.5060     0.0110 C.ar  1 <1>   0.0820 
  5 CL       2.3250     1.0610     0.0210 Cl    1 <1>  -0.1770 
  6 C        1.1760     3.5030     0.0140 C.ar  1 <1>  -0.1500 
  7 O       -2.6790     1.9600     0.0100 O.3   1 <1>  -0.3630 
  8 C       -1.2000     3.8810     0.0090 C.ar  1 <1>  -0.1500 
  9 C        0.0970     4.3730     0.0100 C.ar  1 <1>  -0.1500 
 10 C       -3.8470     2.7400     0.0060 C.3   1 <1>   0.1200 
 11 C       -5.0290     1.7650     0.0050 C.3   1 <1>   0.3430 
 12 N       -6.3450     2.4740     0.0010 N.4   1 <1>  -0.9060 
 13 C       -7.4830     1.5230     0.0010 C.3   1 <1>   0.3430 
 14 C       -8.7880     2.3140    -0.0030 C.3   1 <1>  -0.1600 
 15 C       -9.9970     1.3700    -0.0040 C.3   1 <1>  -0.1600 
 16 C      -11.3090     2.1600    -0.0080 C.3   1 <1>  -0.2400 
 17 H        2.1850     3.8760     0.0150 H     1 <1>   0.1500 
 18 H       -2.0070     4.5900     0.0060 H     1 <1>   0.1500 
 19 H        0.2710     5.4360     0.0080 H     1 <1>   0.1500 
 20 H       -3.8410     3.3460    -0.8840 H     1 <1>   0.0800 
 21 H       -3.8450     3.3490     0.8930 H     1 <1>   0.0800 
 22 H       -4.9580     1.1400     0.8810 H     1 <1>   0.0800 
 23 H       -4.9540     1.1370    -0.8680 H     1 <1>   0.0800 
 24 H       -6.4220     3.0780    -0.8280 H     1 <1>   0.4500 
 25 H       -6.4250     3.0810     0.8280 H     1 <1>   0.4500 
 26 H       -7.4440     0.8960     0.8780 H     1 <1>   0.0800 
 27 H       -7.4400     0.8920    -0.8730 H     1 <1>   0.0800 
 28 H       -8.8360     2.9360    -0.8810 H     1 <1>   0.0800 
 29 H       -8.8400     2.9400     0.8710 H     1 <1>   0.0800 
 30 H       -9.9750     0.7380     0.8690 H     1 <1>   0.0800 
 31 H       -9.9720     0.7350    -0.8750 H     1 <1>   0.0800 
 32 H      -11.3820     2.7840     0.8650 H     1 <1>   0.0800 
 33 H      -12.1460     1.4830    -0.0090 H     1 <1>   0.0800 
 34 H      -11.3780     2.7810    -0.8850 H     1 <1>   0.0800 
@<TRIPOS>BOND
  1   1   2  1   
  2   2   3  ar  
  3   2   4  ar  
  4   3   5  1   
  5   3   6  ar  
  6   4   7  1   
  7   4   8  ar  
  8   6   9  ar  
  9   6  17  1   
 10   7  10  1   
 11   8   9  ar  
 12   8  18  1   
 13   9  19  1   
 14  10  11  1   
 15  10  20  1   
 16  10  21  1   
 17  11  12  1   
 18  11  22  1   
 19  11  23  1   
 20  12  13  1   
 21  12  24  1   
 22  12  25  1   
 23  13  14  1   
 24  13  26  1   
 25  13  27  1   
 26  14  15  1   
 27  14  28  1   
 28  14  29  1   
 29  15  16  1   
 30  15  30  1   
 31  15  31  1   
 32  16  32  1   
 33  16  33  1   
 34  16  34  1   
@<TRIPOS>SUBSTRUCTURE
  1 ****  10 GROUP 4 **** **** 0

# MOE 2024.06 (io_trps.svl 2023.06)
