@<TRIPOS>MOLECULE
NONAME
27 27 1 0 0 
SMALL
USER_CHARGES


@<TRIPOS>ATOM
  1 F       -0.3400    -0.6080     1.0960 F     1 <1>  -0.3400 
  2 C        0.9390    -0.7160     0.7610 C.3   1 <1>   1.0200 
  3 F        1.2320     0.4040     0.1190 F     1 <1>  -0.3400 
  4 F        1.5980    -0.6510     1.9120 F     1 <1>  -0.3400 
  5 C        1.2390    -2.0290     0.0420 C.3   1 <1>   0.0610 
  6 C        2.7390    -2.0960    -0.1910 C.2   1 <1>   0.5690 
  7 C        0.5620    -1.9890    -1.3250 C.3   1 <1>   1.0200 
  8 C        0.7240    -3.2580     0.8850 C.3   1 <1>  -0.2400 
  9 O        3.2810    -1.2130    -0.8040 O.2   1 <1>  -0.5700 
 10 N        3.4570    -3.1530     0.2940 N.am  1 <1>  -0.4930 
 11 F        0.8740    -3.0690    -2.0330 F     1 <1>  -0.3400 
 12 F        0.8440    -0.9590    -2.1080 F     1 <1>  -0.3400 
 13 F       -0.7610    -2.0140    -1.2320 F     1 <1>  -0.3400 
 14 C        4.8210    -3.4290     0.2070 C.2   1 <1>   0.3520 
 15 N        5.3070    -4.4940     0.7410 N.2   1 <1>  -0.4100 
 16 C        5.8270    -2.6840    -0.4110 C.2   1 <1>  -0.1500 
 17 O        6.5920    -4.4690     0.4930 O.3   1 <1>  -0.0190 
 18 C        6.9330    -3.4070    -0.1900 C.2   1 <1>  -0.0400 
 19 C        8.3800    -3.1900    -0.5790 C.3   1 <1>  -0.0600 
 20 H        1.1920    -3.2880     1.8560 H     1 <1>   0.0800 
 21 H        0.9180    -4.1890     0.3790 H     1 <1>   0.0800 
 22 H       -0.3400    -3.1960     1.0450 H     1 <1>   0.0800 
 23 H        2.9690    -3.8840     0.8080 H     1 <1>   0.3700 
 24 H        5.7060    -1.7540    -0.9330 H     1 <1>   0.1500 
 25 H        8.4820    -2.2740    -1.1330 H     1 <1>   0.0800 
 26 H        8.7190    -4.0070    -1.1890 H     1 <1>   0.0800 
 27 H        8.9910    -3.1350     0.3030 H     1 <1>   0.0800 
@<TRIPOS>BOND
  1   1   2  1   
  2   2   3  1   
  3   2   4  1   
  4   2   5  1   
  5   5   6  1   
  6   5   7  1   
  7   5   8  1   
  8   6   9  2   
  9   6  10  am  
 10   7  11  1   
 11   7  12  1   
 12   7  13  1   
 13   8  20  1   
 14   8  21  1   
 15   8  22  1   
 16  10  14  1   
 17  10  23  1   
 18  14  15  2   
 19  14  16  1   
 20  15  17  1   
 21  16  18  2   
 22  16  24  1   
 23  17  18  1   
 24  18  19  1   
 25  19  25  1   
 26  19  26  1   
 27  19  27  1   
@<TRIPOS>SUBSTRUCTURE
  1 ****   6 GROUP 4 **** **** 0

# MOE 2024.06 (io_trps.svl 2023.06)
