@<TRIPOS>MOLECULE
NONAME
35 36 1 0 0 
SMALL
USER_CHARGES


@<TRIPOS>ATOM
  1 O       -0.2930    -3.3540     3.0290 O.2   1 <1>  -0.5700 
  2 C       -0.1410    -2.9800     1.8910 C.2   1 <1>   0.5690 
  3 N        1.0120    -2.3140     1.6100 N.am  1 <1>  -0.7300 
  4 C       -1.2220    -3.3100     0.8540 C.3   1 <1>   0.2610 
  5 C        1.6200    -1.7360     0.3920 C.3   1 <1>   0.3000 
  6 O       -2.0930    -2.1980     0.6670 O.3   1 <1>  -0.3630 
  7 C       -2.0520    -4.5410     1.2490 C.3   1 <1>   0.1200 
  8 C        2.7970    -0.8420     0.8620 C.3   1 <1>   0.1200 
  9 C        0.5980    -0.8890    -0.3760 C.3   1 <1>  -0.2400 
 10 C        2.1350    -2.8940    -0.4720 C.3   1 <1>  -0.2400 
 11 C       -3.2400    -2.4310    -0.0210 C.ar  1 <1>   0.0820 
 12 O       -3.0350    -4.8040     0.2620 O.3   1 <1>  -0.3630 
 13 O        3.5340    -0.3190    -0.2000 O.3   1 <1>  -0.6800 
 14 C       -3.7010    -3.7310    -0.2360 C.ar  1 <1>   0.0820 
 15 C       -3.9500    -1.3530    -0.5190 C.ar  1 <1>  -0.1500 
 16 C       -4.8590    -3.9410    -0.9640 C.ar  1 <1>  -0.1500 
 17 C       -5.1120    -1.5680    -1.2430 C.ar  1 <1>  -0.1500 
 18 C       -5.5640    -2.8590    -1.4670 C.ar  1 <1>  -0.1500 
 19 H        1.5910    -2.1890     2.4420 H     1 <1>   0.3700 
 20 H       -0.7530    -3.5130    -0.0880 H     1 <1>   0.0800 
 21 H       -2.5510    -4.3720     2.1860 H     1 <1>   0.0800 
 22 H       -1.4260    -5.4110     1.3360 H     1 <1>   0.0800 
 23 H        3.4770    -1.4050     1.4780 H     1 <1>   0.0800 
 24 H        2.4190    -0.0080     1.4280 H     1 <1>   0.0800 
 25 H       -0.1300    -1.4960    -0.8760 H     1 <1>   0.0800 
 26 H        1.0930    -0.3100    -1.1350 H     1 <1>   0.0800 
 27 H        0.1000    -0.2070     0.2900 H     1 <1>   0.0800 
 28 H        1.3370    -3.5550    -0.7520 H     1 <1>   0.0800 
 29 H        2.8800    -3.4570     0.0610 H     1 <1>   0.0800 
 30 H        2.5750    -2.5180    -1.3770 H     1 <1>   0.0800 
 31 H        3.9670    -1.0330    -0.7080 H     1 <1>   0.4000 
 32 H       -3.5920    -0.3550    -0.3410 H     1 <1>   0.1500 
 33 H       -5.2040    -4.9450    -1.1300 H     1 <1>   0.1500 
 34 H       -5.6650    -0.7300    -1.6320 H     1 <1>   0.1500 
 35 H       -6.4650    -3.0230    -2.0320 H     1 <1>   0.1500 
@<TRIPOS>BOND
  1   1   2  2   
  2   2   3  am  
  3   2   4  1   
  4   3   5  1   
  5   3  19  1   
  6   4   6  1   
  7   4   7  1   
  8   4  20  1   
  9   5   8  1   
 10   5   9  1   
 11   5  10  1   
 12   6  11  1   
 13   7  12  1   
 14   7  21  1   
 15   7  22  1   
 16   8  13  1   
 17   8  23  1   
 18   8  24  1   
 19   9  25  1   
 20   9  26  1   
 21   9  27  1   
 22  10  28  1   
 23  10  29  1   
 24  10  30  1   
 25  11  14  ar  
 26  11  15  ar  
 27  12  14  1   
 28  13  31  1   
 29  14  16  ar  
 30  15  17  ar  
 31  15  32  1   
 32  16  18  ar  
 33  16  33  1   
 34  17  18  ar  
 35  17  34  1   
 36  18  35  1   
@<TRIPOS>SUBSTRUCTURE
  1 ****   6 GROUP 4 **** **** 0

# MOE 2024.06 (io_trps.svl 2023.06)
