@<TRIPOS>MOLECULE
NONAME
46 48 1 0 0 
SMALL
USER_CHARGES


@<TRIPOS>ATOM
  1 S       -0.1210     0.0380     1.2710 S.3   1 <1>  -0.0800 
  2 C       -0.4690     1.6750     0.7550 C.2   1 <1>   0.1040 
  3 C       -1.7890    -0.4550     1.0460 C.2   1 <1>  -0.1400 
  4 N        0.5410     2.6210     0.6820 N.am  1 <1>  -0.4940 
  5 C       -1.7950     1.8200     0.4630 C.2   1 <1>  -0.0860 
  6 C       -2.5350     0.5810     0.6100 C.2   1 <1>  -0.1810 
  7 C       -2.0730    -1.9120     1.3600 C.3   1 <1>  -0.0600 
  8 C        1.8880     2.6120     0.9350 C.2   1 <1>   0.5690 
  9 C       -2.3490     3.0870     0.0570 C.2   1 <1>   0.7160 
 10 C       -4.0150     0.4700     0.2640 C.3   1 <1>  -0.0590 
 11 O        2.4840     1.6770     1.4140 O.2   1 <1>  -0.5700 
 12 C        2.6660     3.8840     0.5630 C.3   1 <1>   0.2610 
 13 O       -1.7160     3.8610    -0.6420 O.2   1 <1>  -0.5700 
 14 N       -3.5830     3.4720     0.4810 N.am  1 <1>  -0.7300 
 15 O        1.7820     4.9590     0.3160 O.3   1 <1>  -0.5600 
 16 C        3.4660     3.7240    -0.7280 C.3   1 <1>  -0.1600 
 17 C       -4.3450     4.6280    -0.0200 C.3   1 <1>   0.2840 
 18 C        1.6940     5.2740    -1.0430 C.3   1 <1>   0.1200 
 19 C        2.5050     4.2230    -1.7880 C.3   1 <1>  -0.1600 
 20 C       -5.7190     4.1340    -0.4220 C.ar  1 <1>  -0.1430 
 21 C       -6.8150     4.3360     0.4040 C.ar  1 <1>   0.1600 
 22 C       -5.8990     3.4660    -1.6170 C.ar  1 <1>  -0.1500 
 23 N       -8.0460     3.9280     0.1400 N.ar  1 <1>  -0.6200 
 24 C       -7.1770     3.0390    -1.9090 C.ar  1 <1>  -0.1500 
 25 C       -8.1980     3.2920    -1.0100 C.ar  1 <1>   0.1600 
 26 H        0.2400     3.5350     0.3200 H     1 <1>   0.3700 
 27 H       -1.5060    -2.5410     0.6990 H     1 <1>   0.0800 
 28 H       -3.1150    -2.1410     1.2480 H     1 <1>   0.0800 
 29 H       -1.7830    -2.1260     2.3730 H     1 <1>   0.0800 
 30 H       -4.3180    -0.5570     0.1880 H     1 <1>   0.0800 
 31 H       -4.2100     0.9370    -0.6850 H     1 <1>   0.0800 
 32 H       -4.6160     0.9390     1.0210 H     1 <1>   0.0800 
 33 H        3.3060     4.1530     1.3850 H     1 <1>   0.0800 
 34 H       -4.0930     2.8400     1.0960 H     1 <1>   0.3700 
 35 H        3.7790     2.7070    -0.8920 H     1 <1>   0.0800 
 36 H        4.3350     4.3570    -0.6820 H     1 <1>   0.0800 
 37 H       -3.8490     5.0700    -0.8690 H     1 <1>   0.0800 
 38 H       -4.4170     5.3720     0.7550 H     1 <1>   0.0800 
 39 H        2.1170     6.2550    -1.1770 H     1 <1>   0.0800 
 40 H        0.6580     5.2770    -1.3390 H     1 <1>   0.0800 
 41 H        1.8500     3.4290    -2.1060 H     1 <1>   0.0800 
 42 H        3.0070     4.6330    -2.6460 H     1 <1>   0.0800 
 43 H       -6.6770     4.8580     1.3350 H     1 <1>   0.1500 
 44 H       -5.0790     3.2850    -2.2920 H     1 <1>   0.1500 
 45 H       -7.3820     2.5150    -2.8250 H     1 <1>   0.1500 
 46 H       -9.1930     2.9540    -1.2490 H     1 <1>   0.1500 
@<TRIPOS>BOND
  1   1   2  1   
  2   1   3  1   
  3   2   4  1   
  4   2   5  2   
  5   3   6  2   
  6   3   7  1   
  7   4   8  am  
  8   4  26  1   
  9   5   6  1   
 10   5   9  1   
 11   6  10  1   
 12   7  27  1   
 13   7  28  1   
 14   7  29  1   
 15   8  11  2   
 16   8  12  1   
 17   9  13  2   
 18   9  14  am  
 19  10  30  1   
 20  10  31  1   
 21  10  32  1   
 22  12  15  1   
 23  12  16  1   
 24  12  33  1   
 25  14  17  1   
 26  14  34  1   
 27  15  18  1   
 28  16  19  1   
 29  16  35  1   
 30  16  36  1   
 31  17  20  1   
 32  17  37  1   
 33  17  38  1   
 34  18  19  1   
 35  18  39  1   
 36  18  40  1   
 37  19  41  1   
 38  19  42  1   
 39  20  21  ar  
 40  20  22  ar  
 41  21  23  ar  
 42  21  43  1   
 43  22  24  ar  
 44  22  44  1   
 45  23  25  ar  
 46  24  25  ar  
 47  24  45  1   
 48  25  46  1   
@<TRIPOS>SUBSTRUCTURE
  1 ****   9 GROUP 4 **** **** 0

# MOE 2024.06 (io_trps.svl 2023.06)
