@<TRIPOS>MOLECULE
NONAME
41 42 1 0 0 
SMALL
USER_CHARGES


@<TRIPOS>ATOM
  1 BR       1.5260    -0.2760    -1.2610 Br    1 <1>  -0.1110 
  2 C        0.6210    -1.8660    -0.6620 C.ar  1 <1>   0.1110 
  3 C       -0.5540    -2.2360    -1.2850 C.ar  1 <1>  -0.1500 
  4 C        1.1680    -2.5930     0.3760 C.ar  1 <1>  -0.1500 
  5 C       -1.2170    -3.3760    -0.8530 C.ar  1 <1>  -0.1440 
  6 C        0.5130    -3.7360     0.8000 C.ar  1 <1>  -0.1500 
  7 C       -0.6770    -4.1350     0.1880 C.ar  1 <1>   0.0830 
  8 C       -2.5190    -3.7880    -1.5280 C.3   1 <1>   0.2540 
  9 O       -1.3480    -5.2590     0.5610 O.3   1 <1>  -0.3630 
 10 N       -3.6930    -3.3840    -0.7250 N.3   1 <1>  -0.8100 
 11 C       -0.8410    -6.1340     1.5450 C.3   1 <1>   0.0400 
 12 C       -4.9390    -3.9710    -1.2410 C.3   1 <1>   0.1100 
 13 C       -3.8000    -1.9260    -0.5250 C.3   1 <1>   0.1100 
 14 C       -6.1290    -3.6420    -0.3170 C.3   1 <1>   0.3430 
 15 C       -4.9830    -1.5820     0.4010 C.3   1 <1>   0.3430 
 16 N       -6.2800    -2.1570    -0.1040 N.4   1 <1>  -0.9590 
 17 C       -7.3900    -1.8270     0.8470 C.3   1 <1>   0.3430 
 18 C       -8.7790    -2.1670     0.2880 C.3   1 <1>   0.1200 
 19 O       -9.7180    -1.7450     1.2120 O.3   1 <1>  -0.6800 
 20 H       -0.9340    -1.6370    -2.0930 H     1 <1>   0.1500 
 21 H        2.0850    -2.2720     0.8380 H     1 <1>   0.1500 
 22 H        0.9450    -4.2990     1.6050 H     1 <1>   0.1500 
 23 H       -2.5180    -4.8590    -1.6470 H     1 <1>   0.0800 
 24 H       -2.5780    -3.3500    -2.5100 H     1 <1>   0.0800 
 25 H       -1.5240    -6.9590     1.6420 H     1 <1>   0.0800 
 26 H       -0.7720    -5.6060     2.4800 H     1 <1>   0.0800 
 27 H        0.1230    -6.4930     1.2310 H     1 <1>   0.0800 
 28 H       -4.8290    -5.0420    -1.2910 H     1 <1>   0.0800 
 29 H       -5.1350    -3.6100    -2.2370 H     1 <1>   0.0800 
 30 H       -3.9140    -1.4270    -1.4720 H     1 <1>   0.0800 
 31 H       -2.9010    -1.5590    -0.0600 H     1 <1>   0.0800 
 32 H       -5.9610    -4.1280     0.6300 H     1 <1>   0.0800 
 33 H       -7.0290    -4.0500    -0.7450 H     1 <1>   0.0800 
 34 H       -5.0630    -0.5120     0.4890 H     1 <1>   0.0800 
 35 H       -4.7670    -1.9800     1.3790 H     1 <1>   0.0800 
 36 H       -6.4690    -1.7210    -1.0140 H     1 <1>   0.4500 
 37 H       -7.3700    -0.7710     1.0640 H     1 <1>   0.0800 
 38 H       -7.2460    -2.3620     1.7720 H     1 <1>   0.0800 
 39 H       -8.9010    -3.2270     0.1530 H     1 <1>   0.0800 
 40 H       -8.9640    -1.6430    -0.6340 H     1 <1>   0.0800 
 41 H      -10.6350    -1.9230     0.9120 H     1 <1>   0.4000 
@<TRIPOS>BOND
  1   1   2  1   
  2   2   3  ar  
  3   2   4  ar  
  4   3   5  ar  
  5   3  20  1   
  6   4   6  ar  
  7   4  21  1   
  8   5   7  ar  
  9   5   8  1   
 10   6   7  ar  
 11   6  22  1   
 12   7   9  1   
 13   8  10  1   
 14   8  23  1   
 15   8  24  1   
 16   9  11  1   
 17  10  12  1   
 18  10  13  1   
 19  11  25  1   
 20  11  26  1   
 21  11  27  1   
 22  12  14  1   
 23  12  28  1   
 24  12  29  1   
 25  13  15  1   
 26  13  30  1   
 27  13  31  1   
 28  14  16  1   
 29  14  32  1   
 30  14  33  1   
 31  15  16  1   
 32  15  34  1   
 33  15  35  1   
 34  16  17  1   
 35  16  36  1   
 36  17  18  1   
 37  17  37  1   
 38  17  38  1   
 39  18  19  1   
 40  18  39  1   
 41  18  40  1   
 42  19  41  1   
@<TRIPOS>SUBSTRUCTURE
  1 ****  10 GROUP 4 **** **** 0

# MOE 2024.06 (io_trps.svl 2023.06)
