@<TRIPOS>MOLECULE
NONAME
48 50 1 0 0 
SMALL
USER_CHARGES


@<TRIPOS>ATOM
  1 CL       3.5370    -1.3040    -1.4210 Cl    1 <1>  -0.1770 
  2 C        2.5520    -2.3260    -0.4070 C.ar  1 <1>   0.1770 
  3 C        1.7800    -3.3140    -0.9900 C.ar  1 <1>  -0.1500 
  4 C        2.5630    -2.1340     0.9610 C.ar  1 <1>  -0.1500 
  5 C        0.9940    -4.1350    -0.1920 C.ar  1 <1>  -0.1440 
  6 C        1.7830    -2.9500     1.7610 C.ar  1 <1>  -0.1500 
  7 C        1.0060    -3.9440     1.1860 C.ar  1 <1>  -0.1500 
  8 C        0.1520    -5.2430    -0.8240 C.3   1 <1>   0.5020 
  9 N       -1.2410    -5.0830    -0.3600 N.am  1 <1>  -0.7300 
 10 C        0.7340    -6.6130    -0.4760 C.2   1 <1>  -0.1240 
 11 C       -1.8650    -5.9600     0.4420 C.2   1 <1>   0.6900 
 12 C        0.0080    -7.4840     0.2780 C.2   1 <1>  -0.0290 
 13 C        2.0450    -6.7740    -1.0170 C.2   1 <1>   0.7060 
 14 O       -2.9480    -5.7060     0.9140 O.2   1 <1>  -0.5700 
 15 N       -1.2470    -7.1330     0.7310 N.am  1 <1>  -0.5390 
 16 C        0.4380    -8.8830     0.6900 C.3   1 <1>  -0.1020 
 17 O        2.3830    -6.2770    -2.0750 O.2   1 <1>  -0.5700 
 18 O        2.9450    -7.4590    -0.3060 O.3   1 <1>  -0.4300 
 19 C        4.3070    -7.5410    -0.6680 C.3   1 <1>   0.2000 
 20 C        4.8350    -8.8530    -0.0770 C.3   1 <1>  -0.1600 
 21 C        5.0130    -6.2730    -0.1580 C.3   1 <1>  -0.1600 
 22 C        6.3390    -9.0990    -0.2840 C.3   1 <1>  -0.1600 
 23 C        6.4170    -6.1100    -0.7600 C.3   1 <1>  -0.1600 
 24 C        7.2090    -8.2000     0.6050 C.3   1 <1>  -0.1600 
 25 C        7.5410    -6.8230     0.0090 C.3   1 <1>  -0.1600 
 26 H        1.8090    -3.4360    -2.0580 H     1 <1>   0.1500 
 27 H        3.1730    -1.3590     1.3880 H     1 <1>   0.1500 
 28 H        1.7800    -2.8150     2.8290 H     1 <1>   0.1500 
 29 H        0.4070    -4.5740     1.8230 H     1 <1>   0.1500 
 30 H        0.1500    -5.1270    -1.8950 H     1 <1>   0.0800 
 31 H       -1.6480    -4.1540    -0.4370 H     1 <1>   0.3700 
 32 H       -1.8020    -7.7530     1.3200 H     1 <1>   0.3700 
 33 H       -0.3670    -9.5780     0.5300 H     1 <1>   0.0800 
 34 H        0.7010    -8.8910     1.7320 H     1 <1>   0.0800 
 35 H        1.2790    -9.2300     0.1200 H     1 <1>   0.0800 
 36 H        4.3710    -7.5940    -1.7430 H     1 <1>   0.0800 
 37 H        4.3000    -9.6600    -0.5450 H     1 <1>   0.0800 
 38 H        4.6140    -8.8820     0.9760 H     1 <1>   0.0800 
 39 H        5.0580    -6.2680     0.9160 H     1 <1>   0.0800 
 40 H        4.4350    -5.4200    -0.4680 H     1 <1>   0.0800 
 41 H        6.6070    -8.9850    -1.3210 H     1 <1>   0.0800 
 42 H        6.5400   -10.1220    -0.0140 H     1 <1>   0.0800 
 43 H        6.6570    -5.0610    -0.7920 H     1 <1>   0.0800 
 44 H        6.4090    -6.4530    -1.7810 H     1 <1>   0.0800 
 45 H        8.1410    -8.7040     0.7970 H     1 <1>   0.0800 
 46 H        6.7300    -8.0690     1.5610 H     1 <1>   0.0800 
 47 H        7.8630    -6.1850     0.8150 H     1 <1>   0.0800 
 48 H        8.3800    -6.9280    -0.6570 H     1 <1>   0.0800 
@<TRIPOS>BOND
  1   1   2  1   
  2   2   3  ar  
  3   2   4  ar  
  4   3   5  ar  
  5   3  26  1   
  6   4   6  ar  
  7   4  27  1   
  8   5   7  ar  
  9   5   8  1   
 10   6   7  ar  
 11   6  28  1   
 12   7  29  1   
 13   8   9  1   
 14   8  10  1   
 15   8  30  1   
 16   9  11  am  
 17   9  31  1   
 18  10  12  2   
 19  10  13  1   
 20  11  14  2   
 21  11  15  am  
 22  12  15  1   
 23  12  16  1   
 24  13  17  2   
 25  13  18  1   
 26  15  32  1   
 27  16  33  1   
 28  16  34  1   
 29  16  35  1   
 30  18  19  1   
 31  19  20  1   
 32  19  21  1   
 33  19  36  1   
 34  20  22  1   
 35  20  37  1   
 36  20  38  1   
 37  21  23  1   
 38  21  39  1   
 39  21  40  1   
 40  22  24  1   
 41  22  41  1   
 42  22  42  1   
 43  23  25  1   
 44  23  43  1   
 45  23  44  1   
 46  24  25  1   
 47  24  45  1   
 48  24  46  1   
 49  25  47  1   
 50  25  48  1   
@<TRIPOS>SUBSTRUCTURE
  1 ****  13 GROUP 4 **** **** 0

# MOE 2024.06 (io_trps.svl 2023.06)
