@<TRIPOS>MOLECULE
NONAME
51 53 1 0 0 
SMALL
USER_CHARGES


@<TRIPOS>ATOM
  1 O       -0.6570    -0.1560     2.6950 O.2   1 <1>  -0.5700 
  2 C       -0.0120    -0.6730     1.8150 C.2   1 <1>   0.5690 
  3 N       -0.5000    -1.0110     0.5850 N.am  1 <1>  -0.5470 
  4 C        1.4670    -0.9780     2.0570 C.3   1 <1>   0.1710 
  5 C       -1.7610    -0.8930    -0.0210 C.ar  1 <1>   0.1170 
  6 N        2.2780    -1.0360     0.8030 N.3   1 <1>  -0.8100 
  7 C       -1.8750    -1.2030    -1.3720 C.ar  1 <1>  -0.1500 
  8 C       -2.9020    -0.4840     0.6610 C.ar  1 <1>  -0.1500 
  9 C        3.5930    -1.6690     1.0630 C.3   1 <1>   0.1100 
 10 C        2.4970     0.3270     0.2560 C.3   1 <1>   0.1100 
 11 C       -3.0890    -1.1070    -2.0290 C.ar  1 <1>  -0.1500 
 12 C       -4.1190    -0.3860     0.0090 C.ar  1 <1>  -0.1500 
 13 C        4.4620    -1.7570    -0.2050 C.3   1 <1>   0.2090 
 14 C        3.3470     0.3200    -1.0310 C.3   1 <1>   0.2090 
 15 C       -4.2240    -0.6940    -1.3370 C.ar  1 <1>   0.0820 
 16 N        4.6320    -0.4180    -0.8460 N.pl3 1 <1>  -0.8380 
 17 O       -5.4540    -0.5710    -1.9000 O.3   1 <1>  -0.3620 
 18 C        5.8590     0.2450    -0.6370 C.ar  1 <1>   0.1000 
 19 C       -5.6630    -0.8690    -3.2620 C.3   1 <1>   0.0400 
 20 C        7.0860    -0.2970    -1.0650 C.ar  1 <1>   0.0820 
 21 C        5.8980     1.4650     0.0340 C.ar  1 <1>  -0.1500 
 22 O        7.1630    -1.4740    -1.7420 O.3   1 <1>  -0.3630 
 23 C        8.2800     0.3500    -0.8030 C.ar  1 <1>  -0.1500 
 24 C        7.0940     2.1170     0.2840 C.ar  1 <1>  -0.1500 
 25 C        6.6810    -1.4480    -3.0660 C.3   1 <1>   0.0400 
 26 C        8.2890     1.5600    -0.1310 C.ar  1 <1>  -0.1500 
 27 H        0.2530    -1.3700    -0.0110 H     1 <1>   0.3700 
 28 H        1.5120    -1.9310     2.5530 H     1 <1>   0.0800 
 29 H        1.8720    -0.2390     2.7260 H     1 <1>   0.0800 
 30 H       -1.0060    -1.5230    -1.9160 H     1 <1>   0.1500 
 31 H       -2.8520    -0.2410     1.7060 H     1 <1>   0.1500 
 32 H        3.4430    -2.6640     1.4430 H     1 <1>   0.0800 
 33 H        4.1310    -1.1050     1.8060 H     1 <1>   0.0800 
 34 H        2.9940     0.9360     0.9920 H     1 <1>   0.0800 
 35 H        1.5500     0.7890     0.0360 H     1 <1>   0.0800 
 36 H       -3.1330    -1.3550    -3.0720 H     1 <1>   0.1500 
 37 H       -4.9960    -0.0690     0.5440 H     1 <1>   0.1500 
 38 H        4.0020    -2.4270    -0.9090 H     1 <1>   0.0800 
 39 H        5.4240    -2.1630     0.0550 H     1 <1>   0.0800 
 40 H        3.5470     1.3290    -1.3450 H     1 <1>   0.0800 
 41 H        2.7860    -0.1580    -1.8160 H     1 <1>   0.0800 
 42 H       -6.7020    -0.7040    -3.4850 H     1 <1>   0.0800 
 43 H       -5.4110    -1.9000    -3.4360 H     1 <1>   0.0800 
 44 H       -5.0530    -0.2150    -3.8600 H     1 <1>   0.0800 
 45 H        4.9890     1.9130     0.3810 H     1 <1>   0.1500 
 46 H        9.2010    -0.0960    -1.1300 H     1 <1>   0.1500 
 47 H        7.0930     3.0580     0.8060 H     1 <1>   0.1500 
 48 H        6.8740    -2.4050    -3.5140 H     1 <1>   0.0800 
 49 H        7.1960    -0.6740    -3.6070 H     1 <1>   0.0800 
 50 H        5.6240    -1.2540    -3.0540 H     1 <1>   0.0800 
 51 H        9.2200     2.0610     0.0660 H     1 <1>   0.1500 
@<TRIPOS>BOND
  1   1   2  2   
  2   2   3  am  
  3   2   4  1   
  4   3   5  1   
  5   3  27  1   
  6   4   6  1   
  7   4  28  1   
  8   4  29  1   
  9   5   7  ar  
 10   5   8  ar  
 11   6   9  1   
 12   6  10  1   
 13   7  11  ar  
 14   7  30  1   
 15   8  12  ar  
 16   8  31  1   
 17   9  13  1   
 18   9  32  1   
 19   9  33  1   
 20  10  14  1   
 21  10  34  1   
 22  10  35  1   
 23  11  15  ar  
 24  11  36  1   
 25  12  15  ar  
 26  12  37  1   
 27  13  16  1   
 28  13  38  1   
 29  13  39  1   
 30  14  16  1   
 31  14  40  1   
 32  14  41  1   
 33  15  17  1   
 34  16  18  1   
 35  17  19  1   
 36  18  20  ar  
 37  18  21  ar  
 38  19  42  1   
 39  19  43  1   
 40  19  44  1   
 41  20  22  1   
 42  20  23  ar  
 43  21  24  ar  
 44  21  45  1   
 45  22  25  1   
 46  23  26  ar  
 47  23  46  1   
 48  24  26  ar  
 49  24  47  1   
 50  25  48  1   
 51  25  49  1   
 52  25  50  1   
 53  26  51  1   
@<TRIPOS>SUBSTRUCTURE
  1 ****  10 GROUP 4 **** **** 0

# MOE 2024.06 (io_trps.svl 2023.06)
