@<TRIPOS>MOLECULE
NONAME
34 34 1 0 0 
SMALL
USER_CHARGES


@<TRIPOS>ATOM
  1 F        0.3440    -0.1850    -1.8360 F     1 <1>  -0.3400 
  2 C        1.0800    -0.3360    -0.7420 C.3   1 <1>   1.0200 
  3 F        0.5090     0.4410     0.1790 F     1 <1>  -0.3400 
  4 F        2.2300     0.2740    -1.0160 F     1 <1>  -0.3400 
  5 C        1.2810    -1.8120    -0.1930 C.3   1 <1>   0.6690 
  6 N        2.1870    -1.8410     1.0430 N.pl3 1 <1>  -0.8690 
  7 N        0.1070    -2.4150     0.5010 N.am  1 <1>  -0.7300 
  8 C        1.7600    -2.6470    -1.4570 C.3   1 <1>   1.0200 
  9 C        3.5540    -2.0510     0.9210 C.ar  1 <1>   0.1000 
 10 C       -1.1460    -2.5450     0.0450 C.2   1 <1>   0.7800 
 11 F        0.8870    -2.6990    -2.4570 F     1 <1>  -0.3400 
 12 F        1.9880    -3.9260    -1.1590 F     1 <1>  -0.3400 
 13 F        2.8890    -2.2070    -2.0070 F     1 <1>  -0.3400 
 14 C        4.4300    -0.9760     0.8320 C.ar  1 <1>  -0.1500 
 15 C        4.0730    -3.3390     0.9130 C.ar  1 <1>  -0.1500 
 16 O       -1.5150    -2.0450    -0.9900 O.2   1 <1>  -0.5700 
 17 O       -1.9680    -3.2640     0.7970 O.3   1 <1>  -0.4300 
 18 C        5.7910    -1.1850     0.7090 C.ar  1 <1>  -0.1500 
 19 C        5.4340    -3.5520     0.7900 C.ar  1 <1>  -0.1500 
 20 C       -3.3070    -3.4660     0.4050 C.3   1 <1>   0.1200 
 21 C        6.2960    -2.4740     0.6840 C.ar  1 <1>  -0.1500 
 22 C       -3.9850    -4.3270     1.4660 C.3   1 <1>  -0.2400 
 23 H        1.9780    -1.0130     1.6160 H     1 <1>   0.4000 
 24 H        0.3740    -2.9240     1.3410 H     1 <1>   0.3700 
 25 H        4.0540     0.0300     0.8570 H     1 <1>   0.1500 
 26 H        3.4100    -4.1790     1.0090 H     1 <1>   0.1500 
 27 H        6.4610    -0.3460     0.6320 H     1 <1>   0.1500 
 28 H        5.8240    -4.5550     0.7770 H     1 <1>   0.1500 
 29 H       -3.3130    -3.9580    -0.5530 H     1 <1>   0.0800 
 30 H       -3.7880    -2.5060     0.3210 H     1 <1>   0.0800 
 31 H        7.3550    -2.6370     0.5860 H     1 <1>   0.1500 
 32 H       -3.4890    -5.2770     1.5460 H     1 <1>   0.0800 
 33 H       -5.0100    -4.4970     1.1930 H     1 <1>   0.0800 
 34 H       -3.9630    -3.8280     2.4190 H     1 <1>   0.0800 
@<TRIPOS>BOND
  1   1   2  1   
  2   2   3  1   
  3   2   4  1   
  4   2   5  1   
  5   5   6  1   
  6   5   7  1   
  7   5   8  1   
  8   6   9  1   
  9   6  23  1   
 10   7  10  am  
 11   7  24  1   
 12   8  11  1   
 13   8  12  1   
 14   8  13  1   
 15   9  14  ar  
 16   9  15  ar  
 17  10  16  2   
 18  10  17  1   
 19  14  18  ar  
 20  14  25  1   
 21  15  19  ar  
 22  15  26  1   
 23  17  20  1   
 24  18  21  ar  
 25  18  27  1   
 26  19  21  ar  
 27  19  28  1   
 28  20  22  1   
 29  20  29  1   
 30  20  30  1   
 31  21  31  1   
 32  22  32  1   
 33  22  33  1   
 34  22  34  1   
@<TRIPOS>SUBSTRUCTURE
  1 ****   5 GROUP 4 **** **** 0

# MOE 2024.06 (io_trps.svl 2023.06)
