@<TRIPOS>MOLECULE
NONAME
44 45 1 0 0 
SMALL
USER_CHARGES


@<TRIPOS>ATOM
  1 S       -0.1220    -0.0200    -0.0930 S.o2  1 <1>   1.4470 
  2 O       -0.7940    -0.5130     1.0880 O.2   1 <1>  -0.6500 
  3 O       -0.4580    -0.5410    -1.3970 O.2   1 <1>  -0.6500 
  4 N       -0.4810     1.6130    -0.2220 N.am  1 <1>  -0.9140 
  5 C        1.6740    -0.0270     0.1570 C.ar  1 <1>  -0.0090 
  6 C       -1.8620     1.9120     0.0890 C.3   1 <1>   0.1960 
  7 C        2.5330    -0.5970    -0.7740 C.ar  1 <1>  -0.1500 
  8 C        2.2350     0.5490     1.2900 C.ar  1 <1>  -0.1500 
  9 C       -2.1080     3.3820    -0.2200 C.3   1 <1>  -0.2400 
 10 C        3.9040    -0.5900    -0.5830 C.ar  1 <1>  -0.1500 
 11 C        3.6040     0.5590     1.4880 C.ar  1 <1>  -0.1500 
 12 C        4.4470    -0.0100     0.5500 C.ar  1 <1>  -0.1430 
 13 C        5.9520     0.0090     0.7590 C.3   1 <1>  -0.0170 
 14 C        6.5530     1.2880     0.1570 C.3   1 <1>  -0.0990 
 15 C        8.0630     1.3910     0.3110 C.2   1 <1>   0.5690 
 16 O        8.6320     0.5500     0.9670 O.2   1 <1>  -0.5700 
 17 N        8.7470     2.4190    -0.2850 N.am  1 <1>  -0.6600 
 18 C        8.1400     3.5420    -1.0640 C.3   1 <1>   0.1400 
 19 C       10.2340     2.5270    -0.1810 C.3   1 <1>   0.1400 
 20 C        8.6740     4.8970    -0.5670 C.3   1 <1>   0.1200 
 21 C       10.6480     3.9390     0.2630 C.3   1 <1>   0.1200 
 22 O       10.0720     4.9080    -0.5690 O.3   1 <1>  -0.5600 
 23 H       -0.3580     1.8000    -1.2150 H     1 <1>   0.4200 
 24 H       -2.0510     1.7210     1.1340 H     1 <1>   0.0800 
 25 H       -2.5200     1.2920    -0.5000 H     1 <1>   0.0800 
 26 H        2.1260    -1.0540    -1.6610 H     1 <1>   0.1500 
 27 H        1.5870     0.9950     2.0270 H     1 <1>   0.1500 
 28 H       -1.4520     3.9990     0.3680 H     1 <1>   0.0800 
 29 H       -3.1240     3.6360     0.0260 H     1 <1>   0.0800 
 30 H       -1.9510     3.5810    -1.2650 H     1 <1>   0.0800 
 31 H        4.5460    -1.0400    -1.3220 H     1 <1>   0.1500 
 32 H        4.0090     1.0120     2.3770 H     1 <1>   0.1500 
 33 H        6.3970    -0.8550     0.2960 H     1 <1>   0.0800 
 34 H        6.1740    -0.0370     1.8110 H     1 <1>   0.0800 
 35 H        6.1050     2.1390     0.6350 H     1 <1>   0.0800 
 36 H        6.3140     1.3180    -0.8900 H     1 <1>   0.0800 
 37 H        7.0690     3.5410    -0.9820 H     1 <1>   0.0800 
 38 H        8.3950     3.4260    -2.1030 H     1 <1>   0.0800 
 39 H       10.6710     2.3140    -1.1400 H     1 <1>   0.0800 
 40 H       10.6200     1.8100     0.5230 H     1 <1>   0.0800 
 41 H        8.3290     5.0970     0.4330 H     1 <1>   0.0800 
 42 H        8.3390     5.6880    -1.2140 H     1 <1>   0.0800 
 43 H       11.7160     4.0480     0.2040 H     1 <1>   0.0800 
 44 H       10.3370     4.1230     1.2770 H     1 <1>   0.0800 
@<TRIPOS>BOND
  1   1   2  2   
  2   1   3  2   
  3   1   4  am  
  4   1   5  1   
  5   4   6  1   
  6   4  23  1   
  7   5   7  ar  
  8   5   8  ar  
  9   6   9  1   
 10   6  24  1   
 11   6  25  1   
 12   7  10  ar  
 13   7  26  1   
 14   8  11  ar  
 15   8  27  1   
 16   9  28  1   
 17   9  29  1   
 18   9  30  1   
 19  10  12  ar  
 20  10  31  1   
 21  11  12  ar  
 22  11  32  1   
 23  12  13  1   
 24  13  14  1   
 25  13  33  1   
 26  13  34  1   
 27  14  15  1   
 28  14  35  1   
 29  14  36  1   
 30  15  16  2   
 31  15  17  am  
 32  17  18  1   
 33  17  19  1   
 34  18  20  1   
 35  18  37  1   
 36  18  38  1   
 37  19  21  1   
 38  19  39  1   
 39  19  40  1   
 40  20  22  1   
 41  20  41  1   
 42  20  42  1   
 43  21  22  1   
 44  21  43  1   
 45  21  44  1   
@<TRIPOS>SUBSTRUCTURE
  1 ****  12 GROUP 4 **** **** 0

# MOE 2024.06 (io_trps.svl 2023.06)
