@<TRIPOS>MOLECULE
NONAME
55 57 1 0 0 
SMALL
USER_CHARGES


@<TRIPOS>ATOM
  1 O       -0.1210     0.6020    -2.0780 O.2   1 <1>  -0.5700 
  2 C       -1.0540     1.1190    -1.4820 C.2   1 <1>   0.5440 
  3 N       -1.9250     0.3010    -0.7900 N.am  1 <1>  -0.6600 
  4 C       -1.1940     2.5640    -1.4820 C.ar  1 <1>   0.0860 
  5 C       -2.7200     0.7610     0.3840 C.3   1 <1>   0.1400 
  6 C       -1.9510    -1.1740    -0.9990 C.3   1 <1>   0.1400 
  7 C       -0.1030     3.3950    -1.1770 C.ar  1 <1>   0.1170 
  8 C       -2.4220     3.1630    -1.7720 C.ar  1 <1>  -0.1500 
  9 C       -2.2110     0.0680     1.6520 C.3   1 <1>  -0.1600 
 10 C       -1.4260    -1.8800     0.2550 C.3   1 <1>  -0.1600 
 11 N        1.1460     2.8070    -0.9520 N.am  1 <1>  -0.5470 
 12 C       -0.2810     4.7740    -1.1340 C.ar  1 <1>  -0.1500 
 13 C       -2.5840     4.5340    -1.7330 C.ar  1 <1>  -0.1500 
 14 C       -2.2090    -1.4610     1.5060 C.3   1 <1>  -0.1600 
 15 C        2.2000     3.1220    -0.1300 C.2   1 <1>   0.5440 
 16 C       -1.5090     5.3430    -1.4060 C.ar  1 <1>  -0.1500 
 17 O        2.2090     4.1820     0.4630 O.2   1 <1>  -0.5700 
 18 C        3.2880     2.1720     0.0210 C.ar  1 <1>   0.0860 
 19 C        3.1240     0.8130    -0.2630 C.ar  1 <1>  -0.1500 
 20 C        4.5450     2.5920     0.4560 C.ar  1 <1>  -0.1500 
 21 C        4.1700    -0.0920    -0.1420 C.ar  1 <1>   0.0830 
 22 C        5.6060     1.7050     0.5980 C.ar  1 <1>   0.0830 
 23 O        4.0300    -1.4160    -0.4440 O.3   1 <1>  -0.3630 
 24 C        5.4160     0.3570     0.2940 C.ar  1 <1>   0.0830 
 25 O        6.8390     2.1050     1.0250 O.3   1 <1>  -0.3630 
 26 C        2.8140    -1.9470    -0.9260 C.3   1 <1>   0.0400 
 27 O        6.4350    -0.5270     0.4420 O.3   1 <1>  -0.3630 
 28 C        7.0410     3.3760     1.6030 C.3   1 <1>   0.0400 
 29 C        7.3350    -0.6090    -0.6360 C.3   1 <1>   0.0400 
 30 H       -3.7560     0.5170     0.2230 H     1 <1>   0.0800 
 31 H       -2.6420     1.8260     0.5140 H     1 <1>   0.0800 
 32 H       -1.3540    -1.4490    -1.8520 H     1 <1>   0.0800 
 33 H       -2.9640    -1.4800    -1.1940 H     1 <1>   0.0800 
 34 H       -3.2580     2.5370    -2.0290 H     1 <1>   0.1500 
 35 H       -2.8320     0.3500     2.4850 H     1 <1>   0.0800 
 36 H       -1.2130     0.4130     1.8580 H     1 <1>   0.0800 
 37 H       -0.3850    -1.6350     0.3780 H     1 <1>   0.0800 
 38 H       -1.5000    -2.9450     0.1200 H     1 <1>   0.0800 
 39 H        1.2200     1.8890    -1.4080 H     1 <1>   0.3700 
 40 H        0.5530     5.4090    -0.8930 H     1 <1>   0.1500 
 41 H       -3.5400     4.9770    -1.9550 H     1 <1>   0.1500 
 42 H       -3.2230    -1.8130     1.4280 H     1 <1>   0.0800 
 43 H       -1.7670    -1.9090     2.3800 H     1 <1>   0.0800 
 44 H       -1.6290     6.4120    -1.3690 H     1 <1>   0.1500 
 45 H        2.1580     0.4660    -0.5750 H     1 <1>   0.1500 
 46 H        4.6690     3.6350     0.6770 H     1 <1>   0.1500 
 47 H        2.9600    -2.9960    -1.1120 H     1 <1>   0.0800 
 48 H        2.5490    -1.4470    -1.8410 H     1 <1>   0.0800 
 49 H        2.0530    -1.8120    -0.1780 H     1 <1>   0.0800 
 50 H        8.0530     3.4200     1.9650 H     1 <1>   0.0800 
 51 H        6.3550     3.5000     2.4220 H     1 <1>   0.0800 
 52 H        6.8890     4.1310     0.8530 H     1 <1>   0.0800 
 53 H        8.0740    -1.3520    -0.3990 H     1 <1>   0.0800 
 54 H        7.8040     0.3490    -0.7720 H     1 <1>   0.0800 
 55 H        6.7910    -0.8950    -1.5190 H     1 <1>   0.0800 
@<TRIPOS>BOND
  1   1   2  2   
  2   2   3  am  
  3   2   4  1   
  4   3   5  1   
  5   3   6  1   
  6   4   7  ar  
  7   4   8  ar  
  8   5   9  1   
  9   5  30  1   
 10   5  31  1   
 11   6  10  1   
 12   6  32  1   
 13   6  33  1   
 14   7  11  1   
 15   7  12  ar  
 16   8  13  ar  
 17   8  34  1   
 18   9  14  1   
 19   9  35  1   
 20   9  36  1   
 21  10  14  1   
 22  10  37  1   
 23  10  38  1   
 24  11  15  am  
 25  11  39  1   
 26  12  16  ar  
 27  12  40  1   
 28  13  16  ar  
 29  13  41  1   
 30  14  42  1   
 31  14  43  1   
 32  15  17  2   
 33  15  18  1   
 34  16  44  1   
 35  18  19  ar  
 36  18  20  ar  
 37  19  21  ar  
 38  19  45  1   
 39  20  22  ar  
 40  20  46  1   
 41  21  23  1   
 42  21  24  ar  
 43  22  24  ar  
 44  22  25  1   
 45  23  26  1   
 46  24  27  1   
 47  25  28  1   
 48  26  47  1   
 49  26  48  1   
 50  26  49  1   
 51  27  29  1   
 52  28  50  1   
 53  28  51  1   
 54  28  52  1   
 55  29  53  1   
 56  29  54  1   
 57  29  55  1   
@<TRIPOS>SUBSTRUCTURE
  1 ****  11 GROUP 4 **** **** 0

# MOE 2024.06 (io_trps.svl 2023.06)
