@<TRIPOS>MOLECULE
NONAME
43 45 1 0 0 
SMALL
USER_CHARGES


@<TRIPOS>ATOM
  1 CL       0.2110    -1.4600     3.2550 Cl    1 <1>  -0.1770 
  2 C        0.2560    -2.4630     1.8270 C.ar  1 <1>   0.1770 
  3 C        1.4050    -3.1700     1.5370 C.ar  1 <1>  -0.1500 
  4 C       -0.8600    -2.5300     1.0130 C.ar  1 <1>  -0.1500 
  5 C        1.4500    -3.9720     0.4020 C.ar  1 <1>   0.1000 
  6 C       -0.8200    -3.3270    -0.1190 C.ar  1 <1>  -0.1500 
  7 N        2.5840    -4.7000     0.0710 N.pl3 1 <1>  -0.8380 
  8 C        0.3290    -4.0400    -0.4170 C.ar  1 <1>  -0.1500 
  9 C        2.9580    -5.8040     1.0070 C.3   1 <1>   0.2090 
 10 C        3.7720    -3.9050    -0.3610 C.3   1 <1>   0.2090 
 11 C        4.1060    -6.6610     0.4390 C.3   1 <1>   0.1960 
 12 C        4.8870    -4.8200    -0.9020 C.3   1 <1>   0.1960 
 13 N        5.2860    -5.8490     0.0800 N.am  1 <1>  -0.8490 
 14 S        6.5460    -6.8280    -0.4870 S.o2  1 <1>   1.4470 
 15 O        6.2090    -7.1930    -1.8460 O.2   1 <1>  -0.6500 
 16 O        6.7440    -7.8630     0.5040 O.2   1 <1>  -0.6500 
 17 C        7.9700    -5.7020    -0.4680 C.ar  1 <1>  -0.0090 
 18 C        8.6170    -5.3350    -1.6440 C.ar  1 <1>  -0.1500 
 19 C        8.4340    -5.1650     0.7290 C.ar  1 <1>  -0.1500 
 20 C        9.6900    -4.4590    -1.6280 C.ar  1 <1>  -0.1500 
 21 C        9.5070    -4.2890     0.7610 C.ar  1 <1>  -0.1500 
 22 C       10.1290    -3.9400    -0.4250 C.ar  1 <1>   0.1010 
 23 S       11.5250    -2.8060    -0.4830 S.3   1 <1>  -0.3310 
 24 C       11.9130    -2.3460     1.2640 C.3   1 <1>  -0.0100 
 25 H        2.2560    -3.1000     2.1850 H     1 <1>   0.1500 
 26 H       -1.7410    -1.9670     1.2640 H     1 <1>   0.1500 
 27 H       -1.6780    -3.3920    -0.7650 H     1 <1>   0.1500 
 28 H        0.3720    -4.6620    -1.2920 H     1 <1>   0.1500 
 29 H        2.0980    -6.4280     1.1770 H     1 <1>   0.0800 
 30 H        3.2630    -5.3900     1.9520 H     1 <1>   0.0800 
 31 H        4.1510    -3.3390     0.4710 H     1 <1>   0.0800 
 32 H        3.4730    -3.2140    -1.1300 H     1 <1>   0.0800 
 33 H        3.7500    -7.1920    -0.4280 H     1 <1>   0.0800 
 34 H        4.3820    -7.3900     1.1820 H     1 <1>   0.0800 
 35 H        5.7370    -4.2100    -1.1540 H     1 <1>   0.0800 
 36 H        4.5340    -5.2880    -1.8060 H     1 <1>   0.0800 
 37 H        8.2800    -5.7390    -2.5850 H     1 <1>   0.1500 
 38 H        7.9450    -5.4420     1.6490 H     1 <1>   0.1500 
 39 H       10.1860    -4.1800    -2.5400 H     1 <1>   0.1500 
 40 H        9.8380    -3.8960     1.7020 H     1 <1>   0.1500 
 41 H       12.7600    -1.6840     1.2440 H     1 <1>   0.0800 
 42 H       12.1470    -3.2470     1.8010 H     1 <1>   0.0800 
 43 H       11.0530    -1.8510     1.6770 H     1 <1>   0.0800 
@<TRIPOS>BOND
  1   1   2  1   
  2   2   3  ar  
  3   2   4  ar  
  4   3   5  ar  
  5   3  25  1   
  6   4   6  ar  
  7   4  26  1   
  8   5   7  1   
  9   5   8  ar  
 10   6   8  ar  
 11   6  27  1   
 12   7   9  1   
 13   7  10  1   
 14   8  28  1   
 15   9  11  1   
 16   9  29  1   
 17   9  30  1   
 18  10  12  1   
 19  10  31  1   
 20  10  32  1   
 21  11  13  1   
 22  11  33  1   
 23  11  34  1   
 24  12  13  1   
 25  12  35  1   
 26  12  36  1   
 27  13  14  am  
 28  14  15  2   
 29  14  16  2   
 30  14  17  1   
 31  17  18  ar  
 32  17  19  ar  
 33  18  20  ar  
 34  18  37  1   
 35  19  21  ar  
 36  19  38  1   
 37  20  22  ar  
 38  20  39  1   
 39  21  22  ar  
 40  21  40  1   
 41  22  23  1   
 42  23  24  1   
 43  24  41  1   
 44  24  42  1   
 45  24  43  1   
@<TRIPOS>SUBSTRUCTURE
  1 ****  12 GROUP 4 **** **** 0

# MOE 2024.06 (io_trps.svl 2023.06)
