@<TRIPOS>MOLECULE
NONAME
64 65 1 0 0 
SMALL
USER_CHARGES


@<TRIPOS>ATOM
  1 O        0.8210     0.7230     1.8950 O.3   1 <1>  -0.6800 
  2 C        0.3990     0.9480     0.6050 C.3   1 <1>   0.4800 
  3 C       -1.0880     0.9820     0.6490 C.1   1 <1>  -0.2000 
  4 C        0.9810     2.2730     0.1210 C.3   1 <1>  -0.1600 
  5 C        0.9130    -0.1800    -0.2850 C.3   1 <1>  -0.1600 
  6 C       -2.2810     1.0130     0.6710 C.1   1 <1>   0.0000 
  7 C        2.5200     2.2820     0.0590 C.3   1 <1>   0.5030 
  8 C        2.4500    -0.2520    -0.3590 C.3   1 <1>   0.5030 
  9 C       -3.6460     1.0520     0.6850 C.1   1 <1>   0.0000 
 10 N        3.0950     0.9380     0.2130 N.4   1 <1>  -0.9060 
 11 C        3.0290     2.9100    -1.2390 C.3   1 <1>  -0.2400 
 12 C        3.0870     3.0870     1.2290 C.3   1 <1>  -0.2400 
 13 C        2.9370    -0.4570    -1.7940 C.3   1 <1>  -0.2400 
 14 C        2.9620    -1.4190     0.4860 C.3   1 <1>  -0.2400 
 15 C       -4.8390     1.0900     0.6870 C.1   1 <1>  -0.2000 
 16 C       -6.3270     1.1420     0.6700 C.3   1 <1>   0.4800 
 17 O       -6.7120     0.9550     1.9660 O.3   1 <1>  -0.6800 
 18 C       -6.8180     2.5040     0.1920 C.3   1 <1>  -0.1600 
 19 C       -6.9000     0.0210    -0.1910 C.3   1 <1>  -0.1600 
 20 C       -8.3390     2.6100     0.0070 C.3   1 <1>   0.5030 
 21 C       -8.4230     0.0760    -0.3860 C.3   1 <1>   0.5030 
 22 N       -8.8930     1.4370    -0.6850 N.4   1 <1>  -0.9060 
 23 C       -9.1050     2.8580     1.3110 C.3   1 <1>  -0.2400 
 24 C       -8.6380     3.7920    -0.9170 C.3   1 <1>  -0.2400 
 25 C       -9.2170    -0.5050     0.7890 C.3   1 <1>  -0.2400 
 26 C       -8.7880    -0.7480    -1.6220 C.3   1 <1>  -0.2400 
 27 H        0.0240     0.6790     2.4650 H     1 <1>   0.4000 
 28 H        0.6160     3.0750     0.7380 H     1 <1>   0.0800 
 29 H        0.5860     2.4620    -0.8620 H     1 <1>   0.0800 
 30 H        0.5180    -0.0220    -1.2720 H     1 <1>   0.0800 
 31 H        0.5000    -1.1170     0.0450 H     1 <1>   0.0800 
 32 H        3.0250     0.7730     1.2250 H     1 <1>   0.4500 
 33 H        4.0870     0.9490    -0.0210 H     1 <1>   0.4500 
 34 H        2.7410     3.9460    -1.2770 H     1 <1>   0.0800 
 35 H        4.1020     2.8670    -1.3010 H     1 <1>   0.0800 
 36 H        2.6060     2.4370    -2.1040 H     1 <1>   0.0800 
 37 H        2.7560     2.6880     2.1720 H     1 <1>   0.0800 
 38 H        2.7480     4.1070     1.1740 H     1 <1>   0.0800 
 39 H        4.1630     3.1020     1.2110 H     1 <1>   0.0800 
 40 H        2.5930    -1.4090    -2.1600 H     1 <1>   0.0800 
 41 H        2.5480     0.2900    -2.4590 H     1 <1>   0.0800 
 42 H        4.0110    -0.4550    -1.8480 H     1 <1>   0.0800 
 43 H        2.6440    -1.3260     1.5100 H     1 <1>   0.0800 
 44 H        4.0360    -1.4850     0.4550 H     1 <1>   0.0800 
 45 H        2.5700    -2.3480     0.1100 H     1 <1>   0.0800 
 46 H       -5.9320     0.6620     2.4780 H     1 <1>   0.4000 
 47 H       -6.3410     2.7040    -0.7500 H     1 <1>   0.0800 
 48 H       -6.4770     3.2660     0.8710 H     1 <1>   0.0800 
 49 H       -6.6160    -0.9320     0.2210 H     1 <1>   0.0800 
 50 H       -6.4270     0.0850    -1.1550 H     1 <1>   0.0800 
 51 H       -8.7460     1.5870    -1.6840 H     1 <1>   0.4500 
 52 H       -9.9040     1.4480    -0.5380 H     1 <1>   0.4500 
 53 H       -8.7850     3.7890     1.7450 H     1 <1>   0.0800 
 54 H      -10.1640     2.9290     1.1360 H     1 <1>   0.0800 
 55 H       -8.9280     2.1040     2.0490 H     1 <1>   0.0800 
 56 H       -8.1640     3.6750    -1.8760 H     1 <1>   0.0800 
 57 H       -8.2630     4.7010    -0.4810 H     1 <1>   0.0800 
 58 H       -9.6970     3.9160    -1.0640 H     1 <1>   0.0800 
 59 H       -8.9630    -1.5420     0.9180 H     1 <1>   0.0800 
 60 H       -9.0000    -0.0210     1.7190 H     1 <1>   0.0800 
 61 H      -10.2760    -0.4500     0.6100 H     1 <1>   0.0800 
 62 H       -8.2970    -0.3780    -2.5050 H     1 <1>   0.0800 
 63 H       -9.8520    -0.7540    -1.7900 H     1 <1>   0.0800 
 64 H       -8.4780    -1.7700    -1.4850 H     1 <1>   0.0800 
@<TRIPOS>BOND
  1   1   2  1   
  2   1  27  1   
  3   2   3  1   
  4   2   4  1   
  5   2   5  1   
  6   3   6  3   
  7   4   7  1   
  8   4  28  1   
  9   4  29  1   
 10   5   8  1   
 11   5  30  1   
 12   5  31  1   
 13   6   9  1   
 14   7  10  1   
 15   7  11  1   
 16   7  12  1   
 17   8  10  1   
 18   8  13  1   
 19   8  14  1   
 20   9  15  3   
 21  10  32  1   
 22  10  33  1   
 23  11  34  1   
 24  11  35  1   
 25  11  36  1   
 26  12  37  1   
 27  12  38  1   
 28  12  39  1   
 29  13  40  1   
 30  13  41  1   
 31  13  42  1   
 32  14  43  1   
 33  14  44  1   
 34  14  45  1   
 35  15  16  1   
 36  16  17  1   
 37  16  18  1   
 38  16  19  1   
 39  17  46  1   
 40  18  20  1   
 41  18  47  1   
 42  18  48  1   
 43  19  21  1   
 44  19  49  1   
 45  19  50  1   
 46  20  22  1   
 47  20  23  1   
 48  20  24  1   
 49  21  22  1   
 50  21  25  1   
 51  21  26  1   
 52  22  51  1   
 53  22  52  1   
 54  23  53  1   
 55  23  54  1   
 56  23  55  1   
 57  24  56  1   
 58  24  57  1   
 59  24  58  1   
 60  25  59  1   
 61  25  60  1   
 62  25  61  1   
 63  26  62  1   
 64  26  63  1   
 65  26  64  1   
@<TRIPOS>SUBSTRUCTURE
  1 ****   6 GROUP 4 **** **** 0

# MOE 2024.06 (io_trps.svl 2023.06)
