@<TRIPOS>MOLECULE
NONAME
47 49 1 0 0 
SMALL
USER_CHARGES


@<TRIPOS>ATOM
  1 CL      -0.0980    -4.1670     2.3230 Cl    1 <1>  -0.1770 
  2 C       -1.1810    -3.0220     1.5500 C.ar  1 <1>   0.1770 
  3 C       -0.9130    -2.5400     0.2610 C.ar  1 <1>   0.1000 
  4 C       -2.2970    -2.6200     2.2580 C.ar  1 <1>  -0.1500 
  5 N        0.1980    -2.9060    -0.5100 N.pl3 1 <1>  -0.8380 
  6 C       -1.8160    -1.6360    -0.2850 C.ar  1 <1>  -0.1500 
  7 C       -3.1810    -1.7190     1.6900 C.ar  1 <1>  -0.1500 
  8 C        0.2040    -4.3150    -1.0160 C.3   1 <1>   0.2090 
  9 C        1.5220    -2.4020    -0.0220 C.3   1 <1>   0.2090 
 10 C       -2.9370    -1.2280     0.4180 C.ar  1 <1>  -0.1500 
 11 C        1.3450    -4.5500    -2.0280 C.3   1 <1>   0.3430 
 12 C        2.6410    -2.6670    -1.0490 C.3   1 <1>   0.3430 
 13 N        2.6720    -4.1080    -1.4830 N.4   1 <1>  -0.9590 
 14 C        3.8160    -4.4170    -2.3710 C.3   1 <1>   0.4860 
 15 C        5.0940    -4.1930    -1.5860 C.ar  1 <1>  -0.1430 
 16 C        5.3190    -4.8790    -0.3930 C.ar  1 <1>   0.0830 
 17 C        6.0370    -3.2900    -2.0530 C.ar  1 <1>  -0.1500 
 18 O        4.3550    -5.7510     0.0190 O.3   1 <1>  -0.3630 
 19 C        6.4910    -4.6430     0.3200 C.ar  1 <1>  -0.1500 
 20 C        7.1990    -3.0630    -1.3370 C.ar  1 <1>  -0.1500 
 21 C        4.3920    -6.4180     1.2660 C.3   1 <1>   0.1200 
 22 C        7.4240    -3.7380    -0.1520 C.ar  1 <1>  -0.1500 
 23 C        3.9090    -5.4640     2.3600 C.3   1 <1>  -0.2400 
 24 H       -2.4740    -3.0090     3.2450 H     1 <1>   0.1500 
 25 H       -1.6330    -1.2510    -1.2710 H     1 <1>   0.1500 
 26 H       -4.0540    -1.3990     2.2340 H     1 <1>   0.1500 
 27 H       -0.7400    -4.5210    -1.4910 H     1 <1>   0.0800 
 28 H        0.3130    -4.9990    -0.1940 H     1 <1>   0.0800 
 29 H        1.7770    -2.8780     0.9080 H     1 <1>   0.0800 
 30 H        1.4500    -1.3430     0.1600 H     1 <1>   0.0800 
 31 H       -3.6230    -0.5270    -0.0260 H     1 <1>   0.1500 
 32 H        1.1200    -3.9990    -2.9250 H     1 <1>   0.0800 
 33 H        1.3800    -5.5980    -2.2780 H     1 <1>   0.0800 
 34 H        3.5870    -2.3930    -0.6120 H     1 <1>   0.0800 
 35 H        2.4740    -2.0340    -1.9050 H     1 <1>   0.0800 
 36 H        2.8760    -4.6650    -0.6340 H     1 <1>   0.4500 
 37 H        3.7960    -3.7890    -3.2460 H     1 <1>   0.0800 
 38 H        3.7750    -5.4490    -2.6820 H     1 <1>   0.0800 
 39 H        5.8860    -2.7540    -2.9760 H     1 <1>   0.1500 
 40 H        6.7040    -5.1490     1.2430 H     1 <1>   0.1500 
 41 H        7.9320    -2.3620    -1.7010 H     1 <1>   0.1500 
 42 H        5.3840    -6.7900     1.4500 H     1 <1>   0.0800 
 43 H        3.7270    -7.2620     1.2000 H     1 <1>   0.0800 
 44 H        8.3300    -3.5600     0.4020 H     1 <1>   0.1500 
 45 H        4.5520    -4.6060     2.4360 H     1 <1>   0.0800 
 46 H        3.9190    -5.9740     3.3080 H     1 <1>   0.0800 
 47 H        2.9020    -5.1460     2.1640 H     1 <1>   0.0800 
@<TRIPOS>BOND
  1   1   2  1   
  2   2   3  ar  
  3   2   4  ar  
  4   3   5  1   
  5   3   6  ar  
  6   4   7  ar  
  7   4  24  1   
  8   5   8  1   
  9   5   9  1   
 10   6  10  ar  
 11   6  25  1   
 12   7  10  ar  
 13   7  26  1   
 14   8  11  1   
 15   8  27  1   
 16   8  28  1   
 17   9  12  1   
 18   9  29  1   
 19   9  30  1   
 20  10  31  1   
 21  11  13  1   
 22  11  32  1   
 23  11  33  1   
 24  12  13  1   
 25  12  34  1   
 26  12  35  1   
 27  13  14  1   
 28  13  36  1   
 29  14  15  1   
 30  14  37  1   
 31  14  38  1   
 32  15  16  ar  
 33  15  17  ar  
 34  16  18  1   
 35  16  19  ar  
 36  17  20  ar  
 37  17  39  1   
 38  18  21  1   
 39  19  22  ar  
 40  19  40  1   
 41  20  22  ar  
 42  20  41  1   
 43  21  23  1   
 44  21  42  1   
 45  21  43  1   
 46  22  44  1   
 47  23  45  1   
 48  23  46  1   
 49  23  47  1   
@<TRIPOS>SUBSTRUCTURE
  1 ****   9 GROUP 4 **** **** 0

# MOE 2024.06 (io_trps.svl 2023.06)
