@<TRIPOS>MOLECULE
NONAME
52 55 1 0 0 
SMALL
USER_CHARGES


@<TRIPOS>ATOM
  1 F       -0.5680    -0.6770    -0.2470 F     1 <1>  -0.1900 
  2 C       -1.7570    -1.2240    -0.2800 C.ar  1 <1>   0.1900 
  3 C       -2.0940    -2.1440     0.6950 C.ar  1 <1>  -0.1500 
  4 C       -2.6300    -0.8620    -1.2880 C.ar  1 <1>  -0.1500 
  5 C       -3.3520    -2.7190     0.6550 C.ar  1 <1>  -0.1500 
  6 C       -3.8850    -1.4460    -1.3140 C.ar  1 <1>  -0.1500 
  7 C       -4.2570    -2.3760    -0.3480 C.ar  1 <1>   0.1000 
  8 N       -5.5250    -2.9410    -0.4070 N.pl3 1 <1>  -0.8380 
  9 C       -5.5840    -4.4010    -0.7350 C.3   1 <1>   0.2090 
 10 C       -6.4640    -2.5790     0.7020 C.3   1 <1>   0.2090 
 11 C       -7.0260    -4.8710    -1.0130 C.3   1 <1>   0.2090 
 12 C       -7.9020    -3.0570     0.4200 C.3   1 <1>   0.2090 
 13 N       -7.9500    -4.5220     0.1100 N.pl3 1 <1>  -0.8380 
 14 C       -9.1690    -5.1680     0.1500 C.ar  1 <1>   0.4100 
 15 N      -10.2460    -4.4720    -0.0680 N.ar  1 <1>  -0.6200 
 16 C       -9.1960    -6.5460     0.4160 C.ar  1 <1>  -0.1500 
 17 C      -11.4510    -5.1080    -0.0590 C.ar  1 <1>   0.3100 
 18 C      -10.3680    -7.2320     0.4300 C.ar  1 <1>  -0.1430 
 19 C      -12.6600    -4.3860    -0.3020 C.ar  1 <1>   0.0830 
 20 C      -11.5530    -6.5060     0.1700 C.ar  1 <1>   0.0000 
 21 C      -10.3850    -8.7270     0.7210 C.3   1 <1>  -0.0970 
 22 O      -12.7200    -3.0410    -0.5130 O.3   1 <1>  -0.3630 
 23 C      -13.8720    -5.0250    -0.3490 C.ar  1 <1>  -0.1500 
 24 C      -12.8220    -7.1170     0.1230 C.ar  1 <1>  -0.1500 
 25 C      -11.9570    -2.1500     0.2720 C.3   1 <1>   0.0400 
 26 C      -13.9610    -6.4060    -0.1360 C.ar  1 <1>   0.0830 
 27 O      -15.1330    -7.0910    -0.1680 O.3   1 <1>  -0.3620 
 28 C      -16.3490    -6.4480    -0.4820 C.3   1 <1>   0.0400 
 29 H       -1.3860    -2.3990     1.4630 H     1 <1>   0.1500 
 30 H       -2.3330    -0.1430    -2.0290 H     1 <1>   0.1500 
 31 H       -3.6410    -3.4370     1.4000 H     1 <1>   0.1500 
 32 H       -4.5920    -1.1910    -2.0810 H     1 <1>   0.1500 
 33 H       -5.1850    -4.9690     0.0870 H     1 <1>   0.0800 
 34 H       -4.9750    -4.5920    -1.6000 H     1 <1>   0.0800 
 35 H       -6.4650    -1.5110     0.8290 H     1 <1>   0.0800 
 36 H       -6.1250    -3.0250     1.6200 H     1 <1>   0.0800 
 37 H       -7.0280    -5.9350    -1.1720 H     1 <1>   0.0800 
 38 H       -7.3780    -4.4010    -1.9150 H     1 <1>   0.0800 
 39 H       -8.2990    -2.5060    -0.4140 H     1 <1>   0.0800 
 40 H       -8.5190    -2.8550     1.2780 H     1 <1>   0.0800 
 41 H       -8.2570    -7.0240     0.6140 H     1 <1>   0.1500 
 42 H       -9.3920    -9.0920     0.9120 H     1 <1>   0.0800 
 43 H      -10.7860    -9.2620    -0.1210 H     1 <1>   0.0800 
 44 H      -10.9900    -8.9260     1.5880 H     1 <1>   0.0800 
 45 H      -14.7480    -4.4410    -0.5500 H     1 <1>   0.1500 
 46 H      -12.9150    -8.1720     0.2890 H     1 <1>   0.1500 
 47 H      -12.4610    -1.2010     0.2890 H     1 <1>   0.0800 
 48 H      -10.9870    -2.0380    -0.1790 H     1 <1>   0.0800 
 49 H      -11.8690    -2.5420     1.2700 H     1 <1>   0.0800 
 50 H      -17.1300    -7.1870    -0.4710 H     1 <1>   0.0800 
 51 H      -16.2710    -6.0130    -1.4630 H     1 <1>   0.0800 
 52 H      -16.5480    -5.6950     0.2600 H     1 <1>   0.0800 
@<TRIPOS>BOND
  1   1   2  1   
  2   2   3  ar  
  3   2   4  ar  
  4   3   5  ar  
  5   3  29  1   
  6   4   6  ar  
  7   4  30  1   
  8   5   7  ar  
  9   5  31  1   
 10   6   7  ar  
 11   6  32  1   
 12   7   8  1   
 13   8   9  1   
 14   8  10  1   
 15   9  11  1   
 16   9  33  1   
 17   9  34  1   
 18  10  12  1   
 19  10  35  1   
 20  10  36  1   
 21  11  13  1   
 22  11  37  1   
 23  11  38  1   
 24  12  13  1   
 25  12  39  1   
 26  12  40  1   
 27  13  14  1   
 28  14  15  ar  
 29  14  16  ar  
 30  15  17  ar  
 31  16  18  ar  
 32  16  41  1   
 33  17  19  ar  
 34  17  20  ar  
 35  18  20  ar  
 36  18  21  1   
 37  19  22  1   
 38  19  23  ar  
 39  20  24  ar  
 40  21  42  1   
 41  21  43  1   
 42  21  44  1   
 43  22  25  1   
 44  23  26  ar  
 45  23  45  1   
 46  24  26  ar  
 47  24  46  1   
 48  25  47  1   
 49  25  48  1   
 50  25  49  1   
 51  26  27  1   
 52  27  28  1   
 53  28  50  1   
 54  28  51  1   
 55  28  52  1   
@<TRIPOS>SUBSTRUCTURE
  1 ****  13 GROUP 4 **** **** 0

# MOE 2024.06 (io_trps.svl 2023.06)
