@<TRIPOS>MOLECULE
NONAME
41 43 1 0 0 
SMALL
USER_CHARGES


@<TRIPOS>ATOM
  1 F        0.5260    -0.5040     1.0710 F     1 <1>  -0.1900 
  2 C        1.6680    -1.0670     0.7650 C.ar  1 <1>   0.1900 
  3 C        2.1100    -1.0110    -0.5430 C.ar  1 <1>  -0.1500 
  4 C        2.3890    -1.6970     1.7620 C.ar  1 <1>  -0.1500 
  5 C        3.3180    -1.6080    -0.8570 C.ar  1 <1>  -0.1500 
  6 C        3.5950    -2.2900     1.4330 C.ar  1 <1>  -0.1500 
  7 C        4.0700    -2.2510     0.1220 C.ar  1 <1>   0.1000 
  8 N        5.2780    -2.8430    -0.2280 N.pl3 1 <1>  -0.8380 
  9 C        5.3080    -4.3340    -0.2240 C.3   1 <1>   0.2090 
 10 C        6.5110    -2.1980     0.3120 C.3   1 <1>   0.2090 
 11 C        6.5710    -4.8570    -0.9420 C.3   1 <1>   0.3430 
 12 C        7.7660    -2.7350    -0.4070 C.3   1 <1>   0.3430 
 13 N        7.8390    -4.2460    -0.4010 N.4   1 <1>  -0.9590 
 14 C        9.0460    -4.7370    -1.1170 C.3   1 <1>   0.4860 
 15 C       10.2690    -4.2320    -0.3790 C.ar  1 <1>  -0.1430 
 16 C       10.5710    -4.7260     0.8810 C.ar  1 <1>  -0.1500 
 17 C       11.0890    -3.2640    -0.9460 C.ar  1 <1>  -0.1500 
 18 C       11.6680    -4.2430     1.5690 C.ar  1 <1>   0.0830 
 19 C       12.1910    -2.7880    -0.2540 C.ar  1 <1>  -0.1500 
 20 O       11.9260    -4.7280     2.7900 O.3   1 <1>  -0.5330 
 21 C       12.4830    -3.2740     1.0080 C.ar  1 <1>  -0.1500 
 22 H        1.5210    -0.5110    -1.2900 H     1 <1>   0.1500 
 23 H        2.0080    -1.7170     2.7680 H     1 <1>   0.1500 
 24 H        3.6880    -1.5800    -1.8650 H     1 <1>   0.1500 
 25 H        4.1690    -2.7840     2.1930 H     1 <1>   0.1500 
 26 H        4.4310    -4.7050    -0.7270 H     1 <1>   0.0800 
 27 H        5.2850    -4.6950     0.7900 H     1 <1>   0.0800 
 28 H        6.5870    -2.3850     1.3700 H     1 <1>   0.0800 
 29 H        6.4450    -1.1330     0.1690 H     1 <1>   0.0800 
 30 H        6.4760    -4.6210    -1.9890 H     1 <1>   0.0800 
 31 H        6.6080    -5.9300    -0.8470 H     1 <1>   0.0800 
 32 H        8.6420    -2.3220     0.0670 H     1 <1>   0.0800 
 33 H        7.7440    -2.3790    -1.4240 H     1 <1>   0.0800 
 34 H        7.9460    -4.5280     0.5810 H     1 <1>   0.4500 
 35 H        9.0520    -4.3790    -2.1340 H     1 <1>   0.0800 
 36 H        9.0610    -5.8150    -1.1310 H     1 <1>   0.0800 
 37 H        9.9770    -5.4890     1.3520 H     1 <1>   0.1500 
 38 H       10.8850    -2.8700    -1.9280 H     1 <1>   0.1500 
 39 H       12.8260    -2.0390    -0.6980 H     1 <1>   0.1500 
 40 H       12.7420    -4.3700     3.1870 H     1 <1>   0.4500 
 41 H       13.3390    -2.9020     1.5420 H     1 <1>   0.1500 
@<TRIPOS>BOND
  1   1   2  1   
  2   2   3  ar  
  3   2   4  ar  
  4   3   5  ar  
  5   3  22  1   
  6   4   6  ar  
  7   4  23  1   
  8   5   7  ar  
  9   5  24  1   
 10   6   7  ar  
 11   6  25  1   
 12   7   8  1   
 13   8   9  1   
 14   8  10  1   
 15   9  11  1   
 16   9  26  1   
 17   9  27  1   
 18  10  12  1   
 19  10  28  1   
 20  10  29  1   
 21  11  13  1   
 22  11  30  1   
 23  11  31  1   
 24  12  13  1   
 25  12  32  1   
 26  12  33  1   
 27  13  14  1   
 28  13  34  1   
 29  14  15  1   
 30  14  35  1   
 31  14  36  1   
 32  15  16  ar  
 33  15  17  ar  
 34  16  18  ar  
 35  16  37  1   
 36  17  19  ar  
 37  17  38  1   
 38  18  20  1   
 39  18  21  ar  
 40  19  21  ar  
 41  19  39  1   
 42  20  40  1   
 43  21  41  1   
@<TRIPOS>SUBSTRUCTURE
  1 ****  10 GROUP 4 **** **** 0

# MOE 2024.06 (io_trps.svl 2023.06)
