@<TRIPOS>MOLECULE
NONAME
47 50 1 0 0 
SMALL
USER_CHARGES


@<TRIPOS>ATOM
  1 S        0.5000     0.4360     1.6740 S.o2  1 <1>   1.4470 
  2 O        1.3330     1.4350     2.3060 O.2   1 <1>  -0.6500 
  3 O       -0.2730    -0.4730     2.4930 O.2   1 <1>  -0.6500 
  4 N       -0.5960     1.2490     0.6680 N.am  1 <1>  -0.8490 
  5 C        1.5130    -0.4970     0.4930 C.ar  1 <1>  -0.0090 
  6 C       -1.2440     2.3570     1.3760 C.3   1 <1>   0.1960 
  7 C       -1.5960     0.3400     0.0990 C.3   1 <1>   0.1960 
  8 C        2.1380     0.1530    -0.5640 C.ar  1 <1>  -0.1500 
  9 C        1.6840    -1.8820     0.6230 C.ar  1 <1>  -0.1500 
 10 C       -2.1090     3.1710     0.4100 C.3   1 <1>  -0.1600 
 11 C       -2.4580     1.0820    -0.9260 C.3   1 <1>  -0.1600 
 12 C        2.9040    -0.5730    -1.4610 C.ar  1 <1>   0.1170 
 13 C        2.4490    -2.6120    -0.2710 C.ar  1 <1>  -0.1500 
 14 C       -3.1590     2.2920    -0.2920 C.3   1 <1>  -0.0800 
 15 N        3.6240    -0.1940    -2.5830 N.am  1 <1>  -0.5470 
 16 C        3.0590    -1.9410    -1.3180 C.ar  1 <1>   0.1170 
 17 C       -3.9600     3.0770    -1.3460 C.3   1 <1>  -0.0170 
 18 C        4.2040    -1.2990    -3.1060 C.2   1 <1>   0.6900 
 19 N        3.8700    -2.3740    -2.3550 N.am  1 <1>  -0.5470 
 20 C       -4.7300     4.2360    -0.7280 C.ar  1 <1>  -0.1440 
 21 O        4.9170    -1.3220    -4.0900 O.2   1 <1>  -0.5700 
 22 C       -5.8950     3.9970    -0.0160 C.ar  1 <1>  -0.1500 
 23 C       -4.2750     5.5390    -0.8680 C.ar  1 <1>  -0.1500 
 24 C       -6.5950     5.0460     0.5540 C.ar  1 <1>  -0.1500 
 25 C       -4.9740     6.5890    -0.2990 C.ar  1 <1>  -0.1500 
 26 C       -6.1350     6.3430     0.4130 C.ar  1 <1>  -0.1500 
 27 H       -0.4960     3.0100     1.7960 H     1 <1>   0.0800 
 28 H       -1.8470     1.9750     2.1830 H     1 <1>   0.0800 
 29 H       -2.2220    -0.0580     0.8820 H     1 <1>   0.0800 
 30 H       -1.1050    -0.4840    -0.3900 H     1 <1>   0.0800 
 31 H        2.0280     1.2170    -0.6890 H     1 <1>   0.1500 
 32 H        1.2050    -2.3910     1.4440 H     1 <1>   0.1500 
 33 H       -1.4680     3.6350    -0.3190 H     1 <1>   0.0800 
 34 H       -2.5970     3.9530     0.9630 H     1 <1>   0.0800 
 35 H       -3.1920     0.4030    -1.3230 H     1 <1>   0.0800 
 36 H       -1.8290     1.4000    -1.7390 H     1 <1>   0.0800 
 37 H        2.5750    -3.6740    -0.1630 H     1 <1>   0.1500 
 38 H       -3.8470     1.9310     0.4550 H     1 <1>   0.0800 
 39 H        3.7690     0.7350    -2.9710 H     1 <1>   0.3700 
 40 H       -4.6610     2.4180    -1.8280 H     1 <1>   0.0800 
 41 H       -3.2950     3.4480    -2.1060 H     1 <1>   0.0800 
 42 H        4.2100    -3.3100    -2.5580 H     1 <1>   0.3700 
 43 H       -6.2620     2.9920     0.0990 H     1 <1>   0.1500 
 44 H       -3.3740     5.7420    -1.4190 H     1 <1>   0.1500 
 45 H       -7.4980     4.8540     1.1060 H     1 <1>   0.1500 
 46 H       -4.6150     7.5970    -0.4110 H     1 <1>   0.1500 
 47 H       -6.6780     7.1590     0.8550 H     1 <1>   0.1500 
@<TRIPOS>BOND
  1   1   2  2   
  2   1   3  2   
  3   1   4  am  
  4   1   5  1   
  5   4   6  1   
  6   4   7  1   
  7   5   8  ar  
  8   5   9  ar  
  9   6  10  1   
 10   6  27  1   
 11   6  28  1   
 12   7  11  1   
 13   7  29  1   
 14   7  30  1   
 15   8  12  ar  
 16   8  31  1   
 17   9  13  ar  
 18   9  32  1   
 19  10  14  1   
 20  10  33  1   
 21  10  34  1   
 22  11  14  1   
 23  11  35  1   
 24  11  36  1   
 25  12  15  1   
 26  12  16  ar  
 27  13  16  ar  
 28  13  37  1   
 29  14  17  1   
 30  14  38  1   
 31  15  18  am  
 32  15  39  1   
 33  16  19  1   
 34  17  20  1   
 35  17  40  1   
 36  17  41  1   
 37  18  19  am  
 38  18  21  2   
 39  19  42  1   
 40  20  22  ar  
 41  20  23  ar  
 42  22  24  ar  
 43  22  43  1   
 44  23  25  ar  
 45  23  44  1   
 46  24  26  ar  
 47  24  45  1   
 48  25  26  ar  
 49  25  46  1   
 50  26  47  1   
@<TRIPOS>SUBSTRUCTURE
  1 ****   4 GROUP 4 **** **** 0

# MOE 2024.06 (io_trps.svl 2023.06)
