@<TRIPOS>MOLECULE
NONAME
36 37 1 0 0 
SMALL
USER_CHARGES


@<TRIPOS>ATOM
  1 CL      -0.5770    -1.8710    -1.6740 Cl    1 <1>  -0.1770 
  2 C        0.7190    -2.3700    -0.6150 C.ar  1 <1>   0.1770 
  3 C        2.0270    -2.1650    -1.0020 C.ar  1 <1>  -0.1500 
  4 C        0.4080    -2.9650     0.5950 C.ar  1 <1>  -0.1500 
  5 C        3.0620    -2.5580    -0.1680 C.ar  1 <1>   0.1000 
  6 C        1.4380    -3.3600     1.4330 C.ar  1 <1>  -0.1500 
  7 N        4.3760    -2.3460    -0.5630 N.pl3 1 <1>  -0.8380 
  8 C        2.7530    -3.1570     1.0510 C.ar  1 <1>  -0.1500 
  9 C        5.2050    -3.5730    -0.7810 C.3   1 <1>   0.2090 
 10 C        5.1220    -1.2960     0.1950 C.3   1 <1>   0.2090 
 11 C        6.5290    -3.2280    -1.4810 C.3   1 <1>   0.1400 
 12 C        6.4560    -0.9480    -0.4900 C.3   1 <1>   0.1400 
 13 N        7.2760    -2.1750    -0.7280 N.am  1 <1>  -0.6600 
 14 C        8.2490    -2.5350     0.1660 C.2   1 <1>   0.6900 
 15 O        8.2560    -3.6680     0.6190 O.2   1 <1>  -0.5700 
 16 N        9.2030    -1.6290     0.5680 N.am  1 <1>  -0.6600 
 17 C       10.0450    -1.8930     1.7650 C.3   1 <1>   0.0600 
 18 C        9.7120    -0.5540    -0.3260 C.3   1 <1>   0.0600 
 19 H        2.2520    -1.7030    -1.9440 H     1 <1>   0.1500 
 20 H       -0.6200    -3.1130     0.8710 H     1 <1>   0.1500 
 21 H        1.2160    -3.8250     2.3790 H     1 <1>   0.1500 
 22 H        3.5530    -3.4620     1.7000 H     1 <1>   0.1500 
 23 H        4.6530    -4.2730    -1.3830 H     1 <1>   0.0800 
 24 H        5.4220    -4.0400     0.1640 H     1 <1>   0.0800 
 25 H        5.3210    -1.6470     1.1930 H     1 <1>   0.0800 
 26 H        4.5150    -0.4110     0.2660 H     1 <1>   0.0800 
 27 H        6.3220    -2.8720    -2.4740 H     1 <1>   0.0800 
 28 H        7.1320    -4.1150    -1.5650 H     1 <1>   0.0800 
 29 H        6.9950    -0.2550     0.1310 H     1 <1>   0.0800 
 30 H        6.2560    -0.4700    -1.4320 H     1 <1>   0.0800 
 31 H        9.5390    -2.5670     2.4360 H     1 <1>   0.0800 
 32 H       10.2430    -0.9730     2.2850 H     1 <1>   0.0800 
 33 H       10.9750    -2.3420     1.4610 H     1 <1>   0.0800 
 34 H        9.2420    -0.6090    -1.2920 H     1 <1>   0.0800 
 35 H       10.7740    -0.6650    -0.4590 H     1 <1>   0.0800 
 36 H        9.5080     0.4070     0.1110 H     1 <1>   0.0800 
@<TRIPOS>BOND
  1   1   2  1   
  2   2   3  ar  
  3   2   4  ar  
  4   3   5  ar  
  5   3  19  1   
  6   4   6  ar  
  7   4  20  1   
  8   5   7  1   
  9   5   8  ar  
 10   6   8  ar  
 11   6  21  1   
 12   7   9  1   
 13   7  10  1   
 14   8  22  1   
 15   9  11  1   
 16   9  23  1   
 17   9  24  1   
 18  10  12  1   
 19  10  25  1   
 20  10  26  1   
 21  11  13  1   
 22  11  27  1   
 23  11  28  1   
 24  12  13  1   
 25  12  29  1   
 26  12  30  1   
 27  13  14  am  
 28  14  15  2   
 29  14  16  am  
 30  16  17  1   
 31  16  18  1   
 32  17  31  1   
 33  17  32  1   
 34  17  33  1   
 35  18  34  1   
 36  18  35  1   
 37  18  36  1   
@<TRIPOS>SUBSTRUCTURE
  1 ****   7 GROUP 4 **** **** 0

# MOE 2024.06 (io_trps.svl 2023.06)
