@<TRIPOS>MOLECULE
NONAME
41 43 1 0 0 
SMALL
USER_CHARGES


@<TRIPOS>ATOM
  1 S        0.0300     0.1740     1.5990 S.3   1 <1>  -0.3710 
  2 C       -1.5360     1.0000     1.5460 C.2   1 <1>   0.6510 
  3 C        0.8820     1.4370     0.5480 C.3   1 <1>   0.2910 
  4 N       -2.5590     0.5450     2.1140 N.2   1 <1>  -0.6960 
  5 N       -1.4230     2.1580     0.8370 N.am  1 <1>  -0.4200 
  6 C       -0.2040     2.4880     0.3300 C.2   1 <1>   0.5690 
  7 C        1.3090     0.7550    -0.7630 C.3   1 <1>   0.1200 
  8 C        2.0940     2.0040     1.3130 C.3   1 <1>   0.1200 
  9 C       -3.8020     1.2820     1.9640 C.3   1 <1>   0.3560 
 10 C       -2.5990     3.0030     0.7490 C.3   1 <1>   0.4100 
 11 O        0.0340     3.5510    -0.1970 O.2   1 <1>  -0.5700 
 12 O        0.2390     0.1120    -1.3800 O.3   1 <1>  -0.6800 
 13 O        1.7130     2.7520     2.4260 O.3   1 <1>  -0.6800 
 14 N       -3.7860     2.1360     0.7560 N.3   1 <1>  -0.8100 
 15 C       -5.0490     2.9050     0.5890 C.3   1 <1>   0.1900 
 16 C       -6.2730     1.9620     0.5930 C.3   1 <1>  -0.1600 
 17 C       -5.0270     3.7050    -0.7340 C.3   1 <1>  -0.1600 
 18 C       -7.5940     2.6870     0.2960 C.3   1 <1>  -0.1600 
 19 C       -6.3530     4.4220    -1.0260 C.3   1 <1>  -0.1600 
 20 C       -7.5260     3.4400    -1.0320 C.3   1 <1>  -0.1600 
 21 H        2.0710     0.0190    -0.5740 H     1 <1>   0.0800 
 22 H        1.6920     1.4860    -1.4550 H     1 <1>   0.0800 
 23 H        2.6730     2.6480     0.6730 H     1 <1>   0.0800 
 24 H        2.7210     1.2000     1.6570 H     1 <1>   0.0800 
 25 H       -3.9820     1.8710     2.8490 H     1 <1>   0.0800 
 26 H       -4.5850     0.5500     1.8710 H     1 <1>   0.0800 
 27 H       -2.5350     3.5610    -0.1680 H     1 <1>   0.0800 
 28 H       -2.6220     3.6840     1.5830 H     1 <1>   0.0800 
 29 H       -0.1460    -0.5710    -0.7900 H     1 <1>   0.4000 
 30 H        1.3730     3.6320     2.1600 H     1 <1>   0.4000 
 31 H       -5.1520     3.5990     1.4080 H     1 <1>   0.0800 
 32 H       -6.3900     1.4960     1.5540 H     1 <1>   0.0800 
 33 H       -6.1230     1.1930    -0.1450 H     1 <1>   0.0800 
 34 H       -4.8090     3.0300    -1.5440 H     1 <1>   0.0800 
 35 H       -4.2700     4.4650    -0.7080 H     1 <1>   0.0800 
 36 H       -7.8080     3.3810     1.0910 H     1 <1>   0.0800 
 37 H       -8.3960     1.9700     0.2600 H     1 <1>   0.0800 
 38 H       -6.2930     4.9120    -1.9820 H     1 <1>   0.0800 
 39 H       -6.5250     5.1780    -0.2780 H     1 <1>   0.0800 
 40 H       -8.4460     3.9750    -1.1950 H     1 <1>   0.0800 
 41 H       -7.4030     2.7380    -1.8390 H     1 <1>   0.0800 
@<TRIPOS>BOND
  1   1   2  1   
  2   1   3  1   
  3   2   4  2   
  4   2   5  1   
  5   3   6  1   
  6   3   7  1   
  7   3   8  1   
  8   4   9  1   
  9   5   6  am  
 10   5  10  1   
 11   6  11  2   
 12   7  12  1   
 13   7  21  1   
 14   7  22  1   
 15   8  13  1   
 16   8  23  1   
 17   8  24  1   
 18   9  14  1   
 19   9  25  1   
 20   9  26  1   
 21  10  14  1   
 22  10  27  1   
 23  10  28  1   
 24  12  29  1   
 25  13  30  1   
 26  14  15  1   
 27  15  16  1   
 28  15  17  1   
 29  15  31  1   
 30  16  18  1   
 31  16  32  1   
 32  16  33  1   
 33  17  19  1   
 34  17  34  1   
 35  17  35  1   
 36  18  20  1   
 37  18  36  1   
 38  18  37  1   
 39  19  20  1   
 40  19  38  1   
 41  19  39  1   
 42  20  40  1   
 43  20  41  1   
@<TRIPOS>SUBSTRUCTURE
  1 ****  10 GROUP 4 **** **** 0

# MOE 2024.06 (io_trps.svl 2023.06)
