@<TRIPOS>MOLECULE
NONAME
38 39 1 0 0 
SMALL
USER_CHARGES


@<TRIPOS>ATOM
  1 O        0.0180     0.8400    -1.7760 O.2   1 <1>  -0.5700 
  2 C       -0.1860     1.5830    -0.8470 C.2   1 <1>   0.6300 
  3 N       -1.4050     1.6950    -0.2740 N.am  1 <1>  -0.7300 
  4 C        0.9630     2.4270    -0.3060 C.3   1 <1>  -0.1000 
  5 C       -2.6250     1.0560    -0.7640 C.3   1 <1>   0.3640 
  6 C        1.0710     2.7960     1.1470 C.3   1 <1>  -0.2000 
  7 C        0.7560     3.8500     0.1310 C.3   1 <1>  -0.2000 
  8 C       -3.7940     1.9870    -0.4600 C.ar  1 <1>  -0.1440 
  9 C       -2.7790    -0.3060    -0.0930 C.3   1 <1>  -0.2400 
 10 C       -4.5070     2.5570    -1.5030 C.ar  1 <1>  -0.1500 
 11 C       -4.1600     2.2920     0.8440 C.ar  1 <1>  -0.1500 
 12 C       -5.5660     3.4110    -1.2490 C.ar  1 <1>  -0.1500 
 13 C       -5.2190     3.1460     1.0970 C.ar  1 <1>  -0.1500 
 14 C       -5.9330     3.7150     0.0530 C.ar  1 <1>  -0.1430 
 15 C       -7.0990     4.6550     0.3510 C.3   1 <1>   0.0630 
 16 C       -8.4120     4.0880    -0.1990 C.3   1 <1>  -0.2400 
 17 C       -6.8320     6.0550    -0.2140 C.3   1 <1>  -0.2400 
 18 H       -1.5610     2.4000     0.4430 H     1 <1>   0.3700 
 19 H        1.8800     2.2040    -0.8220 H     1 <1>   0.1000 
 20 H       -2.5440     0.9120    -1.8300 H     1 <1>   0.0800 
 21 H        2.0460     2.7900     1.6030 H     1 <1>   0.1000 
 22 H        0.3000     2.4800     1.8290 H     1 <1>   0.1000 
 23 H       -0.2360     4.2690     0.1010 H     1 <1>   0.1000 
 24 H        1.5120     4.5750    -0.1190 H     1 <1>   0.1000 
 25 H       -2.7840    -0.2140     0.9770 H     1 <1>   0.0800 
 26 H       -1.9700    -0.9480    -0.3890 H     1 <1>   0.0800 
 27 H       -3.7030    -0.7570    -0.4050 H     1 <1>   0.0800 
 28 H       -4.2410     2.3410    -2.5240 H     1 <1>   0.1500 
 29 H       -3.6250     1.8660     1.6730 H     1 <1>   0.1500 
 30 H       -6.1030     3.8400    -2.0760 H     1 <1>   0.1500 
 31 H       -5.4840     3.3650     2.1160 H     1 <1>   0.1500 
 32 H       -7.2050     4.7480     1.4180 H     1 <1>   0.0800 
 33 H       -8.3820     4.0200    -1.2710 H     1 <1>   0.0800 
 34 H       -9.2370     4.7180     0.0830 H     1 <1>   0.0800 
 35 H       -8.5800     3.1050     0.2020 H     1 <1>   0.0800 
 36 H       -6.7670     6.0290    -1.2860 H     1 <1>   0.0800 
 37 H       -5.9050     6.4340     0.1770 H     1 <1>   0.0800 
 38 H       -7.6230     6.7270     0.0670 H     1 <1>   0.0800 
@<TRIPOS>BOND
  1   1   2  2   
  2   2   3  am  
  3   2   4  1   
  4   3   5  1   
  5   3  18  1   
  6   4   6  1   
  7   4   7  1   
  8   4  19  1   
  9   5   8  1   
 10   5   9  1   
 11   5  20  1   
 12   6   7  1   
 13   6  21  1   
 14   6  22  1   
 15   7  23  1   
 16   7  24  1   
 17   8  10  ar  
 18   8  11  ar  
 19   9  25  1   
 20   9  26  1   
 21   9  27  1   
 22  10  12  ar  
 23  10  28  1   
 24  11  13  ar  
 25  11  29  1   
 26  12  14  ar  
 27  12  30  1   
 28  13  14  ar  
 29  13  31  1   
 30  14  15  1   
 31  15  16  1   
 32  15  17  1   
 33  15  32  1   
 34  16  33  1   
 35  16  34  1   
 36  16  35  1   
 37  17  36  1   
 38  17  37  1   
 39  17  38  1   
@<TRIPOS>SUBSTRUCTURE
  1 ****   8 GROUP 4 **** **** 0

# MOE 2024.06 (io_trps.svl 2023.06)
