@<TRIPOS>MOLECULE
NONAME
43 44 1 0 0 
SMALL
USER_CHARGES


@<TRIPOS>ATOM
  1 O       -0.6300     0.2990    -0.0140 O.3   1 <1>  -0.3630 
  2 C        0.6120     0.8500    -0.0090 C.ar  1 <1>   0.0830 
  3 C       -1.7840     1.1060    -0.0150 C.3   1 <1>   0.1200 
  4 C        0.8540     2.2210    -0.0030 C.ar  1 <1>  -0.1500 
  5 C        1.6820    -0.0300    -0.0100 C.ar  1 <1>  -0.1500 
  6 C       -3.0050     0.1860    -0.0230 C.3   1 <1>  -0.1600 
  7 C        2.1550     2.6990     0.0020 C.ar  1 <1>  -0.1500 
  8 C        2.9810     0.4460    -0.0050 C.ar  1 <1>  -0.1500 
  9 C       -4.3090     0.9940    -0.0230 C.3   1 <1>  -0.1600 
 10 C        3.2270     1.8100     0.0010 C.ar  1 <1>   0.0830 
 11 C       -5.5300     0.0740    -0.0310 C.3   1 <1>   0.1200 
 12 O        4.5300     2.1950     0.0050 O.3   1 <1>  -0.3630 
 13 O       -6.6840     0.8810    -0.0320 O.3   1 <1>  -0.3630 
 14 C        4.8860     3.5590     0.0110 C.3   1 <1>   0.0400 
 15 C       -7.9250     0.3330    -0.0400 C.ar  1 <1>   0.0830 
 16 C       -8.1700    -1.0370    -0.0450 C.ar  1 <1>  -0.1500 
 17 C       -8.9950     1.2130    -0.0410 C.ar  1 <1>  -0.1500 
 18 C       -9.4720    -1.5080    -0.0530 C.ar  1 <1>  -0.1500 
 19 C      -10.2950     0.7390    -0.0490 C.ar  1 <1>  -0.1500 
 20 C      -10.5400    -0.6250    -0.0570 C.ar  1 <1>  -0.1430 
 21 C      -11.9660    -1.1460    -0.0640 C.3   1 <1>  -0.0970 
 22 H       -1.7660     1.7230    -0.8960 H     1 <1>   0.0800 
 23 H       -1.7720     1.7160     0.8720 H     1 <1>   0.0800 
 24 H        0.0490     2.9300    -0.0020 H     1 <1>   0.1500 
 25 H        1.4910    -1.0880    -0.0150 H     1 <1>   0.1500 
 26 H       -2.9720    -0.4440     0.8500 H     1 <1>   0.0800 
 27 H       -2.9660    -0.4360    -0.9000 H     1 <1>   0.0800 
 28 H        2.3130     3.7600     0.0070 H     1 <1>   0.1500 
 29 H        3.8110    -0.2360    -0.0060 H     1 <1>   0.1500 
 30 H       -4.3420     1.6240    -0.8960 H     1 <1>   0.0800 
 31 H       -4.3480     1.6160     0.8540 H     1 <1>   0.0800 
 32 H       -5.5480    -0.5440     0.8500 H     1 <1>   0.0800 
 33 H       -5.5420    -0.5360    -0.9180 H     1 <1>   0.0800 
 34 H        5.9590     3.6230     0.0140 H     1 <1>   0.0800 
 35 H        4.4910     4.0190     0.8990 H     1 <1>   0.0800 
 36 H        4.4940     4.0260    -0.8750 H     1 <1>   0.0800 
 37 H       -7.3680    -1.7490    -0.0440 H     1 <1>   0.1500 
 38 H       -8.8020     2.2700    -0.0360 H     1 <1>   0.1500 
 39 H       -9.6520    -2.5690    -0.0560 H     1 <1>   0.1500 
 40 H      -11.1130     1.4370    -0.0480 H     1 <1>   0.1500 
 41 H      -12.0180    -2.0910    -0.5740 H     1 <1>   0.0800 
 42 H      -12.6170    -0.4540    -0.5660 H     1 <1>   0.0800 
 43 H      -12.3100    -1.2770     0.9470 H     1 <1>   0.0800 
@<TRIPOS>BOND
  1   1   2  1   
  2   1   3  1   
  3   2   4  ar  
  4   2   5  ar  
  5   3   6  1   
  6   3  22  1   
  7   3  23  1   
  8   4   7  ar  
  9   4  24  1   
 10   5   8  ar  
 11   5  25  1   
 12   6   9  1   
 13   6  26  1   
 14   6  27  1   
 15   7  10  ar  
 16   7  28  1   
 17   8  10  ar  
 18   8  29  1   
 19   9  11  1   
 20   9  30  1   
 21   9  31  1   
 22  10  12  1   
 23  11  13  1   
 24  11  32  1   
 25  11  33  1   
 26  12  14  1   
 27  13  15  1   
 28  14  34  1   
 29  14  35  1   
 30  14  36  1   
 31  15  16  ar  
 32  15  17  ar  
 33  16  18  ar  
 34  16  37  1   
 35  17  19  ar  
 36  17  38  1   
 37  18  20  ar  
 38  18  39  1   
 39  19  20  ar  
 40  19  40  1   
 41  20  21  1   
 42  21  41  1   
 43  21  42  1   
 44  21  43  1   
@<TRIPOS>SUBSTRUCTURE
  1 ****   6 GROUP 4 **** **** 0

# MOE 2024.06 (io_trps.svl 2023.06)
