@<TRIPOS>MOLECULE
NONAME
37 37 1 0 0 
SMALL
USER_CHARGES


@<TRIPOS>ATOM
  1 O       -8.3080     0.7940     0.1350 O.2   1 <1>  -0.5700 
  2 C       -9.3150     1.1880    -0.4070 C.2   1 <1>   0.5690 
  3 N      -10.2830     0.3100    -0.7340 N.am  1 <1>  -0.8000 
  4 C       -9.4870     2.6750    -0.7180 C.3   1 <1>   0.1810 
  5 O       -8.2210     3.3230    -0.7390 O.3   1 <1>  -0.3630 
  6 C       -8.0420     4.3640     0.1130 C.ar  1 <1>   0.0830 
  7 C       -8.7060     5.5740    -0.0990 C.ar  1 <1>   0.0830 
  8 C       -7.1630     4.2090     1.1810 C.ar  1 <1>  -0.1430 
  9 O       -9.5590     5.6600    -1.1600 O.3   1 <1>  -0.3630 
 10 C       -8.4710     6.6340     0.7700 C.ar  1 <1>  -0.1500 
 11 C       -6.9410     5.2800     2.0350 C.ar  1 <1>  -0.1500 
 12 C       -6.4670     2.8850     1.4360 C.3   1 <1>   0.4860 
 13 C      -10.1510     6.8880    -1.5290 C.3   1 <1>   0.0400 
 14 C       -7.5910     6.4840     1.8280 C.ar  1 <1>  -0.1500 
 15 N       -5.7420     2.4980     0.2160 N.4   1 <1>  -0.9060 
 16 C       -5.2200     1.1310     0.2410 C.3   1 <1>   0.4810 
 17 C       -4.4700     0.9560    -1.0560 C.2   1 <1>  -0.2880 
 18 C       -3.1410     0.8670    -1.1770 C.2   1 <1>  -0.3000 
 19 H      -10.1620    -0.6830    -0.5180 H     1 <1>   0.3700 
 20 H      -11.1630     0.5540    -1.1920 H     1 <1>   0.3700 
 21 H      -10.1120     3.1330     0.0280 H     1 <1>   0.0800 
 22 H       -9.9350     2.8070    -1.6860 H     1 <1>   0.0800 
 23 H       -8.9600     7.5820     0.6450 H     1 <1>   0.1500 
 24 H       -6.2670     5.1930     2.8720 H     1 <1>   0.1500 
 25 H       -7.2070     2.1390     1.6780 H     1 <1>   0.0800 
 26 H       -5.7840     2.9760     2.2640 H     1 <1>   0.0800 
 27 H      -10.7290     6.7260    -2.4210 H     1 <1>   0.0800 
 28 H       -9.3740     7.6070    -1.7240 H     1 <1>   0.0800 
 29 H      -10.7940     7.2220    -0.7340 H     1 <1>   0.0800 
 30 H       -7.4140     7.3120     2.4950 H     1 <1>   0.1500 
 31 H       -5.0060     3.1680    -0.0150 H     1 <1>   0.4500 
 32 H       -6.4470     2.5590    -0.5360 H     1 <1>   0.4500 
 33 H       -6.0200     0.4110     0.3180 H     1 <1>   0.0800 
 34 H       -4.5470     1.0040     1.0730 H     1 <1>   0.0800 
 35 H       -5.1280     0.9040    -1.9080 H     1 <1>   0.1500 
 36 H       -2.6350     0.7380    -2.1210 H     1 <1>   0.1500 
 37 H       -2.4390     0.9080    -0.3610 H     1 <1>   0.1500 
@<TRIPOS>BOND
  1   1   2  2   
  2   2   3  am  
  3   2   4  1   
  4   3  19  1   
  5   3  20  1   
  6   4   5  1   
  7   4  21  1   
  8   4  22  1   
  9   5   6  1   
 10   6   7  ar  
 11   6   8  ar  
 12   7   9  1   
 13   7  10  ar  
 14   8  11  ar  
 15   8  12  1   
 16   9  13  1   
 17  10  14  ar  
 18  10  23  1   
 19  11  14  ar  
 20  11  24  1   
 21  12  15  1   
 22  12  25  1   
 23  12  26  1   
 24  13  27  1   
 25  13  28  1   
 26  13  29  1   
 27  14  30  1   
 28  15  16  1   
 29  15  31  1   
 30  15  32  1   
 31  16  17  1   
 32  16  33  1   
 33  16  34  1   
 34  17  18  2   
 35  17  35  1   
 36  18  36  1   
 37  18  37  1   
@<TRIPOS>SUBSTRUCTURE
  1 ****   5 GROUP 4 **** **** 0

# MOE 2024.06 (io_trps.svl 2023.06)
