@<TRIPOS>MOLECULE
NONAME
46 48 1 0 0 
SMALL
USER_CHARGES


@<TRIPOS>ATOM
  1 O       -1.0840    -1.3230     2.5330 O.2   1 <1>  -0.5700 
  2 C       -0.2700    -1.3300     1.6410 C.2   1 <1>   0.5690 
  3 N       -0.5110    -0.9290     0.3580 N.am  1 <1>  -0.5470 
  4 C        1.1520    -1.8160     1.9330 C.3   1 <1>   0.1710 
  5 C       -1.6350    -0.4110    -0.3030 C.ar  1 <1>   0.1170 
  6 N        2.1700    -1.2890     0.9750 N.3   1 <1>  -0.8100 
  7 C       -2.8690    -0.2240     0.3100 C.ar  1 <1>  -0.1500 
  8 C       -1.5050    -0.0650    -1.6430 C.ar  1 <1>  -0.1500 
  9 C        3.4250    -2.0740     1.0490 C.3   1 <1>   0.1100 
 10 C        2.4690     0.1410     1.2510 C.3   1 <1>   0.1100 
 11 C       -3.9450     0.2950    -0.3890 C.ar  1 <1>   0.0820 
 12 C       -2.5730     0.4540    -2.3520 C.ar  1 <1>  -0.1500 
 13 C        4.4980    -1.5450     0.0780 C.3   1 <1>   0.2090 
 14 C        3.5240     0.7130     0.2850 C.3   1 <1>   0.2090 
 15 O       -5.1070     0.4430     0.2970 O.3   1 <1>  -0.3630 
 16 C       -3.7950     0.6370    -1.7300 C.ar  1 <1>  -0.1500 
 17 N        4.7730    -0.0960     0.3160 N.pl3 1 <1>  -0.8380 
 18 C       -6.2640     0.9620    -0.3190 C.3   1 <1>   0.0400 
 19 C        5.8730     0.4590    -0.3060 C.ar  1 <1>   0.4100 
 20 N        6.1930     0.0010    -1.5110 N.ar  1 <1>  -0.6200 
 21 C        6.5810     1.4700     0.3380 C.ar  1 <1>  -0.1500 
 22 C        7.2420     0.5660    -2.0840 C.ar  1 <1>   0.1600 
 23 C        7.6690     2.0510    -0.2690 C.ar  1 <1>  -0.1500 
 24 C        8.0030     1.5760    -1.5210 C.ar  1 <1>  -0.1500 
 25 H        0.3480    -0.9850    -0.1980 H     1 <1>   0.3700 
 26 H        1.1320    -2.8890     1.8760 H     1 <1>   0.0800 
 27 H        1.4150    -1.5440     2.9410 H     1 <1>   0.0800 
 28 H       -3.0110    -0.4810     1.3420 H     1 <1>   0.1500 
 29 H       -0.5610    -0.2030    -2.1380 H     1 <1>   0.1500 
 30 H        3.2190    -3.1010     0.8040 H     1 <1>   0.0800 
 31 H        3.8220    -2.0390     2.0490 H     1 <1>   0.0800 
 32 H        2.8350     0.2500     2.2580 H     1 <1>   0.0800 
 33 H        1.5700     0.7260     1.1610 H     1 <1>   0.0800 
 34 H       -2.4530     0.7160    -3.3890 H     1 <1>   0.1500 
 35 H        4.1610    -1.6840    -0.9350 H     1 <1>   0.0800 
 36 H        5.4080    -2.1040     0.2050 H     1 <1>   0.0800 
 37 H        3.7460     1.7300     0.5600 H     1 <1>   0.0800 
 38 H        3.1290     0.7160    -0.7160 H     1 <1>   0.0800 
 39 H       -4.6100     1.0410    -2.2990 H     1 <1>   0.1500 
 40 H       -7.0500     0.9850     0.4140 H     1 <1>   0.0800 
 41 H       -6.5430     0.3190    -1.1350 H     1 <1>   0.0800 
 42 H       -6.0570     1.9600    -0.6640 H     1 <1>   0.0800 
 43 H        6.2620     1.7790     1.3150 H     1 <1>   0.1500 
 44 H        7.5120     0.2030    -3.0600 H     1 <1>   0.1500 
 45 H        8.2350     2.8330     0.2070 H     1 <1>   0.1500 
 46 H        8.8420     1.9830    -2.0540 H     1 <1>   0.1500 
@<TRIPOS>BOND
  1   1   2  2   
  2   2   3  am  
  3   2   4  1   
  4   3   5  1   
  5   3  25  1   
  6   4   6  1   
  7   4  26  1   
  8   4  27  1   
  9   5   7  ar  
 10   5   8  ar  
 11   6   9  1   
 12   6  10  1   
 13   7  11  ar  
 14   7  28  1   
 15   8  12  ar  
 16   8  29  1   
 17   9  13  1   
 18   9  30  1   
 19   9  31  1   
 20  10  14  1   
 21  10  32  1   
 22  10  33  1   
 23  11  15  1   
 24  11  16  ar  
 25  12  16  ar  
 26  12  34  1   
 27  13  17  1   
 28  13  35  1   
 29  13  36  1   
 30  14  17  1   
 31  14  37  1   
 32  14  38  1   
 33  15  18  1   
 34  16  39  1   
 35  17  19  1   
 36  18  40  1   
 37  18  41  1   
 38  18  42  1   
 39  19  20  ar  
 40  19  21  ar  
 41  20  22  ar  
 42  21  23  ar  
 43  21  43  1   
 44  22  24  ar  
 45  22  44  1   
 46  23  24  ar  
 47  23  45  1   
 48  24  46  1   
@<TRIPOS>SUBSTRUCTURE
  1 ****  10 GROUP 4 **** **** 0

# MOE 2024.06 (io_trps.svl 2023.06)
