@<TRIPOS>MOLECULE
NONAME
32 32 1 0 0 
SMALL
USER_CHARGES


@<TRIPOS>ATOM
  1 O        0.1980     0.0920    -0.2540 O.2   1 <1>  -0.5700 
  2 C        0.0050     1.2530     0.0420 C.2   1 <1>   0.6900 
  3 N       -1.2410     1.7860     0.1240 N.am  1 <1>  -0.5470 
  4 N        1.0500     2.0760     0.3050 N.am  1 <1>  -0.7300 
  5 C       -2.5070     1.2710    -0.0370 C.ar  1 <1>   0.4270 
  6 C        2.4740     1.6860     0.2460 C.3   1 <1>   0.1400 
  7 N       -3.4410     2.2080     0.0380 N.ar  1 <1>  -0.6200 
  8 C       -2.7930    -0.0770    -0.2470 C.ar  1 <1>  -0.1500 
  9 C        3.2570     2.7700    -0.4930 C.3   1 <1>  -0.1600 
 10 C       -4.6900     1.8030    -0.1040 C.ar  1 <1>   0.1670 
 11 C       -4.0970    -0.4940    -0.3940 C.ar  1 <1>  -0.1430 
 12 C        4.7460     2.4170    -0.5840 C.3   1 <1>  -0.2400 
 13 C       -5.0640     0.4870    -0.3190 C.ar  1 <1>  -0.1500 
 14 C       -5.7450     2.8850    -0.0190 C.3   1 <1>  -0.0970 
 15 C       -4.4610    -1.9480    -0.6270 C.3   1 <1>  -0.0970 
 16 H       -1.2820     2.7820     0.2890 H     1 <1>   0.3700 
 17 H        0.8680     3.0250     0.6230 H     1 <1>   0.3700 
 18 H        2.5770     0.7440    -0.2680 H     1 <1>   0.0800 
 19 H        2.8510     1.5690     1.2480 H     1 <1>   0.0800 
 20 H       -1.9980    -0.7940    -0.2930 H     1 <1>   0.1500 
 21 H        3.1500     3.7080     0.0230 H     1 <1>   0.0800 
 22 H        2.8610     2.8750    -1.4880 H     1 <1>   0.0800 
 23 H        5.1720     2.3190     0.4000 H     1 <1>   0.0800 
 24 H        5.2770     3.1910    -1.1110 H     1 <1>   0.0800 
 25 H        4.8800     1.4900    -1.1130 H     1 <1>   0.0800 
 26 H       -6.1010     0.2260    -0.4260 H     1 <1>   0.1500 
 27 H       -5.5710     3.6170    -0.7860 H     1 <1>   0.0800 
 28 H       -5.6870     3.3680     0.9400 H     1 <1>   0.0800 
 29 H       -6.7310     2.4790    -0.1440 H     1 <1>   0.0800 
 30 H       -3.5770    -2.5590    -0.6770 H     1 <1>   0.0800 
 31 H       -4.9990    -2.0480    -1.5520 H     1 <1>   0.0800 
 32 H       -5.0790    -2.3050     0.1780 H     1 <1>   0.0800 
@<TRIPOS>BOND
  1   1   2  2   
  2   2   3  am  
  3   2   4  am  
  4   3   5  1   
  5   3  16  1   
  6   4   6  1   
  7   4  17  1   
  8   5   7  ar  
  9   5   8  ar  
 10   6   9  1   
 11   6  18  1   
 12   6  19  1   
 13   7  10  ar  
 14   8  11  ar  
 15   8  20  1   
 16   9  12  1   
 17   9  21  1   
 18   9  22  1   
 19  10  13  ar  
 20  10  14  1   
 21  11  13  ar  
 22  11  15  1   
 23  12  23  1   
 24  12  24  1   
 25  12  25  1   
 26  13  26  1   
 27  14  27  1   
 28  14  28  1   
 29  14  29  1   
 30  15  30  1   
 31  15  31  1   
 32  15  32  1   
@<TRIPOS>SUBSTRUCTURE
  1 ****   3 GROUP 4 **** **** 0

# MOE 2024.06 (io_trps.svl 2023.06)
