@<TRIPOS>MOLECULE
NONAME
48 49 1 0 0 
SMALL
USER_CHARGES


@<TRIPOS>ATOM
  1 O        3.7100    -1.1350     1.2150 O.2   1 <1>  -0.5700 
  2 C        2.9400    -1.5250     0.3630 C.2   1 <1>   0.5690 
  3 N        1.6740    -1.9500     0.6740 N.am  1 <1>  -0.6600 
  4 C        3.4530    -1.4960    -1.0780 C.3   1 <1>  -0.0190 
  5 C        0.6270    -2.3280    -0.3140 C.3   1 <1>   0.1400 
  6 C        1.2230    -1.9870     2.0940 C.3   1 <1>   0.1400 
  7 C        4.9460    -1.8670    -1.0770 C.3   1 <1>   0.3430 
  8 C        3.1920    -0.1090    -1.7230 C.3   1 <1>  -0.1600 
  9 C        0.6520    -3.8390    -0.5340 C.3   1 <1>  -0.2400 
 10 C        0.5730    -0.6550     2.4620 C.3   1 <1>  -0.2400 
 11 N        5.7280    -0.6800    -0.6390 N.4   1 <1>  -0.9590 
 12 C        4.4240     0.4270    -2.4760 C.3   1 <1>  -0.1600 
 13 C        5.6880     0.4660    -1.6000 C.3   1 <1>   0.3430 
 14 C        7.0930    -1.0020    -0.1590 C.3   1 <1>   0.4860 
 15 C        7.6400     0.2160     0.5580 C.ar  1 <1>  -0.1440 
 16 C        7.0670     0.6300     1.7550 C.ar  1 <1>  -0.1500 
 17 C        8.7050     0.9300     0.0230 C.ar  1 <1>  -0.1500 
 18 C        7.5470     1.7540     2.4020 C.ar  1 <1>  -0.1500 
 19 C        9.1880     2.0540     0.6720 C.ar  1 <1>  -0.1500 
 20 C        8.6030     2.4630     1.8590 C.ar  1 <1>   0.0820 
 21 O        9.0540     3.5500     2.5000 O.3   1 <1>  -0.5330 
 22 H        2.9530    -2.2560    -1.6480 H     1 <1>   0.0800 
 23 H        0.7830    -1.8140    -1.2460 H     1 <1>   0.0800 
 24 H       -0.3420    -2.0340     0.0540 H     1 <1>   0.0800 
 25 H        2.0650    -2.1660     2.7420 H     1 <1>   0.0800 
 26 H        0.5230    -2.7930     2.2370 H     1 <1>   0.0800 
 27 H        5.2540    -2.1620    -2.0660 H     1 <1>   0.0800 
 28 H        5.1050    -2.6920    -0.4020 H     1 <1>   0.0800 
 29 H        2.9310     0.6020    -0.9560 H     1 <1>   0.0800 
 30 H        2.3520    -0.1710    -2.3940 H     1 <1>   0.0800 
 31 H        1.6080    -4.1580    -0.9040 H     1 <1>   0.0800 
 32 H       -0.1000    -4.1110    -1.2540 H     1 <1>   0.0800 
 33 H        0.4370    -4.3560     0.3840 H     1 <1>   0.0800 
 34 H        1.2800     0.1470     2.3440 H     1 <1>   0.0800 
 35 H        0.2590    -0.6800     3.4890 H     1 <1>   0.0800 
 36 H       -0.2890    -0.4670     1.8480 H     1 <1>   0.0800 
 37 H        5.2210    -0.3650     0.2130 H     1 <1>   0.4500 
 38 H        4.2230     1.4190    -2.8420 H     1 <1>   0.0800 
 39 H        4.6150    -0.1900    -3.3370 H     1 <1>   0.0800 
 40 H        6.5570     0.4480    -2.2370 H     1 <1>   0.0800 
 41 H        5.7100     1.3890    -1.0410 H     1 <1>   0.0800 
 42 H        7.7300    -1.2670    -0.9870 H     1 <1>   0.0800 
 43 H        7.0570    -1.8310     0.5300 H     1 <1>   0.0800 
 44 H        6.2460     0.0890     2.1970 H     1 <1>   0.1500 
 45 H        9.1710     0.6220    -0.8980 H     1 <1>   0.1500 
 46 H        7.1120     2.0860     3.3280 H     1 <1>   0.1500 
 47 H       10.0130     2.6040     0.2560 H     1 <1>   0.1500 
 48 H        9.8160     3.9730     2.0660 H     1 <1>   0.4500 
@<TRIPOS>BOND
  1   1   2  2   
  2   2   3  am  
  3   2   4  1   
  4   3   5  1   
  5   3   6  1   
  6   4   7  1   
  7   4   8  1   
  8   4  22  1   
  9   5   9  1   
 10   5  23  1   
 11   5  24  1   
 12   6  10  1   
 13   6  25  1   
 14   6  26  1   
 15   7  11  1   
 16   7  27  1   
 17   7  28  1   
 18   8  12  1   
 19   8  29  1   
 20   8  30  1   
 21   9  31  1   
 22   9  32  1   
 23   9  33  1   
 24  10  34  1   
 25  10  35  1   
 26  10  36  1   
 27  11  13  1   
 28  11  14  1   
 29  11  37  1   
 30  12  13  1   
 31  12  38  1   
 32  12  39  1   
 33  13  40  1   
 34  13  41  1   
 35  14  15  1   
 36  14  42  1   
 37  14  43  1   
 38  15  16  ar  
 39  15  17  ar  
 40  16  18  ar  
 41  16  44  1   
 42  17  19  ar  
 43  17  45  1   
 44  18  20  ar  
 45  18  46  1   
 46  19  20  ar  
 47  19  47  1   
 48  20  21  1   
 49  21  48  1   
@<TRIPOS>SUBSTRUCTURE
  1 ****  11 GROUP 4 **** **** 0

# MOE 2024.06 (io_trps.svl 2023.06)
