@<TRIPOS>MOLECULE
NONAME
59 62 1 0 0 
SMALL
USER_CHARGES


@<TRIPOS>ATOM
  1 O       -0.8850     0.6970    -2.6880 O.2   1 <1>  -0.5740 
  2 C       -1.7430    -0.1020    -2.3970 C.2   1 <1>   0.6870 
  3 N       -2.8130     0.2270    -1.5770 N.am  1 <1>  -0.4410 
  4 N       -1.6520    -1.3660    -2.8990 N.am  1 <1>  -0.4940 
  5 C       -3.7530    -0.7600    -1.3210 C.2   1 <1>   0.4210 
  6 C       -2.9360     1.6010    -1.0030 C.3   1 <1>   0.0530 
  7 C       -2.5690    -2.3470    -2.6540 C.2   1 <1>   0.7000 
  8 N       -4.8830    -0.6520    -0.5750 N.pl3 1 <1>  -0.7030 
  9 C       -3.6810    -2.0180    -1.8070 C.2   1 <1>   0.2710 
 10 O       -2.4140    -3.4380    -3.1640 O.2   1 <1>  -0.5740 
 11 C       -5.5290    -1.8230    -0.5920 C.cat 1 <1>   1.0690 
 12 N       -4.8110    -2.7050    -1.3120 N.pl3 1 <1>  -0.7670 
 13 N       -6.7310    -1.9810     0.0290 N.pl3 1 <1>  -0.5960 
 14 C       -4.8900    -4.1960    -1.4290 C.3   1 <1>   0.4930 
 15 C       -7.1120    -1.2320     1.2780 C.3   1 <1>   0.1610 
 16 C       -7.7520    -3.0140    -0.3590 C.3   1 <1>   0.1610 
 17 C       -5.3000    -4.8490    -0.1160 C.ar  1 <1>  -0.1500 
 18 C       -8.5610    -0.6910     1.2390 C.3   1 <1>   0.3380 
 19 C       -9.1870    -2.4460    -0.4040 C.3   1 <1>   0.3380 
 20 C       -4.7410    -4.4550     1.0940 C.ar  1 <1>  -0.1560 
 21 C       -6.2450    -5.8670    -0.1250 C.ar  1 <1>  -0.1560 
 22 N       -9.5560    -1.7520     0.8770 N.4   1 <1>  -0.9610 
 23 C       -5.1540    -5.0390     2.2790 C.ar  1 <1>  -0.1560 
 24 C       -6.6560    -6.4500     1.0600 C.ar  1 <1>  -0.1560 
 25 C      -10.9320    -1.1760     0.8200 C.3   1 <1>   0.3380 
 26 C       -6.1160    -6.0320     2.2620 C.ar  1 <1>  -0.1560 
 27 C      -11.9760    -2.2930     0.8390 C.3   1 <1>  -0.1660 
 28 C      -13.3900    -1.7050     0.9040 C.3   1 <1>  -0.1660 
 29 C      -14.4420    -2.8170     0.9230 C.3   1 <1>  -0.2460 
 30 H       -0.8570    -1.5740    -3.5010 H     1 <1>   0.3650 
 31 H       -2.0080     2.1390    -1.0990 H     1 <1>   0.0730 
 32 H       -3.1810     1.5470     0.0430 H     1 <1>   0.0730 
 33 H       -3.7000     2.1480    -1.5280 H     1 <1>   0.0730 
 34 H       -5.1990     0.2050    -0.1330 H     1 <1>   0.4450 
 35 H       -3.9310    -4.6040    -1.6980 H     1 <1>   0.0730 
 36 H       -5.5810    -4.4570    -2.2130 H     1 <1>   0.0730 
 37 H       -6.4400    -0.4110     1.4570 H     1 <1>   0.0730 
 38 H       -7.0190    -1.9000     2.1190 H     1 <1>   0.0730 
 39 H       -7.7360    -3.8100     0.3640 H     1 <1>   0.0730 
 40 H       -7.5200    -3.4270    -1.3240 H     1 <1>   0.0730 
 41 H       -8.6160     0.1100     0.5200 H     1 <1>   0.0730 
 42 H       -8.8100    -0.2790     2.2040 H     1 <1>   0.0730 
 43 H       -9.8740    -3.2550    -0.5900 H     1 <1>   0.0730 
 44 H       -9.2670    -1.7540    -1.2260 H     1 <1>   0.0730 
 45 H       -3.9730    -3.7020     1.1340 H     1 <1>   0.1440 
 46 H       -6.6700    -6.2240    -1.0490 H     1 <1>   0.1440 
 47 H       -9.5730    -2.4560     1.6320 H     1 <1>   0.4450 
 48 H       -4.7190    -4.7350     3.2170 H     1 <1>   0.1440 
 49 H       -7.3870    -7.2420     1.0510 H     1 <1>   0.1440 
 50 H      -11.0520    -0.5760    -0.0670 H     1 <1>   0.0730 
 51 H      -11.0950    -0.5440     1.6790 H     1 <1>   0.0730 
 52 H       -6.4310    -6.4920     3.1840 H     1 <1>   0.1440 
 53 H      -11.8250    -2.9190     1.7010 H     1 <1>   0.0730 
 54 H      -11.9010    -2.8940    -0.0500 H     1 <1>   0.0730 
 55 H      -13.5680    -1.0720     0.0500 H     1 <1>   0.0730 
 56 H      -13.5020    -1.1060     1.7930 H     1 <1>   0.0730 
 57 H      -14.3790    -3.4170     0.0330 H     1 <1>   0.0730 
 58 H      -15.4280    -2.3870     0.9710 H     1 <1>   0.0730 
 59 H      -14.3090    -3.4520     1.7810 H     1 <1>   0.0730 
@<TRIPOS>BOND
  1   1   2  2   
  2   2   3  am  
  3   2   4  am  
  4   3   5  1   
  5   3   6  1   
  6   4   7  am  
  7   4  30  1   
  8   5   8  1   
  9   5   9  2   
 10   6  31  1   
 11   6  32  1   
 12   6  33  1   
 13   7   9  1   
 14   7  10  2   
 15   8  11  ar  
 16   8  34  1   
 17   9  12  1   
 18  11  12  ar  
 19  11  13  ar  
 20  12  14  1   
 21  13  15  1   
 22  13  16  1   
 23  14  17  1   
 24  14  35  1   
 25  14  36  1   
 26  15  18  1   
 27  15  37  1   
 28  15  38  1   
 29  16  19  1   
 30  16  39  1   
 31  16  40  1   
 32  17  20  ar  
 33  17  21  ar  
 34  18  22  1   
 35  18  41  1   
 36  18  42  1   
 37  19  22  1   
 38  19  43  1   
 39  19  44  1   
 40  20  23  ar  
 41  20  45  1   
 42  21  24  ar  
 43  21  46  1   
 44  22  25  1   
 45  22  47  1   
 46  23  26  ar  
 47  23  48  1   
 48  24  26  ar  
 49  24  49  1   
 50  25  27  1   
 51  25  50  1   
 52  25  51  1   
 53  26  52  1   
 54  27  28  1   
 55  27  53  1   
 56  27  54  1   
 57  28  29  1   
 58  28  55  1   
 59  28  56  1   
 60  29  57  1   
 61  29  58  1   
 62  29  59  1   
@<TRIPOS>SUBSTRUCTURE
  1 ****  11 GROUP 4 **** **** 0

# MOE 2024.06 (io_trps.svl 2023.06)
