@<TRIPOS>MOLECULE
NONAME
57 59 1 0 0 
SMALL
USER_CHARGES


@<TRIPOS>ATOM
  1 O       -0.1680     0.9600     2.0840 O.2   1 <1>  -0.5700 
  2 C       -0.0650     2.0480     1.5580 C.2   1 <1>   0.6900 
  3 N       -1.0730     2.5210     0.7280 N.am  1 <1>  -0.4200 
  4 N        1.0570     2.8240     1.7900 N.am  1 <1>  -0.4360 
  5 C       -1.0180     3.7930     0.1700 C.2   1 <1>   0.7030 
  6 C       -2.2630     1.6480     0.4710 C.3   1 <1>   0.0600 
  7 C        1.1040     4.0820     1.2220 C.2   1 <1>   0.4260 
  8 C        2.1590     2.3330     2.6730 C.3   1 <1>   0.0600 
  9 O       -1.9430     4.1750    -0.5220 O.2   1 <1>  -0.5700 
 10 C        0.1380     4.6170     0.4320 C.2   1 <1>   0.2770 
 11 N        2.1040     4.9820     1.3450 N.pl3 1 <1>  -0.7000 
 12 N        0.5950     5.9050     0.0740 N.pl3 1 <1>  -0.7640 
 13 C        1.7860     6.0610     0.6490 C.cat 1 <1>   0.6560 
 14 C       -0.0880     6.9190    -0.7740 C.3   1 <1>   0.4340 
 15 C        2.7500     7.2610     0.5840 C.3   1 <1>   0.2540 
 16 C       -1.4030     7.3620    -0.1380 C.3   1 <1>  -0.2400 
 17 C       -0.2470     6.4060    -2.2030 C.3   1 <1>  -0.2400 
 18 N        4.1380     6.8740     0.9610 N.3   1 <1>  -0.8100 
 19 C        4.9230     8.0520     1.4080 C.3   1 <1>   0.1100 
 20 C        4.8440     6.2050    -0.1640 C.3   1 <1>   0.1100 
 21 C        6.3430     7.6610     1.8520 C.3   1 <1>   0.1400 
 22 C        6.2570     5.7480     0.2370 C.3   1 <1>   0.1400 
 23 N        7.0360     6.8940     0.7790 N.am  1 <1>  -0.6600 
 24 C        8.2770     7.2520     0.3220 C.2   1 <1>   0.7800 
 25 O        8.8840     8.2110     0.7580 O.2   1 <1>  -0.5700 
 26 O        8.8210     6.5080    -0.6420 O.3   1 <1>  -0.4300 
 27 C       10.0980     6.8110    -1.1540 C.3   1 <1>   0.1200 
 28 C       10.4300     5.7850    -2.2330 C.3   1 <1>  -0.2400 
 29 H       -1.9770     0.6100     0.4710 H     1 <1>   0.0800 
 30 H       -2.7040     1.8700    -0.4860 H     1 <1>   0.0800 
 31 H       -2.9980     1.8050     1.2410 H     1 <1>   0.0800 
 32 H        2.1250     1.2600     2.7640 H     1 <1>   0.0800 
 33 H        2.0560     2.7630     3.6540 H     1 <1>   0.0800 
 34 H        3.1150     2.6020     2.2610 H     1 <1>   0.0800 
 35 H        2.9910     4.9130     1.8530 H     1 <1>   0.4500 
 36 H        0.5340     7.7960    -0.8290 H     1 <1>   0.0800 
 37 H        2.3860     8.0010     1.2750 H     1 <1>   0.0800 
 38 H        2.7460     7.6900    -0.4020 H     1 <1>   0.0800 
 39 H       -2.1370     6.5800    -0.1410 H     1 <1>   0.0800 
 40 H       -1.8100     8.1860    -0.6960 H     1 <1>   0.0800 
 41 H       -1.2400     7.6910     0.8720 H     1 <1>   0.0800 
 42 H       -0.9350     5.5870    -2.2610 H     1 <1>   0.0800 
 43 H        0.7040     6.1000    -2.5990 H     1 <1>   0.0800 
 44 H       -0.6300     7.1950    -2.8250 H     1 <1>   0.0800 
 45 H        4.4270     8.5250     2.2400 H     1 <1>   0.0800 
 46 H        4.9980     8.7740     0.6110 H     1 <1>   0.0800 
 47 H        4.9300     6.8800    -1.0000 H     1 <1>   0.0800 
 48 H        4.2890     5.3430    -0.4900 H     1 <1>   0.0800 
 49 H        6.2890     7.0540     2.7390 H     1 <1>   0.0800 
 50 H        6.8960     8.5520     2.0970 H     1 <1>   0.0800 
 51 H        6.7480     5.3240    -0.6210 H     1 <1>   0.0800 
 52 H        6.1900     4.9830     0.9900 H     1 <1>   0.0800 
 53 H       10.8090     6.7670    -0.3460 H     1 <1>   0.0800 
 54 H       10.0750     7.8080    -1.5620 H     1 <1>   0.0800 
 55 H       10.4390     4.7950    -1.8130 H     1 <1>   0.0800 
 56 H       11.4020     5.9920    -2.6420 H     1 <1>   0.0800 
 57 H        9.7070     5.8350    -3.0270 H     1 <1>   0.0800 
@<TRIPOS>BOND
  1   1   2  2   
  2   2   3  am  
  3   2   4  am  
  4   3   5  am  
  5   3   6  1   
  6   4   7  1   
  7   4   8  1   
  8   5   9  2   
  9   5  10  1   
 10   6  29  1   
 11   6  30  1   
 12   6  31  1   
 13   7  10  2   
 14   7  11  1   
 15   8  32  1   
 16   8  33  1   
 17   8  34  1   
 18  10  12  1   
 19  11  13  ar  
 20  11  35  1   
 21  12  13  ar  
 22  12  14  1   
 23  13  15  1   
 24  14  16  1   
 25  14  17  1   
 26  14  36  1   
 27  15  18  1   
 28  15  37  1   
 29  15  38  1   
 30  16  39  1   
 31  16  40  1   
 32  16  41  1   
 33  17  42  1   
 34  17  43  1   
 35  17  44  1   
 36  18  19  1   
 37  18  20  1   
 38  19  21  1   
 39  19  45  1   
 40  19  46  1   
 41  20  22  1   
 42  20  47  1   
 43  20  48  1   
 44  21  23  1   
 45  21  49  1   
 46  21  50  1   
 47  22  23  1   
 48  22  51  1   
 49  22  52  1   
 50  23  24  am  
 51  24  25  2   
 52  24  26  1   
 53  26  27  1   
 54  27  28  1   
 55  27  53  1   
 56  27  54  1   
 57  28  55  1   
 58  28  56  1   
 59  28  57  1   
@<TRIPOS>SUBSTRUCTURE
  1 ****  11 GROUP 4 **** **** 0

# MOE 2024.06 (io_trps.svl 2023.06)
