@<TRIPOS>MOLECULE
NONAME
48 50 1 0 0 
SMALL
USER_CHARGES


@<TRIPOS>ATOM
  1 S       -0.1910    -0.1670     0.4680 S.3   1 <1>  -0.0800 
  2 C        1.2270     0.8310     0.1880 C.2   1 <1>   0.1040 
  3 C       -1.2550     1.1960     0.2040 C.2   1 <1>  -0.1400 
  4 N        2.4970     0.2710     0.2020 N.am  1 <1>  -0.4940 
  5 C        0.8750     2.1340    -0.0460 C.2   1 <1>  -0.0860 
  6 C       -0.5640     2.3200    -0.0410 C.2   1 <1>  -0.1810 
  7 C       -2.7520     0.9840     0.2460 C.3   1 <1>   0.0200 
  8 C        2.9700    -0.9660     0.5440 C.2   1 <1>   0.5690 
  9 C        1.8640     3.1580    -0.2680 C.2   1 <1>   0.7160 
 10 C       -1.3170     3.6200    -0.3360 C.3   1 <1>   0.0210 
 11 C       -3.4430     2.1840    -0.4190 C.3   1 <1>  -0.1600 
 12 O        2.3010    -1.8590     0.9960 O.2   1 <1>  -0.5700 
 13 C        4.4450    -1.2050     0.3450 C.3   1 <1>  -0.1790 
 14 O        2.9320     2.8830    -0.7920 O.2   1 <1>  -0.5700 
 15 N        1.6340     4.4320     0.1740 N.am  1 <1>  -0.5470 
 16 C       -2.8130     3.5170     0.0280 C.3   1 <1>  -0.1600 
 17 C        2.3100     5.6610     0.0610 C.ar  1 <1>   0.1170 
 18 C        1.8110     6.7450     0.7920 C.ar  1 <1>   0.0820 
 19 C        3.4300     5.8510    -0.7410 C.ar  1 <1>  -0.1500 
 20 O        0.6980     6.5230     1.5560 O.3   1 <1>  -0.3620 
 21 C        2.4410     7.9820     0.7190 C.ar  1 <1>  -0.1500 
 22 C        4.0540     7.0840    -0.8110 C.ar  1 <1>  -0.1500 
 23 C        0.1720     7.5380     2.3850 C.3   1 <1>   0.0400 
 24 C        3.5600     8.1570    -0.0770 C.ar  1 <1>   0.0820 
 25 O        4.1110     9.4000    -0.0870 O.3   1 <1>  -0.3620 
 26 C        5.2590     9.6790    -0.8570 C.3   1 <1>   0.0400 
 27 H        3.2140     0.9210    -0.1350 H     1 <1>   0.3700 
 28 H       -3.0620     0.8920     1.2720 H     1 <1>   0.0800 
 29 H       -3.0110     0.0780    -0.2740 H     1 <1>   0.0800 
 30 H       -1.2160     3.8420    -1.3840 H     1 <1>   0.0800 
 31 H       -0.9130     4.4430     0.2210 H     1 <1>   0.0800 
 32 H       -4.4920     2.1720    -0.1800 H     1 <1>   0.0800 
 33 H       -3.3450     2.0950    -1.4870 H     1 <1>   0.0800 
 34 H        5.0100    -0.5240     0.9530 H     1 <1>   0.0800 
 35 H        4.7000    -1.0650    -0.6880 H     1 <1>   0.0800 
 36 H        4.6910    -2.2120     0.6300 H     1 <1>   0.0800 
 37 H        0.8250     4.5050     0.7900 H     1 <1>   0.3700 
 38 H       -3.3450     4.3380    -0.4190 H     1 <1>   0.0800 
 39 H       -2.9160     3.6030     1.0960 H     1 <1>   0.0800 
 40 H        3.8270     5.0390    -1.3210 H     1 <1>   0.1500 
 41 H        2.0870     8.8340     1.2660 H     1 <1>   0.1500 
 42 H        4.9170     7.1870    -1.4410 H     1 <1>   0.1500 
 43 H       -0.6730     7.1360     2.9130 H     1 <1>   0.0800 
 44 H       -0.1400     8.3650     1.7710 H     1 <1>   0.0800 
 45 H        0.9290     7.8440     3.0860 H     1 <1>   0.0800 
 46 H        5.5170    10.7120    -0.7090 H     1 <1>   0.0800 
 47 H        5.0350     9.5040    -1.8950 H     1 <1>   0.0800 
 48 H        6.0650     9.0500    -0.5240 H     1 <1>   0.0800 
@<TRIPOS>BOND
  1   1   2  1   
  2   1   3  1   
  3   2   4  1   
  4   2   5  2   
  5   3   6  2   
  6   3   7  1   
  7   4   8  am  
  8   4  27  1   
  9   5   6  1   
 10   5   9  1   
 11   6  10  1   
 12   7  11  1   
 13   7  28  1   
 14   7  29  1   
 15   8  12  2   
 16   8  13  1   
 17   9  14  2   
 18   9  15  am  
 19  10  16  1   
 20  10  30  1   
 21  10  31  1   
 22  11  16  1   
 23  11  32  1   
 24  11  33  1   
 25  13  34  1   
 26  13  35  1   
 27  13  36  1   
 28  15  17  1   
 29  15  37  1   
 30  16  38  1   
 31  16  39  1   
 32  17  18  ar  
 33  17  19  ar  
 34  18  20  1   
 35  18  21  ar  
 36  19  22  ar  
 37  19  40  1   
 38  20  23  1   
 39  21  24  ar  
 40  21  41  1   
 41  22  24  ar  
 42  22  42  1   
 43  23  43  1   
 44  23  44  1   
 45  23  45  1   
 46  24  25  1   
 47  25  26  1   
 48  26  46  1   
 49  26  47  1   
 50  26  48  1   
@<TRIPOS>SUBSTRUCTURE
  1 ****  15 GROUP 4 **** **** 0

# MOE 2024.06 (io_trps.svl 2023.06)
