@<TRIPOS>MOLECULE
NONAME
42 43 1 0 0 
SMALL
USER_CHARGES


@<TRIPOS>ATOM
  1 O        0.0180    -1.5410     2.0680 O.2   1 <1>  -0.5700 
  2 C       -0.0880    -1.8350     0.9010 C.2   1 <1>   0.5690 
  3 N       -1.2530    -1.5820     0.2170 N.am  1 <1>  -0.6600 
  4 C        1.1070    -2.5270     0.2520 C.3   1 <1>  -0.0990 
  5 C       -2.4130    -0.9530     0.9310 C.3   1 <1>   0.3200 
  6 C       -1.5450    -1.9670    -1.1950 C.3   1 <1>   0.0600 
  7 C        2.2250    -1.5910    -0.2730 C.3   1 <1>   0.0000 
  8 C       -3.6110    -1.8900     1.0060 C.2   1 <1>   0.2980 
  9 C        3.3460    -2.4540    -0.8720 C.3   1 <1>  -0.2400 
 10 C        2.8190    -0.7530     0.8690 C.3   1 <1>  -0.2400 
 11 C        1.7090    -0.6420    -1.3640 C.3   1 <1>  -0.2400 
 12 O       -3.5230    -2.9590     1.7510 O.3   1 <1>  -0.0190 
 13 N       -4.7160    -1.7390     0.3960 N.2   1 <1>  -0.5650 
 14 N       -4.6710    -3.5420     1.6030 N.2   1 <1>  -0.4100 
 15 C       -5.3800    -2.8260     0.8050 C.2   1 <1>   0.4620 
 16 C       -6.7360    -3.1270     0.3740 C.ar  1 <1>   0.0540 
 17 C       -7.3930    -4.2820     0.8040 C.ar  1 <1>  -0.1500 
 18 C       -7.4400    -2.2800    -0.4860 C.ar  1 <1>  -0.1500 
 19 C       -8.6820    -4.5780     0.4000 C.ar  1 <1>  -0.1500 
 20 C       -8.7300    -2.5700    -0.8950 C.ar  1 <1>  -0.1500 
 21 C       -9.3540    -3.7210    -0.4520 C.ar  1 <1>  -0.1500 
 22 H        0.7710    -3.1750    -0.5330 H     1 <1>   0.0800 
 23 H        1.5320    -3.1710     1.0010 H     1 <1>   0.0800 
 24 H       -2.7020    -0.0620     0.4040 H     1 <1>   0.0800 
 25 H       -2.1460    -0.6620     1.9310 H     1 <1>   0.0800 
 26 H       -0.6450    -2.1260    -1.7570 H     1 <1>   0.0800 
 27 H       -2.1060    -1.1860    -1.6790 H     1 <1>   0.0800 
 28 H       -2.1280    -2.8720    -1.2100 H     1 <1>   0.0800 
 29 H        2.9750    -3.0500    -1.6870 H     1 <1>   0.0800 
 30 H        3.7530    -3.1150    -0.1260 H     1 <1>   0.0800 
 31 H        4.1440    -1.8350    -1.2430 H     1 <1>   0.0800 
 32 H        3.1630    -1.3890     1.6660 H     1 <1>   0.0800 
 33 H        2.0850    -0.0780     1.2720 H     1 <1>   0.0800 
 34 H        3.6510    -0.1680     0.5190 H     1 <1>   0.0800 
 35 H        1.3490    -1.1940    -2.2120 H     1 <1>   0.0800 
 36 H        2.5010     0.0040    -1.7020 H     1 <1>   0.0800 
 37 H        0.9150    -0.0220    -0.9890 H     1 <1>   0.0800 
 38 H       -6.8850    -4.9610     1.4680 H     1 <1>   0.1500 
 39 H       -6.9710    -1.3790    -0.8400 H     1 <1>   0.1500 
 40 H       -9.1630    -5.4760     0.7480 H     1 <1>   0.1500 
 41 H       -9.2480    -1.8990    -1.5580 H     1 <1>   0.1500 
 42 H      -10.3570    -3.9490    -0.7690 H     1 <1>   0.1500 
@<TRIPOS>BOND
  1   1   2  2   
  2   2   3  am  
  3   2   4  1   
  4   3   5  1   
  5   3   6  1   
  6   4   7  1   
  7   4  22  1   
  8   4  23  1   
  9   5   8  1   
 10   5  24  1   
 11   5  25  1   
 12   6  26  1   
 13   6  27  1   
 14   6  28  1   
 15   7   9  1   
 16   7  10  1   
 17   7  11  1   
 18   8  12  1   
 19   8  13  2   
 20   9  29  1   
 21   9  30  1   
 22   9  31  1   
 23  10  32  1   
 24  10  33  1   
 25  10  34  1   
 26  11  35  1   
 27  11  36  1   
 28  11  37  1   
 29  12  14  1   
 30  13  15  1   
 31  14  15  2   
 32  15  16  1   
 33  16  17  ar  
 34  16  18  ar  
 35  17  19  ar  
 36  17  38  1   
 37  18  20  ar  
 38  18  39  1   
 39  19  21  ar  
 40  19  40  1   
 41  20  21  ar  
 42  20  41  1   
 43  21  42  1   
@<TRIPOS>SUBSTRUCTURE
  1 ****   8 GROUP 4 **** **** 0

# MOE 2024.06 (io_trps.svl 2023.06)
