@<TRIPOS>MOLECULE
NONAME
34 35 1 0 0 
SMALL
USER_CHARGES


@<TRIPOS>ATOM
  1 F        4.3670    -5.4350     0.8720 F     1 <1>  -0.1900 
  2 C        3.5560    -4.5230     0.4090 C.ar  1 <1>   0.1900 
  3 C        2.2300    -4.5590     0.7850 C.ar  1 <1>  -0.1500 
  4 C        4.0610    -3.5590    -0.4400 C.ar  1 <1>  -0.1500 
  5 C        1.3400    -3.5960     0.3050 C.ar  1 <1>   0.0860 
  6 C        3.1940    -2.5960    -0.9250 C.ar  1 <1>  -0.1500 
  7 C       -0.0590    -3.6210     0.6900 C.2   1 <1>   0.6340 
  8 C        1.8580    -2.6190    -0.5560 C.ar  1 <1>  -0.1500 
  9 O       -0.5310    -4.4540     1.4360 O.2   1 <1>  -0.5700 
 10 O       -0.8720    -2.6800     0.1950 O.3   1 <1>  -0.4300 
 11 C       -2.2410    -2.6190     0.5250 C.3   1 <1>   0.2000 
 12 C       -3.0080    -3.6220    -0.3400 C.3   1 <1>  -0.1600 
 13 C       -2.7210    -1.1920     0.2630 C.3   1 <1>  -0.1600 
 14 C       -4.5100    -3.4790    -0.1200 C.3   1 <1>   0.3430 
 15 C       -4.2300    -1.0870     0.4690 C.3   1 <1>   0.3430 
 16 N       -4.9310    -2.0750    -0.4060 N.4   1 <1>  -0.9590 
 17 C       -6.4140    -1.9330    -0.2830 C.3   1 <1>   0.2630 
 18 H        1.8890    -5.3330     1.4500 H     1 <1>   0.1500 
 19 H        5.1020    -3.5650    -0.7100 H     1 <1>   0.1500 
 20 H        3.5600    -1.8310    -1.5900 H     1 <1>   0.1500 
 21 H        1.2060    -1.8580    -0.9480 H     1 <1>   0.1500 
 22 H       -2.3540    -2.8520     1.5720 H     1 <1>   0.0800 
 23 H       -2.7180    -4.6240    -0.0730 H     1 <1>   0.0800 
 24 H       -2.7790    -3.4710    -1.3800 H     1 <1>   0.0800 
 25 H       -2.4730    -0.8940    -0.7400 H     1 <1>   0.0800 
 26 H       -2.2280    -0.5220     0.9460 H     1 <1>   0.0800 
 27 H       -4.7490    -3.7330     0.9010 H     1 <1>   0.0800 
 28 H       -5.0340    -4.1630    -0.7700 H     1 <1>   0.0800 
 29 H       -4.5550    -0.0870     0.2310 H     1 <1>   0.0800 
 30 H       -4.4660    -1.2830     1.5020 H     1 <1>   0.0800 
 31 H       -4.6660    -1.8670    -1.3800 H     1 <1>   0.4500 
 32 H       -6.7300    -2.1440     0.7260 H     1 <1>   0.0800 
 33 H       -6.9120    -2.6170    -0.9510 H     1 <1>   0.0800 
 34 H       -6.7160    -0.9290    -0.5360 H     1 <1>   0.0800 
@<TRIPOS>BOND
  1   1   2  1   
  2   2   3  ar  
  3   2   4  ar  
  4   3   5  ar  
  5   3  18  1   
  6   4   6  ar  
  7   4  19  1   
  8   5   7  1   
  9   5   8  ar  
 10   6   8  ar  
 11   6  20  1   
 12   7   9  2   
 13   7  10  1   
 14   8  21  1   
 15  10  11  1   
 16  11  12  1   
 17  11  13  1   
 18  11  22  1   
 19  12  14  1   
 20  12  23  1   
 21  12  24  1   
 22  13  15  1   
 23  13  25  1   
 24  13  26  1   
 25  14  16  1   
 26  14  27  1   
 27  14  28  1   
 28  15  16  1   
 29  15  29  1   
 30  15  30  1   
 31  16  17  1   
 32  16  31  1   
 33  17  32  1   
 34  17  33  1   
 35  17  34  1   
@<TRIPOS>SUBSTRUCTURE
  1 ****  10 GROUP 4 **** **** 0

# MOE 2024.06 (io_trps.svl 2023.06)
