@<TRIPOS>MOLECULE
NONAME
30 30 1 0 0 
SMALL
USER_CHARGES


@<TRIPOS>ATOM
  1 CL      -2.2430    -1.7910     2.3900 Cl    1 <1>  -0.1770 
  2 C       -2.2320    -1.8920     0.6400 C.ar  1 <1>   0.1770 
  3 C       -1.1200    -2.4230    -0.0170 C.ar  1 <1>   0.1990 
  4 C       -3.3390    -1.4360    -0.0500 C.ar  1 <1>  -0.1500 
  5 N        0.0020    -2.8800     0.6750 N.am  1 <1>  -0.6930 
  6 C       -1.1580    -2.4800    -1.4060 C.ar  1 <1>  -0.1500 
  7 C       -3.3530    -1.5030    -1.4330 C.ar  1 <1>  -0.1500 
  8 S        0.2730    -4.5700     0.9180 S.o2  1 <1>   1.3330 
  9 C        1.1880    -1.9720     0.7540 C.3   1 <1>   0.2570 
 10 C       -2.2620    -2.0250    -2.1080 C.ar  1 <1>  -0.1500 
 11 O       -0.1080    -5.2540    -0.2920 O.2   1 <1>  -0.6500 
 12 O        1.6140    -4.7050     1.4390 O.2   1 <1>  -0.6500 
 13 C       -0.8790    -4.9590     2.2170 C.3   1 <1>  -0.1350 
 14 C        2.1440    -2.0860    -0.4400 C.2   1 <1>   0.5690 
 15 O        2.1730    -1.1880    -1.2480 O.2   1 <1>  -0.5700 
 16 N        2.9400    -3.1840    -0.5600 N.am  1 <1>  -0.7300 
 17 C        3.8730    -3.4640    -1.6770 C.3   1 <1>   0.0600 
 18 H       -4.1770    -1.0320     0.4890 H     1 <1>   0.1500 
 19 H       -0.3140    -2.8870    -1.9370 H     1 <1>   0.1500 
 20 H       -4.2090    -1.1510    -1.9840 H     1 <1>   0.1500 
 21 H        1.7360    -2.1740     1.6560 H     1 <1>   0.0800 
 22 H        0.8440    -0.9550     0.8070 H     1 <1>   0.0800 
 23 H       -2.2690    -2.0790    -3.1830 H     1 <1>   0.1500 
 24 H       -0.6800    -4.3560     3.0820 H     1 <1>   0.0800 
 25 H       -0.7920    -5.9920     2.4890 H     1 <1>   0.0800 
 26 H       -1.8830    -4.7740     1.8900 H     1 <1>   0.0800 
 27 H        2.8240    -3.9430     0.1320 H     1 <1>   0.3700 
 28 H        3.9010    -2.6310    -2.3590 H     1 <1>   0.0800 
 29 H        3.5460    -4.3400    -2.2100 H     1 <1>   0.0800 
 30 H        4.8630    -3.6320    -1.2900 H     1 <1>   0.0800 
@<TRIPOS>BOND
  1   1   2  1   
  2   2   3  ar  
  3   2   4  ar  
  4   3   5  1   
  5   3   6  ar  
  6   4   7  ar  
  7   4  18  1   
  8   5   8  am  
  9   5   9  1   
 10   6  10  ar  
 11   6  19  1   
 12   7  10  ar  
 13   7  20  1   
 14   8  11  2   
 15   8  12  2   
 16   8  13  1   
 17   9  14  1   
 18   9  21  1   
 19   9  22  1   
 20  10  23  1   
 21  13  24  1   
 22  13  25  1   
 23  13  26  1   
 24  14  15  2   
 25  14  16  am  
 26  16  17  1   
 27  16  27  1   
 28  17  28  1   
 29  17  29  1   
 30  17  30  1   
@<TRIPOS>SUBSTRUCTURE
  1 ****   5 GROUP 4 **** **** 0

# MOE 2024.06 (io_trps.svl 2023.06)
