@<TRIPOS>MOLECULE
NONAME
62 65 1 0 0 
SMALL
USER_CHARGES


@<TRIPOS>ATOM
  1 O       -0.2020    -1.4310     0.3890 O.3   1 <1>  -0.3630 
  2 C       -1.4440    -1.9740     0.4120 C.ar  1 <1>   0.0830 
  3 C        0.0000    -0.2520    -0.3680 C.3   1 <1>   0.2640 
  4 C       -2.1940    -2.2510    -0.7360 C.ar  1 <1>   0.0830 
  5 C       -1.9800    -2.2560     1.6560 C.ar  1 <1>  -0.1500 
  6 C        1.1600     0.5320     0.2270 C.ar  1 <1>  -0.1440 
  7 O       -1.7190    -2.0540    -1.9870 O.3   1 <1>  -0.3630 
  8 C       -3.4790    -2.7530    -0.6160 C.ar  1 <1>  -0.1500 
  9 C       -3.2600    -2.7700     1.7710 C.ar  1 <1>  -0.1500 
 10 C        1.0100     1.8750     0.5430 C.ar  1 <1>  -0.1500 
 11 C        2.3820    -0.0840     0.4530 C.ar  1 <1>  -0.1500 
 12 C       -0.7340    -2.9680    -2.4230 C.3   1 <1>   0.0400 
 13 C       -4.0230    -3.0080     0.6350 C.ar  1 <1>  -0.1430 
 14 C        2.0680     2.5910     1.0760 C.ar  1 <1>  -0.1500 
 15 C        3.4410     0.6310     0.9850 C.ar  1 <1>  -0.1500 
 16 C       -5.4400    -3.5350     0.7590 C.3   1 <1>   0.4860 
 17 C        3.2840     1.9700     1.2970 C.ar  1 <1>  -0.1500 
 18 N       -6.3800    -2.4300     0.4390 N.4   1 <1>  -0.9590 
 19 C       -6.2550    -1.2830     1.4140 C.3   1 <1>   0.3430 
 20 C       -7.8080    -2.9060     0.3540 C.3   1 <1>   0.3430 
 21 C       -7.2220    -0.1280     1.0890 C.3   1 <1>   0.2090 
 22 C       -8.7880    -1.7630     0.0190 C.3   1 <1>   0.2090 
 23 N       -8.6260    -0.6220     0.9670 N.pl3 1 <1>  -0.8380 
 24 C       -9.5830     0.3930     0.8160 C.ar  1 <1>   0.1000 
 25 C       -9.6760     1.2240    -0.3160 C.ar  1 <1>   0.0830 
 26 C      -10.4830     0.5770     1.8560 C.ar  1 <1>  -0.1500 
 27 O       -8.7810     1.0350    -1.3380 O.3   1 <1>  -0.3630 
 28 C      -10.6630     2.2040    -0.3690 C.ar  1 <1>  -0.1500 
 29 C      -11.4610     1.5520     1.7950 C.ar  1 <1>  -0.1500 
 30 C       -8.8140     1.8440    -2.4960 C.3   1 <1>   0.0400 
 31 C      -11.5510     2.3670     0.6820 C.ar  1 <1>  -0.1500 
 32 H       -0.9040     0.3290    -0.3470 H     1 <1>   0.0800 
 33 H        0.2260    -0.5300    -1.3810 H     1 <1>   0.0800 
 34 H       -1.3850    -2.0630     2.5330 H     1 <1>   0.1500 
 35 H       -4.0310    -2.9440    -1.5190 H     1 <1>   0.1500 
 36 H       -3.6460    -2.9770     2.7550 H     1 <1>   0.1500 
 37 H        0.0700     2.3710     0.3770 H     1 <1>   0.1500 
 38 H        2.5100    -1.1260     0.2160 H     1 <1>   0.1500 
 39 H       -0.4360    -2.6940    -3.4200 H     1 <1>   0.0800 
 40 H       -1.1530    -3.9580    -2.4230 H     1 <1>   0.0800 
 41 H        0.1130    -2.9230    -1.7620 H     1 <1>   0.0800 
 42 H        1.9440     3.6320     1.3200 H     1 <1>   0.1500 
 43 H        4.3850     0.1450     1.1580 H     1 <1>   0.1500 
 44 H       -5.6140    -3.8970     1.7590 H     1 <1>   0.0800 
 45 H       -5.5760    -4.3520     0.0700 H     1 <1>   0.0800 
 46 H        4.1070     2.5260     1.7120 H     1 <1>   0.1500 
 47 H       -6.1130    -2.0570    -0.4800 H     1 <1>   0.4500 
 48 H       -5.2470    -0.9020     1.4080 H     1 <1>   0.0800 
 49 H       -6.4720    -1.6290     2.4110 H     1 <1>   0.0800 
 50 H       -8.1050    -3.3290     1.2990 H     1 <1>   0.0800 
 51 H       -7.8990    -3.6730    -0.3970 H     1 <1>   0.0800 
 52 H       -6.9180     0.3500     0.1750 H     1 <1>   0.0800 
 53 H       -7.1770     0.6080     1.8740 H     1 <1>   0.0800 
 54 H       -9.7990    -2.1280     0.0800 H     1 <1>   0.0800 
 55 H       -8.6210    -1.4290    -0.9910 H     1 <1>   0.0800 
 56 H      -10.4140    -0.0560     2.7210 H     1 <1>   0.1500 
 57 H      -10.7670     2.8560    -1.2140 H     1 <1>   0.1500 
 58 H      -12.1490     1.6780     2.6120 H     1 <1>   0.1500 
 59 H       -8.0270     1.5230    -3.1540 H     1 <1>   0.0800 
 60 H       -8.6550     2.8690    -2.2120 H     1 <1>   0.0800 
 61 H       -9.7660     1.7220    -2.9810 H     1 <1>   0.0800 
 62 H      -12.3110     3.1270     0.6330 H     1 <1>   0.1500 
@<TRIPOS>BOND
  1   1   2  1   
  2   1   3  1   
  3   2   4  ar  
  4   2   5  ar  
  5   3   6  1   
  6   3  32  1   
  7   3  33  1   
  8   4   7  1   
  9   4   8  ar  
 10   5   9  ar  
 11   5  34  1   
 12   6  10  ar  
 13   6  11  ar  
 14   7  12  1   
 15   8  13  ar  
 16   8  35  1   
 17   9  13  ar  
 18   9  36  1   
 19  10  14  ar  
 20  10  37  1   
 21  11  15  ar  
 22  11  38  1   
 23  12  39  1   
 24  12  40  1   
 25  12  41  1   
 26  13  16  1   
 27  14  17  ar  
 28  14  42  1   
 29  15  17  ar  
 30  15  43  1   
 31  16  18  1   
 32  16  44  1   
 33  16  45  1   
 34  17  46  1   
 35  18  19  1   
 36  18  20  1   
 37  18  47  1   
 38  19  21  1   
 39  19  48  1   
 40  19  49  1   
 41  20  22  1   
 42  20  50  1   
 43  20  51  1   
 44  21  23  1   
 45  21  52  1   
 46  21  53  1   
 47  22  23  1   
 48  22  54  1   
 49  22  55  1   
 50  23  24  1   
 51  24  25  ar  
 52  24  26  ar  
 53  25  27  1   
 54  25  28  ar  
 55  26  29  ar  
 56  26  56  1   
 57  27  30  1   
 58  28  31  ar  
 59  28  57  1   
 60  29  31  ar  
 61  29  58  1   
 62  30  59  1   
 63  30  60  1   
 64  30  61  1   
 65  31  62  1   
@<TRIPOS>SUBSTRUCTURE
  1 ****  19 GROUP 4 **** **** 0

# MOE 2024.06 (io_trps.svl 2023.06)
