@<TRIPOS>MOLECULE
NONAME
41 42 1 0 0 
SMALL
USER_CHARGES


@<TRIPOS>ATOM
  1 F       -2.1780    -0.3460     1.6130 F     1 <1>  -0.1900 
  2 C       -1.9760    -1.4280     0.9060 C.ar  1 <1>   0.1900 
  3 C       -0.6790    -1.8370     0.6300 C.ar  1 <1>  -0.1440 
  4 C       -3.0880    -2.1240     0.4690 C.ar  1 <1>  -0.1500 
  5 C       -0.5180    -3.0020    -0.1110 C.ar  1 <1>  -0.1500 
  6 C        0.5280    -1.0530     1.1280 C.3   1 <1>   0.2840 
  7 C       -2.9050    -3.2780    -0.2730 C.ar  1 <1>  -0.1500 
  8 C       -1.6210    -3.7120    -0.5600 C.ar  1 <1>  -0.1500 
  9 N        1.5000    -0.8600     0.0450 N.am  1 <1>  -0.7300 
 10 C        2.7470    -0.3660     0.2160 C.2   1 <1>   0.5690 
 11 O        3.0500     0.1920     1.2470 O.2   1 <1>  -0.5700 
 12 C        3.7410    -0.5080    -0.9480 C.3   1 <1>  -0.0190 
 13 C        4.1570    -1.9750    -1.2250 C.3   1 <1>  -0.1860 
 14 C        5.0050     0.3610    -0.7860 C.3   1 <1>  -0.0220 
 15 C        2.9760    -2.8700    -1.5820 C.2   1 <1>   0.9060 
 16 C        4.9650    -2.5300    -0.0400 C.3   1 <1>  -0.0220 
 17 C        6.0960    -0.2810     0.0720 C.2   1 <1>  -0.2760 
 18 O        2.9530    -4.0480    -1.2150 O.co2 1 <1>  -0.9000 
 19 O        2.0310    -2.3790    -2.2120 O.co2 1 <1>  -0.9000 
 20 C        6.0680    -1.5770     0.4210 C.2   1 <1>  -0.2760 
 21 C        7.1630     0.7390     0.4510 C.3   1 <1>  -0.1020 
 22 C        7.0680    -2.3030     1.3140 C.3   1 <1>  -0.1020 
 23 H       -4.0730    -1.7660     0.7050 H     1 <1>   0.1500 
 24 H        0.4700    -3.3670    -0.3540 H     1 <1>   0.1500 
 25 H        1.0030    -1.5970     1.9270 H     1 <1>   0.0800 
 26 H        0.2400    -0.0880     1.5040 H     1 <1>   0.0800 
 27 H       -3.7530    -3.8360    -0.6290 H     1 <1>   0.1500 
 28 H       -1.4620    -4.6040    -1.1410 H     1 <1>   0.1500 
 29 H        1.3360    -1.4270    -0.8140 H     1 <1>   0.3700 
 30 H        3.2250    -0.1420    -1.8180 H     1 <1>   0.0800 
 31 H        4.7960    -1.9800    -2.0870 H     1 <1>   0.0800 
 32 H        4.7200     1.3110    -0.3700 H     1 <1>   0.0800 
 33 H        5.4180     0.5470    -1.7610 H     1 <1>   0.0800 
 34 H        5.3940    -3.4700    -0.3430 H     1 <1>   0.0800 
 35 H        4.3030    -2.7280     0.7860 H     1 <1>   0.0800 
 36 H        7.5390     1.2180    -0.4350 H     1 <1>   0.0800 
 37 H        7.9960     0.3000     0.9610 H     1 <1>   0.0800 
 38 H        6.7320     1.4880     1.0920 H     1 <1>   0.0800 
 39 H        7.5860    -3.0530     0.7440 H     1 <1>   0.0800 
 40 H        6.5440    -2.7850     2.1200 H     1 <1>   0.0800 
 41 H        7.7930    -1.6460     1.7470 H     1 <1>   0.0800 
@<TRIPOS>BOND
  1   1   2  1   
  2   2   3  ar  
  3   2   4  ar  
  4   3   5  ar  
  5   3   6  1   
  6   4   7  ar  
  7   4  23  1   
  8   5   8  ar  
  9   5  24  1   
 10   6   9  1   
 11   6  25  1   
 12   6  26  1   
 13   7   8  ar  
 14   7  27  1   
 15   8  28  1   
 16   9  10  am  
 17   9  29  1   
 18  10  11  2   
 19  10  12  1   
 20  12  13  1   
 21  12  14  1   
 22  12  30  1   
 23  13  15  1   
 24  13  16  1   
 25  13  31  1   
 26  14  17  1   
 27  14  32  1   
 28  14  33  1   
 29  15  18  ar  
 30  15  19  ar  
 31  16  20  1   
 32  16  34  1   
 33  16  35  1   
 34  17  20  2   
 35  17  21  1   
 36  20  22  1   
 37  21  36  1   
 38  21  37  1   
 39  21  38  1   
 40  22  39  1   
 41  22  40  1   
 42  22  41  1   
@<TRIPOS>SUBSTRUCTURE
  1 ****   9 GROUP 4 **** **** 0

# MOE 2024.06 (io_trps.svl 2023.06)
