@<TRIPOS>MOLECULE
NONAME
53 54 1 0 0 
SMALL
USER_CHARGES


@<TRIPOS>ATOM
  1 S        0.6680    -0.2230    -1.0700 S.o2  1 <1>   1.3330 
  2 O        0.8330    -0.3410     0.3570 O.2   1 <1>  -0.6500 
  3 O        1.7850    -0.4930    -1.9460 O.2   1 <1>  -0.6500 
  4 N        0.1320     1.3820    -1.4250 N.am  1 <1>  -0.6930 
  5 C       -0.7140    -1.2090    -1.6010 C.3   1 <1>  -0.1350 
  6 C       -0.8890     1.9370    -0.6560 C.ar  1 <1>   0.1990 
  7 C        1.1750     2.2880    -2.0120 C.3   1 <1>   0.3370 
  8 C       -2.1700     2.0430    -1.1840 C.ar  1 <1>  -0.1500 
  9 C       -0.6590     2.3910     0.6360 C.ar  1 <1>  -0.1500 
 10 C        2.3240     2.6150    -1.0260 C.2   1 <1>   0.5690 
 11 C        0.5170     3.5410    -2.6170 C.3   1 <1>  -0.2400 
 12 C       -3.2030     2.5870    -0.4410 C.ar  1 <1>  -0.1500 
 13 C       -1.6860     2.9360     1.3840 C.ar  1 <1>  -0.1500 
 14 O        2.3440     3.6740    -0.4410 O.2   1 <1>  -0.5700 
 15 N        3.2980     1.6840    -0.8340 N.am  1 <1>  -0.7300 
 16 C       -2.9630     3.0370     0.8550 C.ar  1 <1>   0.0830 
 17 C        4.3470     1.7470     0.1900 C.3   1 <1>   0.2200 
 18 O       -3.9140     3.5840     1.6580 O.3   1 <1>  -0.3630 
 19 C        5.6950     1.4200    -0.4610 C.3   1 <1>  -0.1600 
 20 C        4.0050     0.7440     1.2960 C.3   1 <1>  -0.1600 
 21 C       -5.2320     3.7670     1.1980 C.3   1 <1>   0.1200 
 22 C        6.8150     1.3510     0.5870 C.3   1 <1>  -0.1600 
 23 C        5.1220     0.6720     2.3480 C.3   1 <1>  -0.1600 
 24 C       -6.0370     4.4160     2.3200 C.3   1 <1>  -0.2400 
 25 C        6.4740     0.3480     1.6980 C.3   1 <1>  -0.1600 
 26 H       -0.4970    -2.2500    -1.4620 H     1 <1>   0.0800 
 27 H       -0.9180    -1.0340    -2.6380 H     1 <1>   0.0800 
 28 H       -1.5860    -0.9610    -1.0270 H     1 <1>   0.0800 
 29 H        1.6260     1.7690    -2.8390 H     1 <1>   0.0800 
 30 H       -2.3510     1.7010    -2.1860 H     1 <1>   0.1500 
 31 H        0.3290     2.3160     1.0570 H     1 <1>   0.1500 
 32 H        0.0880     4.1560    -1.8460 H     1 <1>   0.0800 
 33 H       -0.2430     3.2620    -3.3240 H     1 <1>   0.0800 
 34 H        1.2620     4.1240    -3.1260 H     1 <1>   0.0800 
 35 H       -4.1790     2.6520    -0.8830 H     1 <1>   0.1500 
 36 H       -1.5030     3.2850     2.3840 H     1 <1>   0.1500 
 37 H        3.1890     0.7600    -1.2720 H     1 <1>   0.3700 
 38 H        4.3880     2.7390     0.6110 H     1 <1>   0.0800 
 39 H        5.9310     2.1770    -1.1870 H     1 <1>   0.0800 
 40 H        5.6290     0.4710    -0.9650 H     1 <1>   0.0800 
 41 H        3.8630    -0.2330     0.8660 H     1 <1>   0.0800 
 42 H        3.0850     1.0390     1.7700 H     1 <1>   0.0800 
 43 H       -5.6420     2.8050     0.9430 H     1 <1>   0.0800 
 44 H       -5.2050     4.4060     0.3310 H     1 <1>   0.0800 
 45 H        6.9570     2.3270     1.0200 H     1 <1>   0.0800 
 46 H        7.7370     1.0640     0.1120 H     1 <1>   0.0800 
 47 H        4.8800    -0.0810     3.0770 H     1 <1>   0.0800 
 48 H        5.1880     1.6180     2.8590 H     1 <1>   0.0800 
 49 H       -6.0430     3.7780     3.1850 H     1 <1>   0.0800 
 50 H       -7.0500     4.5710     1.9990 H     1 <1>   0.0800 
 51 H       -5.6070     5.3670     2.5780 H     1 <1>   0.0800 
 52 H        7.2470     0.3640     2.4480 H     1 <1>   0.0800 
 53 H        6.4390    -0.6440     1.2830 H     1 <1>   0.0800 
@<TRIPOS>BOND
  1   1   2  2   
  2   1   3  2   
  3   1   4  am  
  4   1   5  1   
  5   4   6  1   
  6   4   7  1   
  7   5  26  1   
  8   5  27  1   
  9   5  28  1   
 10   6   8  ar  
 11   6   9  ar  
 12   7  10  1   
 13   7  11  1   
 14   7  29  1   
 15   8  12  ar  
 16   8  30  1   
 17   9  13  ar  
 18   9  31  1   
 19  10  14  2   
 20  10  15  am  
 21  11  32  1   
 22  11  33  1   
 23  11  34  1   
 24  12  16  ar  
 25  12  35  1   
 26  13  16  ar  
 27  13  36  1   
 28  15  17  1   
 29  15  37  1   
 30  16  18  1   
 31  17  19  1   
 32  17  20  1   
 33  17  38  1   
 34  18  21  1   
 35  19  22  1   
 36  19  39  1   
 37  19  40  1   
 38  20  23  1   
 39  20  41  1   
 40  20  42  1   
 41  21  24  1   
 42  21  43  1   
 43  21  44  1   
 44  22  25  1   
 45  22  45  1   
 46  22  46  1   
 47  23  25  1   
 48  23  47  1   
 49  23  48  1   
 50  24  49  1   
 51  24  50  1   
 52  24  51  1   
 53  25  52  1   
 54  25  53  1   
@<TRIPOS>SUBSTRUCTURE
  1 ****   4 GROUP 4 **** **** 0

# MOE 2024.06 (io_trps.svl 2023.06)
