@<TRIPOS>MOLECULE
NONAME
40 39 1 0 0 
SMALL
USER_CHARGES


@<TRIPOS>ATOM
  1 O       -0.2970     1.2670    -0.3710 O.2   1 <1>  -0.5700 
  2 C       -1.3440     1.0510    -0.9260 C.2   1 <1>   0.6590 
  3 O       -2.3700     1.8900    -0.9290 O.3   1 <1>  -0.4300 
  4 C       -1.5690    -0.2320    -1.6830 C.3   1 <1>  -0.1790 
  5 C       -2.4430     3.1250    -0.2490 C.3   1 <1>   0.4800 
  6 C       -1.2830     3.9870    -0.6480 C.1   1 <1>  -0.2000 
  7 C       -2.4570     2.8880     1.2790 C.3   1 <1>  -0.1600 
  8 C       -3.7330     3.7930    -0.7300 C.3   1 <1>  -0.2400 
  9 C       -0.2850     4.5520    -0.9610 C.1   1 <1>  -0.2000 
 10 C       -3.5320     1.9120     1.7930 C.3   1 <1>  -0.2400 
 11 C        1.0470     5.0910    -1.3380 C.3   1 <1>   0.5430 
 12 N        2.0150     4.7550    -0.2580 N.4   1 <1>  -0.9590 
 13 C        3.2960     5.4790    -0.4720 C.3   1 <1>   0.3430 
 14 C        2.1830     3.2780    -0.1150 C.3   1 <1>   0.3430 
 15 C        4.1520     5.4410     0.7870 C.3   1 <1>  -0.2400 
 16 C        1.9090     2.8970     1.3340 C.3   1 <1>  -0.2400 
 17 H       -1.7770    -0.0100    -2.7130 H     1 <1>   0.0800 
 18 H       -2.4020    -0.7580    -1.2570 H     1 <1>   0.0800 
 19 H       -0.6930    -0.8520    -1.6240 H     1 <1>   0.0800 
 20 H       -2.5960     3.8360     1.7680 H     1 <1>   0.0800 
 21 H       -1.4930     2.5250     1.5830 H     1 <1>   0.0800 
 22 H       -3.6750     3.9930    -1.7850 H     1 <1>   0.0800 
 23 H       -3.8810     4.7250    -0.2170 H     1 <1>   0.0800 
 24 H       -4.5810     3.1610    -0.5450 H     1 <1>   0.0800 
 25 H       -4.5210     2.2870     1.6010 H     1 <1>   0.0800 
 26 H       -3.4260     1.7830     2.8560 H     1 <1>   0.0800 
 27 H       -3.4280     0.9480     1.3270 H     1 <1>   0.0800 
 28 H        0.9750     6.1600    -1.4560 H     1 <1>   0.0800 
 29 H        1.3640     4.6590    -2.2730 H     1 <1>   0.0800 
 30 H        1.5800     5.0820     0.6120 H     1 <1>   0.4500 
 31 H        3.0900     6.5100    -0.7150 H     1 <1>   0.0800 
 32 H        3.8370     5.0420    -1.2970 H     1 <1>   0.0800 
 33 H        3.1800     2.9800    -0.3950 H     1 <1>   0.0800 
 34 H        1.4850     2.7530    -0.7500 H     1 <1>   0.0800 
 35 H        3.6110     5.8260     1.6330 H     1 <1>   0.0800 
 36 H        5.0210     6.0580     0.6410 H     1 <1>   0.0800 
 37 H        4.4960     4.4440     0.9960 H     1 <1>   0.0800 
 38 H        2.6080     3.3570     2.0070 H     1 <1>   0.0800 
 39 H        2.0010     1.8300     1.4350 H     1 <1>   0.0800 
 40 H        0.9050     3.1620     1.6100 H     1 <1>   0.0800 
@<TRIPOS>BOND
  1   1   2  2   
  2   2   3  1   
  3   2   4  1   
  4   3   5  1   
  5   4  17  1   
  6   4  18  1   
  7   4  19  1   
  8   5   6  1   
  9   5   7  1   
 10   5   8  1   
 11   6   9  3   
 12   7  10  1   
 13   7  20  1   
 14   7  21  1   
 15   8  22  1   
 16   8  23  1   
 17   8  24  1   
 18   9  11  1   
 19  10  25  1   
 20  10  26  1   
 21  10  27  1   
 22  11  12  1   
 23  11  28  1   
 24  11  29  1   
 25  12  13  1   
 26  12  14  1   
 27  12  30  1   
 28  13  15  1   
 29  13  31  1   
 30  13  32  1   
 31  14  16  1   
 32  14  33  1   
 33  14  34  1   
 34  15  35  1   
 35  15  36  1   
 36  15  37  1   
 37  16  38  1   
 38  16  39  1   
 39  16  40  1   
@<TRIPOS>SUBSTRUCTURE
  1 ****   6 GROUP 4 **** **** 0

# MOE 2024.06 (io_trps.svl 2023.06)
