@<TRIPOS>MOLECULE
NONAME
32 32 1 0 0 
SMALL
USER_CHARGES


@<TRIPOS>ATOM
  1 CL      -0.1330    -0.8340     0.7150 Cl    1 <1>  -0.1770 
  2 C        1.4440    -1.4370     0.2570 C.ar  1 <1>   0.1770 
  3 C        2.1980    -2.2250     1.1170 C.ar  1 <1>  -0.1440 
  4 C        1.9060    -1.0940    -1.0010 C.ar  1 <1>  -0.1500 
  5 C        3.4420    -2.6660     0.6720 C.ar  1 <1>  -0.1500 
  6 C        1.6640    -2.5850     2.5050 C.3   1 <1>   1.1640 
  7 C        3.1440    -1.5410    -1.4220 C.ar  1 <1>  -0.1500 
  8 C        3.9240    -2.3350    -0.5910 C.ar  1 <1>   0.1990 
  9 F        0.5290    -3.2700     2.4470 F     1 <1>  -0.3400 
 10 F        2.5030    -3.3390     3.2050 F     1 <1>  -0.3400 
 11 F        1.4270    -1.5160     3.2540 F     1 <1>  -0.3400 
 12 N        5.1660    -2.7710    -1.0340 N.am  1 <1>  -0.6930 
 13 S        5.4770    -4.4540    -1.2970 S.o2  1 <1>   1.3330 
 14 C        6.3560    -1.9910    -0.5670 C.3   1 <1>   0.2570 
 15 O        6.7840    -4.5350    -1.8970 O.2   1 <1>  -0.6500 
 16 O        5.1710    -5.1430    -0.0680 O.2   1 <1>  -0.6500 
 17 C        4.2710    -4.8720    -2.5380 C.3   1 <1>  -0.1350 
 18 C        6.8230    -2.3530     0.8440 C.2   1 <1>   0.6590 
 19 O        6.3930    -1.7840     1.8150 O.2   1 <1>  -0.5700 
 20 O        7.7180    -3.3290     0.9380 O.3   1 <1>  -0.4300 
 21 C        8.1510    -3.8280     2.1850 C.3   1 <1>   0.0400 
 22 H        1.2980    -0.4790    -1.6410 H     1 <1>   0.1500 
 23 H        4.0620    -3.2760     1.3090 H     1 <1>   0.1500 
 24 H        3.5140    -1.2760    -2.3960 H     1 <1>   0.1500 
 25 H        6.1100    -0.9440    -0.5740 H     1 <1>   0.0800 
 26 H        7.1740    -2.1380    -1.2490 H     1 <1>   0.0800 
 27 H        4.4120    -4.2640    -3.4100 H     1 <1>   0.0800 
 28 H        3.2800    -4.7180    -2.1610 H     1 <1>   0.0800 
 29 H        4.3760    -5.9020    -2.8170 H     1 <1>   0.0800 
 30 H        8.8680    -4.6090     2.0070 H     1 <1>   0.0800 
 31 H        7.3000    -4.2220     2.7130 H     1 <1>   0.0800 
 32 H        8.6010    -3.0280     2.7460 H     1 <1>   0.0800 
@<TRIPOS>BOND
  1   1   2  1   
  2   2   3  ar  
  3   2   4  ar  
  4   3   5  ar  
  5   3   6  1   
  6   4   7  ar  
  7   4  22  1   
  8   5   8  ar  
  9   5  23  1   
 10   6   9  1   
 11   6  10  1   
 12   6  11  1   
 13   7   8  ar  
 14   7  24  1   
 15   8  12  1   
 16  12  13  am  
 17  12  14  1   
 18  13  15  2   
 19  13  16  2   
 20  13  17  1   
 21  14  18  1   
 22  14  25  1   
 23  14  26  1   
 24  17  27  1   
 25  17  28  1   
 26  17  29  1   
 27  18  19  2   
 28  18  20  1   
 29  20  21  1   
 30  21  30  1   
 31  21  31  1   
 32  21  32  1   
@<TRIPOS>SUBSTRUCTURE
  1 ****   5 GROUP 4 **** **** 0

# MOE 2024.06 (io_trps.svl 2023.06)
