@<TRIPOS>MOLECULE
NONAME
51 53 1 0 0 
SMALL
USER_CHARGES


@<TRIPOS>ATOM
  1 O        1.3030    -0.5310     0.1440 O.2   1 <1>  -0.5700 
  2 C        1.1880    -1.4300    -0.6660 C.2   1 <1>   0.6900 
  3 N        2.2390    -1.7050    -1.4900 N.am  1 <1>  -0.6600 
  4 N        0.0800    -2.2110    -0.7680 N.am  1 <1>  -0.5470 
  5 C        3.0110    -0.5470    -2.0240 C.3   1 <1>   0.1400 
  6 C        3.1130    -2.8400    -1.0930 C.3   1 <1>   0.1400 
  7 C       -1.0920    -2.2730     0.0030 C.ar  1 <1>   0.1170 
  8 C        4.0620    -0.0770    -0.9980 C.3   1 <1>   0.3430 
  9 C        4.1570    -2.3670    -0.0590 C.3   1 <1>   0.3430 
 10 C       -2.2240    -2.8560    -0.5540 C.ar  1 <1>  -0.1500 
 11 C       -1.1700    -1.7940     1.3080 C.ar  1 <1>  -0.1500 
 12 N        4.9810    -1.1920    -0.5410 N.4   1 <1>  -0.9590 
 13 C       -3.4030    -2.9610     0.1640 C.ar  1 <1>  -0.1500 
 14 C       -2.3460    -1.8960     2.0290 C.ar  1 <1>  -0.1500 
 15 C        5.9570    -0.7210     0.4940 C.3   1 <1>   0.4230 
 16 C       -3.4690    -2.4780     1.4670 C.ar  1 <1>   0.0830 
 17 C        6.7980     0.4490    -0.0570 C.3   1 <1>  -0.1600 
 18 C        6.8810    -1.8780     0.9250 C.3   1 <1>  -0.1600 
 19 O       -4.5820    -2.5390     2.2450 O.3   1 <1>  -0.3630 
 20 C        7.8840     0.9000     0.9290 C.3   1 <1>  -0.1600 
 21 C        7.9670    -1.4200     1.9090 C.3   1 <1>  -0.1600 
 22 C       -5.7820    -3.0900     1.7510 C.3   1 <1>   0.0400 
 23 C        8.7900    -0.2660     1.3320 C.3   1 <1>  -0.1600 
 24 H        0.0680    -2.7660    -1.6180 H     1 <1>   0.3700 
 25 H        2.3350     0.2660    -2.2320 H     1 <1>   0.0800 
 26 H        3.4880    -0.8230    -2.9480 H     1 <1>   0.0800 
 27 H        3.6040    -3.2420    -1.9620 H     1 <1>   0.0800 
 28 H        2.5150    -3.6230    -0.6590 H     1 <1>   0.0800 
 29 H        3.5400     0.3300    -0.1460 H     1 <1>   0.0800 
 30 H        4.6350     0.7190    -1.4430 H     1 <1>   0.0800 
 31 H        4.8010    -3.1980     0.1740 H     1 <1>   0.0800 
 32 H        3.6350    -2.0900     0.8430 H     1 <1>   0.0800 
 33 H       -2.1900    -3.2320    -1.5600 H     1 <1>   0.1500 
 34 H       -0.3150    -1.3400     1.7730 H     1 <1>   0.1500 
 35 H        5.5300    -1.4990    -1.3520 H     1 <1>   0.4500 
 36 H       -4.2550    -3.4170    -0.3040 H     1 <1>   0.1500 
 37 H       -2.4000    -1.5220     3.0360 H     1 <1>   0.1500 
 38 H        5.4190    -0.3730     1.3620 H     1 <1>   0.0800 
 39 H        6.1790     1.3050    -0.2510 H     1 <1>   0.0800 
 40 H        7.2750     0.1520    -0.9760 H     1 <1>   0.0800 
 41 H        7.3630    -2.3000     0.0590 H     1 <1>   0.0800 
 42 H        6.3210    -2.6500     1.4190 H     1 <1>   0.0800 
 43 H        7.4240     1.3140     1.8120 H     1 <1>   0.0800 
 44 H        8.4820     1.6770     0.4810 H     1 <1>   0.0800 
 45 H        8.6220    -2.2450     2.1360 H     1 <1>   0.0800 
 46 H        7.5110    -1.1040     2.8330 H     1 <1>   0.0800 
 47 H       -6.5230    -3.0240     2.5270 H     1 <1>   0.0800 
 48 H       -5.6130    -4.1200     1.4940 H     1 <1>   0.0800 
 49 H       -6.1000    -2.5230     0.8940 H     1 <1>   0.0800 
 50 H        9.5040     0.0700     2.0660 H     1 <1>   0.0800 
 51 H        9.3440    -0.6080     0.4730 H     1 <1>   0.0800 
@<TRIPOS>BOND
  1   1   2  2   
  2   2   3  am  
  3   2   4  am  
  4   3   5  1   
  5   3   6  1   
  6   4   7  1   
  7   4  24  1   
  8   5   8  1   
  9   5  25  1   
 10   5  26  1   
 11   6   9  1   
 12   6  27  1   
 13   6  28  1   
 14   7  10  ar  
 15   7  11  ar  
 16   8  12  1   
 17   8  29  1   
 18   8  30  1   
 19   9  12  1   
 20   9  31  1   
 21   9  32  1   
 22  10  13  ar  
 23  10  33  1   
 24  11  14  ar  
 25  11  34  1   
 26  12  15  1   
 27  12  35  1   
 28  13  16  ar  
 29  13  36  1   
 30  14  16  ar  
 31  14  37  1   
 32  15  17  1   
 33  15  18  1   
 34  15  38  1   
 35  16  19  1   
 36  17  20  1   
 37  17  39  1   
 38  17  40  1   
 39  18  21  1   
 40  18  41  1   
 41  18  42  1   
 42  19  22  1   
 43  20  23  1   
 44  20  43  1   
 45  20  44  1   
 46  21  23  1   
 47  21  45  1   
 48  21  46  1   
 49  22  47  1   
 50  22  48  1   
 51  22  49  1   
 52  23  50  1   
 53  23  51  1   
@<TRIPOS>SUBSTRUCTURE
  1 ****   1 GROUP 4 **** **** 0

# MOE 2024.06 (io_trps.svl 2023.06)
