@<TRIPOS>MOLECULE
NONAME
47 50 1 0 0 
SMALL
USER_CHARGES


@<TRIPOS>ATOM
  1 CL      -3.5950     1.9870    -3.4680 Cl    1 <1>  -0.1770 
  2 C       -3.7000     0.7200    -2.2720 C.ar  1 <1>   0.1770 
  3 C       -4.7730     0.6940    -1.4070 C.ar  1 <1>  -0.1500 
  4 C       -2.7050    -0.2370    -2.2140 C.ar  1 <1>  -0.1500 
  5 C       -4.8690    -0.3110    -0.4510 C.ar  1 <1>   0.1000 
  6 C       -2.7930    -1.2400    -1.2640 C.ar  1 <1>  -0.1500 
  7 N       -5.9520    -0.3420     0.4240 N.pl3 1 <1>  -0.8380 
  8 C       -3.8660    -1.2820    -0.3850 C.ar  1 <1>  -0.1430 
  9 C       -7.2880    -0.6220    -0.1830 C.3   1 <1>   0.2090 
 10 C       -5.9990     0.7390     1.4580 C.3   1 <1>   0.2090 
 11 C       -3.9440    -2.3930     0.6520 C.3   1 <1>  -0.0970 
 12 C       -8.3280    -0.9410     0.9040 C.3   1 <1>   0.1400 
 13 C       -7.0520     0.4320     2.5380 C.3   1 <1>   0.1400 
 14 N       -8.3890     0.1610     1.9190 N.am  1 <1>  -0.6600 
 15 C       -9.4650     0.9930     2.1340 C.2   1 <1>   0.5690 
 16 O       -9.3960     1.8940     2.9410 O.2   1 <1>  -0.5700 
 17 C      -10.7870     0.7940     1.3790 C.3   1 <1>   0.2610 
 18 O      -10.5910     0.9620    -0.0250 O.3   1 <1>  -0.3630 
 19 C      -11.8960     1.7470     1.8570 C.3   1 <1>   0.1200 
 20 C      -11.7030     1.0890    -0.7930 C.ar  1 <1>   0.0830 
 21 O      -13.0850     1.5290     1.1170 O.3   1 <1>  -0.3630 
 22 C      -12.9490     1.3560    -0.2220 C.ar  1 <1>   0.0830 
 23 C      -11.5880     0.9440    -2.1650 C.ar  1 <1>  -0.1500 
 24 C      -14.0710     1.4540    -1.0270 C.ar  1 <1>  -0.1500 
 25 C      -12.7130     1.0480    -2.9670 C.ar  1 <1>  -0.1500 
 26 C      -13.9520     1.3000    -2.3990 C.ar  1 <1>  -0.1500 
 27 H       -5.5310     1.4490    -1.4730 H     1 <1>   0.1500 
 28 H       -1.8790    -0.1950    -2.9000 H     1 <1>   0.1500 
 29 H       -2.0210    -1.9880    -1.2140 H     1 <1>   0.1500 
 30 H       -7.2020    -1.4580    -0.8560 H     1 <1>   0.0800 
 31 H       -7.6170     0.2320    -0.7490 H     1 <1>   0.0800 
 32 H       -6.2390     1.6770     0.9890 H     1 <1>   0.0800 
 33 H       -5.0310     0.8320     1.9170 H     1 <1>   0.0800 
 34 H       -4.8490    -2.9550     0.5120 H     1 <1>   0.0800 
 35 H       -3.9550    -1.9660     1.6380 H     1 <1>   0.0800 
 36 H       -3.1060    -3.0610     0.5740 H     1 <1>   0.0800 
 37 H       -8.0410    -1.8540     1.3960 H     1 <1>   0.0800 
 38 H       -9.2820    -1.1080     0.4420 H     1 <1>   0.0800 
 39 H       -7.1060     1.2610     3.2210 H     1 <1>   0.0800 
 40 H       -6.7390    -0.4330     3.0950 H     1 <1>   0.0800 
 41 H      -11.1160    -0.2150     1.5400 H     1 <1>   0.0800 
 42 H      -11.5950     2.7710     1.7200 H     1 <1>   0.0800 
 43 H      -12.1160     1.5840     2.8960 H     1 <1>   0.0800 
 44 H      -10.6240     0.7490    -2.5990 H     1 <1>   0.1500 
 45 H      -15.0270     1.6540    -0.5780 H     1 <1>   0.1500 
 46 H      -12.6250     0.9340    -4.0340 H     1 <1>   0.1500 
 47 H      -14.8250     1.3790    -3.0240 H     1 <1>   0.1500 
@<TRIPOS>BOND
  1   1   2  1   
  2   2   3  ar  
  3   2   4  ar  
  4   3   5  ar  
  5   3  27  1   
  6   4   6  ar  
  7   4  28  1   
  8   5   7  1   
  9   5   8  ar  
 10   6   8  ar  
 11   6  29  1   
 12   7   9  1   
 13   7  10  1   
 14   8  11  1   
 15   9  12  1   
 16   9  30  1   
 17   9  31  1   
 18  10  13  1   
 19  10  32  1   
 20  10  33  1   
 21  11  34  1   
 22  11  35  1   
 23  11  36  1   
 24  12  14  1   
 25  12  37  1   
 26  12  38  1   
 27  13  14  1   
 28  13  39  1   
 29  13  40  1   
 30  14  15  am  
 31  15  16  2   
 32  15  17  1   
 33  17  18  1   
 34  17  19  1   
 35  17  41  1   
 36  18  20  1   
 37  19  21  1   
 38  19  42  1   
 39  19  43  1   
 40  20  22  ar  
 41  20  23  ar  
 42  21  22  1   
 43  22  24  ar  
 44  23  25  ar  
 45  23  44  1   
 46  24  26  ar  
 47  24  45  1   
 48  25  26  ar  
 49  25  46  1   
 50  26  47  1   
@<TRIPOS>SUBSTRUCTURE
  1 ****   9 GROUP 4 **** **** 0

# MOE 2024.06 (io_trps.svl 2023.06)
