@<TRIPOS>MOLECULE
NONAME
49 51 1 0 0 
SMALL
USER_CHARGES


@<TRIPOS>ATOM
  1 O        1.7000     2.6350     1.5890 O.2   1 <1>  -0.5700 
  2 C        0.9320     2.1960     0.7520 C.2   1 <1>   0.5440 
  3 N        1.2870     1.0020     0.1850 N.am  1 <1>  -0.7300 
  4 C       -0.2420     2.9610     0.3410 C.ar  1 <1>   0.0860 
  5 C        2.1180    -0.0480     0.8240 C.3   1 <1>   0.1400 
  6 C       -1.3330     2.4140    -0.3690 C.ar  1 <1>   0.0000 
  7 C       -0.2980     4.3230     0.6550 C.ar  1 <1>  -0.1500 
  8 C        3.4500    -0.2280     0.0810 C.3   1 <1>  -0.1600 
  9 C       -1.4140     1.0220    -0.7380 C.ar  1 <1>   0.0000 
 10 C       -2.3940     3.2360    -0.7380 C.ar  1 <1>  -0.1500 
 11 C       -1.3590     5.1240     0.2820 C.ar  1 <1>  -0.1500 
 12 C        4.5520     0.7480     0.5130 C.3   1 <1>   0.3430 
 13 C       -1.1250     0.6130    -2.0370 C.ar  1 <1>  -0.1500 
 14 C       -1.7510     0.0500     0.1990 C.ar  1 <1>  -0.1500 
 15 C       -2.4130     4.5780    -0.4210 C.ar  1 <1>  -0.1500 
 16 N        4.1340     2.1550     0.3290 N.4   1 <1>  -0.9590 
 17 C       -1.1490    -0.7250    -2.3830 C.ar  1 <1>  -0.1500 
 18 C       -1.7770    -1.2890    -0.1430 C.ar  1 <1>  -0.1500 
 19 C        4.0070     2.5740    -1.1050 C.3   1 <1>   0.3430 
 20 C        4.9730     3.1230     1.1050 C.3   1 <1>   0.3430 
 21 C       -1.4720    -1.6790    -1.4350 C.ar  1 <1>  -0.1500 
 22 C        3.5780     4.0490    -1.2170 C.3   1 <1>   0.1200 
 23 C        4.4890     4.5700     0.8870 C.3   1 <1>   0.1200 
 24 O        4.4410     4.8670    -0.4800 O.3   1 <1>  -0.5600 
 25 H        0.6050     0.6100    -0.4810 H     1 <1>   0.3700 
 26 H        1.5650    -0.9730     0.7880 H     1 <1>   0.0800 
 27 H        2.2890     0.1860     1.8630 H     1 <1>   0.0800 
 28 H        0.5080     4.7730     1.2080 H     1 <1>   0.1500 
 29 H        3.2950    -0.1960    -0.9820 H     1 <1>   0.0800 
 30 H        3.8100    -1.2160     0.3070 H     1 <1>   0.0800 
 31 H       -3.2220     2.8110    -1.2810 H     1 <1>   0.1500 
 32 H       -1.3680     6.1700     0.5400 H     1 <1>   0.1500 
 33 H        5.4520     0.5560    -0.0480 H     1 <1>   0.0800 
 34 H        4.7670     0.5780     1.5560 H     1 <1>   0.0800 
 35 H       -0.8810     1.3520    -2.7820 H     1 <1>   0.1500 
 36 H       -1.9940     0.3480     1.2050 H     1 <1>   0.1500 
 37 H       -3.2450     5.1950    -0.7160 H     1 <1>   0.1500 
 38 H        3.1760     2.2260     0.7370 H     1 <1>   0.4500 
 39 H       -0.9240    -1.0280    -3.3920 H     1 <1>   0.1500 
 40 H       -2.0410    -2.0300     0.5940 H     1 <1>   0.1500 
 41 H        3.2780     1.9570    -1.6030 H     1 <1>   0.0800 
 42 H        4.9520     2.4510    -1.6080 H     1 <1>   0.0800 
 43 H        6.0010     3.0530     0.7910 H     1 <1>   0.0800 
 44 H        4.9230     2.8900     2.1560 H     1 <1>   0.0800 
 45 H       -1.4950    -2.7220    -1.7030 H     1 <1>   0.1500 
 46 H        2.5740     4.1880    -0.8540 H     1 <1>   0.0800 
 47 H        3.6180     4.3710    -2.2430 H     1 <1>   0.0800 
 48 H        5.1700     5.2620     1.3500 H     1 <1>   0.0800 
 49 H        3.5100     4.7150     1.3110 H     1 <1>   0.0800 
@<TRIPOS>BOND
  1   1   2  2   
  2   2   3  am  
  3   2   4  1   
  4   3   5  1   
  5   3  25  1   
  6   4   6  ar  
  7   4   7  ar  
  8   5   8  1   
  9   5  26  1   
 10   5  27  1   
 11   6   9  1   
 12   6  10  ar  
 13   7  11  ar  
 14   7  28  1   
 15   8  12  1   
 16   8  29  1   
 17   8  30  1   
 18   9  13  ar  
 19   9  14  ar  
 20  10  15  ar  
 21  10  31  1   
 22  11  15  ar  
 23  11  32  1   
 24  12  16  1   
 25  12  33  1   
 26  12  34  1   
 27  13  17  ar  
 28  13  35  1   
 29  14  18  ar  
 30  14  36  1   
 31  15  37  1   
 32  16  19  1   
 33  16  20  1   
 34  16  38  1   
 35  17  21  ar  
 36  17  39  1   
 37  18  21  ar  
 38  18  40  1   
 39  19  22  1   
 40  19  41  1   
 41  19  42  1   
 42  20  23  1   
 43  20  43  1   
 44  20  44  1   
 45  21  45  1   
 46  22  24  1   
 47  22  46  1   
 48  22  47  1   
 49  23  24  1   
 50  23  48  1   
 51  23  49  1   
@<TRIPOS>SUBSTRUCTURE
  1 ****   2 GROUP 4 **** **** 0

# MOE 2024.06 (io_trps.svl 2023.06)
