@<TRIPOS>MOLECULE
NONAME
34 35 1 0 0 
SMALL
USER_CHARGES


@<TRIPOS>ATOM
  1 S       -0.0330    -3.0690     0.7550 S.3   1 <1>  -0.2860 
  2 C        1.3230    -1.9010     0.5700 C.2   1 <1>   0.2420 
  3 C       -1.4060    -2.0430     1.4470 C.3   1 <1>   0.2140 
  4 N        1.3150    -0.7030     1.0360 N.2   1 <1>  -0.3380 
  5 N        2.4480    -2.2170    -0.0690 N.pl3 1 <1>   0.0480 
  6 C       -2.1980    -1.4660     0.2840 C.ar  1 <1>  -0.1440 
  7 N        2.4930    -0.1750     0.6960 N.2   1 <1>  -0.3380 
  8 C        3.1560    -1.0800     0.0470 C.2   1 <1>   0.0070 
  9 C        2.7860    -3.4980    -0.7230 C.3   1 <1>   0.0160 
 10 C       -3.2590    -2.1820    -0.2590 C.ar  1 <1>  -0.1500 
 11 C       -1.8610    -0.2230    -0.2390 C.ar  1 <1>  -0.1500 
 12 C        4.5610    -0.8890    -0.5270 C.3   1 <1>   0.1000 
 13 C       -3.9860    -1.6600    -1.3160 C.ar  1 <1>  -0.1500 
 14 C       -2.5800     0.3090    -1.2970 C.ar  1 <1>  -0.1500 
 15 C        5.3790     0.1180     0.2910 C.3   1 <1>  -0.2400 
 16 C        4.4730    -0.4290    -1.9860 C.3   1 <1>  -0.2400 
 17 C       -3.6310    -0.4220    -1.8150 C.ar  1 <1>   0.1900 
 18 F       -4.3140     0.0750    -2.8120 F     1 <1>  -0.1900 
 19 H       -0.9740    -1.2760     2.0650 H     1 <1>   0.0800 
 20 H       -2.0120    -2.6940     2.0490 H     1 <1>   0.0800 
 21 H        3.1410    -4.1900     0.0190 H     1 <1>   0.0800 
 22 H        3.5450    -3.3440    -1.4670 H     1 <1>   0.0800 
 23 H        1.9090    -3.9010    -1.1960 H     1 <1>   0.0800 
 24 H       -3.5200    -3.1480     0.1380 H     1 <1>   0.1500 
 25 H       -1.0350     0.3330     0.1730 H     1 <1>   0.1500 
 26 H        5.0800    -1.8300    -0.4900 H     1 <1>   0.0800 
 27 H       -4.8090    -2.1990    -1.7480 H     1 <1>   0.1500 
 28 H       -2.3290     1.2680    -1.7120 H     1 <1>   0.1500 
 29 H        4.9200     1.0910     0.2580 H     1 <1>   0.0800 
 30 H        6.3800     0.1940    -0.0930 H     1 <1>   0.0800 
 31 H        5.4270    -0.1970     1.3190 H     1 <1>   0.0800 
 32 H        3.9590     0.5140    -2.0430 H     1 <1>   0.0800 
 33 H        3.9310    -1.1460    -2.5750 H     1 <1>   0.0800 
 34 H        5.4570    -0.3130    -2.4040 H     1 <1>   0.0800 
@<TRIPOS>BOND
  1   1   2  1   
  2   1   3  1   
  3   2   4  2   
  4   2   5  1   
  5   3   6  1   
  6   3  19  1   
  7   3  20  1   
  8   4   7  1   
  9   5   8  1   
 10   5   9  1   
 11   6  10  ar  
 12   6  11  ar  
 13   7   8  2   
 14   8  12  1   
 15   9  21  1   
 16   9  22  1   
 17   9  23  1   
 18  10  13  ar  
 19  10  24  1   
 20  11  14  ar  
 21  11  25  1   
 22  12  15  1   
 23  12  16  1   
 24  12  26  1   
 25  13  17  ar  
 26  13  27  1   
 27  14  17  ar  
 28  14  28  1   
 29  15  29  1   
 30  15  30  1   
 31  15  31  1   
 32  16  32  1   
 33  16  33  1   
 34  16  34  1   
 35  17  18  1   
@<TRIPOS>SUBSTRUCTURE
  1 ****   2 GROUP 4 **** **** 0

# MOE 2024.06 (io_trps.svl 2023.06)
