@<TRIPOS>MOLECULE
NONAME
48 50 1 0 0 
SMALL
USER_CHARGES


@<TRIPOS>ATOM
  1 O        0.0360     0.0000    -0.6610 O.2   1 <1>  -0.5700 
  2 C        0.8920     0.7840    -0.3250 C.2   1 <1>   0.5690 
  3 N        2.1830     0.3740    -0.2290 N.am  1 <1>  -0.7300 
  4 C        0.5080     2.2460    -0.0070 C.3   1 <1>   0.0610 
  5 C        2.6530    -1.0150    -0.5130 C.3   1 <1>   0.2010 
  6 C        1.7280     3.1120     0.4060 C.3   1 <1>  -0.1600 
  7 C       -0.1420     2.8970    -1.2510 C.3   1 <1>  -0.1600 
  8 C       -0.5160     2.2770     1.1520 C.3   1 <1>  -0.1600 
  9 C        4.1590    -1.1960    -0.3190 C.2   1 <1>   0.6590 
 10 C        1.3080     4.5620     0.7150 C.3   1 <1>   0.0000 
 11 C       -0.5840     4.3450    -0.9610 C.3   1 <1>   0.0000 
 12 C       -0.9620     3.7180     1.4700 C.3   1 <1>   0.0000 
 13 O        4.8740    -0.2880     0.0290 O.2   1 <1>  -0.5700 
 14 O        4.6330    -2.4150    -0.5550 O.3   1 <1>  -0.4300 
 15 C        0.6500     5.1680    -0.5410 C.3   1 <1>  -0.1600 
 16 C        0.2770     4.5480     1.8610 C.3   1 <1>  -0.1600 
 17 C        2.5330     5.3920     1.1200 C.3   1 <1>  -0.2400 
 18 C       -1.5940     4.3320     0.2040 C.3   1 <1>  -0.1600 
 19 C       -1.2270     4.9600    -2.2100 C.3   1 <1>  -0.2400 
 20 C       -1.9780     3.7140     2.6180 C.3   1 <1>  -0.2400 
 21 C        6.0060    -2.7180    -0.4130 C.3   1 <1>   0.0400 
 22 H        2.9230     1.0240     0.0550 H     1 <1>   0.3700 
 23 H        2.4040    -1.2670    -1.5280 H     1 <1>   0.0800 
 24 H        2.1360    -1.6980     0.1360 H     1 <1>   0.0800 
 25 H        2.4530     3.1170    -0.3890 H     1 <1>   0.0800 
 26 H        2.1940     2.6870     1.2780 H     1 <1>   0.0800 
 27 H       -0.9970     2.3150    -1.5520 H     1 <1>   0.0800 
 28 H        0.5580     2.8850    -2.0680 H     1 <1>   0.0800 
 29 H       -0.0790     1.8280     2.0270 H     1 <1>   0.0800 
 30 H       -1.3760     1.6860     0.8840 H     1 <1>   0.0800 
 31 H        1.3620     5.1900    -1.3480 H     1 <1>   0.0800 
 32 H        0.3550     6.1830    -0.3400 H     1 <1>   0.0800 
 33 H        0.7250     4.1330     2.7470 H     1 <1>   0.0800 
 34 H       -0.0230     5.5560     2.0900 H     1 <1>   0.0800 
 35 H        2.9970     4.9750     1.9960 H     1 <1>   0.0800 
 36 H        2.2460     6.4050     1.3370 H     1 <1>   0.0800 
 37 H        3.2570     5.4070     0.3250 H     1 <1>   0.0800 
 38 H       -2.4620     3.7630    -0.0780 H     1 <1>   0.0800 
 39 H       -1.9170     5.3370     0.4130 H     1 <1>   0.0800 
 40 H       -0.5280     4.9710    -3.0270 H     1 <1>   0.0800 
 41 H       -1.5390     5.9710    -2.0140 H     1 <1>   0.0800 
 42 H       -2.0890     4.3900    -2.5070 H     1 <1>   0.0800 
 43 H       -1.5440     3.2850     3.5040 H     1 <1>   0.0800 
 44 H       -2.8450     3.1360     2.3500 H     1 <1>   0.0800 
 45 H       -2.2950     4.7170     2.8440 H     1 <1>   0.0800 
 46 H        6.1530    -3.7560    -0.6560 H     1 <1>   0.0800 
 47 H        6.3010    -2.5290     0.6050 H     1 <1>   0.0800 
 48 H        6.5720    -2.0960    -1.0850 H     1 <1>   0.0800 
@<TRIPOS>BOND
  1   1   2  2   
  2   2   3  am  
  3   2   4  1   
  4   3   5  1   
  5   3  22  1   
  6   4   6  1   
  7   4   7  1   
  8   4   8  1   
  9   5   9  1   
 10   5  23  1   
 11   5  24  1   
 12   6  10  1   
 13   6  25  1   
 14   6  26  1   
 15   7  11  1   
 16   7  27  1   
 17   7  28  1   
 18   8  12  1   
 19   8  29  1   
 20   8  30  1   
 21   9  13  2   
 22   9  14  1   
 23  10  15  1   
 24  10  16  1   
 25  10  17  1   
 26  11  15  1   
 27  11  18  1   
 28  11  19  1   
 29  12  16  1   
 30  12  18  1   
 31  12  20  1   
 32  14  21  1   
 33  15  31  1   
 34  15  32  1   
 35  16  33  1   
 36  16  34  1   
 37  17  35  1   
 38  17  36  1   
 39  17  37  1   
 40  18  38  1   
 41  18  39  1   
 42  19  40  1   
 43  19  41  1   
 44  19  42  1   
 45  20  43  1   
 46  20  44  1   
 47  20  45  1   
 48  21  46  1   
 49  21  47  1   
 50  21  48  1   
@<TRIPOS>SUBSTRUCTURE
  1 ****   4 GROUP 4 **** **** 0

# MOE 2024.06 (io_trps.svl 2023.06)
