@<TRIPOS>MOLECULE
NONAME
44 45 1 0 0 
SMALL
USER_CHARGES


@<TRIPOS>ATOM
  1 O        0.1220    -1.1920    -0.7090 O.3   1 <1>  -0.5600 
  2 C        1.0890    -0.7310    -1.6020 C.3   1 <1>   0.1200 
  3 C        0.3440    -0.8180     0.6170 C.3   1 <1>   0.1200 
  4 C        2.4580    -1.3100    -1.2160 C.3   1 <1>   0.1100 
  5 C        1.6840    -1.4000     1.0940 C.3   1 <1>   0.1100 
  6 N        2.7850    -0.9970     0.1940 N.3   1 <1>  -0.3020 
  7 N        4.0690    -1.6100     0.6130 N.4   1 <1>  -0.6410 
  8 C        5.2500    -0.8350     0.1670 C.3   1 <1>   0.4230 
  9 C        6.4870    -1.7250     0.3340 C.3   1 <1>  -0.1600 
 10 C        5.3380     0.4510     0.9920 C.3   1 <1>  -0.2400 
 11 C        7.7690    -1.1070    -0.2450 C.3   1 <1>  -0.0170 
 12 C        8.8950    -2.1210    -0.1570 C.ar  1 <1>  -0.1430 
 13 C        9.6460    -2.2290     1.0030 C.ar  1 <1>  -0.1500 
 14 C        9.1780    -2.9530    -1.2300 C.ar  1 <1>  -0.1500 
 15 C       10.6630    -3.1630     1.0900 C.ar  1 <1>  -0.1500 
 16 C       10.1950    -3.8880    -1.1450 C.ar  1 <1>  -0.1500 
 17 C       10.9450    -3.9980     0.0220 C.ar  1 <1>   0.0830 
 18 O       11.9560    -4.8860     0.1910 O.3   1 <1>  -0.3630 
 19 C       12.3480    -5.7580    -0.8450 C.3   1 <1>   0.0400 
 20 H        1.0980     0.3460    -1.5820 H     1 <1>   0.0800 
 21 H        0.8050    -1.0560    -2.5880 H     1 <1>   0.0800 
 22 H       -0.4680    -1.2070     1.2070 H     1 <1>   0.0800 
 23 H        0.3370     0.2570     0.6830 H     1 <1>   0.0800 
 24 H        3.2070    -0.8940    -1.8660 H     1 <1>   0.0800 
 25 H        2.4320    -2.3760    -1.3620 H     1 <1>   0.0800 
 26 H        1.6020    -2.4720     1.1230 H     1 <1>   0.0800 
 27 H        1.8830    -1.0440     2.0890 H     1 <1>   0.0800 
 28 H        4.1450    -2.5750     0.2640 H     1 <1>   0.4500 
 29 H        4.1180    -1.6630     1.6390 H     1 <1>   0.4500 
 30 H        5.1370    -0.5890    -0.8760 H     1 <1>   0.0800 
 31 H        6.3210    -2.6570    -0.1790 H     1 <1>   0.0800 
 32 H        6.6520    -1.9410     1.3760 H     1 <1>   0.0800 
 33 H        5.5080     0.2380     2.0320 H     1 <1>   0.0800 
 34 H        4.4370     1.0310     0.8910 H     1 <1>   0.0800 
 35 H        6.1480     1.0640     0.6390 H     1 <1>   0.0800 
 36 H        8.0530    -0.2240     0.3020 H     1 <1>   0.0800 
 37 H        7.6210    -0.8250    -1.2740 H     1 <1>   0.0800 
 38 H        9.4500    -1.5900     1.8460 H     1 <1>   0.1500 
 39 H        8.6110    -2.8800    -2.1410 H     1 <1>   0.1500 
 40 H       11.2480    -3.2510     1.9870 H     1 <1>   0.1500 
 41 H       10.3910    -4.5170    -1.9920 H     1 <1>   0.1500 
 42 H       13.1690    -6.3530    -0.4880 H     1 <1>   0.0800 
 43 H       12.6610    -5.1740    -1.6930 H     1 <1>   0.0800 
 44 H       11.5190    -6.3940    -1.0990 H     1 <1>   0.0800 
@<TRIPOS>BOND
  1   1   2  1   
  2   1   3  1   
  3   2   4  1   
  4   2  20  1   
  5   2  21  1   
  6   3   5  1   
  7   3  22  1   
  8   3  23  1   
  9   4   6  1   
 10   4  24  1   
 11   4  25  1   
 12   5   6  1   
 13   5  26  1   
 14   5  27  1   
 15   6   7  1   
 16   7   8  1   
 17   7  28  1   
 18   7  29  1   
 19   8   9  1   
 20   8  10  1   
 21   8  30  1   
 22   9  11  1   
 23   9  31  1   
 24   9  32  1   
 25  10  33  1   
 26  10  34  1   
 27  10  35  1   
 28  11  12  1   
 29  11  36  1   
 30  11  37  1   
 31  12  13  ar  
 32  12  14  ar  
 33  13  15  ar  
 34  13  38  1   
 35  14  16  ar  
 36  14  39  1   
 37  15  17  ar  
 38  15  40  1   
 39  16  17  ar  
 40  16  41  1   
 41  17  18  1   
 42  18  19  1   
 43  19  42  1   
 44  19  43  1   
 45  19  44  1   
@<TRIPOS>SUBSTRUCTURE
  1 ****   9 GROUP 4 **** **** 0

# MOE 2024.06 (io_trps.svl 2023.06)
