@<TRIPOS>MOLECULE
NONAME
38 39 1 0 0 
SMALL
USER_CHARGES


@<TRIPOS>ATOM
  1 S       -0.7220     0.1430    -0.1890 S.o2  1 <1>   1.2570 
  2 O       -1.6170     0.7240     0.7910 O.2   1 <1>  -0.6500 
  3 O       -0.9180     0.5020    -1.5780 O.2   1 <1>  -0.6500 
  4 C       -0.7830    -1.6710    -0.0390 C.2   1 <1>   0.1240 
  5 C        0.9720     0.5350     0.2750 C.3   1 <1>  -0.0550 
  6 N        0.2150    -2.4540     0.2710 N.2   1 <1>  -0.5650 
  7 N       -1.9330    -2.3640    -0.2550 N.pl3 1 <1>   0.0480 
  8 C        1.3110     2.0360     0.2400 C.3   1 <1>  -0.2400 
  9 C       -0.3060    -3.6900     0.2580 C.2   1 <1>   0.0770 
 10 C       -1.6160    -3.6640    -0.0690 C.2   1 <1>  -0.3320 
 11 C       -3.2680    -1.8070    -0.5920 C.3   1 <1>   0.0960 
 12 C       -2.5980    -4.8140    -0.2050 C.3   1 <1>   0.3000 
 13 C       -4.0990    -1.5940     0.6760 C.3   1 <1>  -0.0160 
 14 O       -1.8810    -5.9860    -0.2770 O.3   1 <1>  -0.6800 
 15 C       -5.4080    -0.9160     0.3160 C.ar  1 <1>  -0.1440 
 16 C       -6.5620    -1.6570     0.1180 C.ar  1 <1>  -0.1500 
 17 C       -5.4500     0.4630     0.1750 C.ar  1 <1>  -0.1500 
 18 C       -7.7470    -1.0260    -0.2190 C.ar  1 <1>  -0.1500 
 19 C       -6.6340     1.0950    -0.1620 C.ar  1 <1>  -0.1500 
 20 C       -7.7840     0.3510    -0.3590 C.ar  1 <1>  -0.1500 
 21 H        1.6410     0.0170    -0.3870 H     1 <1>   0.0800 
 22 H        1.1540     0.1650     1.2660 H     1 <1>   0.0800 
 23 H        1.1660     2.4260    -0.7520 H     1 <1>   0.0800 
 24 H        2.3360     2.1930     0.5280 H     1 <1>   0.0800 
 25 H        0.6740     2.5760     0.9190 H     1 <1>   0.0800 
 26 H        0.2980    -4.5530     0.4940 H     1 <1>   0.1500 
 27 H       -3.7780    -2.4810    -1.2550 H     1 <1>   0.0800 
 28 H       -3.1490    -0.8720    -1.1100 H     1 <1>   0.0800 
 29 H       -3.1770    -4.7280    -1.1090 H     1 <1>   0.0800 
 30 H       -3.2560    -4.8720     0.6450 H     1 <1>   0.0800 
 31 H       -3.5630    -0.9720     1.3710 H     1 <1>   0.0800 
 32 H       -4.2960    -2.5370     1.1530 H     1 <1>   0.0800 
 33 H       -1.1800    -5.8880    -0.9490 H     1 <1>   0.4000 
 34 H       -6.5490    -2.7270     0.2250 H     1 <1>   0.1500 
 35 H       -4.5600     1.0520     0.3290 H     1 <1>   0.1500 
 36 H       -8.6420    -1.6040    -0.3710 H     1 <1>   0.1500 
 37 H       -6.6590     2.1650    -0.2690 H     1 <1>   0.1500 
 38 H       -8.7050     0.8420    -0.6210 H     1 <1>   0.1500 
@<TRIPOS>BOND
  1   1   2  2   
  2   1   3  2   
  3   1   4  1   
  4   1   5  1   
  5   4   6  2   
  6   4   7  1   
  7   5   8  1   
  8   5  21  1   
  9   5  22  1   
 10   6   9  1   
 11   7  10  1   
 12   7  11  1   
 13   8  23  1   
 14   8  24  1   
 15   8  25  1   
 16   9  10  2   
 17   9  26  1   
 18  10  12  1   
 19  11  13  1   
 20  11  27  1   
 21  11  28  1   
 22  12  14  1   
 23  12  29  1   
 24  12  30  1   
 25  13  15  1   
 26  13  31  1   
 27  13  32  1   
 28  14  33  1   
 29  15  16  ar  
 30  15  17  ar  
 31  16  18  ar  
 32  16  34  1   
 33  17  19  ar  
 34  17  35  1   
 35  18  20  ar  
 36  18  36  1   
 37  19  20  ar  
 38  19  37  1   
 39  20  38  1   
@<TRIPOS>SUBSTRUCTURE
  1 ****  11 GROUP 4 **** **** 0

# MOE 2024.06 (io_trps.svl 2023.06)
