@<TRIPOS>MOLECULE
NONAME
41 43 1 0 0 
SMALL
USER_CHARGES


@<TRIPOS>ATOM
  1 O       -0.8720    -1.0350    -0.4610 O.2   1 <1>  -0.5700 
  2 C       -1.8340    -0.5420     0.0450 C.2   1 <1>   0.4480 
  3 C       -2.6610    -1.2700     1.0780 C.3   1 <1>  -0.0380 
  4 C       -2.2880     0.8610    -0.3090 C.3   1 <1>  -0.0990 
  5 C       -4.1340    -1.2080     0.7260 C.2   1 <1>   0.3280 
  6 C       -3.7770     0.8800    -0.6780 C.3   1 <1>  -0.1600 
  7 N       -4.8170    -2.2730     0.7140 N.2   1 <1>  -0.6210 
  8 C       -4.6300     0.2070     0.4080 C.3   1 <1>  -0.0990 
  9 C       -6.2010    -2.3330     0.4930 C.2   1 <1>   0.1850 
 10 C       -7.2320    -1.6040     1.1520 C.2   1 <1>   0.6160 
 11 C       -6.8180    -3.1720    -0.3930 C.2   1 <1>  -0.0380 
 12 O       -7.1060    -0.7460     2.0440 O.2   1 <1>  -0.5700 
 13 N       -8.4420    -1.9790     0.6190 N.am  1 <1>  -0.1570 
 14 N       -8.1570    -2.9890    -0.3510 N.pl3 1 <1>  -0.4890 
 15 C       -6.1590    -4.1990    -1.2960 C.3   1 <1>  -0.1020 
 16 C       -9.4790    -1.0500     0.4090 C.ar  1 <1>   0.1170 
 17 C       -9.2440    -3.8370    -0.9020 C.3   1 <1>   0.1290 
 18 C      -10.3120    -0.6850     1.4600 C.ar  1 <1>  -0.1500 
 19 C       -9.6940    -0.4750    -0.8410 C.ar  1 <1>  -0.1500 
 20 C      -11.3400     0.2200     1.2690 C.ar  1 <1>  -0.1500 
 21 C      -10.7200     0.4310    -1.0370 C.ar  1 <1>  -0.1500 
 22 C      -11.5460     0.7780     0.0190 C.ar  1 <1>  -0.1500 
 23 H       -2.5070    -0.8160     2.0380 H     1 <1>   0.0800 
 24 H       -2.3390    -2.2940     1.1340 H     1 <1>   0.0800 
 25 H       -1.7020     1.2250    -1.1350 H     1 <1>   0.0800 
 26 H       -2.1100     1.5040     0.5340 H     1 <1>   0.0800 
 27 H       -3.9150     0.3510    -1.6070 H     1 <1>   0.0800 
 28 H       -4.1050     1.8950    -0.8230 H     1 <1>   0.0800 
 29 H       -4.6050     0.7910     1.3110 H     1 <1>   0.0800 
 30 H       -5.6460     0.1970     0.0620 H     1 <1>   0.0800 
 31 H       -6.4300    -4.0160    -2.3200 H     1 <1>   0.0800 
 32 H       -6.4730    -5.1880    -1.0170 H     1 <1>   0.0800 
 33 H       -5.0890    -4.1440    -1.2100 H     1 <1>   0.0800 
 34 H       -8.8330    -4.6500    -1.4710 H     1 <1>   0.0800 
 35 H       -9.8770    -3.2450    -1.5380 H     1 <1>   0.0800 
 36 H       -9.8310    -4.2340    -0.0930 H     1 <1>   0.0800 
 37 H      -10.1450    -1.1140     2.4320 H     1 <1>   0.1500 
 38 H       -9.0480    -0.7410    -1.6580 H     1 <1>   0.1500 
 39 H      -11.9770     0.4930     2.0920 H     1 <1>   0.1500 
 40 H      -10.8760     0.8680    -2.0080 H     1 <1>   0.1500 
 41 H      -12.3460     1.4840    -0.1310 H     1 <1>   0.1500 
@<TRIPOS>BOND
  1   1   2  2   
  2   2   3  1   
  3   2   4  1   
  4   3   5  1   
  5   3  23  1   
  6   3  24  1   
  7   4   6  1   
  8   4  25  1   
  9   4  26  1   
 10   5   7  2   
 11   5   8  1   
 12   6   8  1   
 13   6  27  1   
 14   6  28  1   
 15   7   9  1   
 16   8  29  1   
 17   8  30  1   
 18   9  10  1   
 19   9  11  2   
 20  10  12  2   
 21  10  13  am  
 22  11  14  1   
 23  11  15  1   
 24  13  14  1   
 25  13  16  1   
 26  14  17  1   
 27  15  31  1   
 28  15  32  1   
 29  15  33  1   
 30  16  18  ar  
 31  16  19  ar  
 32  17  34  1   
 33  17  35  1   
 34  17  36  1   
 35  18  20  ar  
 36  18  37  1   
 37  19  21  ar  
 38  19  38  1   
 39  20  22  ar  
 40  20  39  1   
 41  21  22  ar  
 42  21  40  1   
 43  22  41  1   
@<TRIPOS>SUBSTRUCTURE
  1 ****  10 GROUP 4 **** **** 0

# MOE 2024.06 (io_trps.svl 2023.06)
