@<TRIPOS>MOLECULE
NONAME
56 60 1 0 0 
SMALL
USER_CHARGES


@<TRIPOS>ATOM
  1 S       -0.3100    -0.3050     0.6640 S.3   1 <1>  -0.4600 
  2 C       -1.6230     0.9320     0.5170 C.3   1 <1>   0.0700 
  3 C        1.2000     0.6800     0.4910 C.3   1 <1>  -0.0100 
  4 C       -2.9630     0.1970     0.5930 C.3   1 <1>  -0.1600 
  5 C       -4.1490     1.1620     0.5980 C.3   1 <1>   0.1900 
  6 N       -5.4120     0.3940     0.6460 N.3   1 <1>  -0.9000 
  7 C       -4.3070     1.9920    -0.6630 C.3   1 <1>  -0.0190 
  8 C       -6.4130     1.0550    -0.2580 C.3   1 <1>   0.4740 
  9 C       -3.7240     3.3030    -1.1180 C.2   1 <1>   0.5690 
 10 C       -5.7620     2.3850    -0.5430 C.3   1 <1>  -0.0190 
 11 C       -6.8100     0.2870    -1.5420 C.2   1 <1>   0.5690 
 12 C       -7.7740     1.1740     0.4090 C.ar  1 <1>  -0.1440 
 13 O       -2.6060     3.6860    -0.8890 O.2   1 <1>  -0.5700 
 14 N       -4.6830     3.9370    -1.8590 N.am  1 <1>  -0.4200 
 15 C       -5.8960     3.3280    -1.6980 C.2   1 <1>   0.5690 
 16 O       -6.0240    -0.0970    -2.3830 O.2   1 <1>  -0.5700 
 17 N       -8.1640     0.1020    -1.5720 N.am  1 <1>  -0.4770 
 18 C       -8.7380     0.6210    -0.4130 C.ar  1 <1>   0.1170 
 19 C       -8.1150     1.7220     1.6330 C.ar  1 <1>  -0.1500 
 20 C       -4.5030     5.2340    -2.5250 C.3   1 <1>   0.2840 
 21 O       -6.9060     3.5410    -2.3160 O.2   1 <1>  -0.5700 
 22 C       -8.9150    -0.5380    -2.6750 C.3   1 <1>   0.0600 
 23 C      -10.0710     0.6270    -0.0300 C.ar  1 <1>  -0.1500 
 24 C       -9.4470     1.7260     2.0190 C.ar  1 <1>  -0.1500 
 25 C       -4.8530     6.3380    -1.5420 C.ar  1 <1>  -0.1440 
 26 C      -10.4200     1.1840     1.1900 C.ar  1 <1>  -0.1500 
 27 C       -3.8740     6.8820    -0.7240 C.ar  1 <1>  -0.1500 
 28 C       -6.1570     6.8000    -1.4450 C.ar  1 <1>  -0.1500 
 29 C       -4.1940     7.8830     0.1770 C.ar  1 <1>  -0.1500 
 30 C       -6.4770     7.8000    -0.5440 C.ar  1 <1>  -0.1500 
 31 C       -5.4960     8.3430     0.2670 C.ar  1 <1>  -0.1500 
 32 H       -1.4860     1.4270    -0.4280 H     1 <1>   0.0800 
 33 H       -1.5000     1.6310     1.3270 H     1 <1>   0.0800 
 34 H        2.0380     0.0080     0.5560 H     1 <1>   0.0800 
 35 H        1.2230     1.3990     1.2910 H     1 <1>   0.0800 
 36 H        1.1730     1.1670    -0.4670 H     1 <1>   0.0800 
 37 H       -2.9860    -0.3780     1.5030 H     1 <1>   0.0800 
 38 H       -3.0370    -0.4780    -0.2420 H     1 <1>   0.0800 
 39 H       -4.0980     1.8100     1.4600 H     1 <1>   0.0800 
 40 H       -5.2410    -0.5370     0.2420 H     1 <1>   0.3600 
 41 H       -4.1590     1.3290    -1.4980 H     1 <1>   0.0800 
 42 H       -5.8990     2.9940     0.3350 H     1 <1>   0.0800 
 43 H       -7.3580     2.1340     2.2780 H     1 <1>   0.1500 
 44 H       -5.1440     5.2860    -3.3880 H     1 <1>   0.0800 
 45 H       -3.4820     5.3330    -2.8510 H     1 <1>   0.0800 
 46 H       -8.2370    -0.8540    -3.4490 H     1 <1>   0.0800 
 47 H       -9.6150     0.1660    -3.0890 H     1 <1>   0.0800 
 48 H       -9.4460    -1.3960    -2.3010 H     1 <1>   0.0800 
 49 H      -10.8210     0.2030    -0.6710 H     1 <1>   0.1500 
 50 H       -9.7280     2.1520     2.9670 H     1 <1>   0.1500 
 51 H      -11.4510     1.1940     1.4990 H     1 <1>   0.1500 
 52 H       -2.8590     6.5240    -0.7800 H     1 <1>   0.1500 
 53 H       -6.9300     6.3800    -2.0680 H     1 <1>   0.1500 
 54 H       -3.4310     8.3020     0.8090 H     1 <1>   0.1500 
 55 H       -7.4910     8.1550    -0.4740 H     1 <1>   0.1500 
 56 H       -5.7450     9.1210     0.9670 H     1 <1>   0.1500 
@<TRIPOS>BOND
  1   1   2  1   
  2   1   3  1   
  3   2   4  1   
  4   2  32  1   
  5   2  33  1   
  6   3  34  1   
  7   3  35  1   
  8   3  36  1   
  9   4   5  1   
 10   4  37  1   
 11   4  38  1   
 12   5   6  1   
 13   5   7  1   
 14   5  39  1   
 15   6   8  1   
 16   6  40  1   
 17   7   9  1   
 18   7  10  1   
 19   7  41  1   
 20   8  10  1   
 21   8  11  1   
 22   8  12  1   
 23   9  13  2   
 24   9  14  am  
 25  10  15  1   
 26  10  42  1   
 27  11  16  2   
 28  11  17  am  
 29  12  18  ar  
 30  12  19  ar  
 31  14  15  am  
 32  14  20  1   
 33  15  21  2   
 34  17  18  1   
 35  17  22  1   
 36  18  23  ar  
 37  19  24  ar  
 38  19  43  1   
 39  20  25  1   
 40  20  44  1   
 41  20  45  1   
 42  22  46  1   
 43  22  47  1   
 44  22  48  1   
 45  23  26  ar  
 46  23  49  1   
 47  24  26  ar  
 48  24  50  1   
 49  25  27  ar  
 50  25  28  ar  
 51  26  51  1   
 52  27  29  ar  
 53  27  52  1   
 54  28  30  ar  
 55  28  53  1   
 56  29  31  ar  
 57  29  54  1   
 58  30  31  ar  
 59  30  55  1   
 60  31  56  1   
@<TRIPOS>SUBSTRUCTURE
  1 ****  10 GROUP 4 **** **** 0

# MOE 2024.06 (io_trps.svl 2023.06)
