@<TRIPOS>MOLECULE
NONAME
40 40 1 0 0 
SMALL
USER_CHARGES


@<TRIPOS>ATOM
  1 F       -0.2430     0.7760     0.3350 F     1 <1>  -0.3400 
  2 C       -0.6910     2.0300     0.3590 C.3   1 <1>   1.0810 
  3 F       -1.0930     2.2930    -0.8850 F     1 <1>  -0.3400 
  4 F        0.3880     2.7910     0.5380 F     1 <1>  -0.3400 
  5 C       -1.7880     2.2720     1.4390 C.2   1 <1>   0.5940 
  6 O       -1.4750     2.3190     2.6120 O.2   1 <1>  -0.5700 
  7 C       -3.1550     2.4990     1.0660 C.2   1 <1>  -0.2370 
  8 N       -3.8610     1.7470     0.1510 N.pl3 1 <1>   0.3340 
  9 C       -3.9840     3.4850     1.5350 C.2   1 <1>  -0.1500 
 10 C       -5.0970     2.3140     0.0320 C.2   1 <1>  -0.3320 
 11 C       -3.4730     0.5140    -0.4250 C.2   1 <1>  -0.1810 
 12 C       -5.2020     3.3760     0.8770 C.2   1 <1>  -0.1810 
 13 C       -6.1580     1.7700    -0.9150 C.3   1 <1>  -0.0600 
 14 C       -2.9820    -0.5480     0.2320 C.2   1 <1>  -0.3000 
 15 C       -6.3830     4.3020     1.1130 C.3   1 <1>   0.0210 
 16 C       -6.3260     5.4940     0.1530 C.3   1 <1>  -0.1600 
 17 C       -7.5120     6.4450     0.3600 C.3   1 <1>  -0.1600 
 18 C       -7.4440     7.6320    -0.6080 C.3   1 <1>  -0.1600 
 19 C       -8.6280     8.5840    -0.4000 C.3   1 <1>  -0.1600 
 20 C       -8.5590     9.7680    -1.3680 C.3   1 <1>  -0.2400 
 21 H       -3.7440     4.2280     2.2780 H     1 <1>   0.1500 
 22 H       -3.6250     0.4910    -1.4900 H     1 <1>   0.1500 
 23 H       -6.4140     0.7610    -0.6430 H     1 <1>   0.0800 
 24 H       -5.7900     1.7760    -1.9260 H     1 <1>   0.0800 
 25 H       -7.0490     2.3680    -0.8800 H     1 <1>   0.0800 
 26 H       -2.7000    -1.4700    -0.2470 H     1 <1>   0.1500 
 27 H       -2.8270    -0.5860     1.2980 H     1 <1>   0.1500 
 28 H       -6.3620     4.6500     2.1310 H     1 <1>   0.0800 
 29 H       -7.3010     3.7600     0.9720 H     1 <1>   0.0800 
 30 H       -6.3290     5.1270    -0.8600 H     1 <1>   0.0800 
 31 H       -5.4030     6.0260     0.3090 H     1 <1>   0.0800 
 32 H       -7.5050     6.8100     1.3730 H     1 <1>   0.0800 
 33 H       -8.4330     5.9090     0.2030 H     1 <1>   0.0800 
 34 H       -7.4520     7.2680    -1.6220 H     1 <1>   0.0800 
 35 H       -6.5230     8.1690    -0.4530 H     1 <1>   0.0800 
 36 H       -8.6220     8.9530     0.6110 H     1 <1>   0.0800 
 37 H       -9.5510     8.0520    -0.5570 H     1 <1>   0.0800 
 38 H       -7.6520    10.3260    -1.2140 H     1 <1>   0.0800 
 39 H       -9.3960    10.4240    -1.2070 H     1 <1>   0.0800 
 40 H       -8.5860     9.4230    -2.3870 H     1 <1>   0.0800 
@<TRIPOS>BOND
  1   1   2  1   
  2   2   3  1   
  3   2   4  1   
  4   2   5  1   
  5   5   6  2   
  6   5   7  1   
  7   7   8  1   
  8   7   9  2   
  9   8  10  1   
 10   8  11  1   
 11   9  12  1   
 12   9  21  1   
 13  10  12  2   
 14  10  13  1   
 15  11  14  2   
 16  11  22  1   
 17  12  15  1   
 18  13  23  1   
 19  13  24  1   
 20  13  25  1   
 21  14  26  1   
 22  14  27  1   
 23  15  16  1   
 24  15  28  1   
 25  15  29  1   
 26  16  17  1   
 27  16  30  1   
 28  16  31  1   
 29  17  18  1   
 30  17  32  1   
 31  17  33  1   
 32  18  19  1   
 33  18  34  1   
 34  18  35  1   
 35  19  20  1   
 36  19  36  1   
 37  19  37  1   
 38  20  38  1   
 39  20  39  1   
 40  20  40  1   
@<TRIPOS>SUBSTRUCTURE
  1 ****  12 GROUP 4 **** **** 0

# MOE 2024.06 (io_trps.svl 2023.06)
