@<TRIPOS>MOLECULE
NONAME
30 32 1 0 0 
SMALL
USER_CHARGES


@<TRIPOS>ATOM
  1 N       -0.6620    -0.1280     0.3280 N.2   1 <1>  -0.5030 
  2 N       -0.6220     1.1700     0.7680 N.pl3 1 <1>  -0.5690 
  3 C       -1.7500    -0.7520     0.1310 C.2   1 <1>   0.3280 
  4 C       -1.7900    -2.2110    -0.3430 C.3   1 <1>   0.0610 
  5 C       -3.1500    -0.2030     0.3990 C.3   1 <1>  -0.0190 
  6 C       -2.4370    -3.0100     0.7960 C.3   1 <1>   0.3430 
  7 C       -2.7300    -2.3080    -1.5560 C.3   1 <1>   0.1100 
  8 C       -0.4060    -2.7950    -0.6940 C.3   1 <1>  -0.2400 
  9 C       -3.7480    -1.0490     1.5220 C.3   1 <1>   0.3430 
 10 C       -4.0200    -0.3850    -0.8470 C.3   1 <1>   0.1100 
 11 N       -3.8160    -2.4830     1.0820 N.4   1 <1>  -0.9590 
 12 N       -4.0700    -1.8180    -1.1790 N.3   1 <1>  -0.8100 
 13 C       -4.6790    -2.6180    -0.1200 C.3   1 <1>   0.6130 
 14 H       -1.2490     1.8570     0.3300 H     1 <1>   0.3110 
 15 H        0.3170     1.5720     0.9070 H     1 <1>   0.3110 
 16 H       -3.1360     0.8300     0.6890 H     1 <1>   0.0800 
 17 H       -1.8210    -2.9300     1.6770 H     1 <1>   0.0800 
 18 H       -2.4930    -4.0490     0.5140 H     1 <1>   0.0800 
 19 H       -2.3430    -1.7150    -2.3700 H     1 <1>   0.0800 
 20 H       -2.8000    -3.3270    -1.9000 H     1 <1>   0.0800 
 21 H       -0.4850    -3.8180    -1.0170 H     1 <1>   0.0800 
 22 H        0.2510    -2.7540     0.1580 H     1 <1>   0.0800 
 23 H        0.0470    -2.2240    -1.4870 H     1 <1>   0.0800 
 24 H       -3.1320    -0.9590     2.4030 H     1 <1>   0.0800 
 25 H       -4.7360    -0.6870     1.7570 H     1 <1>   0.0800 
 26 H       -3.6040     0.1670    -1.6750 H     1 <1>   0.0800 
 27 H       -5.0170    -0.0150    -0.6720 H     1 <1>   0.0800 
 28 H       -4.2390    -3.0430     1.8310 H     1 <1>   0.4500 
 29 H       -4.7410    -3.6490    -0.4340 H     1 <1>   0.0800 
 30 H       -5.6760    -2.2570     0.0800 H     1 <1>   0.0800 
@<TRIPOS>BOND
  1   1   2  1   
  2   1   3  2   
  3   2  14  1   
  4   2  15  1   
  5   3   4  1   
  6   3   5  1   
  7   4   6  1   
  8   4   7  1   
  9   4   8  1   
 10   5   9  1   
 11   5  10  1   
 12   5  16  1   
 13   6  11  1   
 14   6  17  1   
 15   6  18  1   
 16   7  12  1   
 17   7  19  1   
 18   7  20  1   
 19   8  21  1   
 20   8  22  1   
 21   8  23  1   
 22   9  11  1   
 23   9  24  1   
 24   9  25  1   
 25  10  12  1   
 26  10  26  1   
 27  10  27  1   
 28  11  13  1   
 29  11  28  1   
 30  12  13  1   
 31  13  29  1   
 32  13  30  1   
@<TRIPOS>SUBSTRUCTURE
  1 ****   3 GROUP 4 **** **** 0

# MOE 2024.06 (io_trps.svl 2023.06)
