@<TRIPOS>MOLECULE
NONAME
48 49 1 0 0 
SMALL
USER_CHARGES


@<TRIPOS>ATOM
  1 O       -6.6280     0.8870     1.0970 O.2   1 <1>  -0.5700 
  2 C       -7.0670     1.6860     0.3070 C.2   1 <1>   0.5690 
  3 N       -8.2790     1.4670    -0.3040 N.am  1 <1>  -0.6600 
  4 C       -6.2670     2.9530     0.0170 C.3   1 <1>  -0.0990 
  5 C       -8.9570     0.1390    -0.1820 C.3   1 <1>   0.1400 
  6 C       -9.0960     2.5100    -0.9950 C.3   1 <1>   0.1400 
  7 C       -4.7710     2.8410     0.3730 C.3   1 <1>  -0.1600 
  8 C      -10.3340     0.2940     0.4850 C.3   1 <1>   0.3430 
  9 C      -10.4940     2.6270    -0.3490 C.3   1 <1>   0.3430 
 10 C       -3.9360     4.0580    -0.0710 C.3   1 <1>  -0.0800 
 11 N      -11.1990     1.2960    -0.2380 N.4   1 <1>  -0.9590 
 12 C       -2.4440     3.7740     0.1750 C.3   1 <1>  -0.1600 
 13 C       -4.3570     5.3530     0.6520 C.3   1 <1>  -0.1600 
 14 C      -12.5250     1.4110     0.4560 C.3   1 <1>   0.3430 
 15 C       -1.5620     4.9610    -0.2330 C.3   1 <1>  -0.1600 
 16 C       -3.4730     6.5410     0.2520 C.3   1 <1>  -0.1600 
 17 C      -13.5670     2.1910    -0.3590 C.3   1 <1>   0.1200 
 18 C       -1.9890     6.2400     0.4960 C.3   1 <1>  -0.1600 
 19 O      -14.7450     2.1920     0.3640 O.3   1 <1>  -0.6800 
 20 H       -6.7100     3.7540     0.5770 H     1 <1>   0.0800 
 21 H       -6.3460     3.1760    -1.0300 H     1 <1>   0.0800 
 22 H       -8.3620    -0.5440     0.4010 H     1 <1>   0.0800 
 23 H       -9.0700    -0.2940    -1.1600 H     1 <1>   0.0800 
 24 H       -9.1940     2.2510    -2.0350 H     1 <1>   0.0800 
 25 H       -8.6150     3.4710    -0.9430 H     1 <1>   0.0800 
 26 H       -4.3770     1.9600    -0.1040 H     1 <1>   0.0800 
 27 H       -4.6670     2.7020     1.4370 H     1 <1>   0.0800 
 28 H      -10.1810     0.6100     1.5050 H     1 <1>   0.0800 
 29 H      -10.8230    -0.6670     0.5080 H     1 <1>   0.0800 
 30 H      -11.0890     3.3120    -0.9290 H     1 <1>   0.0800 
 31 H      -10.3740     3.0500     0.6350 H     1 <1>   0.0800 
 32 H       -4.0740     4.2000    -1.1300 H     1 <1>   0.0800 
 33 H      -11.3560     0.9300    -1.1870 H     1 <1>   0.4500 
 34 H       -2.1420     2.9050    -0.3840 H     1 <1>   0.0800 
 35 H       -2.2860     3.5630     1.2190 H     1 <1>   0.0800 
 36 H       -4.2880     5.2060     1.7170 H     1 <1>   0.0800 
 37 H       -5.3770     5.5980     0.4180 H     1 <1>   0.0800 
 38 H      -12.3940     1.8980     1.4090 H     1 <1>   0.0800 
 39 H      -12.9200     0.4250     0.6360 H     1 <1>   0.0800 
 40 H       -1.6380     5.1140    -1.2960 H     1 <1>   0.0800 
 41 H       -0.5340     4.7420    -0.0030 H     1 <1>   0.0800 
 42 H       -3.7600     7.4110     0.8170 H     1 <1>   0.0800 
 43 H       -3.6220     6.7610    -0.7920 H     1 <1>   0.0800 
 44 H      -13.7580     1.7130    -1.3040 H     1 <1>   0.0800 
 45 H      -13.2700     3.2150    -0.5060 H     1 <1>   0.0800 
 46 H       -1.3920     7.0680     0.1550 H     1 <1>   0.0800 
 47 H       -1.8190     6.1220     1.5530 H     1 <1>   0.0800 
 48 H      -15.4690     2.6570    -0.1100 H     1 <1>   0.4000 
@<TRIPOS>BOND
  1   1   2  2   
  2   2   3  am  
  3   2   4  1   
  4   3   5  1   
  5   3   6  1   
  6   4   7  1   
  7   4  20  1   
  8   4  21  1   
  9   5   8  1   
 10   5  22  1   
 11   5  23  1   
 12   6   9  1   
 13   6  24  1   
 14   6  25  1   
 15   7  10  1   
 16   7  26  1   
 17   7  27  1   
 18   8  11  1   
 19   8  28  1   
 20   8  29  1   
 21   9  11  1   
 22   9  30  1   
 23   9  31  1   
 24  10  12  1   
 25  10  13  1   
 26  10  32  1   
 27  11  14  1   
 28  11  33  1   
 29  12  15  1   
 30  12  34  1   
 31  12  35  1   
 32  13  16  1   
 33  13  36  1   
 34  13  37  1   
 35  14  17  1   
 36  14  38  1   
 37  14  39  1   
 38  15  18  1   
 39  15  40  1   
 40  15  41  1   
 41  16  18  1   
 42  16  42  1   
 43  16  43  1   
 44  17  19  1   
 45  17  44  1   
 46  17  45  1   
 47  18  46  1   
 48  18  47  1   
 49  19  48  1   
@<TRIPOS>SUBSTRUCTURE
  1 ****   4 GROUP 4 **** **** 0

# MOE 2024.06 (io_trps.svl 2023.06)
