@<TRIPOS>MOLECULE
NONAME
46 48 1 0 0 
SMALL
USER_CHARGES


@<TRIPOS>ATOM
  1 CL       0.1320    -0.3800     1.2230 Cl    1 <1>  -0.1770 
  2 C        1.6520    -1.1380     0.8110 C.ar  1 <1>   0.1770 
  3 C        2.4770    -1.5950     1.8220 C.ar  1 <1>  -0.1500 
  4 C        2.0070    -1.2690    -0.5180 C.ar  1 <1>  -0.1500 
  5 C        3.6810    -2.1940     1.4930 C.ar  1 <1>  -0.1500 
  6 C        3.2120    -1.8690    -0.8380 C.ar  1 <1>  -0.1500 
  7 C        4.0590    -2.3370     0.1600 C.ar  1 <1>   0.1000 
  8 N        5.2620    -2.9370    -0.1920 N.pl3 1 <1>  -0.8380 
  9 C        5.3470    -4.4120     0.0050 C.3   1 <1>   0.2090 
 10 C        6.5060    -2.1920     0.1640 C.3   1 <1>   0.2090 
 11 C        6.5750    -4.9930    -0.7290 C.3   1 <1>   0.3430 
 12 C        7.7260    -2.7860    -0.5690 C.3   1 <1>   0.3430 
 13 N        7.8560    -4.2810    -0.3700 N.4   1 <1>  -0.9590 
 14 C        9.0240    -4.8290    -1.1100 C.3   1 <1>   0.4860 
 15 C       10.2790    -4.1920    -0.5510 C.ar  1 <1>  -0.1430 
 16 C       10.7690    -4.5770     0.6890 C.ar  1 <1>  -0.1500 
 17 C       10.9440    -3.2100    -1.2700 C.ar  1 <1>  -0.1500 
 18 C       11.9000    -3.9720     1.2080 C.ar  1 <1>  -0.1500 
 19 C       12.0750    -2.6090    -0.7470 C.ar  1 <1>  -0.1500 
 20 C       12.5570    -2.9830     0.4960 C.ar  1 <1>  -0.1430 
 21 C       13.8010    -2.3220     1.0670 C.3   1 <1>  -0.0170 
 22 C       15.0570    -3.0880     0.6450 C.3   1 <1>  -0.2400 
 23 H        2.1750    -1.4790     2.8480 H     1 <1>   0.1500 
 24 H        1.3480    -0.9050    -1.2860 H     1 <1>   0.1500 
 25 H        4.3270    -2.5510     2.2720 H     1 <1>   0.1500 
 26 H        3.5050    -1.9790    -1.8660 H     1 <1>   0.1500 
 27 H        4.4510    -4.8710    -0.3790 H     1 <1>   0.0800 
 28 H        5.4080    -4.6350     1.0560 H     1 <1>   0.0800 
 29 H        6.6630    -2.2320     1.2280 H     1 <1>   0.0800 
 30 H        6.3910    -1.1580    -0.1140 H     1 <1>   0.0800 
 31 H        6.3980    -4.9010    -1.7880 H     1 <1>   0.0800 
 32 H        6.6580    -6.0420    -0.4970 H     1 <1>   0.0800 
 33 H        8.6180    -2.2900    -0.2190 H     1 <1>   0.0800 
 34 H        7.6210    -2.5700    -1.6190 H     1 <1>   0.0800 
 35 H        8.0460    -4.4260     0.6280 H     1 <1>   0.4500 
 36 H        8.9370    -4.6130    -2.1620 H     1 <1>   0.0800 
 37 H        9.0810    -5.8980    -0.9810 H     1 <1>   0.0800 
 38 H       10.2880    -5.3490     1.2650 H     1 <1>   0.1500 
 39 H       10.5980    -2.9010    -2.2420 H     1 <1>   0.1500 
 40 H       12.2770    -4.2770     2.1700 H     1 <1>   0.1500 
 41 H       12.5870    -1.8480    -1.3130 H     1 <1>   0.1500 
 42 H       13.7400    -2.2960     2.1420 H     1 <1>   0.0800 
 43 H       13.8660    -1.3050     0.7210 H     1 <1>   0.0800 
 44 H       15.0130    -4.1010     1.0030 H     1 <1>   0.0800 
 45 H       15.9330    -2.6150     1.0530 H     1 <1>   0.0800 
 46 H       15.1400    -3.1040    -0.4270 H     1 <1>   0.0800 
@<TRIPOS>BOND
  1   1   2  1   
  2   2   3  ar  
  3   2   4  ar  
  4   3   5  ar  
  5   3  23  1   
  6   4   6  ar  
  7   4  24  1   
  8   5   7  ar  
  9   5  25  1   
 10   6   7  ar  
 11   6  26  1   
 12   7   8  1   
 13   8   9  1   
 14   8  10  1   
 15   9  11  1   
 16   9  27  1   
 17   9  28  1   
 18  10  12  1   
 19  10  29  1   
 20  10  30  1   
 21  11  13  1   
 22  11  31  1   
 23  11  32  1   
 24  12  13  1   
 25  12  33  1   
 26  12  34  1   
 27  13  14  1   
 28  13  35  1   
 29  14  15  1   
 30  14  36  1   
 31  14  37  1   
 32  15  16  ar  
 33  15  17  ar  
 34  16  18  ar  
 35  16  38  1   
 36  17  19  ar  
 37  17  39  1   
 38  18  20  ar  
 39  18  40  1   
 40  19  20  ar  
 41  19  41  1   
 42  20  21  1   
 43  21  22  1   
 44  21  42  1   
 45  21  43  1   
 46  22  44  1   
 47  22  45  1   
 48  22  46  1   
@<TRIPOS>SUBSTRUCTURE
  1 ****  12 GROUP 4 **** **** 0

# MOE 2024.06 (io_trps.svl 2023.06)
