@<TRIPOS>MOLECULE
NONAME
43 47 1 0 0 
SMALL
USER_CHARGES


@<TRIPOS>ATOM
  1 O       -0.0140    -0.5090    -1.6470 O.2   1 <1>  -0.5700 
  2 C       -0.2210    -1.2650    -0.7320 C.2   1 <1>   0.5690 
  3 N        0.6950    -1.8320     0.1330 N.am  1 <1>  -0.2370 
  4 C       -1.5760    -1.7770    -0.3380 C.3   1 <1>  -0.0190 
  5 C        2.0480    -2.0560    -0.1800 C.ar  1 <1>   0.1170 
  6 C        0.0260    -2.3790     1.2140 C.2   1 <1>   0.5690 
  7 C       -3.0380    -1.3570    -0.6360 C.3   1 <1>   0.1530 
  8 C       -1.3760    -1.8420     1.1840 C.3   1 <1>  -0.0190 
  9 C        2.4720    -3.2930    -0.6680 C.ar  1 <1>   0.0830 
 10 C        2.9840    -1.0470    -0.0060 C.ar  1 <1>  -0.1500 
 11 O        0.4560    -3.1130     2.0680 O.2   1 <1>  -0.5700 
 12 C       -3.7470    -2.6790    -0.3050 C.2   1 <1>  -0.2880 
 13 C       -3.5430    -0.3400     0.4360 C.3   1 <1>  -0.1950 
 14 C       -2.7140    -2.2470     1.8670 C.3   1 <1>   0.1530 
 15 O        1.5630    -4.2840    -0.8560 O.3   1 <1>  -0.3630 
 16 C        3.8070    -3.5060    -0.9770 C.ar  1 <1>  -0.1500 
 17 C        4.3200    -1.2560    -0.3030 C.ar  1 <1>   0.0830 
 18 C       -3.5430    -3.1460     0.9370 C.2   1 <1>  -0.2880 
 19 C       -3.4770    -0.8830     1.8560 C.3   1 <1>  -0.1950 
 20 C       -4.7990    -0.5050     1.2390 C.3   1 <1>  -0.2000 
 21 C        1.7170    -5.4310    -0.0480 C.3   1 <1>   0.0400 
 22 C        4.7330    -2.4930    -0.7920 C.ar  1 <1>  -0.1500 
 23 O        5.1590    -0.2090    -0.0930 O.3   1 <1>  -0.3630 
 24 C        6.5300    -0.2990    -0.4100 C.3   1 <1>   0.0400 
 25 H       -1.5050    -2.7810    -0.7310 H     1 <1>   0.0800 
 26 H       -3.2000    -1.0450    -1.6540 H     1 <1>   0.0800 
 27 H       -1.1840    -0.8420     1.5390 H     1 <1>   0.0800 
 28 H        2.6770    -0.0860     0.3630 H     1 <1>   0.1500 
 29 H       -4.3290    -3.1350    -1.0880 H     1 <1>   0.1500 
 30 H       -3.1720     0.6570     0.2710 H     1 <1>   0.1000 
 31 H       -2.5910    -2.6430     2.8600 H     1 <1>   0.0800 
 32 H        4.1200    -4.4580    -1.3660 H     1 <1>   0.1500 
 33 H       -3.9250    -4.0610     1.3590 H     1 <1>   0.1500 
 34 H       -3.1350    -0.2250     2.6370 H     1 <1>   0.1000 
 35 H       -5.2910     0.3830     1.5970 H     1 <1>   0.1000 
 36 H       -5.5110    -1.2760     1.0020 H     1 <1>   0.1000 
 37 H        0.8590    -6.0610    -0.1920 H     1 <1>   0.0800 
 38 H        1.7780    -5.1260     0.9830 H     1 <1>   0.0800 
 39 H        2.6100    -5.9530    -0.3400 H     1 <1>   0.0800 
 40 H        5.7610    -2.6840    -1.0360 H     1 <1>   0.1500 
 41 H        6.9890     0.6460    -0.1800 H     1 <1>   0.0800 
 42 H        6.6330    -0.5080    -1.4610 H     1 <1>   0.0800 
 43 H        6.9770    -1.0760     0.1840 H     1 <1>   0.0800 
@<TRIPOS>BOND
  1   1   2  2   
  2   2   3  am  
  3   2   4  1   
  4   3   5  1   
  5   3   6  am  
  6   4   7  1   
  7   4   8  1   
  8   4  25  1   
  9   5   9  ar  
 10   5  10  ar  
 11   6   8  1   
 12   6  11  2   
 13   7  12  1   
 14   7  13  1   
 15   7  26  1   
 16   8  14  1   
 17   8  27  1   
 18   9  15  1   
 19   9  16  ar  
 20  10  17  ar  
 21  10  28  1   
 22  12  18  2   
 23  12  29  1   
 24  13  19  1   
 25  13  20  1   
 26  13  30  1   
 27  14  18  1   
 28  14  19  1   
 29  14  31  1   
 30  15  21  1   
 31  16  22  ar  
 32  16  32  1   
 33  17  22  ar  
 34  17  23  1   
 35  18  33  1   
 36  19  20  1   
 37  19  34  1   
 38  20  35  1   
 39  20  36  1   
 40  21  37  1   
 41  21  38  1   
 42  21  39  1   
 43  22  40  1   
 44  23  24  1   
 45  24  41  1   
 46  24  42  1   
 47  24  43  1   
@<TRIPOS>SUBSTRUCTURE
  1 ****   3 GROUP 4 **** **** 0

# MOE 2024.06 (io_trps.svl 2023.06)
