@<TRIPOS>MOLECULE
NONAME
45 47 1 0 0 
SMALL
USER_CHARGES


@<TRIPOS>ATOM
  1 CL      -3.0140     0.0510    -3.7740 Cl    1 <1>  -0.1770 
  2 C       -3.2450     0.8140    -2.2210 C.ar  1 <1>   0.1770 
  3 C       -4.3390     0.4690    -1.4570 C.ar  1 <1>  -0.1500 
  4 C       -2.3280     1.7500    -1.7850 C.ar  1 <1>  -0.1500 
  5 C       -4.5380     1.0680    -0.2190 C.ar  1 <1>   0.1000 
  6 C       -2.5190     2.3510    -0.5520 C.ar  1 <1>  -0.1500 
  7 N       -5.6450     0.7250     0.5550 N.pl3 1 <1>  -0.8380 
  8 C       -3.6140     2.0160     0.2300 C.ar  1 <1>  -0.1430 
  9 C       -6.9930     1.2060     0.1310 C.3   1 <1>   0.2090 
 10 C       -5.6450    -0.5920     1.2630 C.3   1 <1>   0.2090 
 11 C       -3.8040     2.6890     1.5820 C.3   1 <1>  -0.0970 
 12 C       -7.8050     0.1230    -0.6070 C.3   1 <1>   0.1400 
 13 C       -6.4480    -1.6610     0.5030 C.3   1 <1>   0.1400 
 14 N       -7.8170    -1.1720     0.1460 N.am  1 <1>  -0.6600 
 15 C       -8.9530    -1.7240     0.7010 C.2   1 <1>   0.5440 
 16 O       -8.8320    -2.4760     1.6510 O.2   1 <1>  -0.5700 
 17 C      -10.2790    -1.4250     0.1970 C.ar  1 <1>   0.0860 
 18 C      -11.3150    -1.0790     1.0650 C.ar  1 <1>  -0.1500 
 19 C      -10.5750    -1.4760    -1.1670 C.ar  1 <1>  -0.1500 
 20 C      -12.5820    -0.7780     0.6000 C.ar  1 <1>  -0.1500 
 21 C      -11.8380    -1.1760    -1.6400 C.ar  1 <1>  -0.1500 
 22 C      -12.8510    -0.8220    -0.7650 C.ar  1 <1>   0.0830 
 23 O      -14.0580    -0.5400    -1.3050 O.3   1 <1>  -0.3630 
 24 C      -15.1740    -0.2190    -0.5050 C.3   1 <1>   0.0400 
 25 H       -5.0320    -0.2620    -1.8210 H     1 <1>   0.1500 
 26 H       -1.4830     2.0020    -2.4000 H     1 <1>   0.1500 
 27 H       -1.8080     3.0810    -0.2070 H     1 <1>   0.1500 
 28 H       -6.8810     2.0660    -0.5060 H     1 <1>   0.0800 
 29 H       -7.5380     1.5160     1.0060 H     1 <1>   0.0800 
 30 H       -6.0750    -0.4630     2.2410 H     1 <1>   0.0800 
 31 H       -4.6310    -0.9300     1.3920 H     1 <1>   0.0800 
 32 H       -3.8120     1.9450     2.3580 H     1 <1>   0.0800 
 33 H       -4.7450     3.2100     1.5980 H     1 <1>   0.0800 
 34 H       -3.0170     3.3920     1.7850 H     1 <1>   0.0800 
 35 H       -7.3720    -0.0390    -1.5770 H     1 <1>   0.0800 
 36 H       -8.8040     0.4910    -0.7500 H     1 <1>   0.0800 
 37 H       -6.5080    -2.5500     1.1060 H     1 <1>   0.0800 
 38 H       -5.9220    -1.9200    -0.3980 H     1 <1>   0.0800 
 39 H      -11.1110    -1.0520     2.1220 H     1 <1>   0.1500 
 40 H       -9.8010    -1.7610    -1.8580 H     1 <1>   0.1500 
 41 H      -13.3450    -0.5160     1.3090 H     1 <1>   0.1500 
 42 H      -12.0520    -1.2180    -2.6940 H     1 <1>   0.1500 
 43 H      -16.0140    -0.0540    -1.1540 H     1 <1>   0.0800 
 44 H      -14.9590     0.6770     0.0500 H     1 <1>   0.0800 
 45 H      -15.3780    -1.0430     0.1560 H     1 <1>   0.0800 
@<TRIPOS>BOND
  1   1   2  1   
  2   2   3  ar  
  3   2   4  ar  
  4   3   5  ar  
  5   3  25  1   
  6   4   6  ar  
  7   4  26  1   
  8   5   7  1   
  9   5   8  ar  
 10   6   8  ar  
 11   6  27  1   
 12   7   9  1   
 13   7  10  1   
 14   8  11  1   
 15   9  12  1   
 16   9  28  1   
 17   9  29  1   
 18  10  13  1   
 19  10  30  1   
 20  10  31  1   
 21  11  32  1   
 22  11  33  1   
 23  11  34  1   
 24  12  14  1   
 25  12  35  1   
 26  12  36  1   
 27  13  14  1   
 28  13  37  1   
 29  13  38  1   
 30  14  15  am  
 31  15  16  2   
 32  15  17  1   
 33  17  18  ar  
 34  17  19  ar  
 35  18  20  ar  
 36  18  39  1   
 37  19  21  ar  
 38  19  40  1   
 39  20  22  ar  
 40  20  41  1   
 41  21  22  ar  
 42  21  42  1   
 43  22  23  1   
 44  23  24  1   
 45  24  43  1   
 46  24  44  1   
 47  24  45  1   
@<TRIPOS>SUBSTRUCTURE
  1 ****  12 GROUP 4 **** **** 0

# MOE 2024.06 (io_trps.svl 2023.06)
