@<TRIPOS>MOLECULE
NONAME
32 34 1 0 0 
SMALL
USER_CHARGES


@<TRIPOS>ATOM
  1 S       -0.3600     0.6170     1.4610 S.3   1 <1>  -0.0800 
  2 C        0.7550     0.1500     0.1880 C.2   1 <1>   0.4340 
  3 C       -1.5040    -0.5440     0.8140 C.ar  1 <1>   0.0400 
  4 S        2.3230     0.9870     0.1830 S.3   1 <1>  -0.2860 
  5 N        0.3610    -0.7460    -0.6220 N.2   1 <1>  -0.5650 
  6 C       -0.9270    -1.1580    -0.2870 C.ar  1 <1>   0.2270 
  7 C       -2.7730    -0.8410     1.2740 C.ar  1 <1>  -0.1500 
  8 C        3.1590     0.2700    -1.3110 C.3   1 <1>   0.1310 
  9 C       -1.6640    -2.1210    -0.9610 C.ar  1 <1>  -0.1500 
 10 C       -3.4930    -1.8050     0.5880 C.ar  1 <1>  -0.1500 
 11 C        4.6410     0.6110    -1.3170 C.2   1 <1>   0.5690 
 12 C       -2.9410    -2.4400    -0.5220 C.ar  1 <1>  -0.1500 
 13 O        5.0340     1.4080    -2.1370 O.2   1 <1>  -0.5700 
 14 N        5.5020     0.0090    -0.4380 N.am  1 <1>  -0.6600 
 15 C        6.9450     0.3250    -0.4020 C.3   1 <1>   0.1400 
 16 C        5.1410    -0.9580     0.6240 C.3   1 <1>   0.1400 
 17 C        7.4510    -0.3100     0.8880 C.3   1 <1>  -0.1600 
 18 C        6.4770    -1.4520     1.1650 C.3   1 <1>  -0.1600 
 19 H       -3.1800    -0.3380     2.1330 H     1 <1>   0.1500 
 20 H        2.6720     0.6870    -2.1730 H     1 <1>   0.0800 
 21 H        3.0130    -0.7920    -1.2900 H     1 <1>   0.0800 
 22 H       -1.2320    -2.6060    -1.8170 H     1 <1>   0.1500 
 23 H       -4.4860    -2.0670     0.9130 H     1 <1>   0.1500 
 24 H       -3.5140    -3.1870    -1.0440 H     1 <1>   0.1500 
 25 H        7.1050     1.3900    -0.4140 H     1 <1>   0.0800 
 26 H        7.4210    -0.1200    -1.2590 H     1 <1>   0.0800 
 27 H        4.5500    -1.7690     0.2330 H     1 <1>   0.0800 
 28 H        4.5950    -0.4450     1.3970 H     1 <1>   0.0800 
 29 H        7.3960     0.4180     1.6780 H     1 <1>   0.0800 
 30 H        8.4680    -0.6480     0.7940 H     1 <1>   0.0800 
 31 H        6.7750    -2.3270     0.6140 H     1 <1>   0.0800 
 32 H        6.4190    -1.6990     2.2100 H     1 <1>   0.0800 
@<TRIPOS>BOND
  1   1   2  1   
  2   1   3  1   
  3   2   4  1   
  4   2   5  2   
  5   3   6  ar  
  6   3   7  ar  
  7   4   8  1   
  8   5   6  1   
  9   6   9  ar  
 10   7  10  ar  
 11   7  19  1   
 12   8  11  1   
 13   8  20  1   
 14   8  21  1   
 15   9  12  ar  
 16   9  22  1   
 17  10  12  ar  
 18  10  23  1   
 19  11  13  2   
 20  11  14  am  
 21  12  24  1   
 22  14  15  1   
 23  14  16  1   
 24  15  17  1   
 25  15  25  1   
 26  15  26  1   
 27  16  18  1   
 28  16  27  1   
 29  16  28  1   
 30  17  18  1   
 31  17  29  1   
 32  17  30  1   
 33  18  31  1   
 34  18  32  1   
@<TRIPOS>SUBSTRUCTURE
  1 ****   2 GROUP 4 **** **** 0

# MOE 2024.06 (io_trps.svl 2023.06)
