@<TRIPOS>MOLECULE
NONAME
40 42 1 0 0 
SMALL
USER_CHARGES


@<TRIPOS>ATOM
  1 F       -1.0180    -0.4660    -0.8240 F     1 <1>  -0.1900 
  2 C       -2.1170    -1.0530    -0.4220 C.ar  1 <1>   0.1900 
  3 C       -2.4790    -2.2570    -0.9960 C.ar  1 <1>  -0.1500 
  4 C       -2.8770    -0.4460     0.5600 C.ar  1 <1>  -0.1500 
  5 C       -3.6430    -2.8710    -0.5670 C.ar  1 <1>  -0.1500 
  6 C       -4.0370    -1.0740     0.9780 C.ar  1 <1>  -0.1500 
  7 C       -4.4340    -2.2890     0.4240 C.ar  1 <1>   0.1000 
  8 N       -5.6110    -2.8840     0.8720 N.pl3 1 <1>  -0.8380 
  9 C       -5.6910    -4.3560     1.1180 C.3   1 <1>   0.2090 
 10 C       -6.9140    -2.2590     0.4990 C.3   1 <1>   0.2090 
 11 C       -6.4770    -5.0920     0.0120 C.3   1 <1>   0.1100 
 12 C       -7.6360    -3.0640    -0.5990 C.3   1 <1>   0.1100 
 13 N       -7.8080    -4.4920    -0.2320 N.3   1 <1>  -0.8100 
 14 C       -8.5350    -5.2340    -1.3060 C.3   1 <1>   0.1710 
 15 C      -10.0290    -4.9100    -1.3880 C.2   1 <1>   0.5690 
 16 O      -10.6110    -5.0560    -2.4380 O.2   1 <1>  -0.5700 
 17 N      -10.6380    -4.4680    -0.2580 N.am  1 <1>  -0.5790 
 18 C      -12.0460    -4.0840    -0.1060 C.3   1 <1>   0.0490 
 19 C      -12.3620    -2.9160     0.7670 C.3   1 <1>  -0.2000 
 20 C      -12.6930    -4.3070     1.2200 C.3   1 <1>  -0.2000 
 21 H       -1.8610    -2.6960    -1.7580 H     1 <1>   0.1500 
 22 H       -2.5640     0.4900     0.9840 H     1 <1>   0.1500 
 23 H       -3.9440    -3.8020    -1.0050 H     1 <1>   0.1500 
 24 H       -4.6470    -0.6340     1.7450 H     1 <1>   0.1500 
 25 H       -6.1810    -4.5210     2.0620 H     1 <1>   0.0800 
 26 H       -4.6990    -4.7660     1.1920 H     1 <1>   0.0800 
 27 H       -6.7480    -1.2550     0.1500 H     1 <1>   0.0800 
 28 H       -7.5400    -2.2090     1.3710 H     1 <1>   0.0800 
 29 H       -6.5980    -6.1190     0.3080 H     1 <1>   0.0800 
 30 H       -5.8990    -5.0740    -0.8950 H     1 <1>   0.0800 
 31 H       -7.0660    -2.9850    -1.5090 H     1 <1>   0.0800 
 32 H       -8.5990    -2.6140    -0.7730 H     1 <1>   0.0800 
 33 H       -8.4560    -6.2900    -1.1220 H     1 <1>   0.0800 
 34 H       -8.0840    -5.0320    -2.2620 H     1 <1>   0.0800 
 35 H      -10.0290    -4.3380     0.5550 H     1 <1>   0.3700 
 36 H      -12.6280    -4.2380    -1.0010 H     1 <1>   0.1000 
 37 H      -13.1720    -2.2670     0.4840 H     1 <1>   0.1000 
 38 H      -11.5540    -2.3890     1.2420 H     1 <1>   0.1000 
 39 H      -12.1160    -4.7540     2.0100 H     1 <1>   0.1000 
 40 H      -13.7270    -4.6020     1.2440 H     1 <1>   0.1000 
@<TRIPOS>BOND
  1   1   2  1   
  2   2   3  ar  
  3   2   4  ar  
  4   3   5  ar  
  5   3  21  1   
  6   4   6  ar  
  7   4  22  1   
  8   5   7  ar  
  9   5  23  1   
 10   6   7  ar  
 11   6  24  1   
 12   7   8  1   
 13   8   9  1   
 14   8  10  1   
 15   9  11  1   
 16   9  25  1   
 17   9  26  1   
 18  10  12  1   
 19  10  27  1   
 20  10  28  1   
 21  11  13  1   
 22  11  29  1   
 23  11  30  1   
 24  12  13  1   
 25  12  31  1   
 26  12  32  1   
 27  13  14  1   
 28  14  15  1   
 29  14  33  1   
 30  14  34  1   
 31  15  16  2   
 32  15  17  am  
 33  17  18  1   
 34  17  35  1   
 35  18  19  1   
 36  18  20  1   
 37  18  36  1   
 38  19  20  1   
 39  19  37  1   
 40  19  38  1   
 41  20  39  1   
 42  20  40  1   
@<TRIPOS>SUBSTRUCTURE
  1 ****  12 GROUP 4 **** **** 0

# MOE 2024.06 (io_trps.svl 2023.06)
