@<TRIPOS>MOLECULE
NONAME
31 32 1 0 0 
SMALL
USER_CHARGES


@<TRIPOS>ATOM
  1 CL       0.4360    -0.2290     2.1490 Cl    1 <1>  -0.1770 
  2 C        0.7720    -1.6890     1.2430 C.ar  1 <1>   0.1770 
  3 C       -0.2010    -2.5860     0.8100 C.ar  1 <1>   0.3960 
  4 C        2.0860    -1.9390     0.9290 C.ar  1 <1>   0.1600 
  5 N        0.1760    -3.6450     0.0810 N.ar  1 <1>  -0.6200 
  6 C       -1.6250    -2.4290     1.1040 C.2   1 <1>   0.5440 
  7 N        2.4610    -2.9860     0.2260 N.ar  1 <1>  -0.6200 
  8 C        1.4650    -3.7690    -0.1520 C.ar  1 <1>   0.7220 
  9 O       -2.0300    -1.7590     2.0340 O.2   1 <1>  -0.5700 
 10 N       -2.5530    -3.0730     0.3300 N.am  1 <1>  -0.7300 
 11 S        1.9130    -5.1990    -1.1210 S.3   1 <1>  -0.3310 
 12 C       -4.0130    -3.0710     0.5170 C.3   1 <1>   0.2200 
 13 C        3.7530    -5.1190    -1.2830 C.3   1 <1>  -0.0100 
 14 C       -4.4650    -4.4920     0.8290 C.3   1 <1>  -0.1600 
 15 C       -4.6750    -2.7800    -0.8240 C.3   1 <1>  -0.1600 
 16 C       -4.5400    -5.2110    -0.5230 C.3   1 <1>  -0.1600 
 17 C       -4.6810    -4.1110    -1.5840 C.3   1 <1>  -0.1600 
 18 H        2.8460    -1.2530     1.2640 H     1 <1>   0.1500 
 19 H       -2.2140    -3.7300    -0.3760 H     1 <1>   0.3700 
 20 H       -4.3040    -2.3690     1.2810 H     1 <1>   0.0800 
 21 H        4.0690    -5.9680    -1.8620 H     1 <1>   0.0800 
 22 H        4.1740    -5.1480    -0.2940 H     1 <1>   0.0800 
 23 H        4.0020    -4.1980    -1.7800 H     1 <1>   0.0800 
 24 H       -5.4510    -4.4480     1.2560 H     1 <1>   0.0800 
 25 H       -3.8100    -4.9830     1.5270 H     1 <1>   0.0800 
 26 H       -4.1740    -1.9940    -1.3620 H     1 <1>   0.0800 
 27 H       -5.6910    -2.4770    -0.6410 H     1 <1>   0.0800 
 28 H       -5.3710    -5.8940    -0.5500 H     1 <1>   0.0800 
 29 H       -3.6320    -5.7640    -0.6940 H     1 <1>   0.0800 
 30 H       -3.8440    -4.1510    -2.2610 H     1 <1>   0.0800 
 31 H       -5.5900    -4.2250    -2.1510 H     1 <1>   0.0800 
@<TRIPOS>BOND
  1   1   2  1   
  2   2   3  ar  
  3   2   4  ar  
  4   3   5  ar  
  5   3   6  1   
  6   4   7  ar  
  7   4  18  1   
  8   5   8  ar  
  9   6   9  2   
 10   6  10  am  
 11   7   8  ar  
 12   8  11  1   
 13  10  12  1   
 14  10  19  1   
 15  11  13  1   
 16  12  14  1   
 17  12  15  1   
 18  12  20  1   
 19  13  21  1   
 20  13  22  1   
 21  13  23  1   
 22  14  16  1   
 23  14  24  1   
 24  14  25  1   
 25  15  17  1   
 26  15  26  1   
 27  15  27  1   
 28  16  17  1   
 29  16  28  1   
 30  16  29  1   
 31  17  30  1   
 32  17  31  1   
@<TRIPOS>SUBSTRUCTURE
  1 ****   3 GROUP 4 **** **** 0

# MOE 2024.06 (io_trps.svl 2023.06)
