@<TRIPOS>MOLECULE
NONAME
41 44 1 0 0 
SMALL
USER_CHARGES


@<TRIPOS>ATOM
  1 S        0.3970    -0.8910    -0.2670 S.3   1 <1>  -0.0800 
  2 C        1.6960     0.2880    -0.2000 C.2   1 <1>   0.1660 
  3 C       -0.8000     0.3730    -0.0340 C.2   1 <1>  -0.1400 
  4 N        2.9930    -0.0620    -0.3300 N.2   1 <1>  -0.5760 
  5 C        1.2170     1.5450    -0.0090 C.2   1 <1>  -0.0860 
  6 C       -0.2180     1.5760     0.0930 C.2   1 <1>  -0.1810 
  7 C       -2.2720     0.0400     0.0040 C.3   1 <1>   0.5230 
  8 C        3.8260     0.9210    -0.2600 C.2   1 <1>   0.6510 
  9 C        2.1790     2.5950     0.0540 C.2   1 <1>   0.7160 
 10 C       -1.0560     2.8220     0.3210 C.3   1 <1>   0.0210 
 11 N       -3.0310     1.3220    -0.1990 N.4   1 <1>  -0.9590 
 12 S        5.5600     0.5150    -0.4240 S.3   1 <1>  -0.3710 
 13 N        3.5160     2.2580    -0.0710 N.am  1 <1>  -0.2370 
 14 O        1.8280     3.7560     0.2130 O.2   1 <1>  -0.5700 
 15 C       -2.5100     2.4410     0.6710 C.3   1 <1>   0.3430 
 16 C       -4.4990     1.1180    -0.0200 C.3   1 <1>   0.2630 
 17 C        5.6060    -1.3200    -0.6580 C.3   1 <1>  -0.0100 
 18 C        4.5080     3.2580    -0.0030 C.ar  1 <1>   0.1170 
 19 C        5.0760     3.6060     1.2170 C.ar  1 <1>  -0.1500 
 20 C        4.9300     3.9130    -1.1540 C.ar  1 <1>  -0.1500 
 21 C        6.0490     4.5880     1.2850 C.ar  1 <1>  -0.1500 
 22 C        5.9020     4.8950    -1.0870 C.ar  1 <1>  -0.1500 
 23 C        6.4630     5.2330     0.1320 C.ar  1 <1>  -0.1500 
 24 H       -2.5160    -0.4020     0.9560 H     1 <1>   0.0800 
 25 H       -2.5080    -0.6620    -0.7790 H     1 <1>   0.0800 
 26 H       -1.0370     3.4380    -0.5610 H     1 <1>   0.0800 
 27 H       -0.6450     3.4000     1.1300 H     1 <1>   0.0800 
 28 H       -2.8440     1.5970    -1.1740 H     1 <1>   0.4500 
 29 H       -3.1340     3.3140     0.5670 H     1 <1>   0.0800 
 30 H       -2.5440     2.1290     1.7020 H     1 <1>   0.0800 
 31 H       -4.7170     0.8220     0.9930 H     1 <1>   0.0800 
 32 H       -4.8570     0.3520    -0.6890 H     1 <1>   0.0800 
 33 H       -5.0320     2.0310    -0.2330 H     1 <1>   0.0800 
 34 H        5.0460    -1.5550    -1.5450 H     1 <1>   0.0800 
 35 H        5.1620    -1.7760     0.2090 H     1 <1>   0.0800 
 36 H        6.6350    -1.6130    -0.7620 H     1 <1>   0.0800 
 37 H        4.7590     3.1090     2.1160 H     1 <1>   0.1500 
 38 H        4.4980     3.6560    -2.1040 H     1 <1>   0.1500 
 39 H        6.4840     4.8510     2.2340 H     1 <1>   0.1500 
 40 H        6.2240     5.3980    -1.9830 H     1 <1>   0.1500 
 41 H        7.2190     5.9970     0.1850 H     1 <1>   0.1500 
@<TRIPOS>BOND
  1   1   2  1   
  2   1   3  1   
  3   2   4  1   
  4   2   5  2   
  5   3   6  2   
  6   3   7  1   
  7   4   8  2   
  8   5   6  1   
  9   5   9  1   
 10   6  10  1   
 11   7  11  1   
 12   7  24  1   
 13   7  25  1   
 14   8  12  1   
 15   8  13  1   
 16   9  13  am  
 17   9  14  2   
 18  10  15  1   
 19  10  26  1   
 20  10  27  1   
 21  11  15  1   
 22  11  16  1   
 23  11  28  1   
 24  12  17  1   
 25  13  18  1   
 26  15  29  1   
 27  15  30  1   
 28  16  31  1   
 29  16  32  1   
 30  16  33  1   
 31  17  34  1   
 32  17  35  1   
 33  17  36  1   
 34  18  19  ar  
 35  18  20  ar  
 36  19  21  ar  
 37  19  37  1   
 38  20  22  ar  
 39  20  38  1   
 40  21  23  ar  
 41  21  39  1   
 42  22  23  ar  
 43  22  40  1   
 44  23  41  1   
@<TRIPOS>SUBSTRUCTURE
  1 ****   9 GROUP 4 **** **** 0

# MOE 2024.06 (io_trps.svl 2023.06)
