@<TRIPOS>MOLECULE
NONAME
49 51 1 0 0 
SMALL
USER_CHARGES


@<TRIPOS>ATOM
  1 O        2.6150    -2.1690    -1.9140 O.2   1 <1>  -0.5700 
  2 C        2.4950    -1.7590    -0.7830 C.2   1 <1>   0.5690 
  3 N        2.8160    -0.4710    -0.4550 N.am  1 <1>  -0.6600 
  4 C        1.9730    -2.7490     0.2630 C.3   1 <1>  -0.0190 
  5 C        2.7590     0.1730     0.8780 C.3   1 <1>   0.1400 
  6 C        3.2840     0.4910    -1.4790 C.3   1 <1>   0.1400 
  7 C        2.9600    -3.9210     0.4320 C.3   1 <1>  -0.1600 
  8 C        0.5800    -3.2750    -0.1350 C.3   1 <1>  -0.1600 
  9 C        3.4310     1.5280     0.6920 C.3   1 <1>  -0.1600 
 10 C        3.2510     1.8490    -0.7880 C.3   1 <1>  -0.1600 
 11 C        2.4190    -5.0090     1.3570 C.3   1 <1>   0.3430 
 12 C        0.0840    -4.3720     0.8030 C.3   1 <1>   0.3430 
 13 N        1.0970    -5.4600     0.8570 N.4   1 <1>  -0.9590 
 14 C        0.6000    -6.6690     1.5610 C.3   1 <1>   0.4860 
 15 C       -0.5740    -7.2340     0.7860 C.ar  1 <1>  -0.1440 
 16 C       -0.4180    -7.6200    -0.5430 C.ar  1 <1>   0.0820 
 17 C       -1.8090    -7.3650     1.4040 C.ar  1 <1>  -0.1500 
 18 O        0.8120    -7.4630    -1.1060 O.3   1 <1>  -0.3630 
 19 C       -1.5090    -8.1340    -1.2410 C.ar  1 <1>  -0.1500 
 20 C       -2.8870    -7.8760     0.7040 C.ar  1 <1>  -0.1500 
 21 C        1.0830    -7.9170    -2.4170 C.3   1 <1>   0.0400 
 22 C       -2.7360    -8.2590    -0.6160 C.ar  1 <1>  -0.1500 
 23 H        1.8770    -2.2550     1.2110 H     1 <1>   0.0800 
 24 H        3.2760    -0.4140     1.6180 H     1 <1>   0.0800 
 25 H        1.7290     0.3070     1.1630 H     1 <1>   0.0800 
 26 H        2.6470     0.4700    -2.3480 H     1 <1>   0.0800 
 27 H        4.2900     0.2360    -1.7660 H     1 <1>   0.0800 
 28 H        3.8890    -3.5500     0.8270 H     1 <1>   0.0800 
 29 H        3.1760    -4.3580    -0.5290 H     1 <1>   0.0800 
 30 H        0.6060    -3.6650    -1.1390 H     1 <1>   0.0800 
 31 H       -0.1230    -2.4600    -0.1310 H     1 <1>   0.0800 
 32 H        4.4790     1.4340     0.9180 H     1 <1>   0.0800 
 33 H        3.0020     2.2810     1.3290 H     1 <1>   0.0800 
 34 H        2.2880     2.3010    -0.9520 H     1 <1>   0.0800 
 35 H        4.0150     2.5060    -1.1640 H     1 <1>   0.0800 
 36 H        2.3190    -4.6200     2.3570 H     1 <1>   0.0800 
 37 H        3.1100    -5.8370     1.3770 H     1 <1>   0.0800 
 38 H       -0.8550    -4.7560     0.4360 H     1 <1>   0.0800 
 39 H       -0.0740    -3.9670     1.7890 H     1 <1>   0.0800 
 40 H        1.2190    -5.7940    -0.1170 H     1 <1>   0.4500 
 41 H        0.3020    -6.4220     2.5660 H     1 <1>   0.0800 
 42 H        1.3770    -7.4150     1.6020 H     1 <1>   0.0800 
 43 H       -1.9500    -7.0780     2.4320 H     1 <1>   0.1500 
 44 H       -1.4280    -8.4430    -2.2660 H     1 <1>   0.1500 
 45 H       -3.8460    -7.9800     1.1840 H     1 <1>   0.1500 
 46 H        0.4640    -7.3780    -3.1130 H     1 <1>   0.0800 
 47 H        0.8880    -8.9740    -2.4710 H     1 <1>   0.0800 
 48 H        2.1200    -7.7290    -2.6340 H     1 <1>   0.0800 
 49 H       -3.5780    -8.6580    -1.1580 H     1 <1>   0.1500 
@<TRIPOS>BOND
  1   1   2  2   
  2   2   3  am  
  3   2   4  1   
  4   3   5  1   
  5   3   6  1   
  6   4   7  1   
  7   4   8  1   
  8   4  23  1   
  9   5   9  1   
 10   5  24  1   
 11   5  25  1   
 12   6  10  1   
 13   6  26  1   
 14   6  27  1   
 15   7  11  1   
 16   7  28  1   
 17   7  29  1   
 18   8  12  1   
 19   8  30  1   
 20   8  31  1   
 21   9  10  1   
 22   9  32  1   
 23   9  33  1   
 24  10  34  1   
 25  10  35  1   
 26  11  13  1   
 27  11  36  1   
 28  11  37  1   
 29  12  13  1   
 30  12  38  1   
 31  12  39  1   
 32  13  14  1   
 33  13  40  1   
 34  14  15  1   
 35  14  41  1   
 36  14  42  1   
 37  15  16  ar  
 38  15  17  ar  
 39  16  18  1   
 40  16  19  ar  
 41  17  20  ar  
 42  17  43  1   
 43  18  21  1   
 44  19  22  ar  
 45  19  44  1   
 46  20  22  ar  
 47  20  45  1   
 48  21  46  1   
 49  21  47  1   
 50  21  48  1   
 51  22  49  1   
@<TRIPOS>SUBSTRUCTURE
  1 ****   8 GROUP 4 **** **** 0

# MOE 2024.06 (io_trps.svl 2023.06)
