@<TRIPOS>MOLECULE
NONAME
38 39 1 0 0 
SMALL
USER_CHARGES


@<TRIPOS>ATOM
  1 CL       0.5130     0.9370    -2.1580 Cl    1 <1>  -0.1770 
  2 C        1.9360     0.3230    -1.3590 C.ar  1 <1>   0.1770 
  3 C        2.0510    -1.0030    -0.9570 C.ar  1 <1>  -0.0090 
  4 C        2.9460     1.2370    -1.1300 C.ar  1 <1>  -0.1500 
  5 S        0.7550    -2.2460    -1.2150 S.o2  1 <1>   1.4470 
  6 C        3.2190    -1.3620    -0.2930 C.ar  1 <1>  -0.1500 
  7 C        4.0940     0.8390    -0.4770 C.ar  1 <1>   0.1770 
  8 O       -0.1290    -1.9250    -2.3110 O.2   1 <1>  -0.6500 
  9 O        1.3950    -3.5430    -1.2160 O.2   1 <1>  -0.6500 
 10 N       -0.1500    -2.1550     0.2160 N.am  1 <1>  -0.8490 
 11 C        4.2670    -0.4740    -0.0360 C.ar  1 <1>   0.0860 
 12 CL       5.3120     2.0620    -0.2140 Cl    1 <1>  -0.1770 
 13 C       -0.8640    -3.4140     0.4870 C.3   1 <1>   0.1960 
 14 C       -1.1150    -1.0410     0.2220 C.3   1 <1>   0.1960 
 15 C        5.4440    -0.9470     0.6660 C.2   1 <1>   0.5440 
 16 C       -1.6820    -3.3240     1.7880 C.3   1 <1>   0.1200 
 17 C       -1.9200    -1.0100     1.5340 C.3   1 <1>   0.1200 
 18 O        5.3170    -1.7360     1.5810 O.2   1 <1>  -0.5700 
 19 N        6.7020    -0.5580     0.3070 N.am  1 <1>  -0.7300 
 20 O       -2.5600    -2.2350     1.7460 O.3   1 <1>  -0.5600 
 21 C        7.9540    -1.0360     0.9240 C.3   1 <1>   0.1400 
 22 C        8.9750    -1.2780    -0.1810 C.3   1 <1>  -0.2400 
 23 H        2.8340     2.2570    -1.4550 H     1 <1>   0.1500 
 24 H        3.3300    -2.3810     0.0480 H     1 <1>   0.1500 
 25 H       -0.1560    -4.2200     0.5860 H     1 <1>   0.0800 
 26 H       -1.5240    -3.6490    -0.3320 H     1 <1>   0.0800 
 27 H       -1.8030    -1.1350    -0.6030 H     1 <1>   0.0800 
 28 H       -0.5940    -0.1070     0.1200 H     1 <1>   0.0800 
 29 H       -1.0300    -3.2090     2.6360 H     1 <1>   0.0800 
 30 H       -2.2700    -4.2150     1.9210 H     1 <1>   0.0800 
 31 H       -2.6770    -0.2480     1.4890 H     1 <1>   0.0800 
 32 H       -1.2730    -0.8100     2.3710 H     1 <1>   0.0800 
 33 H        6.8170     0.2000    -0.3690 H     1 <1>   0.3700 
 34 H        7.7740    -1.9510     1.4650 H     1 <1>   0.0800 
 35 H        8.3170    -0.2950     1.6160 H     1 <1>   0.0800 
 36 H        8.6050    -2.0150    -0.8710 H     1 <1>   0.0800 
 37 H        9.8890    -1.6450     0.2500 H     1 <1>   0.0800 
 38 H        9.1880    -0.3640    -0.7050 H     1 <1>   0.0800 
@<TRIPOS>BOND
  1   1   2  1   
  2   2   3  ar  
  3   2   4  ar  
  4   3   5  1   
  5   3   6  ar  
  6   4   7  ar  
  7   4  23  1   
  8   5   8  2   
  9   5   9  2   
 10   5  10  am  
 11   6  11  ar  
 12   6  24  1   
 13   7  11  ar  
 14   7  12  1   
 15  10  13  1   
 16  10  14  1   
 17  11  15  1   
 18  13  16  1   
 19  13  25  1   
 20  13  26  1   
 21  14  17  1   
 22  14  27  1   
 23  14  28  1   
 24  15  18  2   
 25  15  19  am  
 26  16  20  1   
 27  16  29  1   
 28  16  30  1   
 29  17  20  1   
 30  17  31  1   
 31  17  32  1   
 32  19  21  1   
 33  19  33  1   
 34  21  22  1   
 35  21  34  1   
 36  21  35  1   
 37  22  36  1   
 38  22  37  1   
 39  22  38  1   
@<TRIPOS>SUBSTRUCTURE
  1 ****   6 GROUP 4 **** **** 0

# MOE 2024.06 (io_trps.svl 2023.06)
