@<TRIPOS>MOLECULE
NONAME
33 34 1 0 0 
SMALL
USER_CHARGES


@<TRIPOS>ATOM
  1 O       -0.6830     0.4530     0.5340 O.2   1 <1>  -0.5700 
  2 C       -1.1320     1.3870    -0.0850 C.2   1 <1>   0.6300 
  3 N       -2.4030     1.3430    -0.6060 N.am  1 <1>  -0.6600 
  4 C       -0.2620     2.6270    -0.2660 C.3   1 <1>  -0.1000 
  5 C       -3.2410     0.1110    -0.4760 C.3   1 <1>   0.1400 
  6 C       -3.1160     2.4990    -1.2280 C.3   1 <1>   0.1400 
  7 C        0.7450     3.0300     0.7740 C.3   1 <1>  -0.2000 
  8 C       -0.4790     3.8630     0.5640 C.3   1 <1>  -0.2000 
  9 C       -4.5320     0.4220     0.3000 C.3   1 <1>   0.3430 
 10 C       -4.4230     2.7970    -0.4640 C.3   1 <1>   0.3430 
 11 N       -5.2910     1.5730    -0.3070 N.4   1 <1>  -0.9590 
 12 C       -6.5260     1.8570     0.4570 C.3   1 <1>   0.4810 
 13 C       -7.4260     2.6710    -0.4420 C.2   1 <1>  -0.2880 
 14 C       -8.4990     2.2000    -1.0870 C.2   1 <1>  -0.3000 
 15 H        0.0490     2.7410    -1.2880 H     1 <1>   0.1000 
 16 H       -2.7020    -0.6670     0.0390 H     1 <1>   0.0800 
 17 H       -3.4810    -0.2620    -1.4570 H     1 <1>   0.0800 
 18 H       -3.3410     2.2640    -2.2540 H     1 <1>   0.0800 
 19 H       -2.5000     3.3800    -1.2260 H     1 <1>   0.0800 
 20 H        1.6980     3.4080     0.4460 H     1 <1>   0.1000 
 21 H        0.8270     2.4320     1.6660 H     1 <1>   0.1000 
 22 H       -1.2150     3.8610     1.3490 H     1 <1>   0.1000 
 23 H       -0.3600     4.8310     0.1090 H     1 <1>   0.1000 
 24 H       -4.2640     0.6570     1.3170 H     1 <1>   0.0800 
 25 H       -5.1510    -0.4600     0.3170 H     1 <1>   0.0800 
 26 H       -4.9650     3.5670    -0.9880 H     1 <1>   0.0800 
 27 H       -4.1640     3.1820     0.5090 H     1 <1>   0.0800 
 28 H       -5.6070     1.2930    -1.2450 H     1 <1>   0.4500 
 29 H       -6.3090     2.3870     1.3710 H     1 <1>   0.0800 
 30 H       -7.0220     0.9320     0.7030 H     1 <1>   0.0800 
 31 H       -7.1300     3.7040    -0.5160 H     1 <1>   0.1500 
 32 H       -9.1320     2.8050    -1.7190 H     1 <1>   0.1500 
 33 H       -8.8520     1.1820    -1.0470 H     1 <1>   0.1500 
@<TRIPOS>BOND
  1   1   2  2   
  2   2   3  am  
  3   2   4  1   
  4   3   5  1   
  5   3   6  1   
  6   4   7  1   
  7   4   8  1   
  8   4  15  1   
  9   5   9  1   
 10   5  16  1   
 11   5  17  1   
 12   6  10  1   
 13   6  18  1   
 14   6  19  1   
 15   7   8  1   
 16   7  20  1   
 17   7  21  1   
 18   8  22  1   
 19   8  23  1   
 20   9  11  1   
 21   9  24  1   
 22   9  25  1   
 23  10  11  1   
 24  10  26  1   
 25  10  27  1   
 26  11  12  1   
 27  11  28  1   
 28  12  13  1   
 29  12  29  1   
 30  12  30  1   
 31  13  14  2   
 32  13  31  1   
 33  14  32  1   
 34  14  33  1   
@<TRIPOS>SUBSTRUCTURE
  1 ****   3 GROUP 4 **** **** 0

# MOE 2024.06 (io_trps.svl 2023.06)
