@<TRIPOS>MOLECULE
NONAME
40 41 1 0 0 
SMALL
USER_CHARGES


@<TRIPOS>ATOM
  1 O       -0.1200    -0.1860     0.6990 O.3   1 <1>  -0.3630 
  2 C       -1.3140    -0.6500     0.2430 C.ar  1 <1>   0.0830 
  3 C        0.9590    -0.3630    -0.1910 C.3   1 <1>   0.0400 
  4 C       -2.1890     0.1980    -0.4510 C.ar  1 <1>   0.0830 
  5 C       -1.6640    -1.9950     0.4210 C.ar  1 <1>   0.0830 
  6 O       -2.0000     1.5300    -0.6560 O.3   1 <1>  -0.3630 
  7 C       -3.3510    -0.3180    -1.0010 C.ar  1 <1>  -0.1500 
  8 O       -0.9270    -2.9050     1.1140 O.3   1 <1>  -0.3630 
  9 C       -2.8320    -2.4840    -0.1390 C.ar  1 <1>  -0.1500 
 10 C       -1.3890     2.3320     0.3340 C.3   1 <1>   0.0400 
 11 C       -3.6820    -1.6540    -0.8510 C.ar  1 <1>  -0.1430 
 12 C       -0.3280    -2.5370     2.3400 C.3   1 <1>   0.0400 
 13 C       -4.9660    -2.1980    -1.4440 C.3   1 <1>   0.4860 
 14 N       -5.9590    -2.3400    -0.3480 N.4   1 <1>  -0.9590 
 15 C       -7.2250    -2.9870    -0.7570 C.3   1 <1>   0.3430 
 16 C       -6.3310    -1.0510     0.2830 C.3   1 <1>   0.3430 
 17 C       -8.2110    -2.6040     0.3380 C.3   1 <1>  -0.1600 
 18 C       -7.6350    -1.3520     1.0080 C.3   1 <1>  -0.1600 
 19 H        1.8440     0.0390     0.2670 H     1 <1>   0.0800 
 20 H        1.0860    -1.4140    -0.3830 H     1 <1>   0.0800 
 21 H        0.7450     0.1620    -1.1060 H     1 <1>   0.0800 
 22 H       -3.9860     0.3560    -1.5500 H     1 <1>   0.1500 
 23 H       -3.0520    -3.5290    -0.0040 H     1 <1>   0.1500 
 24 H       -1.6880     3.3520     0.1710 H     1 <1>   0.0800 
 25 H       -0.3220     2.2500     0.2410 H     1 <1>   0.0800 
 26 H       -1.7120     2.0040     1.3060 H     1 <1>   0.0800 
 27 H       -0.1750    -3.4290     2.9200 H     1 <1>   0.0800 
 28 H       -0.9790    -1.8610     2.8660 H     1 <1>   0.0800 
 29 H        0.6200    -2.0710     2.1410 H     1 <1>   0.0800 
 30 H       -4.7710    -3.1570    -1.8980 H     1 <1>   0.0800 
 31 H       -5.3360    -1.5270    -2.2020 H     1 <1>   0.0800 
 32 H       -5.5230    -2.9110     0.3880 H     1 <1>   0.4500 
 33 H       -7.1200    -4.0570    -0.8450 H     1 <1>   0.0800 
 34 H       -7.5580    -2.5790    -1.6980 H     1 <1>   0.0800 
 35 H       -6.5040    -0.3060    -0.4780 H     1 <1>   0.0800 
 36 H       -5.5640    -0.7010     0.9580 H     1 <1>   0.0800 
 37 H       -8.2930    -3.4060     1.0520 H     1 <1>   0.0800 
 38 H       -9.1860    -2.4210    -0.0810 H     1 <1>   0.0800 
 39 H       -8.3060    -0.5130     0.9360 H     1 <1>   0.0800 
 40 H       -7.4370    -1.5400     2.0500 H     1 <1>   0.0800 
@<TRIPOS>BOND
  1   1   2  1   
  2   1   3  1   
  3   2   4  ar  
  4   2   5  ar  
  5   3  19  1   
  6   3  20  1   
  7   3  21  1   
  8   4   6  1   
  9   4   7  ar  
 10   5   8  1   
 11   5   9  ar  
 12   6  10  1   
 13   7  11  ar  
 14   7  22  1   
 15   8  12  1   
 16   9  11  ar  
 17   9  23  1   
 18  10  24  1   
 19  10  25  1   
 20  10  26  1   
 21  11  13  1   
 22  12  27  1   
 23  12  28  1   
 24  12  29  1   
 25  13  14  1   
 26  13  30  1   
 27  13  31  1   
 28  14  15  1   
 29  14  16  1   
 30  14  32  1   
 31  15  17  1   
 32  15  33  1   
 33  15  34  1   
 34  16  18  1   
 35  16  35  1   
 36  16  36  1   
 37  17  18  1   
 38  17  37  1   
 39  17  38  1   
 40  18  39  1   
 41  18  40  1   
@<TRIPOS>SUBSTRUCTURE
  1 ****  11 GROUP 4 **** **** 0

# MOE 2024.06 (io_trps.svl 2023.06)
