@<TRIPOS>MOLECULE
NONAME
46 48 1 0 0 
SMALL
USER_CHARGES


@<TRIPOS>ATOM
  1 CL       0.2360    -0.5470     1.2260 Cl    1 <1>  -0.1770 
  2 C        1.7520    -1.2760     0.7510 C.ar  1 <1>   0.1770 
  3 C        2.5940    -1.7840     1.7230 C.ar  1 <1>  -0.1500 
  4 C        2.0870    -1.3340    -0.5890 C.ar  1 <1>  -0.1500 
  5 C        3.7940    -2.3610     1.3430 C.ar  1 <1>  -0.1500 
  6 C        3.2880    -1.9120    -0.9590 C.ar  1 <1>  -0.1500 
  7 C        4.1520    -2.4300    -0.0010 C.ar  1 <1>   0.1000 
  8 N        5.3500    -3.0070    -0.4040 N.pl3 1 <1>  -0.8380 
  9 C        5.4380    -4.4910    -0.2990 C.3   1 <1>   0.2090 
 10 C        6.5990    -2.2850    -0.0190 C.3   1 <1>   0.2090 
 11 C        6.6540    -5.0240    -1.0870 C.3   1 <1>   0.3430 
 12 C        7.8100    -2.8310    -0.8060 C.3   1 <1>   0.3430 
 13 N        7.9400    -4.3340    -0.7050 N.4   1 <1>  -0.9590 
 14 C        9.1000    -4.8360    -1.4890 C.3   1 <1>   0.4860 
 15 C       10.3640    -4.2600    -0.8810 C.ar  1 <1>  -0.1430 
 16 C       10.9040    -4.7570     0.3020 C.ar  1 <1>  -0.1430 
 17 C       10.9840    -3.2000    -1.5270 C.ar  1 <1>  -0.1500 
 18 C       12.0410    -4.1620     0.8280 C.ar  1 <1>  -0.1500 
 19 C       10.3070    -5.9440     1.0510 C.3   1 <1>  -0.0970 
 20 C       12.1190    -2.6190    -0.9930 C.ar  1 <1>  -0.1500 
 21 C       12.6490    -3.0950     0.1920 C.ar  1 <1>  -0.1430 
 22 C       13.8960    -2.4620     0.7840 C.3   1 <1>  -0.0970 
 23 H        2.3080    -1.7260     2.7580 H     1 <1>   0.1500 
 24 H        1.4150    -0.9310    -1.3250 H     1 <1>   0.1500 
 25 H        4.4530    -2.7580     2.0920 H     1 <1>   0.1500 
 26 H        3.5650    -1.9650    -1.9960 H     1 <1>   0.1500 
 27 H        4.5360    -4.9270    -0.6950 H     1 <1>   0.0800 
 28 H        5.5160    -4.7780     0.7360 H     1 <1>   0.0800 
 29 H        6.7720    -2.3920     1.0370 H     1 <1>   0.0800 
 30 H        6.4810    -1.2350    -0.2300 H     1 <1>   0.0800 
 31 H        6.4610    -4.8680    -2.1350 H     1 <1>   0.0800 
 32 H        6.7420    -6.0850    -0.9210 H     1 <1>   0.0800 
 33 H        8.7060    -2.3590    -0.4360 H     1 <1>   0.0800 
 34 H        7.6910    -2.5470    -1.8380 H     1 <1>   0.0800 
 35 H        8.1550    -4.5400     0.2770 H     1 <1>   0.4500 
 36 H        9.0140    -4.5340    -2.5200 H     1 <1>   0.0800 
 37 H        9.1420    -5.9120    -1.4510 H     1 <1>   0.0800 
 38 H       10.5980    -2.8100    -2.4530 H     1 <1>   0.1500 
 39 H       12.4690    -4.5330     1.7440 H     1 <1>   0.1500 
 40 H        9.4480    -5.6380     1.6190 H     1 <1>   0.0800 
 41 H       11.0270    -6.3540     1.7370 H     1 <1>   0.0800 
 42 H       10.0310    -6.7300     0.3720 H     1 <1>   0.0800 
 43 H       12.5930    -1.7980    -1.5030 H     1 <1>   0.1500 
 44 H       14.7670    -3.0030     0.4610 H     1 <1>   0.0800 
 45 H       13.8550    -2.4830     1.8590 H     1 <1>   0.0800 
 46 H       13.9890    -1.4380     0.4700 H     1 <1>   0.0800 
@<TRIPOS>BOND
  1   1   2  1   
  2   2   3  ar  
  3   2   4  ar  
  4   3   5  ar  
  5   3  23  1   
  6   4   6  ar  
  7   4  24  1   
  8   5   7  ar  
  9   5  25  1   
 10   6   7  ar  
 11   6  26  1   
 12   7   8  1   
 13   8   9  1   
 14   8  10  1   
 15   9  11  1   
 16   9  27  1   
 17   9  28  1   
 18  10  12  1   
 19  10  29  1   
 20  10  30  1   
 21  11  13  1   
 22  11  31  1   
 23  11  32  1   
 24  12  13  1   
 25  12  33  1   
 26  12  34  1   
 27  13  14  1   
 28  13  35  1   
 29  14  15  1   
 30  14  36  1   
 31  14  37  1   
 32  15  16  ar  
 33  15  17  ar  
 34  16  18  ar  
 35  16  19  1   
 36  17  20  ar  
 37  17  38  1   
 38  18  21  ar  
 39  18  39  1   
 40  19  40  1   
 41  19  41  1   
 42  19  42  1   
 43  20  21  ar  
 44  20  43  1   
 45  21  22  1   
 46  22  44  1   
 47  22  45  1   
 48  22  46  1   
@<TRIPOS>SUBSTRUCTURE
  1 ****  12 GROUP 4 **** **** 0

# MOE 2024.06 (io_trps.svl 2023.06)
