@<TRIPOS>MOLECULE
NONAME
60 62 1 0 0 
SMALL
USER_CHARGES


@<TRIPOS>ATOM
  1 S        0.2010    -0.6440    -0.5650 S.o2  1 <1>   1.4470 
  2 O        0.1300    -1.1990    -1.9000 O.2   1 <1>  -0.6500 
  3 O        1.3620     0.1300    -0.1950 O.2   1 <1>  -0.6500 
  4 N        0.0780    -1.9720     0.4820 N.am  1 <1>  -0.8490 
  5 C       -1.2910     0.3160    -0.1880 C.ar  1 <1>  -0.0090 
  6 C        1.3150    -2.8010     0.4750 C.3   1 <1>   0.2570 
  7 C       -1.1020    -2.8000     0.1960 C.3   1 <1>   0.1960 
  8 C       -2.2040     0.6580    -1.1800 C.ar  1 <1>  -0.1500 
  9 C       -1.5630     0.7210     1.1130 C.ar  1 <1>  -0.1500 
 10 C        2.5340    -2.2260     1.2240 C.2   1 <1>   0.5690 
 11 C       -1.6220    -3.4490     1.4810 C.3   1 <1>  -0.0160 
 12 C       -3.3540     1.3690    -0.8870 C.ar  1 <1>  -0.1500 
 13 C       -2.7100     1.4320     1.4170 C.ar  1 <1>  -0.1500 
 14 O        2.4480    -2.1760     2.4320 O.2   1 <1>  -0.5700 
 15 N        3.6930    -1.8580     0.5730 N.am  1 <1>  -0.6600 
 16 C       -2.9390    -4.1540     1.2020 C.ar  1 <1>  -0.1430 
 17 C       -3.6150     1.7600     0.4220 C.ar  1 <1>   0.0830 
 18 C        4.8510    -1.3500     1.3650 C.3   1 <1>   0.1400 
 19 C        3.8290    -1.7740    -0.9080 C.3   1 <1>   0.1400 
 20 C       -4.1260    -3.4380     1.2170 C.ar  1 <1>  -0.1500 
 21 C       -2.9670    -5.5120     0.9240 C.ar  1 <1>  -0.1500 
 22 O       -4.7160     2.4520     0.8000 O.3   1 <1>  -0.3630 
 23 C        6.2230    -1.7370     0.7910 C.3   1 <1>  -0.1600 
 24 C        4.3830    -3.0940    -1.4550 C.3   1 <1>  -0.1600 
 25 C       -5.3280    -4.0710     0.9560 C.ar  1 <1>  -0.1500 
 26 C       -4.1690    -6.1470     0.6620 C.ar  1 <1>  -0.1500 
 27 C       -5.6880     2.8580    -0.1380 C.3   1 <1>   0.0400 
 28 C        6.3180    -3.1790     0.2630 C.3   1 <1>  -0.1600 
 29 C        5.8860    -3.3010    -1.2080 C.3   1 <1>  -0.1600 
 30 C       -5.3510    -5.4260     0.6780 C.ar  1 <1>  -0.1500 
 31 H        1.5770    -3.0450    -0.5370 H     1 <1>   0.0800 
 32 H        1.1070    -3.7340     0.9650 H     1 <1>   0.0800 
 33 H       -0.8740    -3.5490    -0.5450 H     1 <1>   0.0800 
 34 H       -1.8970    -2.1920    -0.2010 H     1 <1>   0.0800 
 35 H       -2.0120     0.3590    -2.1980 H     1 <1>   0.1500 
 36 H       -0.8650     0.4720     1.8970 H     1 <1>   0.1500 
 37 H       -1.7780    -2.6880     2.2250 H     1 <1>   0.0800 
 38 H       -0.9080    -4.1520     1.8660 H     1 <1>   0.0800 
 39 H       -4.0310     1.6090    -1.6850 H     1 <1>   0.1500 
 40 H       -2.9100     1.7380     2.4290 H     1 <1>   0.1500 
 41 H        4.7910    -1.7440     2.3660 H     1 <1>   0.0800 
 42 H        4.7780    -0.2790     1.4370 H     1 <1>   0.0800 
 43 H        4.4720    -0.9540    -1.1750 H     1 <1>   0.0800 
 44 H        2.8740    -1.5740    -1.3580 H     1 <1>   0.0800 
 45 H       -4.1210    -2.3830     1.4340 H     1 <1>   0.1500 
 46 H       -2.0560    -6.0840     0.9100 H     1 <1>   0.1500 
 47 H        6.9400    -1.6160     1.5830 H     1 <1>   0.0800 
 48 H        6.5020    -1.0400     0.0210 H     1 <1>   0.0800 
 49 H        4.2180    -3.1110    -2.5180 H     1 <1>   0.0800 
 50 H        3.8320    -3.9160    -1.0340 H     1 <1>   0.0800 
 51 H       -6.2460    -3.5090     0.9700 H     1 <1>   0.1500 
 52 H       -4.1870    -7.2010     0.4480 H     1 <1>   0.1500 
 53 H       -6.4560     3.3950     0.3890 H     1 <1>   0.0800 
 54 H       -6.1080     1.9850    -0.6060 H     1 <1>   0.0800 
 55 H       -5.2250     3.5020    -0.8650 H     1 <1>   0.0800 
 56 H        5.7390    -3.8440     0.8820 H     1 <1>   0.0800 
 57 H        7.3450    -3.4930     0.3290 H     1 <1>   0.0800 
 58 H        6.4420    -2.5930    -1.7980 H     1 <1>   0.0800 
 59 H        6.1520    -4.2820    -1.5600 H     1 <1>   0.0800 
 60 H       -6.2860    -5.9190     0.4750 H     1 <1>   0.1500 
@<TRIPOS>BOND
  1   1   2  2   
  2   1   3  2   
  3   1   4  am  
  4   1   5  1   
  5   4   6  1   
  6   4   7  1   
  7   5   8  ar  
  8   5   9  ar  
  9   6  10  1   
 10   6  31  1   
 11   6  32  1   
 12   7  11  1   
 13   7  33  1   
 14   7  34  1   
 15   8  12  ar  
 16   8  35  1   
 17   9  13  ar  
 18   9  36  1   
 19  10  14  2   
 20  10  15  am  
 21  11  16  1   
 22  11  37  1   
 23  11  38  1   
 24  12  17  ar  
 25  12  39  1   
 26  13  17  ar  
 27  13  40  1   
 28  15  18  1   
 29  15  19  1   
 30  16  20  ar  
 31  16  21  ar  
 32  17  22  1   
 33  18  23  1   
 34  18  41  1   
 35  18  42  1   
 36  19  24  1   
 37  19  43  1   
 38  19  44  1   
 39  20  25  ar  
 40  20  45  1   
 41  21  26  ar  
 42  21  46  1   
 43  22  27  1   
 44  23  28  1   
 45  23  47  1   
 46  23  48  1   
 47  24  29  1   
 48  24  49  1   
 49  24  50  1   
 50  25  30  ar  
 51  25  51  1   
 52  26  30  ar  
 53  26  52  1   
 54  27  53  1   
 55  27  54  1   
 56  27  55  1   
 57  28  29  1   
 58  28  56  1   
 59  28  57  1   
 60  29  58  1   
 61  29  59  1   
 62  30  60  1   
@<TRIPOS>SUBSTRUCTURE
  1 ****   4 GROUP 4 **** **** 0

# MOE 2024.06 (io_trps.svl 2023.06)
