@<TRIPOS>MOLECULE
NONAME
40 41 1 0 0 
SMALL
USER_CHARGES


@<TRIPOS>ATOM
  1 O       -0.6550    -0.1630    -1.2070 O.2   1 <1>  -0.5700 
  2 C       -0.4940    -0.9560    -0.3030 C.2   1 <1>   0.7060 
  3 O        0.6820    -0.9790     0.3300 O.3   1 <1>  -0.4300 
  4 C       -1.4750    -1.8960     0.1500 C.2   1 <1>  -0.1360 
  5 C        1.7320    -0.1010    -0.0270 C.3   1 <1>   0.0400 
  6 C       -2.7700    -2.0570    -0.2220 C.2   1 <1>  -0.0620 
  7 O       -3.3430    -1.2740    -1.1510 O.3   1 <1>  -0.1590 
  8 C       -3.7180    -3.1480     0.3130 C.3   1 <1>   0.4180 
  9 C       -3.8520    -0.0410    -0.8870 C.ar  1 <1>   0.0820 
 10 O       -3.0910    -3.8260     1.3390 O.3   1 <1>  -0.6800 
 11 C       -4.0410    -4.1910    -0.7800 C.3   1 <1>  -0.1600 
 12 C       -5.0130    -2.5810     0.9200 C.3   1 <1>  -0.1600 
 13 C       -3.7400     0.5740     0.3560 C.ar  1 <1>  -0.1500 
 14 C       -4.5180     0.6080    -1.9150 C.ar  1 <1>  -0.1500 
 15 C       -5.4090    -4.8940    -0.6310 C.3   1 <1>  -0.1600 
 16 C       -5.9440    -3.6540     1.5300 C.3   1 <1>  -0.1600 
 17 C       -4.2990     1.8230     0.5630 C.ar  1 <1>  -0.1500 
 18 C       -5.0770     1.8570    -1.7060 C.ar  1 <1>  -0.1500 
 19 C       -5.8510    -5.0250     0.8310 C.3   1 <1>  -0.1600 
 20 C       -4.9690     2.4640    -0.4660 C.ar  1 <1>  -0.1500 
 21 H       -1.0660    -2.5500     0.8950 H     1 <1>   0.1500 
 22 H        2.5730    -0.2950     0.6150 H     1 <1>   0.0800 
 23 H        1.3950     0.9140     0.0990 H     1 <1>   0.0800 
 24 H        1.9990    -0.2780    -1.0540 H     1 <1>   0.0800 
 25 H       -3.7350    -4.4670     1.6910 H     1 <1>   0.4000 
 26 H       -4.0430    -3.7030    -1.7390 H     1 <1>   0.0800 
 27 H       -3.2510    -4.9210    -0.8130 H     1 <1>   0.0800 
 28 H       -4.7740    -1.8390     1.6610 H     1 <1>   0.0800 
 29 H       -5.5510    -2.0780     0.1360 H     1 <1>   0.0800 
 30 H       -3.2190     0.0930     1.1620 H     1 <1>   0.1500 
 31 H       -4.5940     0.1320    -2.8750 H     1 <1>   0.1500 
 32 H       -6.1530    -4.3210    -1.1580 H     1 <1>   0.0800 
 33 H       -5.3660    -5.8660    -1.0920 H     1 <1>   0.0800 
 34 H       -5.7140    -3.7800     2.5740 H     1 <1>   0.0800 
 35 H       -6.9560    -3.2930     1.4710 H     1 <1>   0.0800 
 36 H       -4.2110     2.2990     1.5240 H     1 <1>   0.1500 
 37 H       -5.5920     2.3560    -2.5080 H     1 <1>   0.1500 
 38 H       -5.1500    -5.6550     1.3510 H     1 <1>   0.0800 
 39 H       -6.8100    -5.5140     0.8780 H     1 <1>   0.0800 
 40 H       -5.4020     3.4350    -0.3040 H     1 <1>   0.1500 
@<TRIPOS>BOND
  1   1   2  2   
  2   2   3  1   
  3   2   4  1   
  4   3   5  1   
  5   4   6  2   
  6   4  21  1   
  7   5  22  1   
  8   5  23  1   
  9   5  24  1   
 10   6   7  1   
 11   6   8  1   
 12   7   9  1   
 13   8  10  1   
 14   8  11  1   
 15   8  12  1   
 16   9  13  ar  
 17   9  14  ar  
 18  10  25  1   
 19  11  15  1   
 20  11  26  1   
 21  11  27  1   
 22  12  16  1   
 23  12  28  1   
 24  12  29  1   
 25  13  17  ar  
 26  13  30  1   
 27  14  18  ar  
 28  14  31  1   
 29  15  19  1   
 30  15  32  1   
 31  15  33  1   
 32  16  19  1   
 33  16  34  1   
 34  16  35  1   
 35  17  20  ar  
 36  17  36  1   
 37  18  20  ar  
 38  18  37  1   
 39  19  38  1   
 40  19  39  1   
 41  20  40  1   
@<TRIPOS>SUBSTRUCTURE
  1 ****   6 GROUP 4 **** **** 0

# MOE 2024.06 (io_trps.svl 2023.06)
