@<TRIPOS>MOLECULE
NONAME
50 51 1 0 0 
SMALL
USER_CHARGES


@<TRIPOS>ATOM
  1 S        0.0530    -0.5040    -1.6340 S.o2  1 <1>   1.4470 
  2 O       -0.1650    -0.6140    -3.0600 O.2   1 <1>  -0.6500 
  3 O        0.2390     0.7990    -1.0360 O.2   1 <1>  -0.6500 
  4 N        1.4700    -1.3800    -1.3070 N.am  1 <1>  -0.8490 
  5 C       -1.2130    -1.4180    -0.7130 C.ar  1 <1>  -0.0090 
  6 C        2.6620    -0.6320    -1.7990 C.3   1 <1>   0.2570 
  7 C        1.4470    -2.7300    -1.8980 C.3   1 <1>   0.1160 
  8 C       -1.1780    -1.4730     0.6750 C.ar  1 <1>  -0.1500 
  9 C       -2.2320    -2.1020    -1.3650 C.ar  1 <1>  -0.1500 
 10 C        3.9840    -1.1480    -1.2250 C.2   1 <1>   0.5690 
 11 C       -2.1150    -2.1900     1.4000 C.ar  1 <1>  -0.1440 
 12 C       -3.1790    -2.8220    -0.6580 C.ar  1 <1>  -0.1500 
 13 O        4.9810    -1.0850    -1.9020 O.2   1 <1>  -0.5700 
 14 N        3.9300    -1.6760     0.0350 N.am  1 <1>  -0.5470 
 15 C       -3.1250    -2.8740     0.7310 C.ar  1 <1>   0.0830 
 16 C       -2.0350    -2.2210     2.9200 C.3   1 <1>  -0.0970 
 17 C        4.8740    -2.2840     0.8770 C.ar  1 <1>   0.1170 
 18 O       -4.0210    -3.5680     1.4790 O.3   1 <1>  -0.3630 
 19 C        4.4280    -2.9940     1.9940 C.ar  1 <1>  -0.1430 
 20 C        6.2420    -2.1980     0.6400 C.ar  1 <1>  -0.1500 
 21 C       -5.1190    -4.2360     0.8980 C.3   1 <1>   0.0400 
 22 C        5.3460    -3.5980     2.8370 C.ar  1 <1>  -0.1500 
 23 C        2.9410    -3.1230     2.3110 C.3   1 <1>  -0.0970 
 24 C        7.1580    -2.8050     1.4820 C.ar  1 <1>  -0.1430 
 25 C        6.7030    -3.5060     2.5840 C.ar  1 <1>  -0.1500 
 26 C        8.6460    -2.7010     1.2040 C.3   1 <1>  -0.0970 
 27 H        2.5910     0.4020    -1.5130 H     1 <1>   0.0800 
 28 H        2.7040    -0.6680    -2.8740 H     1 <1>   0.0800 
 29 H        0.6040    -3.2860    -1.5250 H     1 <1>   0.0800 
 30 H        2.3410    -3.2720    -1.6400 H     1 <1>   0.0800 
 31 H        1.3760    -2.6740    -2.9720 H     1 <1>   0.0800 
 32 H       -0.3970    -0.9400     1.1900 H     1 <1>   0.1500 
 33 H       -2.2870    -2.0700    -2.4410 H     1 <1>   0.1500 
 34 H       -3.9470    -3.3340    -1.2050 H     1 <1>   0.1500 
 35 H        2.9730    -1.7040     0.3900 H     1 <1>   0.3700 
 36 H       -1.2170    -1.6260     3.2820 H     1 <1>   0.0800 
 37 H       -1.9030    -3.2330     3.2570 H     1 <1>   0.0800 
 38 H       -2.9490    -1.8370     3.3390 H     1 <1>   0.0800 
 39 H        6.6000    -1.6480    -0.2090 H     1 <1>   0.1500 
 40 H       -5.6930    -4.6830     1.6890 H     1 <1>   0.0800 
 41 H       -4.7530    -5.0000     0.2360 H     1 <1>   0.0800 
 42 H       -5.7230    -3.5200     0.3680 H     1 <1>   0.0800 
 43 H        5.0160    -4.1470     3.7010 H     1 <1>   0.1500 
 44 H        2.5200    -2.1520     2.5010 H     1 <1>   0.0800 
 45 H        2.7850    -3.7330     3.1820 H     1 <1>   0.0800 
 46 H        2.4250    -3.5790     1.4860 H     1 <1>   0.0800 
 47 H        7.4030    -3.9810     3.2490 H     1 <1>   0.1500 
 48 H        9.0780    -1.9350     1.8230 H     1 <1>   0.0800 
 49 H        8.8240    -2.4550     0.1730 H     1 <1>   0.0800 
 50 H        9.1300    -3.6370     1.4180 H     1 <1>   0.0800 
@<TRIPOS>BOND
  1   1   2  2   
  2   1   3  2   
  3   1   4  am  
  4   1   5  1   
  5   4   6  1   
  6   4   7  1   
  7   5   8  ar  
  8   5   9  ar  
  9   6  10  1   
 10   6  27  1   
 11   6  28  1   
 12   7  29  1   
 13   7  30  1   
 14   7  31  1   
 15   8  11  ar  
 16   8  32  1   
 17   9  12  ar  
 18   9  33  1   
 19  10  13  2   
 20  10  14  am  
 21  11  15  ar  
 22  11  16  1   
 23  12  15  ar  
 24  12  34  1   
 25  14  17  1   
 26  14  35  1   
 27  15  18  1   
 28  16  36  1   
 29  16  37  1   
 30  16  38  1   
 31  17  19  ar  
 32  17  20  ar  
 33  18  21  1   
 34  19  22  ar  
 35  19  23  1   
 36  20  24  ar  
 37  20  39  1   
 38  21  40  1   
 39  21  41  1   
 40  21  42  1   
 41  22  25  ar  
 42  22  43  1   
 43  23  44  1   
 44  23  45  1   
 45  23  46  1   
 46  24  25  ar  
 47  24  26  1   
 48  25  47  1   
 49  26  48  1   
 50  26  49  1   
 51  26  50  1   
@<TRIPOS>SUBSTRUCTURE
  1 ****   4 GROUP 4 **** **** 0

# MOE 2024.06 (io_trps.svl 2023.06)
