@<TRIPOS>MOLECULE
NONAME
42 43 1 0 0 
SMALL
USER_CHARGES


@<TRIPOS>ATOM
  1 O        0.2470    -0.0920     0.7890 O.2   1 <1>  -0.5700 
  2 C        0.6930    -1.1310     0.3420 C.2   1 <1>   0.6900 
  3 N        2.0490    -1.2970     0.2250 N.am  1 <1>  -0.6600 
  4 N       -0.1290    -2.1530    -0.0430 N.am  1 <1>  -0.5470 
  5 C        2.9800    -0.1550     0.4780 C.3   1 <1>   0.1400 
  6 C        2.7170    -2.6060    -0.0440 C.3   1 <1>   0.1400 
  7 C       -1.5260    -2.2960    -0.0340 C.ar  1 <1>   0.1170 
  8 C        4.2440    -0.2230    -0.4130 C.3   1 <1>   0.2000 
  9 C        4.2360    -2.5390     0.2110 C.3   1 <1>   0.2000 
 10 C       -2.0620    -3.5790    -0.0620 C.ar  1 <1>  -0.1500 
 11 C       -2.4050    -1.2170    -0.0180 C.ar  1 <1>  -0.1500 
 12 O        4.8020    -1.5080    -0.5380 O.3   1 <1>  -0.5600 
 13 C        5.3530     0.6920     0.1020 C.3   1 <1>  -0.2400 
 14 C        4.9460    -3.8270    -0.1980 C.3   1 <1>  -0.2400 
 15 C       -3.4300    -3.7860    -0.0690 C.ar  1 <1>  -0.1500 
 16 C       -3.7740    -1.4170    -0.0240 C.ar  1 <1>  -0.1500 
 17 C       -4.2980    -2.6980    -0.0490 C.ar  1 <1>   0.0830 
 18 O       -5.6530    -2.8060    -0.0530 O.3   1 <1>  -0.3620 
 19 C       -6.2800    -4.0660    -0.0460 C.3   1 <1>   0.1200 
 20 C       -7.7890    -3.8420    -0.0340 C.3   1 <1>  -0.2400 
 21 H        0.3810    -2.9520    -0.3950 H     1 <1>   0.3700 
 22 H        3.2680    -0.1680     1.5140 H     1 <1>   0.0800 
 23 H        2.4780     0.7800     0.2960 H     1 <1>   0.0800 
 24 H        2.5490    -2.8840    -1.0700 H     1 <1>   0.0800 
 25 H        2.2900    -3.3620     0.5920 H     1 <1>   0.0800 
 26 H        3.9710     0.0870    -1.4070 H     1 <1>   0.0800 
 27 H        4.4270    -2.3410     1.2520 H     1 <1>   0.0800 
 28 H       -1.4030    -4.4270    -0.0740 H     1 <1>   0.1500 
 29 H       -2.0260    -0.2120    -0.0050 H     1 <1>   0.1500 
 30 H        5.6690     0.3820     1.0810 H     1 <1>   0.0800 
 31 H        4.9990     1.7060     0.1560 H     1 <1>   0.0800 
 32 H        6.1920     0.6600    -0.5700 H     1 <1>   0.0800 
 33 H        4.7990    -4.0190    -1.2460 H     1 <1>   0.0800 
 34 H        4.5650    -4.6570     0.3670 H     1 <1>   0.0800 
 35 H        6.0000    -3.7370    -0.0010 H     1 <1>   0.0800 
 36 H       -3.8000    -4.7930    -0.0890 H     1 <1>   0.1500 
 37 H       -4.4450    -0.5770    -0.0090 H     1 <1>   0.1500 
 38 H       -5.9680    -4.5980     0.8370 H     1 <1>   0.0800 
 39 H       -5.9820    -4.6000    -0.9320 H     1 <1>   0.0800 
 40 H       -8.0730    -3.2930     0.8460 H     1 <1>   0.0800 
 41 H       -8.2980    -4.7890    -0.0280 H     1 <1>   0.0800 
 42 H       -8.0880    -3.2960    -0.9110 H     1 <1>   0.0800 
@<TRIPOS>BOND
  1   1   2  2   
  2   2   3  am  
  3   2   4  am  
  4   3   5  1   
  5   3   6  1   
  6   4   7  1   
  7   4  21  1   
  8   5   8  1   
  9   5  22  1   
 10   5  23  1   
 11   6   9  1   
 12   6  24  1   
 13   6  25  1   
 14   7  10  ar  
 15   7  11  ar  
 16   8  12  1   
 17   8  13  1   
 18   8  26  1   
 19   9  12  1   
 20   9  14  1   
 21   9  27  1   
 22  10  15  ar  
 23  10  28  1   
 24  11  16  ar  
 25  11  29  1   
 26  13  30  1   
 27  13  31  1   
 28  13  32  1   
 29  14  33  1   
 30  14  34  1   
 31  14  35  1   
 32  15  17  ar  
 33  15  36  1   
 34  16  17  ar  
 35  16  37  1   
 36  17  18  1   
 37  18  19  1   
 38  19  20  1   
 39  19  38  1   
 40  19  39  1   
 41  20  40  1   
 42  20  41  1   
 43  20  42  1   
@<TRIPOS>SUBSTRUCTURE
  1 ****   4 GROUP 4 **** **** 0

# MOE 2024.06 (io_trps.svl 2023.06)
