@<TRIPOS>MOLECULE
NONAME
41 41 1 0 0 
SMALL
USER_CHARGES


@<TRIPOS>ATOM
  1 O        0.2630     1.1540     1.6670 O.2   1 <1>  -0.5700 
  2 C        0.0660     1.6840     0.5890 C.2   1 <1>   0.5440 
  3 N        1.0760     1.7480    -0.3200 N.am  1 <1>  -0.7300 
  4 C       -1.2280     2.2520     0.2610 C.ar  1 <1>   0.0860 
  5 C        2.5170     1.9870     0.0110 C.3   1 <1>   0.1140 
  6 C       -2.4030     1.7200     0.7910 C.ar  1 <1>  -0.1500 
  7 C       -1.3490     3.3500    -0.5970 C.ar  1 <1>  -0.1500 
  8 C        2.9860     3.3020    -0.6540 C.2   1 <1>   0.9060 
  9 C        3.3600     0.7890    -0.4690 C.3   1 <1>  -0.1600 
 10 C       -3.6450     2.2400     0.4740 C.ar  1 <1>   0.0820 
 11 C       -2.5840     3.8890    -0.9100 C.ar  1 <1>  -0.1500 
 12 O        2.2410     3.8220    -1.5060 O.co2 1 <1>  -0.9000 
 13 O        4.0710     3.8050    -0.3360 O.co2 1 <1>  -0.9000 
 14 C        3.0280    -0.5570     0.2060 C.3   1 <1>  -0.0800 
 15 O       -4.7340     1.6280     0.9980 O.3   1 <1>  -0.3630 
 16 C       -3.7390     3.3530    -0.3700 C.ar  1 <1>   0.0820 
 17 C        3.3600    -0.5400     1.7040 C.3   1 <1>  -0.2400 
 18 C        3.8070    -1.6870    -0.4770 C.3   1 <1>  -0.2400 
 19 C       -5.5410     0.9180     0.0850 C.3   1 <1>   0.0400 
 20 O       -4.9120     3.9480    -0.6880 O.3   1 <1>  -0.3630 
 21 C       -5.6690     4.4940     0.3700 C.3   1 <1>   0.0400 
 22 H        0.8930     2.2990    -1.1720 H     1 <1>   0.3700 
 23 H        2.6280     2.1160     1.0710 H     1 <1>   0.0800 
 24 H       -2.3390     0.8790     1.4580 H     1 <1>   0.1500 
 25 H       -0.4600     3.7960    -1.0170 H     1 <1>   0.1500 
 26 H        4.3970     1.0220    -0.2960 H     1 <1>   0.0800 
 27 H        3.2310     0.7030    -1.5330 H     1 <1>   0.0800 
 28 H       -2.6520     4.7350    -1.5700 H     1 <1>   0.1500 
 29 H        1.9750    -0.7550     0.0910 H     1 <1>   0.0800 
 30 H        4.3940    -0.2890     1.8610 H     1 <1>   0.0800 
 31 H        3.1630    -1.5020     2.1410 H     1 <1>   0.0800 
 32 H        2.7480     0.1830     2.2140 H     1 <1>   0.0800 
 33 H        4.8660    -1.5240    -0.3840 H     1 <1>   0.0800 
 34 H        3.5550    -1.7310    -1.5220 H     1 <1>   0.0800 
 35 H        3.5600    -2.6330    -0.0300 H     1 <1>   0.0800 
 36 H       -6.3370     0.4480     0.6340 H     1 <1>   0.0800 
 37 H       -4.9380     0.1720    -0.4020 H     1 <1>   0.0800 
 38 H       -5.9460     1.6020    -0.6380 H     1 <1>   0.0800 
 39 H       -5.0270     5.1080     0.9770 H     1 <1>   0.0800 
 40 H       -6.0900     3.6990     0.9570 H     1 <1>   0.0800 
 41 H       -6.4560     5.0910    -0.0540 H     1 <1>   0.0800 
@<TRIPOS>BOND
  1   1   2  2   
  2   2   3  am  
  3   2   4  1   
  4   3   5  1   
  5   3  22  1   
  6   4   6  ar  
  7   4   7  ar  
  8   5   8  1   
  9   5   9  1   
 10   5  23  1   
 11   6  10  ar  
 12   6  24  1   
 13   7  11  ar  
 14   7  25  1   
 15   8  12  ar  
 16   8  13  ar  
 17   9  14  1   
 18   9  26  1   
 19   9  27  1   
 20  10  15  1   
 21  10  16  ar  
 22  11  16  ar  
 23  11  28  1   
 24  14  17  1   
 25  14  18  1   
 26  14  29  1   
 27  15  19  1   
 28  16  20  1   
 29  17  30  1   
 30  17  31  1   
 31  17  32  1   
 32  18  33  1   
 33  18  34  1   
 34  18  35  1   
 35  19  36  1   
 36  19  37  1   
 37  19  38  1   
 38  20  21  1   
 39  21  39  1   
 40  21  40  1   
 41  21  41  1   
@<TRIPOS>SUBSTRUCTURE
  1 ****   2 GROUP 4 **** **** 0

# MOE 2024.06 (io_trps.svl 2023.06)
