@<TRIPOS>MOLECULE
NONAME
40 41 1 0 0 
SMALL
USER_CHARGES


@<TRIPOS>ATOM
  1 O        0.5090    -0.4980     0.0120 O.3   1 <1>  -0.3630 
  2 C       -0.7280    -1.0540    -0.0180 C.ar  1 <1>   0.0830 
  3 C        1.6700    -1.2980    -0.0340 C.3   1 <1>   0.1200 
  4 C       -1.8050    -0.1850     0.0320 C.ar  1 <1>  -0.1500 
  5 C       -0.9620    -2.4220    -0.0940 C.ar  1 <1>  -0.1500 
  6 C        2.8870    -0.3820     0.0160 C.3   1 <1>   0.1200 
  7 C       -3.1090    -0.6570     0.0070 C.ar  1 <1>  -0.1440 
  8 C       -2.2600    -2.8980    -0.1190 C.ar  1 <1>  -0.1500 
  9 O        4.0500    -1.1800    -0.0300 O.3   1 <1>  -0.3630 
 10 C       -3.3390    -2.0270    -0.0690 C.ar  1 <1>  -0.1430 
 11 C       -4.2560     0.3410     0.0640 C.3   1 <1>  -0.0970 
 12 C        5.2860    -0.6160     0.0010 C.ar  1 <1>   0.0830 
 13 C       -4.7500    -2.5950    -0.0990 C.3   1 <1>  -0.0970 
 14 C        5.5100     0.7570     0.0770 C.ar  1 <1>  -0.1500 
 15 C        6.3670    -1.4810    -0.0490 C.ar  1 <1>  -0.1500 
 16 C        6.8060     1.2420     0.1030 C.ar  1 <1>  -0.1500 
 17 C        7.6630    -0.9950    -0.0230 C.ar  1 <1>  -0.1500 
 18 C        7.8870     0.3770     0.0530 C.ar  1 <1>   0.0830 
 19 O        9.1230     0.9420     0.0840 O.3   1 <1>  -0.3630 
 20 C       10.2870     0.1470     0.0380 C.3   1 <1>   0.0400 
 21 H        1.6600    -1.8570    -0.9530 H     1 <1>   0.0800 
 22 H        1.6620    -1.9560     0.8180 H     1 <1>   0.0800 
 23 H       -1.6070     0.8690     0.0900 H     1 <1>   0.1500 
 24 H       -0.1550    -3.1280    -0.1340 H     1 <1>   0.1500 
 25 H        2.8950     0.1770     0.9350 H     1 <1>   0.0800 
 26 H        2.8930     0.2760    -0.8350 H     1 <1>   0.0800 
 27 H       -2.4270    -3.9590    -0.1780 H     1 <1>   0.1500 
 28 H       -3.8880     1.3500     0.1200 H     1 <1>   0.0800 
 29 H       -4.8630     0.1560     0.9320 H     1 <1>   0.0800 
 30 H       -4.8650     0.2530    -0.8170 H     1 <1>   0.0800 
 31 H       -5.2810    -2.2180    -0.9540 H     1 <1>   0.0800 
 32 H       -5.2790    -2.3150     0.7940 H     1 <1>   0.0800 
 33 H       -4.7340    -3.6680    -0.1590 H     1 <1>   0.0800 
 34 H        4.6990     1.4580     0.1170 H     1 <1>   0.1500 
 35 H        6.1860    -2.5390    -0.1070 H     1 <1>   0.1500 
 36 H        6.9900     2.3000     0.1610 H     1 <1>   0.1500 
 37 H        8.4760    -1.6940    -0.0620 H     1 <1>   0.1500 
 38 H       11.1390     0.8010     0.0730 H     1 <1>   0.0800 
 39 H       10.2930    -0.4110    -0.8810 H     1 <1>   0.0800 
 40 H       10.2950    -0.5100     0.8900 H     1 <1>   0.0800 
@<TRIPOS>BOND
  1   1   2  1   
  2   1   3  1   
  3   2   4  ar  
  4   2   5  ar  
  5   3   6  1   
  6   3  21  1   
  7   3  22  1   
  8   4   7  ar  
  9   4  23  1   
 10   5   8  ar  
 11   5  24  1   
 12   6   9  1   
 13   6  25  1   
 14   6  26  1   
 15   7  10  ar  
 16   7  11  1   
 17   8  10  ar  
 18   8  27  1   
 19   9  12  1   
 20  10  13  1   
 21  11  28  1   
 22  11  29  1   
 23  11  30  1   
 24  12  14  ar  
 25  12  15  ar  
 26  13  31  1   
 27  13  32  1   
 28  13  33  1   
 29  14  16  ar  
 30  14  34  1   
 31  15  17  ar  
 32  15  35  1   
 33  16  18  ar  
 34  16  36  1   
 35  17  18  ar  
 36  17  37  1   
 37  18  19  1   
 38  19  20  1   
 39  20  38  1   
 40  20  39  1   
 41  20  40  1   
@<TRIPOS>SUBSTRUCTURE
  1 ****   6 GROUP 4 **** **** 0

# MOE 2024.06 (io_trps.svl 2023.06)
