@<TRIPOS>MOLECULE
NONAME
48 49 1 0 0 
SMALL
USER_CHARGES


@<TRIPOS>ATOM
  1 O       -7.0140     6.6220     1.0310 O.3   1 <1>  -0.3630 
  2 C       -5.7230     6.3330     0.7170 C.ar  1 <1>   0.0830 
  3 C       -8.0090     6.4530     0.0510 C.3   1 <1>   0.1200 
  4 C       -5.3090     5.1150     0.1550 C.ar  1 <1>   0.0830 
  5 C       -4.7920     7.3190     0.9970 C.ar  1 <1>  -0.1500 
  6 C       -9.0480     5.4870     0.6180 C.3   1 <1>  -0.1600 
  7 O       -6.2330     4.1330    -0.0750 O.3   1 <1>  -0.3630 
  8 C       -3.9580     4.9380    -0.1390 C.ar  1 <1>  -0.1500 
  9 C       -3.4540     7.1260     0.7070 C.ar  1 <1>  -0.1500 
 10 C       -9.9430     4.9600    -0.4990 C.3   1 <1>   0.3430 
 11 C       -5.8340     2.8200    -0.3980 C.3   1 <1>   0.1200 
 12 C       -3.0390     5.9370     0.1350 C.ar  1 <1>  -0.1500 
 13 N      -11.0030     4.0730     0.0580 N.4   1 <1>  -0.9590 
 14 C       -7.0820     1.9380    -0.4230 C.3   1 <1>  -0.1600 
 15 C      -10.4500     2.7740     0.5490 C.3   1 <1>   0.3430 
 16 C      -12.0870     3.8590    -0.9450 C.3   1 <1>   0.3430 
 17 C       -6.7350     0.4910    -0.7880 C.3   1 <1>  -0.2400 
 18 C      -11.5580     1.9550     1.2130 C.3   1 <1>  -0.1600 
 19 C      -13.2310     3.0660    -0.3090 C.3   1 <1>  -0.1600 
 20 C      -12.7440     1.7300     0.2670 C.3   1 <1>  -0.1600 
 21 H       -7.5590     6.0800    -0.8540 H     1 <1>   0.0800 
 22 H       -8.4390     7.4190    -0.1480 H     1 <1>   0.0800 
 23 H       -5.1200     8.2410     1.4430 H     1 <1>   0.1500 
 24 H       -9.6330     6.0060     1.3550 H     1 <1>   0.0800 
 25 H       -8.5270     4.6710     1.0840 H     1 <1>   0.0800 
 26 H       -3.5910     4.0320    -0.5810 H     1 <1>   0.1500 
 27 H       -2.7380     7.9000     0.9250 H     1 <1>   0.1500 
 28 H       -9.3480     4.4200    -1.2180 H     1 <1>   0.0800 
 29 H      -10.4010     5.7980    -1.0000 H     1 <1>   0.0800 
 30 H       -5.1420     2.4780     0.3540 H     1 <1>   0.0800 
 31 H       -5.3580     2.8350    -1.3630 H     1 <1>   0.0800 
 32 H       -1.9980     5.7890    -0.0940 H     1 <1>   0.1500 
 33 H      -11.4240     4.5480     0.8670 H     1 <1>   0.4500 
 34 H       -7.7730     2.3270    -1.1500 H     1 <1>   0.0800 
 35 H       -7.5380     1.9530     0.5510 H     1 <1>   0.0800 
 36 H       -9.6630     2.9480     1.2650 H     1 <1>   0.0800 
 37 H      -10.0380     2.2170    -0.2780 H     1 <1>   0.0800 
 38 H      -11.7000     3.3140    -1.7910 H     1 <1>   0.0800 
 39 H      -12.4620     4.8080    -1.2940 H     1 <1>   0.0800 
 40 H       -6.2820     0.4450    -1.7630 H     1 <1>   0.0800 
 41 H       -7.6240    -0.1150    -0.7980 H     1 <1>   0.0800 
 42 H       -6.0490     0.0750    -0.0700 H     1 <1>   0.0800 
 43 H      -11.8890     2.4600     2.1040 H     1 <1>   0.0800 
 44 H      -11.1580     1.0030     1.5150 H     1 <1>   0.0800 
 45 H      -13.9840     2.8770    -1.0550 H     1 <1>   0.0800 
 46 H      -13.6890     3.6560     0.4660 H     1 <1>   0.0800 
 47 H      -13.5480     1.2450     0.7960 H     1 <1>   0.0800 
 48 H      -12.4430     1.0800    -0.5380 H     1 <1>   0.0800 
@<TRIPOS>BOND
  1   1   2  1   
  2   1   3  1   
  3   2   4  ar  
  4   2   5  ar  
  5   3   6  1   
  6   3  21  1   
  7   3  22  1   
  8   4   7  1   
  9   4   8  ar  
 10   5   9  ar  
 11   5  23  1   
 12   6  10  1   
 13   6  24  1   
 14   6  25  1   
 15   7  11  1   
 16   8  12  ar  
 17   8  26  1   
 18   9  12  ar  
 19   9  27  1   
 20  10  13  1   
 21  10  28  1   
 22  10  29  1   
 23  11  14  1   
 24  11  30  1   
 25  11  31  1   
 26  12  32  1   
 27  13  15  1   
 28  13  16  1   
 29  13  33  1   
 30  14  17  1   
 31  14  34  1   
 32  14  35  1   
 33  15  18  1   
 34  15  36  1   
 35  15  37  1   
 36  16  19  1   
 37  16  38  1   
 38  16  39  1   
 39  17  40  1   
 40  17  41  1   
 41  17  42  1   
 42  18  20  1   
 43  18  43  1   
 44  18  44  1   
 45  19  20  1   
 46  19  45  1   
 47  19  46  1   
 48  20  47  1   
 49  20  48  1   
@<TRIPOS>SUBSTRUCTURE
  1 ****   7 GROUP 4 **** **** 0

# MOE 2024.06 (io_trps.svl 2023.06)
