@<TRIPOS>MOLECULE
NONAME
45 46 1 0 0 
SMALL
USER_CHARGES


@<TRIPOS>ATOM
  1 O        1.6350    -1.2180     2.7000 O.2   1 <1>  -0.5700 
  2 C        1.8810    -1.6640     1.5930 C.2   1 <1>   0.6900 
  3 N        2.5040    -1.0380     0.5540 N.am  1 <1>  -0.1680 
  4 N        1.4810    -2.8830     1.2220 N.am  1 <1>  -0.7300 
  5 N        2.4900    -1.9180    -0.6380 N.3   1 <1>  -0.6390 
  6 C        2.9610     0.2910     0.4610 C.ar  1 <1>   0.1170 
  7 C        1.6710    -3.0730    -0.2020 C.3   1 <1>   0.5700 
  8 C        3.4370     0.9780     1.5770 C.ar  1 <1>  -0.1500 
  9 C        2.9610     0.9610    -0.7630 C.ar  1 <1>  -0.1500 
 10 C        2.4130    -4.3890    -0.4800 C.3   1 <1>  -0.1600 
 11 C        0.3200    -3.0140    -0.8990 C.3   1 <1>  -0.2400 
 12 C        3.8930     2.2790     1.4770 C.ar  1 <1>  -0.1500 
 13 C        3.4180     2.2620    -0.8680 C.ar  1 <1>  -0.1500 
 14 C        3.7860    -4.5330     0.2110 C.3   1 <1>  -0.1600 
 15 C        3.8860     2.9250     0.2530 C.ar  1 <1>  -0.1500 
 16 C        4.4260    -5.8880    -0.1180 C.3   1 <1>  -0.1600 
 17 C        5.7900    -6.0320     0.5680 C.3   1 <1>  -0.1600 
 18 C        6.4300    -7.3880     0.2460 C.3   1 <1>  -0.1600 
 19 C        7.7930    -7.5320     0.9310 C.3   1 <1>  -0.1600 
 20 C        8.4300    -8.8870     0.6110 C.3   1 <1>  -0.2400 
 21 H        0.6590    -3.2700     1.6730 H     1 <1>   0.3700 
 22 H        3.4300    -2.3220    -0.6500 H     1 <1>   0.3600 
 23 H        3.4520     0.4900     2.5350 H     1 <1>   0.1500 
 24 H        2.5950     0.4580    -1.6390 H     1 <1>   0.1500 
 25 H        2.5400    -4.4870    -1.5430 H     1 <1>   0.0800 
 26 H        1.7810    -5.2010    -0.1650 H     1 <1>   0.0800 
 27 H       -0.1670    -2.0790    -0.6890 H     1 <1>   0.0800 
 28 H       -0.3070    -3.8220    -0.5700 H     1 <1>   0.0800 
 29 H        0.4550    -3.1000    -1.9620 H     1 <1>   0.0800 
 30 H        4.2540     2.7900     2.3520 H     1 <1>   0.1500 
 31 H        3.4080     2.7600    -1.8220 H     1 <1>   0.1500 
 32 H        3.6650    -4.4520     1.2780 H     1 <1>   0.0800 
 33 H        4.4500    -3.7490    -0.1080 H     1 <1>   0.0800 
 34 H        4.2400     3.9370     0.1740 H     1 <1>   0.1500 
 35 H        4.5520    -5.9780    -1.1840 H     1 <1>   0.0800 
 36 H        3.7760    -6.6810     0.2120 H     1 <1>   0.0800 
 37 H        5.6660    -5.9410     1.6340 H     1 <1>   0.0800 
 38 H        6.4430    -5.2420     0.2390 H     1 <1>   0.0800 
 39 H        6.5540    -7.4820    -0.8200 H     1 <1>   0.0800 
 40 H        5.7790    -8.1790     0.5770 H     1 <1>   0.0800 
 41 H        7.6740    -7.4400     1.9970 H     1 <1>   0.0800 
 42 H        8.4500    -6.7460     0.6000 H     1 <1>   0.0800 
 43 H        7.8010    -9.6890     0.9540 H     1 <1>   0.0800 
 44 H        9.3850    -8.9690     1.1000 H     1 <1>   0.0800 
 45 H        8.5790    -8.9920    -0.4490 H     1 <1>   0.0800 
@<TRIPOS>BOND
  1   1   2  2   
  2   2   3  am  
  3   2   4  am  
  4   3   5  1   
  5   3   6  1   
  6   4   7  1   
  7   4  21  1   
  8   5   7  1   
  9   5  22  1   
 10   6   8  ar  
 11   6   9  ar  
 12   7  10  1   
 13   7  11  1   
 14   8  12  ar  
 15   8  23  1   
 16   9  13  ar  
 17   9  24  1   
 18  10  14  1   
 19  10  25  1   
 20  10  26  1   
 21  11  27  1   
 22  11  28  1   
 23  11  29  1   
 24  12  15  ar  
 25  12  30  1   
 26  13  15  ar  
 27  13  31  1   
 28  14  16  1   
 29  14  32  1   
 30  14  33  1   
 31  15  34  1   
 32  16  17  1   
 33  16  35  1   
 34  16  36  1   
 35  17  18  1   
 36  17  37  1   
 37  17  38  1   
 38  18  19  1   
 39  18  39  1   
 40  18  40  1   
 41  19  20  1   
 42  19  41  1   
 43  19  42  1   
 44  20  43  1   
 45  20  44  1   
 46  20  45  1   
@<TRIPOS>SUBSTRUCTURE
  1 ****   5 GROUP 4 **** **** 0

# MOE 2024.06 (io_trps.svl 2023.06)
