@<TRIPOS>MOLECULE
NONAME
49 51 1 0 0 
SMALL
USER_CHARGES


@<TRIPOS>ATOM
  1 S        0.6820    -0.9930     0.6450 S.o2  1 <1>   1.4470 
  2 O        1.1070    -1.0820     2.0230 O.2   1 <1>  -0.6500 
  3 O        0.9980    -2.0470    -0.2930 O.2   1 <1>  -0.6500 
  4 N        1.4400     0.3930     0.0210 N.am  1 <1>  -0.8490 
  5 C       -1.0570    -0.5030     0.5400 C.ar  1 <1>  -0.0090 
  6 C        2.8660     0.4700     0.4010 C.3   1 <1>   0.1960 
  7 C        1.2870     0.5200    -1.4460 C.3   1 <1>   0.1960 
  8 C       -1.9540    -1.1480    -0.3040 C.ar  1 <1>  -0.1500 
  9 C       -1.5210     0.5860     1.2680 C.ar  1 <1>  -0.1500 
 10 C        3.5390     1.7640    -0.1240 C.3   1 <1>   0.3430 
 11 C        1.8950     1.8410    -1.9850 C.3   1 <1>   0.3430 
 12 C       -3.2550    -0.6960    -0.4450 C.ar  1 <1>  -0.1500 
 13 C       -2.8170     1.0420     1.1260 C.ar  1 <1>  -0.1500 
 14 N        2.5660     2.6240    -0.8910 N.4   1 <1>  -0.9590 
 15 C       -3.6970     0.4210     0.2510 C.ar  1 <1>   0.1170 
 16 C        3.1190     3.9330    -1.3250 C.3   1 <1>   0.4860 
 17 N       -5.0000     0.8910     0.0600 N.am  1 <1>  -0.5470 
 18 C        3.5060     4.7150    -0.0860 C.ar  1 <1>  -0.1430 
 19 C       -5.4430     2.1830     0.0450 C.2   1 <1>   0.5690 
 20 C        4.8280     4.9300     0.2580 C.ar  1 <1>  -0.1500 
 21 C        2.5550     5.2440     0.7670 C.ar  1 <1>  -0.1500 
 22 O       -4.7170     3.1380     0.1680 O.2   1 <1>  -0.5700 
 23 C       -6.9190     2.4140    -0.1540 C.3   1 <1>  -0.1790 
 24 C        5.1260     5.6290     1.4160 C.ar  1 <1>   0.1600 
 25 C        2.9610     5.9270     1.9010 C.ar  1 <1>   0.1600 
 26 N        4.2210     6.1200     2.2450 N.ar  1 <1>  -0.6200 
 27 H        3.3950    -0.3920     0.0260 H     1 <1>   0.0800 
 28 H        2.9570     0.4560     1.4760 H     1 <1>   0.0800 
 29 H        0.2430     0.4900    -1.7080 H     1 <1>   0.0800 
 30 H        1.7640    -0.3110    -1.9410 H     1 <1>   0.0800 
 31 H       -1.6290    -2.0100    -0.8640 H     1 <1>   0.1500 
 32 H       -0.8560     1.0890     1.9510 H     1 <1>   0.1500 
 33 H        4.3730     1.4980    -0.7520 H     1 <1>   0.0800 
 34 H        3.9290     2.3140     0.7180 H     1 <1>   0.0800 
 35 H        1.1060     2.4300    -2.4250 H     1 <1>   0.0800 
 36 H        2.6030     1.6090    -2.7630 H     1 <1>   0.0800 
 37 H       -3.9270    -1.2080    -1.1110 H     1 <1>   0.1500 
 38 H       -3.1470     1.8930     1.6970 H     1 <1>   0.1500 
 39 H        1.8200     2.8140    -0.2040 H     1 <1>   0.4500 
 40 H        2.3760     4.4860    -1.8770 H     1 <1>   0.0800 
 41 H        3.9790     3.7860    -1.9580 H     1 <1>   0.0800 
 42 H       -5.6990     0.1830    -0.1550 H     1 <1>   0.3700 
 43 H        5.6370     4.5700    -0.3520 H     1 <1>   0.1500 
 44 H        1.5020     5.1440     0.5730 H     1 <1>   0.1500 
 45 H       -7.4770     1.8970     0.6040 H     1 <1>   0.0800 
 46 H       -7.2160     2.0650    -1.1250 H     1 <1>   0.0800 
 47 H       -7.1330     3.4650    -0.0840 H     1 <1>   0.0800 
 48 H        6.1590     5.7940     1.6770 H     1 <1>   0.1500 
 49 H        2.2120     6.3360     2.5610 H     1 <1>   0.1500 
@<TRIPOS>BOND
  1   1   2  2   
  2   1   3  2   
  3   1   4  am  
  4   1   5  1   
  5   4   6  1   
  6   4   7  1   
  7   5   8  ar  
  8   5   9  ar  
  9   6  10  1   
 10   6  27  1   
 11   6  28  1   
 12   7  11  1   
 13   7  29  1   
 14   7  30  1   
 15   8  12  ar  
 16   8  31  1   
 17   9  13  ar  
 18   9  32  1   
 19  10  14  1   
 20  10  33  1   
 21  10  34  1   
 22  11  14  1   
 23  11  35  1   
 24  11  36  1   
 25  12  15  ar  
 26  12  37  1   
 27  13  15  ar  
 28  13  38  1   
 29  14  16  1   
 30  14  39  1   
 31  15  17  1   
 32  16  18  1   
 33  16  40  1   
 34  16  41  1   
 35  17  19  am  
 36  17  42  1   
 37  18  20  ar  
 38  18  21  ar  
 39  19  22  2   
 40  19  23  1   
 41  20  24  ar  
 42  20  43  1   
 43  21  25  ar  
 44  21  44  1   
 45  23  45  1   
 46  23  46  1   
 47  23  47  1   
 48  24  26  ar  
 49  24  48  1   
 50  25  26  ar  
 51  25  49  1   
@<TRIPOS>SUBSTRUCTURE
  1 ****   4 GROUP 4 **** **** 0

# MOE 2024.06 (io_trps.svl 2023.06)
