@<TRIPOS>MOLECULE
NONAME
47 49 1 0 0 
SMALL
USER_CHARGES


@<TRIPOS>ATOM
  1 O        0.3610     1.1450    -1.6830 O.2   1 <1>  -0.5700 
  2 C        0.2670     2.1790    -1.0570 C.2   1 <1>   0.5690 
  3 N       -0.9030     2.4840    -0.3950 N.am  1 <1>  -0.6600 
  4 C        1.5050     3.1000    -1.0770 C.3   1 <1>   0.2610 
  5 C       -2.0860     1.5660    -0.5010 C.3   1 <1>   0.1400 
  6 C       -1.1190     3.6940     0.4700 C.3   1 <1>   0.1400 
  7 O        1.9570     3.3970     0.2370 O.3   1 <1>  -0.3630 
  8 C        1.2880     4.4250    -1.8200 C.3   1 <1>  -0.2400 
  9 C       -3.4280     2.3080    -0.3600 C.3   1 <1>   0.2090 
 10 C       -2.2170     3.4720     1.5250 C.3   1 <1>   0.2090 
 11 C        3.2600     3.1680     0.5040 C.ar  1 <1>   0.0820 
 12 N       -3.5310     3.1030     0.9040 N.pl3 1 <1>  -0.8380 
 13 C        3.7360     1.8790     0.7390 C.ar  1 <1>  -0.1440 
 14 C        4.1180     4.2550     0.5510 C.ar  1 <1>  -0.1500 
 15 C       -4.4970     4.0870     0.8860 C.ar  1 <1>   0.4100 
 16 C        5.0870     1.7030     0.9940 C.ar  1 <1>  -0.1500 
 17 C        2.8150     0.6670     0.7290 C.3   1 <1>  -0.0970 
 18 C        5.4630     4.0670     0.8110 C.ar  1 <1>  -0.1500 
 19 N       -4.1440     5.2750     0.4080 N.ar  1 <1>  -0.6200 
 20 C       -5.7780     3.7930     1.3430 C.ar  1 <1>  -0.1500 
 21 C        5.9470     2.7890     1.0290 C.ar  1 <1>  -0.1500 
 22 C       -5.0970     6.1920     0.3910 C.ar  1 <1>   0.1600 
 23 C       -6.7590     4.7570     1.3190 C.ar  1 <1>  -0.1500 
 24 C       -6.3960     5.9930     0.8240 C.ar  1 <1>  -0.1500 
 25 H        2.2900     2.5610    -1.5790 H     1 <1>   0.0800 
 26 H       -2.0170     0.8180     0.2690 H     1 <1>   0.0800 
 27 H       -2.0710     1.0620    -1.4510 H     1 <1>   0.0800 
 28 H       -1.4100     4.5240    -0.1480 H     1 <1>   0.0800 
 29 H       -0.2150     3.9570     0.9840 H     1 <1>   0.0800 
 30 H        0.5650     5.0370    -1.3150 H     1 <1>   0.0800 
 31 H        0.9320     4.2240    -2.8140 H     1 <1>   0.0800 
 32 H        2.2180     4.9590    -1.8940 H     1 <1>   0.0800 
 33 H       -4.2300     1.5920    -0.3840 H     1 <1>   0.0800 
 34 H       -3.5480     2.9670    -1.2040 H     1 <1>   0.0800 
 35 H       -2.3310     4.3710     2.1080 H     1 <1>   0.0800 
 36 H       -1.9120     2.6880     2.1950 H     1 <1>   0.0800 
 37 H        3.7290     5.2430     0.3840 H     1 <1>   0.1500 
 38 H        5.4790     0.7170     1.1710 H     1 <1>   0.1500 
 39 H        2.6480     0.3390    -0.2810 H     1 <1>   0.0800 
 40 H        1.8670     0.9130     1.1750 H     1 <1>   0.0800 
 41 H        3.2460    -0.1440     1.2870 H     1 <1>   0.0800 
 42 H        6.1310     4.9100     0.8440 H     1 <1>   0.1500 
 43 H       -5.9760     2.8070     1.7140 H     1 <1>   0.1500 
 44 H        6.9930     2.6380     1.2290 H     1 <1>   0.1500 
 45 H       -4.8270     7.1610     0.0070 H     1 <1>   0.1500 
 46 H       -7.7570     4.5580     1.6680 H     1 <1>   0.1500 
 47 H       -7.1120     6.7930     0.7760 H     1 <1>   0.1500 
@<TRIPOS>BOND
  1   1   2  2   
  2   2   3  am  
  3   2   4  1   
  4   3   5  1   
  5   3   6  1   
  6   4   7  1   
  7   4   8  1   
  8   4  25  1   
  9   5   9  1   
 10   5  26  1   
 11   5  27  1   
 12   6  10  1   
 13   6  28  1   
 14   6  29  1   
 15   7  11  1   
 16   8  30  1   
 17   8  31  1   
 18   8  32  1   
 19   9  12  1   
 20   9  33  1   
 21   9  34  1   
 22  10  12  1   
 23  10  35  1   
 24  10  36  1   
 25  11  13  ar  
 26  11  14  ar  
 27  12  15  1   
 28  13  16  ar  
 29  13  17  1   
 30  14  18  ar  
 31  14  37  1   
 32  15  19  ar  
 33  15  20  ar  
 34  16  21  ar  
 35  16  38  1   
 36  17  39  1   
 37  17  40  1   
 38  17  41  1   
 39  18  21  ar  
 40  18  42  1   
 41  19  22  ar  
 42  20  23  ar  
 43  20  43  1   
 44  21  44  1   
 45  22  24  ar  
 46  22  45  1   
 47  23  24  ar  
 48  23  46  1   
 49  24  47  1   
@<TRIPOS>SUBSTRUCTURE
  1 ****   6 GROUP 4 **** **** 0

# MOE 2024.06 (io_trps.svl 2023.06)
