@<TRIPOS>MOLECULE
NONAME
34 34 1 0 0 
SMALL
USER_CHARGES


@<TRIPOS>ATOM
  1 P        0.1190    -1.3970    -1.2500 P.3   1 <1>   0.9000 
  2 O        0.8900    -1.4100    -2.5310 O.co2 1 <1>  -0.9500 
  3 O       -1.1530    -2.1740    -1.1390 O.co2 1 <1>  -0.9500 
  4 C        1.2210    -1.8820     0.1150 C.3   1 <1>   0.1400 
  5 C       -0.2600     0.3170    -0.8830 C.3   1 <1>  -0.1600 
  6 N        2.4730    -1.0560     0.3240 N.am  1 <1>  -0.6600 
  7 C       -1.1000     0.5160     0.3840 C.3   1 <1>  -0.0160 
  8 C        2.6190    -0.2370     1.4100 C.2   1 <1>   0.5690 
  9 C        3.3730    -1.0500    -0.8650 C.3   1 <1>   0.0600 
 10 C       -1.2630     1.9950     0.7020 C.ar  1 <1>  -0.1440 
 11 O        1.8530    -0.2410     2.3430 O.2   1 <1>  -0.5700 
 12 C        3.7770     0.7320     1.4720 C.3   1 <1>  -0.1790 
 13 C       -2.2210     2.7520     0.0460 C.ar  1 <1>  -0.1500 
 14 C       -0.4500     2.5960     1.6490 C.ar  1 <1>  -0.1500 
 15 C       -2.3660     4.0980     0.3350 C.ar  1 <1>  -0.1500 
 16 C       -0.5930     3.9420     1.9400 C.ar  1 <1>  -0.1500 
 17 C       -1.5520     4.6940     1.2830 C.ar  1 <1>  -0.1500 
 18 H        1.5380    -2.8960    -0.0370 H     1 <1>   0.0800 
 19 H        0.6690    -1.8930     1.0340 H     1 <1>   0.0800 
 20 H       -0.8050     0.7420    -1.7030 H     1 <1>   0.0800 
 21 H        0.6440     0.8860    -0.7870 H     1 <1>   0.0800 
 22 H       -0.6300     0.0220     1.2150 H     1 <1>   0.0800 
 23 H       -2.0630     0.0570     0.2430 H     1 <1>   0.0800 
 24 H        3.3220    -2.0000    -1.3680 H     1 <1>   0.0800 
 25 H        4.3920    -0.8680    -0.5770 H     1 <1>   0.0800 
 26 H        3.0510    -0.2900    -1.5570 H     1 <1>   0.0800 
 27 H        3.7720     1.3590     0.6010 H     1 <1>   0.0800 
 28 H        4.7000     0.1890     1.5280 H     1 <1>   0.0800 
 29 H        3.6840     1.3510     2.3440 H     1 <1>   0.0800 
 30 H       -2.8510     2.2880    -0.6930 H     1 <1>   0.1500 
 31 H        0.2970     2.0120     2.1610 H     1 <1>   0.1500 
 32 H       -3.1110     4.6780    -0.1790 H     1 <1>   0.1500 
 33 H        0.0410     4.4000     2.6770 H     1 <1>   0.1500 
 34 H       -1.6640     5.7390     1.5080 H     1 <1>   0.1500 
@<TRIPOS>BOND
  1   1   2  ar  
  2   1   3  ar  
  3   1   4  1   
  4   1   5  1   
  5   4   6  1   
  6   4  18  1   
  7   4  19  1   
  8   5   7  1   
  9   5  20  1   
 10   5  21  1   
 11   6   8  am  
 12   6   9  1   
 13   7  10  1   
 14   7  22  1   
 15   7  23  1   
 16   8  11  2   
 17   8  12  1   
 18   9  24  1   
 19   9  25  1   
 20   9  26  1   
 21  10  13  ar  
 22  10  14  ar  
 23  12  27  1   
 24  12  28  1   
 25  12  29  1   
 26  13  15  ar  
 27  13  30  1   
 28  14  16  ar  
 29  14  31  1   
 30  15  17  ar  
 31  15  32  1   
 32  16  17  ar  
 33  16  33  1   
 34  17  34  1   
@<TRIPOS>SUBSTRUCTURE
  1 ****   5 GROUP 4 **** **** 0

# MOE 2024.06 (io_trps.svl 2023.06)
