@<TRIPOS>MOLECULE
NONAME
36 37 1 0 0 
SMALL
USER_CHARGES


@<TRIPOS>ATOM
  1 CL       0.1030    -0.1670     0.0700 Cl    1 <1>  -0.1770 
  2 C        1.5700     0.7510    -0.1550 C.ar  1 <1>   0.1770 
  3 C        1.5520     1.8660    -0.9740 C.ar  1 <1>  -0.1500 
  4 C        2.7260     0.3460     0.4900 C.ar  1 <1>  -0.1500 
  5 C        2.7180     2.5920    -1.1510 C.ar  1 <1>  -0.1500 
  6 C        3.8940     1.0720     0.3140 C.ar  1 <1>  -0.1500 
  7 C        3.8780     2.1910    -0.5080 C.ar  1 <1>   0.1020 
  8 S        5.3510     3.1900    -0.7920 S.3   1 <1>  -0.3320 
  9 C        6.7210     2.3920     0.1550 C.3   1 <1>   0.0700 
 10 C        7.9860     3.2230    -0.0490 C.3   1 <1>  -0.0990 
 11 C        9.1660     2.5660     0.6290 C.2   1 <1>   0.5690 
 12 O        9.0610     2.2210     1.7800 O.2   1 <1>  -0.5700 
 13 N       10.3030     2.3800    -0.0840 N.am  1 <1>  -0.7300 
 14 C       11.5340     1.7550     0.4250 C.3   1 <1>   0.2200 
 15 C       12.6960     2.7170     0.2130 C.3   1 <1>  -0.1600 
 16 C       11.8890     0.5730    -0.4680 C.3   1 <1>  -0.1600 
 17 C       13.1190     2.5450    -1.2510 C.3   1 <1>  -0.1600 
 18 C       12.5960     1.1710    -1.6900 C.3   1 <1>  -0.1600 
 19 H        0.6390     2.1580    -1.4620 H     1 <1>   0.1500 
 20 H        2.7070    -0.5250     1.1200 H     1 <1>   0.1500 
 21 H        2.7320     3.4640    -1.7810 H     1 <1>   0.1500 
 22 H        4.7870     0.7560     0.8160 H     1 <1>   0.1500 
 23 H        6.8400     1.3930    -0.2260 H     1 <1>   0.0800 
 24 H        6.4340     2.3680     1.1920 H     1 <1>   0.0800 
 25 H        7.8470     4.1990     0.3750 H     1 <1>   0.0800 
 26 H        8.1810     3.3270    -1.1010 H     1 <1>   0.0800 
 27 H       10.3650     2.6880    -1.0540 H     1 <1>   0.3700 
 28 H       11.4210     1.4700     1.4590 H     1 <1>   0.0800 
 29 H       13.5090     2.4110     0.8480 H     1 <1>   0.0800 
 30 H       12.4350     3.7320     0.4570 H     1 <1>   0.0800 
 31 H       11.0250    -0.0130    -0.7290 H     1 <1>   0.0800 
 32 H       12.5820    -0.0560     0.0630 H     1 <1>   0.0800 
 33 H       14.1900     2.6080    -1.3490 H     1 <1>   0.0800 
 34 H       12.6710     3.3150    -1.8560 H     1 <1>   0.0800 
 35 H       11.8950     1.2900    -2.4980 H     1 <1>   0.0800 
 36 H       13.3980     0.5310    -2.0190 H     1 <1>   0.0800 
@<TRIPOS>BOND
  1   1   2  1   
  2   2   3  ar  
  3   2   4  ar  
  4   3   5  ar  
  5   3  19  1   
  6   4   6  ar  
  7   4  20  1   
  8   5   7  ar  
  9   5  21  1   
 10   6   7  ar  
 11   6  22  1   
 12   7   8  1   
 13   8   9  1   
 14   9  10  1   
 15   9  23  1   
 16   9  24  1   
 17  10  11  1   
 18  10  25  1   
 19  10  26  1   
 20  11  12  2   
 21  11  13  am  
 22  13  14  1   
 23  13  27  1   
 24  14  15  1   
 25  14  16  1   
 26  14  28  1   
 27  15  17  1   
 28  15  29  1   
 29  15  30  1   
 30  16  18  1   
 31  16  31  1   
 32  16  32  1   
 33  17  18  1   
 34  17  33  1   
 35  17  34  1   
 36  18  35  1   
 37  18  36  1   
@<TRIPOS>SUBSTRUCTURE
  1 ****   9 GROUP 4 **** **** 0

# MOE 2024.06 (io_trps.svl 2023.06)
