@<TRIPOS>MOLECULE
NONAME
41 42 1 0 0 
SMALL
USER_CHARGES


@<TRIPOS>ATOM
  1 CL       0.0560    -0.0100    -0.4440 Cl    1 <1>  -0.1770 
  2 C        0.0310     1.7330    -0.2760 C.ar  1 <1>   0.1770 
  3 C        1.2340     2.4160    -0.2000 C.ar  1 <1>   0.1770 
  4 C       -1.1840     2.3980    -0.2160 C.ar  1 <1>  -0.0090 
  5 CL       2.7450     1.5270    -0.2890 Cl    1 <1>  -0.1770 
  6 C        1.2580     3.7970    -0.0530 C.ar  1 <1>   0.0830 
  7 S       -2.7280     1.4640    -0.3180 S.o2  1 <1>   1.4470 
  8 C       -1.1510     3.7830    -0.0580 C.ar  1 <1>  -0.1500 
  9 O        2.4630     4.4190     0.0150 O.3   1 <1>  -0.3630 
 10 C        0.0460     4.4770     0.0210 C.ar  1 <1>  -0.1500 
 11 O       -2.8480     0.7430    -1.5590 O.2   1 <1>  -0.6500 
 12 O       -3.0290     0.8240     0.9410 O.2   1 <1>  -0.6500 
 13 N       -3.9320     2.6180    -0.5320 N.am  1 <1>  -0.9140 
 14 C        2.5800     5.8150     0.1820 C.3   1 <1>   0.0400 
 15 C       -5.2390     2.1100    -0.1150 C.3   1 <1>   0.1960 
 16 C       -6.3560     3.1400    -0.3650 C.3   1 <1>   0.3430 
 17 N       -7.6810     2.7050     0.1880 N.4   1 <1>  -0.9590 
 18 C       -8.2390     1.4430    -0.4200 C.3   1 <1>   0.3430 
 19 C       -8.7100     3.8000     0.1380 C.3   1 <1>   0.3430 
 20 C       -9.6220     1.0920     0.1750 C.3   1 <1>   0.1200 
 21 C      -10.0580     3.3360     0.7390 C.3   1 <1>   0.1200 
 22 O       -9.9880     2.0040     1.1740 O.3   1 <1>  -0.5600 
 23 H       -2.0710     4.3390     0.0120 H     1 <1>   0.1500 
 24 H        0.0160     5.5450     0.1410 H     1 <1>   0.1500 
 25 H       -3.9330     2.7010    -1.5520 H     1 <1>   0.4200 
 26 H        3.6270     6.0600     0.2120 H     1 <1>   0.0800 
 27 H        2.1140     6.0980     1.1090 H     1 <1>   0.0800 
 28 H        2.1150     6.3090    -0.6530 H     1 <1>   0.0800 
 29 H       -5.2100     1.8960     0.9420 H     1 <1>   0.0800 
 30 H       -5.4500     1.1960    -0.6470 H     1 <1>   0.0800 
 31 H       -6.4470     3.3130    -1.4240 H     1 <1>   0.0800 
 32 H       -6.0650     4.0650     0.1060 H     1 <1>   0.0800 
 33 H       -7.5880     2.4920     1.1960 H     1 <1>   0.4500 
 34 H       -7.5690     0.6180    -0.2440 H     1 <1>   0.0800 
 35 H       -8.3380     1.5580    -1.4870 H     1 <1>   0.0800 
 36 H       -8.8720     4.1090    -0.8820 H     1 <1>   0.0800 
 37 H       -8.3630     4.6610     0.6860 H     1 <1>   0.0800 
 38 H       -9.5980     0.1110     0.6180 H     1 <1>   0.0800 
 39 H      -10.3810     1.0950    -0.5900 H     1 <1>   0.0800 
 40 H      -10.8500     3.4210     0.0150 H     1 <1>   0.0800 
 41 H      -10.3150     3.9440     1.5890 H     1 <1>   0.0800 
@<TRIPOS>BOND
  1   1   2  1   
  2   2   3  ar  
  3   2   4  ar  
  4   3   5  1   
  5   3   6  ar  
  6   4   7  1   
  7   4   8  ar  
  8   6   9  1   
  9   6  10  ar  
 10   7  11  2   
 11   7  12  2   
 12   7  13  am  
 13   8  10  ar  
 14   8  23  1   
 15   9  14  1   
 16  10  24  1   
 17  13  15  1   
 18  13  25  1   
 19  14  26  1   
 20  14  27  1   
 21  14  28  1   
 22  15  16  1   
 23  15  29  1   
 24  15  30  1   
 25  16  17  1   
 26  16  31  1   
 27  16  32  1   
 28  17  18  1   
 29  17  19  1   
 30  17  33  1   
 31  18  20  1   
 32  18  34  1   
 33  18  35  1   
 34  19  21  1   
 35  19  36  1   
 36  19  37  1   
 37  20  22  1   
 38  20  38  1   
 39  20  39  1   
 40  21  22  1   
 41  21  40  1   
 42  21  41  1   
@<TRIPOS>SUBSTRUCTURE
  1 ****  13 GROUP 4 **** **** 0

# MOE 2024.06 (io_trps.svl 2023.06)
