@<TRIPOS>MOLECULE
NONAME
40 42 1 0 0 
SMALL
USER_CHARGES


@<TRIPOS>ATOM
  1 O       -0.7920    -2.7160     2.2660 O.2   1 <1>  -0.5700 
  2 C       -0.4970    -2.8700     1.0950 C.2   1 <1>   0.5440 
  3 N       -1.4590    -2.6520     0.1330 N.am  1 <1>  -0.6600 
  4 C        0.8510    -3.2650     0.7400 C.ar  1 <1>   0.0860 
  5 C       -2.8340    -2.2170     0.4680 C.3   1 <1>   0.1400 
  6 C       -1.1730    -2.4410    -1.3040 C.3   1 <1>   0.1400 
  7 C        1.1060    -4.3990    -0.0310 C.ar  1 <1>  -0.1500 
  8 C        1.9520    -2.5220     1.1620 C.ar  1 <1>  -0.1500 
  9 C       -3.3040    -1.4400    -0.7560 C.3   1 <1>  -0.1600 
 10 C       -2.5090    -2.0320    -1.9160 C.3   1 <1>  -0.1600 
 11 C        2.3940    -4.7600    -0.3780 C.ar  1 <1>  -0.1500 
 12 C        3.2410    -2.8790     0.8150 C.ar  1 <1>  -0.1500 
 13 C        3.4870    -4.0070     0.0360 C.ar  1 <1>   0.1170 
 14 N        4.7660    -4.4090    -0.3620 N.am  1 <1>  -0.5470 
 15 C        6.0190    -4.1150     0.1130 C.2   1 <1>   0.7150 
 16 O        6.1560    -3.4530     1.1220 O.2   1 <1>  -0.5700 
 17 C        7.1480    -4.6300    -0.6070 C.2   1 <1>  -0.2370 
 18 N        8.4320    -4.6440    -0.1490 N.pl3 1 <1>   0.3140 
 19 C        7.2110    -5.1960    -1.8470 C.2   1 <1>  -0.1500 
 20 N        9.2780    -5.1920    -1.0330 N.2   1 <1>  -0.7070 
 21 C        8.9450    -4.1550     1.1440 C.3   1 <1>   0.0160 
 22 C        8.5390    -5.5180    -2.0470 C.2   1 <1>   0.1390 
 23 H       -2.8460    -1.6030     1.3530 H     1 <1>   0.0800 
 24 H       -3.4460    -3.0880     0.6250 H     1 <1>   0.0800 
 25 H       -0.7970    -3.3380    -1.7620 H     1 <1>   0.0800 
 26 H       -0.4530    -1.6470    -1.4080 H     1 <1>   0.0800 
 27 H        0.2740    -5.0020    -0.3510 H     1 <1>   0.1500 
 28 H        1.7830    -1.6530     1.7740 H     1 <1>   0.1500 
 29 H       -3.0490    -0.4030    -0.6280 H     1 <1>   0.0800 
 30 H       -4.3670    -1.5250    -0.8980 H     1 <1>   0.0800 
 31 H       -3.0060    -2.9110    -2.2870 H     1 <1>   0.0800 
 32 H       -2.3820    -1.3340    -2.7240 H     1 <1>   0.0800 
 33 H        2.5500    -5.6420    -0.9720 H     1 <1>   0.1500 
 34 H        4.0570    -2.2690     1.1560 H     1 <1>   0.1500 
 35 H        4.7880    -5.0940    -1.1110 H     1 <1>   0.3700 
 36 H        6.4230    -5.3690    -2.5570 H     1 <1>   0.1500 
 37 H        8.7910    -3.0940     1.2060 H     1 <1>   0.0800 
 38 H        9.9940    -4.3720     1.2140 H     1 <1>   0.0800 
 39 H        8.4210    -4.6460     1.9420 H     1 <1>   0.0800 
 40 H        8.9350    -5.9830    -2.9350 H     1 <1>   0.1500 
@<TRIPOS>BOND
  1   1   2  2   
  2   2   3  am  
  3   2   4  1   
  4   3   5  1   
  5   3   6  1   
  6   4   7  ar  
  7   4   8  ar  
  8   5   9  1   
  9   5  23  1   
 10   5  24  1   
 11   6  10  1   
 12   6  25  1   
 13   6  26  1   
 14   7  11  ar  
 15   7  27  1   
 16   8  12  ar  
 17   8  28  1   
 18   9  10  1   
 19   9  29  1   
 20   9  30  1   
 21  10  31  1   
 22  10  32  1   
 23  11  13  ar  
 24  11  33  1   
 25  12  13  ar  
 26  12  34  1   
 27  13  14  1   
 28  14  15  am  
 29  14  35  1   
 30  15  16  2   
 31  15  17  1   
 32  17  18  1   
 33  17  19  2   
 34  18  20  1   
 35  18  21  1   
 36  19  22  1   
 37  19  36  1   
 38  20  22  2   
 39  21  37  1   
 40  21  38  1   
 41  21  39  1   
 42  22  40  1   
@<TRIPOS>SUBSTRUCTURE
  1 ****  13 GROUP 4 **** **** 0

# MOE 2024.06 (io_trps.svl 2023.06)
