@<TRIPOS>MOLECULE
NONAME
38 39 1 0 0 
SMALL
USER_CHARGES


@<TRIPOS>ATOM
  1 O        0.3060     0.6370    -2.7210 O.co2 1 <1>  -0.9000 
  2 C        1.3410     1.2610    -2.4580 C.2   1 <1>   0.9060 
  3 O        2.4610     0.7940    -2.6990 O.co2 1 <1>  -0.9000 
  4 C        1.2690     2.6540    -1.8590 C.3   1 <1>  -0.1860 
  5 C        1.9650     2.6270    -0.4810 C.3   1 <1>   0.2000 
  6 C       -0.1720     3.2330    -1.8800 C.3   1 <1>  -0.0990 
  7 O        1.0560     2.7520     0.5790 O.3   1 <1>  -0.5600 
  8 C        2.9960     3.7360    -0.2790 C.3   1 <1>  -0.1600 
  9 C       -0.2980     4.6710    -1.3960 C.2   1 <1>   0.5690 
 10 C        1.4610     3.7080     1.5060 C.3   1 <1>   0.1200 
 11 C        2.9230     3.9950     1.2100 C.3   1 <1>  -0.1600 
 12 O        0.4920     5.4990    -1.7810 O.2   1 <1>  -0.5700 
 13 N       -1.3180     5.0950    -0.5990 N.am  1 <1>  -0.5470 
 14 C       -2.4450     4.4590    -0.0650 C.ar  1 <1>   0.1170 
 15 C       -3.6950     5.0340    -0.2540 C.ar  1 <1>  -0.1500 
 16 C       -2.3610     3.2900     0.6790 C.ar  1 <1>  -0.1500 
 17 C       -4.8330     4.4530     0.2790 C.ar  1 <1>  -0.1500 
 18 C       -3.4960     2.7040     1.2090 C.ar  1 <1>  -0.1500 
 19 C       -4.7400     3.2810     1.0120 C.ar  1 <1>  -0.1440 
 20 C       -5.9840     2.6360     1.5940 C.3   1 <1>  -0.0970 
 21 H        1.8680     3.2490    -2.5220 H     1 <1>   0.0800 
 22 H        2.4610     1.6810    -0.3390 H     1 <1>   0.0800 
 23 H       -0.8070     2.5820    -1.3130 H     1 <1>   0.0800 
 24 H       -0.5310     3.2020    -2.8920 H     1 <1>   0.0800 
 25 H        2.7100     4.6180    -0.8220 H     1 <1>   0.0800 
 26 H        3.9720     3.4240    -0.6050 H     1 <1>   0.0800 
 27 H        1.3060     3.3250     2.4990 H     1 <1>   0.0800 
 28 H        0.8590     4.5860     1.3480 H     1 <1>   0.0800 
 29 H        3.2020     4.9990     1.4720 H     1 <1>   0.0800 
 30 H        3.5390     3.2930     1.7430 H     1 <1>   0.0800 
 31 H       -1.2810     6.1030    -0.4690 H     1 <1>   0.3700 
 32 H       -3.7780     5.9400    -0.8250 H     1 <1>   0.1500 
 33 H       -1.4040     2.8320     0.8490 H     1 <1>   0.1500 
 34 H       -5.7910     4.9160     0.1190 H     1 <1>   0.1500 
 35 H       -3.4020     1.7940     1.7750 H     1 <1>   0.1500 
 36 H       -6.1560     3.0090     2.5870 H     1 <1>   0.0800 
 37 H       -5.8670     1.5680     1.6380 H     1 <1>   0.0800 
 38 H       -6.8420     2.8570     0.9850 H     1 <1>   0.0800 
@<TRIPOS>BOND
  1   1   2  ar  
  2   2   3  ar  
  3   2   4  1   
  4   4   5  1   
  5   4   6  1   
  6   4  21  1   
  7   5   7  1   
  8   5   8  1   
  9   5  22  1   
 10   6   9  1   
 11   6  23  1   
 12   6  24  1   
 13   7  10  1   
 14   8  11  1   
 15   8  25  1   
 16   8  26  1   
 17   9  12  2   
 18   9  13  am  
 19  10  11  1   
 20  10  27  1   
 21  10  28  1   
 22  11  29  1   
 23  11  30  1   
 24  13  14  1   
 25  13  31  1   
 26  14  15  ar  
 27  14  16  ar  
 28  15  17  ar  
 29  15  32  1   
 30  16  18  ar  
 31  16  33  1   
 32  17  19  ar  
 33  17  34  1   
 34  18  19  ar  
 35  18  35  1   
 36  19  20  1   
 37  20  36  1   
 38  20  37  1   
 39  20  38  1   
@<TRIPOS>SUBSTRUCTURE
  1 ****   6 GROUP 4 **** **** 0

# MOE 2024.06 (io_trps.svl 2023.06)
