@<TRIPOS>MOLECULE
NONAME
35 36 1 0 0 
SMALL
USER_CHARGES


@<TRIPOS>ATOM
  1 O        0.8530     0.3980    -1.7040 O.2   1 <1>  -0.5700 
  2 C        1.6760     0.8990    -0.9730 C.2   1 <1>   0.6900 
  3 N        2.5420     0.1510    -0.1930 N.am  1 <1>  -0.2370 
  4 N        1.7410     2.2500    -0.9390 N.am  1 <1>  -0.4900 
  5 C        2.4450    -1.2620    -0.1990 C.ar  1 <1>   0.1170 
  6 C        3.5100     0.7790     0.5720 C.2   1 <1>   0.5690 
  7 C        2.5650     2.9790    -0.1620 C.2   1 <1>   0.5690 
  8 C        3.4590    -2.0420    -0.7410 C.ar  1 <1>  -0.1500 
  9 C        1.3300    -1.8900     0.3390 C.ar  1 <1>  -0.1500 
 10 O        4.4140     0.1780     1.0950 O.2   1 <1>  -0.5700 
 11 C        3.4790     2.2750     0.8020 C.3   1 <1>  -0.0380 
 12 O        2.5670     4.1770    -0.2250 O.2   1 <1>  -0.5700 
 13 C        3.3740    -3.4310    -0.7390 C.ar  1 <1>   0.0830 
 14 C        1.2160    -3.2680     0.3390 C.ar  1 <1>   0.0830 
 15 O        4.3610    -4.2250    -1.2510 O.3   1 <1>  -0.3630 
 16 C        2.2500    -4.0490    -0.1880 C.ar  1 <1>   0.0830 
 17 O        0.0770    -3.7780     0.8800 O.3   1 <1>  -0.3630 
 18 C        5.5610    -3.6840    -1.7550 C.3   1 <1>   0.0400 
 19 O        2.1760    -5.4090    -0.1600 O.3   1 <1>  -0.3630 
 20 C       -0.6410    -4.7450     0.1420 C.3   1 <1>   0.0400 
 21 C        2.8430    -6.0130     0.9230 C.3   1 <1>   0.0400 
 22 H        1.1090     2.7480    -1.5610 H     1 <1>   0.3700 
 23 H        4.3120    -1.5410    -1.1540 H     1 <1>   0.1500 
 24 H        0.5300    -1.3080     0.7570 H     1 <1>   0.1500 
 25 H        4.4720     2.6700     0.6920 H     1 <1>   0.0800 
 26 H        3.1490     2.4690     1.8040 H     1 <1>   0.0800 
 27 H        6.1890    -4.5000    -2.0660 H     1 <1>   0.0800 
 28 H        6.0480    -3.1260    -0.9750 H     1 <1>   0.0800 
 29 H        5.3350    -3.0570    -2.5980 H     1 <1>   0.0800 
 30 H       -1.6630    -4.7300     0.4750 H     1 <1>   0.0800 
 31 H       -0.2140    -5.7140     0.3250 H     1 <1>   0.0800 
 32 H       -0.5900    -4.5010    -0.9050 H     1 <1>   0.0800 
 33 H        2.7050    -7.0760     0.8530 H     1 <1>   0.0800 
 34 H        2.4190    -5.6430     1.8410 H     1 <1>   0.0800 
 35 H        3.8900    -5.7720     0.8680 H     1 <1>   0.0800 
@<TRIPOS>BOND
  1   1   2  2   
  2   2   3  am  
  3   2   4  am  
  4   3   5  1   
  5   3   6  am  
  6   4   7  am  
  7   4  22  1   
  8   5   8  ar  
  9   5   9  ar  
 10   6  10  2   
 11   6  11  1   
 12   7  11  1   
 13   7  12  2   
 14   8  13  ar  
 15   8  23  1   
 16   9  14  ar  
 17   9  24  1   
 18  11  25  1   
 19  11  26  1   
 20  13  15  1   
 21  13  16  ar  
 22  14  16  ar  
 23  14  17  1   
 24  15  18  1   
 25  16  19  1   
 26  17  20  1   
 27  18  27  1   
 28  18  28  1   
 29  18  29  1   
 30  19  21  1   
 31  20  30  1   
 32  20  31  1   
 33  20  32  1   
 34  21  33  1   
 35  21  34  1   
 36  21  35  1   
@<TRIPOS>SUBSTRUCTURE
  1 ****   5 GROUP 4 **** **** 0

# MOE 2024.06 (io_trps.svl 2023.06)
