@<TRIPOS>MOLECULE
NONAME
44 46 1 0 0 
SMALL
USER_CHARGES


@<TRIPOS>ATOM
  1 CL      -3.7390     3.3150    -2.6120 Cl    1 <1>  -0.1770 
  2 C       -2.2570     3.4770    -1.6920 C.ar  1 <1>   0.1770 
  3 C       -2.2960     3.3790    -0.3040 C.ar  1 <1>   0.1170 
  4 C       -1.0780     3.7040    -2.3740 C.ar  1 <1>  -0.1500 
  5 N       -3.5200     3.1420     0.3430 N.am  1 <1>  -0.5470 
  6 C       -1.0960     3.5140     0.3870 C.ar  1 <1>  -0.1500 
  7 C        0.1030     3.8380    -1.6640 C.ar  1 <1>  -0.1500 
  8 C       -3.9620     3.3830     1.6110 C.2   1 <1>   0.5690 
  9 C        0.1090     3.7420    -0.2740 C.ar  1 <1>  -0.1440 
 10 O       -3.2770     3.8500     2.4880 O.2   1 <1>  -0.5700 
 11 C       -5.4250     3.0360     1.8970 C.3   1 <1>   0.1710 
 12 C        1.4180     3.8920     0.5220 C.3   1 <1>   1.1640 
 13 N       -6.2550     2.8860     0.6630 N.3   1 <1>  -0.8100 
 14 F        1.4460     3.1430     1.6170 F     1 <1>  -0.3400 
 15 F        2.4890     3.5490    -0.1850 F     1 <1>  -0.3400 
 16 F        1.6190     5.1420     0.9150 F     1 <1>  -0.3400 
 17 C       -7.5020     2.1370     0.9540 C.3   1 <1>   0.1100 
 18 C       -6.5990     4.2110     0.0790 C.3   1 <1>   0.1100 
 19 C       -8.3910     1.9660    -0.2940 C.3   1 <1>   0.2090 
 20 C       -7.4560     4.0800    -1.1940 C.3   1 <1>   0.2090 
 21 N       -8.6950     3.2950    -0.9050 N.pl3 1 <1>  -0.8380 
 22 C       -9.9580     3.8480    -0.8990 C.ar  1 <1>   0.7200 
 23 N      -10.9850     3.0120    -0.7490 N.ar  1 <1>  -0.6200 
 24 N      -10.0460     5.1710    -1.0400 N.ar  1 <1>  -0.6200 
 25 C      -12.1810     3.5480    -0.7530 C.ar  1 <1>   0.1600 
 26 C      -11.2540     5.6790    -1.0390 C.ar  1 <1>   0.1600 
 27 C      -12.3740     4.8990    -0.8970 C.ar  1 <1>  -0.1500 
 28 H       -1.0870     3.7760    -3.4470 H     1 <1>   0.1500 
 29 H       -4.2940     2.8270    -0.2580 H     1 <1>   0.3700 
 30 H       -1.1050     3.4380     1.4610 H     1 <1>   0.1500 
 31 H        1.0190     4.0190    -2.2050 H     1 <1>   0.1500 
 32 H       -5.8470     3.7920     2.5370 H     1 <1>   0.0800 
 33 H       -5.4240     2.1080     2.4400 H     1 <1>   0.0800 
 34 H       -8.0710     2.6530     1.7090 H     1 <1>   0.0800 
 35 H       -7.2520     1.1610     1.3310 H     1 <1>   0.0800 
 36 H       -5.7000     4.7470    -0.1680 H     1 <1>   0.0800 
 37 H       -7.1480     4.7980     0.7970 H     1 <1>   0.0800 
 38 H       -9.2900     1.4470    -0.0130 H     1 <1>   0.0800 
 39 H       -7.8760     1.3570    -1.0160 H     1 <1>   0.0800 
 40 H       -6.8870     3.5700    -1.9510 H     1 <1>   0.0800 
 41 H       -7.6880     5.0590    -1.5720 H     1 <1>   0.0800 
 42 H      -13.0270     2.8930    -0.6390 H     1 <1>   0.1500 
 43 H      -11.3520     6.7450    -1.1550 H     1 <1>   0.1500 
 44 H      -13.3590     5.3270    -0.9000 H     1 <1>   0.1500 
@<TRIPOS>BOND
  1   1   2  1   
  2   2   3  ar  
  3   2   4  ar  
  4   3   5  1   
  5   3   6  ar  
  6   4   7  ar  
  7   4  28  1   
  8   5   8  am  
  9   5  29  1   
 10   6   9  ar  
 11   6  30  1   
 12   7   9  ar  
 13   7  31  1   
 14   8  10  2   
 15   8  11  1   
 16   9  12  1   
 17  11  13  1   
 18  11  32  1   
 19  11  33  1   
 20  12  14  1   
 21  12  15  1   
 22  12  16  1   
 23  13  17  1   
 24  13  18  1   
 25  17  19  1   
 26  17  34  1   
 27  17  35  1   
 28  18  20  1   
 29  18  36  1   
 30  18  37  1   
 31  19  21  1   
 32  19  38  1   
 33  19  39  1   
 34  20  21  1   
 35  20  40  1   
 36  20  41  1   
 37  21  22  1   
 38  22  23  ar  
 39  22  24  ar  
 40  23  25  ar  
 41  24  26  ar  
 42  25  27  ar  
 43  25  42  1   
 44  26  27  ar  
 45  26  43  1   
 46  27  44  1   
@<TRIPOS>SUBSTRUCTURE
  1 ****   5 GROUP 4 **** **** 0

# MOE 2024.06 (io_trps.svl 2023.06)
