@<TRIPOS>MOLECULE
NONAME
40 41 1 0 0 
SMALL
USER_CHARGES


@<TRIPOS>ATOM
  1 BR       1.6640    -0.4030    -1.8860 Br    1 <1>  -0.1110 
  2 C        0.8230    -1.9310    -1.0640 C.ar  1 <1>   0.1110 
  3 C        1.3100    -2.4090     0.1440 C.ar  1 <1>  -0.1440 
  4 C       -0.2430    -2.5150    -1.7200 C.ar  1 <1>  -0.1500 
  5 C        0.6910    -3.5170     0.7060 C.ar  1 <1>  -0.1500 
  6 C        2.4810    -1.7410     0.8220 C.3   1 <1>   0.4870 
  7 C       -0.8460    -3.6210    -1.1470 C.ar  1 <1>  -0.1500 
  8 C       -0.3790    -4.1170     0.0600 C.ar  1 <1>  -0.1500 
  9 N        3.7000    -2.1640     0.0860 N.4   1 <1>  -0.9060 
 10 C        4.9610    -1.5000     0.4890 C.3   1 <1>   0.4230 
 11 C        4.9580    -0.0320     0.0470 C.3   1 <1>  -0.1600 
 12 C        6.1300    -2.2440    -0.1590 C.3   1 <1>  -0.1600 
 13 C        6.3030     0.6380     0.3380 C.3   1 <1>   0.3430 
 14 C        7.4630    -1.5530     0.1380 C.3   1 <1>   0.3430 
 15 N        7.4090    -0.1270    -0.3050 N.4   1 <1>  -0.9590 
 16 C        8.7090     0.5680    -0.0610 C.3   1 <1>   0.3430 
 17 C        9.7550     0.0690    -1.0510 C.3   1 <1>  -0.2400 
 18 H       -0.5970    -2.1180    -2.6560 H     1 <1>   0.1500 
 19 H        1.0200    -3.9280     1.6470 H     1 <1>   0.1500 
 20 H        2.5340    -2.0430     1.8550 H     1 <1>   0.0800 
 21 H        2.3560    -0.6710     0.7770 H     1 <1>   0.0800 
 22 H       -1.6800    -4.0950    -1.6380 H     1 <1>   0.1500 
 23 H       -0.8600    -4.9770     0.4990 H     1 <1>   0.1500 
 24 H        3.5050    -2.0060    -0.9120 H     1 <1>   0.4500 
 25 H        3.7670    -3.1850     0.1900 H     1 <1>   0.4500 
 26 H        5.0680    -1.5510     1.5620 H     1 <1>   0.0800 
 27 H        4.1990     0.5140     0.5780 H     1 <1>   0.0800 
 28 H        4.7540     0.0490    -1.0060 H     1 <1>   0.0800 
 29 H        6.0030    -2.3010    -1.2270 H     1 <1>   0.0800 
 30 H        6.1810    -3.2470     0.2270 H     1 <1>   0.0800 
 31 H        6.4660     0.6850     1.4040 H     1 <1>   0.0800 
 32 H        6.2900     1.6500    -0.0400 H     1 <1>   0.0800 
 33 H        8.2550    -2.0720    -0.3790 H     1 <1>   0.0800 
 34 H        7.6720    -1.5980     1.1950 H     1 <1>   0.0800 
 35 H        7.2750    -0.1030    -1.3280 H     1 <1>   0.4500 
 36 H        9.0450     0.3980     0.9510 H     1 <1>   0.0800 
 37 H        8.5860     1.6310    -0.1990 H     1 <1>   0.0800 
 38 H        9.9950    -0.9660    -0.8920 H     1 <1>   0.0800 
 39 H       10.6610     0.6330    -0.9140 H     1 <1>   0.0800 
 40 H        9.4290     0.2170    -2.0660 H     1 <1>   0.0800 
@<TRIPOS>BOND
  1   1   2  1   
  2   2   3  ar  
  3   2   4  ar  
  4   3   5  ar  
  5   3   6  1   
  6   4   7  ar  
  7   4  18  1   
  8   5   8  ar  
  9   5  19  1   
 10   6   9  1   
 11   6  20  1   
 12   6  21  1   
 13   7   8  ar  
 14   7  22  1   
 15   8  23  1   
 16   9  10  1   
 17   9  24  1   
 18   9  25  1   
 19  10  11  1   
 20  10  12  1   
 21  10  26  1   
 22  11  13  1   
 23  11  27  1   
 24  11  28  1   
 25  12  14  1   
 26  12  29  1   
 27  12  30  1   
 28  13  15  1   
 29  13  31  1   
 30  13  32  1   
 31  14  15  1   
 32  14  33  1   
 33  14  34  1   
 34  15  16  1   
 35  15  35  1   
 36  16  17  1   
 37  16  36  1   
 38  16  37  1   
 39  17  38  1   
 40  17  39  1   
 41  17  40  1   
@<TRIPOS>SUBSTRUCTURE
  1 ****   9 GROUP 4 **** **** 0

# MOE 2024.06 (io_trps.svl 2023.06)
