@<TRIPOS>MOLECULE
NONAME
36 37 1 0 0 
SMALL
USER_CHARGES


@<TRIPOS>ATOM
  1 CL       0.2330     0.5870    -1.8420 Cl    1 <1>  -0.1770 
  2 C       -0.0430     2.1430    -1.0970 C.ar  1 <1>   0.1770 
  3 C       -1.3250     2.5080    -0.7430 C.ar  1 <1>  -0.1500 
  4 C        1.0330     2.9810    -0.8800 C.ar  1 <1>  -0.1500 
  5 C       -1.5570     3.7430    -0.1490 C.ar  1 <1>   0.1170 
  6 C        0.8180     4.2180    -0.2950 C.ar  1 <1>  -0.1500 
  7 N       -2.8380     4.1790     0.2340 N.am  1 <1>  -0.5470 
  8 C       -0.4710     4.6040     0.0690 C.ar  1 <1>   0.0830 
  9 C       -4.0280     3.5410     0.3970 C.2   1 <1>   0.6900 
 10 O       -0.7430     5.8150     0.6440 O.3   1 <1>  -0.3630 
 11 O       -4.1500     2.3410     0.2560 O.2   1 <1>  -0.5700 
 12 N       -5.0960     4.3020     0.7300 N.am  1 <1>  -0.7300 
 13 C        0.2880     6.7270     0.9580 C.3   1 <1>   0.0400 
 14 C       -6.4920     3.8180     0.8400 C.3   1 <1>   0.1400 
 15 C       -7.3870     4.5790    -0.1490 C.3   1 <1>   0.2000 
 16 O       -7.1970     5.9530    -0.0170 O.3   1 <1>  -0.5600 
 17 C       -8.8800     4.3820     0.0740 C.3   1 <1>  -0.1600 
 18 C       -8.3010     6.6430    -0.5110 C.3   1 <1>   0.1200 
 19 C       -9.4730     5.6620    -0.4920 C.3   1 <1>  -0.1600 
 20 H       -2.1310     1.8250    -0.9360 H     1 <1>   0.1500 
 21 H        2.0200     2.6670    -1.1660 H     1 <1>   0.1500 
 22 H        1.6640     4.8590    -0.1350 H     1 <1>   0.1500 
 23 H       -2.8340     5.1390     0.5720 H     1 <1>   0.3700 
 24 H       -5.0530     5.3140     0.5950 H     1 <1>   0.3700 
 25 H       -0.1590     7.5900     1.4190 H     1 <1>   0.0800 
 26 H        0.7880     7.0170     0.0510 H     1 <1>   0.0800 
 27 H        0.9710     6.2600     1.6460 H     1 <1>   0.0800 
 28 H       -6.8400     3.9850     1.8440 H     1 <1>   0.0800 
 29 H       -6.5430     2.7620     0.6380 H     1 <1>   0.0800 
 30 H       -7.1260     4.3110    -1.1590 H     1 <1>   0.0800 
 31 H       -9.0870     4.3150     1.1270 H     1 <1>   0.0800 
 32 H       -9.2460     3.5000    -0.4200 H     1 <1>   0.0800 
 33 H       -8.0760     6.9670    -1.5140 H     1 <1>   0.0800 
 34 H       -8.4780     7.4960     0.1210 H     1 <1>   0.0800 
 35 H      -10.2820     6.0300     0.1140 H     1 <1>   0.0800 
 36 H       -9.8290     5.5100    -1.4960 H     1 <1>   0.0800 
@<TRIPOS>BOND
  1   1   2  1   
  2   2   3  ar  
  3   2   4  ar  
  4   3   5  ar  
  5   3  20  1   
  6   4   6  ar  
  7   4  21  1   
  8   5   7  1   
  9   5   8  ar  
 10   6   8  ar  
 11   6  22  1   
 12   7   9  am  
 13   7  23  1   
 14   8  10  1   
 15   9  11  2   
 16   9  12  am  
 17  10  13  1   
 18  12  14  1   
 19  12  24  1   
 20  13  25  1   
 21  13  26  1   
 22  13  27  1   
 23  14  15  1   
 24  14  28  1   
 25  14  29  1   
 26  15  16  1   
 27  15  17  1   
 28  15  30  1   
 29  16  18  1   
 30  17  19  1   
 31  17  31  1   
 32  17  32  1   
 33  18  19  1   
 34  18  33  1   
 35  18  34  1   
 36  19  35  1   
 37  19  36  1   
@<TRIPOS>SUBSTRUCTURE
  1 ****   7 GROUP 4 **** **** 0

# MOE 2024.06 (io_trps.svl 2023.06)
