@<TRIPOS>MOLECULE
NONAME
29 29 1 0 0 
SMALL
USER_CHARGES


@<TRIPOS>ATOM
  1 S        0.9740     0.6580    -0.0450 S.o2  1 <1>   1.4470 
  2 O        1.3250    -0.6550    -0.5310 O.2   1 <1>  -0.6500 
  3 O        1.7640     1.8120    -0.4090 O.2   1 <1>  -0.6500 
  4 N        1.0840     0.5150     1.6240 N.am  1 <1>  -0.9140 
  5 C       -0.7880     0.9910    -0.3160 C.ar  1 <1>  -0.0090 
  6 C        2.4730     0.6600     2.1130 C.3   1 <1>   0.2570 
  7 C       -1.3500     2.2020     0.0700 C.ar  1 <1>  -0.1500 
  8 C       -1.6220     0.0440    -0.9020 C.ar  1 <1>  -0.1500 
  9 C        3.4360    -0.4460     1.6640 C.2   1 <1>   0.6590 
 10 C       -2.6960     2.4640    -0.1210 C.ar  1 <1>  -0.1500 
 11 C       -2.9690     0.2970    -1.0970 C.ar  1 <1>  -0.1500 
 12 O        3.3770    -1.5510     2.1410 O.2   1 <1>  -0.5700 
 13 O        4.3070    -0.1230     0.7190 O.3   1 <1>  -0.4300 
 14 C       -3.5080     1.5090    -0.7060 C.ar  1 <1>  -0.1500 
 15 C        5.1490    -1.0880     0.1350 C.3   1 <1>   0.1200 
 16 C        5.9860    -0.3950    -0.9340 C.3   1 <1>  -0.2400 
 17 H        0.8290    -0.4590     1.7940 H     1 <1>   0.4200 
 18 H        2.4540     0.6490     3.1880 H     1 <1>   0.0800 
 19 H        2.8710     1.6140     1.8110 H     1 <1>   0.0800 
 20 H       -0.7240     2.9510     0.5260 H     1 <1>   0.1500 
 21 H       -1.2140    -0.9040    -1.2110 H     1 <1>   0.1500 
 22 H       -3.1110     3.4090     0.1840 H     1 <1>   0.1500 
 23 H       -3.5980    -0.4490    -1.5530 H     1 <1>   0.1500 
 24 H       -4.5550     1.7090    -0.8570 H     1 <1>   0.1500 
 25 H        4.5320    -1.8580    -0.2970 H     1 <1>   0.0800 
 26 H        5.7720    -1.5110     0.9050 H     1 <1>   0.0800 
 27 H        5.3440     0.0330    -1.6840 H     1 <1>   0.0800 
 28 H        6.6350    -1.1090    -1.4070 H     1 <1>   0.0800 
 29 H        6.5880     0.3780    -0.4930 H     1 <1>   0.0800 
@<TRIPOS>BOND
  1   1   2  2   
  2   1   3  2   
  3   1   4  am  
  4   1   5  1   
  5   4   6  1   
  6   4  17  1   
  7   5   7  ar  
  8   5   8  ar  
  9   6   9  1   
 10   6  18  1   
 11   6  19  1   
 12   7  10  ar  
 13   7  20  1   
 14   8  11  ar  
 15   8  21  1   
 16   9  12  2   
 17   9  13  1   
 18  10  14  ar  
 19  10  22  1   
 20  11  14  ar  
 21  11  23  1   
 22  13  15  1   
 23  14  24  1   
 24  15  16  1   
 25  15  25  1   
 26  15  26  1   
 27  16  27  1   
 28  16  28  1   
 29  16  29  1   
@<TRIPOS>SUBSTRUCTURE
  1 ****   1 GROUP 4 **** **** 0

# MOE 2024.06 (io_trps.svl 2023.06)
