@<TRIPOS>MOLECULE
NONAME
40 42 1 0 0 
SMALL
USER_CHARGES


@<TRIPOS>ATOM
  1 O       -0.6610     0.9850    -0.7920 O.3   1 <1>  -0.5600 
  2 C        0.4360     0.2250    -1.2120 C.3   1 <1>   0.1200 
  3 C       -0.5750     1.4730     0.5160 C.3   1 <1>   0.1200 
  4 C        1.7250     1.0660    -1.1430 C.3   1 <1>   0.3430 
  5 C        0.6640     2.3770     0.6690 C.3   1 <1>   0.3430 
  6 N        1.9110     1.6720     0.2210 N.4   1 <1>  -0.9590 
  7 C        3.0980     2.5520     0.2530 C.3   1 <1>   0.4810 
  8 C        4.3550     1.7000     0.2460 C.2   1 <1>  -0.2540 
  9 C        4.4120     0.2890     0.4590 C.2   1 <1>  -0.2880 
 10 C        5.7260     2.6980    -0.0470 C.3   1 <1>   0.1160 
 11 C        6.0050    -0.3320     0.3780 C.3   1 <1>  -0.0220 
 12 C        7.4210     2.4760    -0.2290 C.3   1 <1>   0.0000 
 13 C        6.2400     1.5150     0.0700 C.3   1 <1>   0.0000 
 14 C        7.2920     0.7820     0.0310 C.3   1 <1>   0.0000 
 15 C        8.2930     3.1890     0.8370 C.3   1 <1>  -0.2400 
 16 C        7.9420     2.8750    -1.6340 C.3   1 <1>  -0.2400 
 17 H        0.2500    -0.0850    -2.2260 H     1 <1>   0.0800 
 18 H        0.5100    -0.6530    -0.5940 H     1 <1>   0.0800 
 19 H       -0.5370     0.6390     1.1960 H     1 <1>   0.0800 
 20 H       -1.4710     2.0350     0.7140 H     1 <1>   0.0800 
 21 H        1.6590     1.8460    -1.8830 H     1 <1>   0.0800 
 22 H        2.5720     0.4470    -1.3920 H     1 <1>   0.0800 
 23 H        0.7590     2.6800     1.6990 H     1 <1>   0.0800 
 24 H        0.5110     3.2620     0.0740 H     1 <1>   0.0800 
 25 H        2.1190     0.9100     0.8770 H     1 <1>   0.4500 
 26 H        3.0930     3.1580     1.1450 H     1 <1>   0.0800 
 27 H        3.0930     3.2070    -0.6030 H     1 <1>   0.0800 
 28 H        3.6360    -0.4280     0.6600 H     1 <1>   0.1500 
 29 H        5.6950     3.3810     0.7880 H     1 <1>   0.0000 
 30 H        6.0270    -1.1110    -0.3660 H     1 <1>   0.0800 
 31 H        6.2280    -0.8130     1.3170 H     1 <1>   0.0800 
 32 H        5.9210     1.2310    -1.0180 H     1 <1>   0.0000 
 33 H        6.2100     1.5470     1.2330 H     1 <1>   0.0000 
 34 H        7.6820     0.3990    -0.9000 H     1 <1>   0.0000 
 35 H        7.9750     2.9360     1.8330 H     1 <1>   0.0800 
 36 H        8.2290     4.2560     0.7210 H     1 <1>   0.0800 
 37 H        9.3210     2.8930     0.7300 H     1 <1>   0.0800 
 38 H        7.3680     2.4060    -2.4120 H     1 <1>   0.0800 
 39 H        8.9690     2.5750    -1.7470 H     1 <1>   0.0800 
 40 H        7.8810     3.9410    -1.7650 H     1 <1>   0.0800 
@<TRIPOS>BOND
  1   1   2  1   
  2   1   3  1   
  3   2   4  1   
  4   2  17  1   
  5   2  18  1   
  6   3   5  1   
  7   3  19  1   
  8   3  20  1   
  9   4   6  1   
 10   4  21  1   
 11   4  22  1   
 12   5   6  1   
 13   5  23  1   
 14   5  24  1   
 15   6   7  1   
 16   6  25  1   
 17   7   8  1   
 18   7  26  1   
 19   7  27  1   
 20   8   9  2   
 21   8  10  1   
 22   9  11  1   
 23   9  28  1   
 24  10  12  1   
 25  10  13  1   
 26  10  29  1   
 27  11  14  1   
 28  11  30  1   
 29  11  31  1   
 30  12  14  1   
 31  12  15  1   
 32  12  16  1   
 33  13  14  1   
 34  13  32  1   
 35  13  33  1   
 36  14  34  1   
 37  15  35  1   
 38  15  36  1   
 39  15  37  1   
 40  16  38  1   
 41  16  39  1   
 42  16  40  1   
@<TRIPOS>SUBSTRUCTURE
  1 ****   8 GROUP 4 **** **** 0

# MOE 2024.06 (io_trps.svl 2023.06)
