@<TRIPOS>MOLECULE
NONAME
34 35 1 0 0 
SMALL
USER_CHARGES


@<TRIPOS>ATOM
  1 BR      -0.4370     0.5730    -0.6370 Br    1 <1>  -0.1110 
  2 C        1.3660     1.1980    -0.3810 C.ar  1 <1>   0.1110 
  3 C        1.5720     2.3540     0.3460 C.ar  1 <1>  -0.1500 
  4 C        2.4070     0.4730    -0.9330 C.ar  1 <1>  -0.1500 
  5 C        2.8740     2.7830     0.5160 C.ar  1 <1>   0.1770 
  6 C        3.7070     0.9180    -0.7530 C.ar  1 <1>  -0.1500 
  7 CL       3.1470     4.2470     1.4380 Cl    1 <1>  -0.1770 
  8 C        3.9520     2.0820    -0.0220 C.ar  1 <1>   0.0830 
  9 O        5.2020     2.5740     0.1930 O.3   1 <1>  -0.3630 
 10 C        6.3570     1.8920    -0.2400 C.3   1 <1>   0.1200 
 11 C        7.5720     2.7270     0.1710 C.3   1 <1>   0.1100 
 12 N        8.8440     2.0730    -0.2130 N.3   1 <1>  -0.8100 
 13 C        9.2040     0.9730     0.7090 C.3   1 <1>   0.1100 
 14 C        9.9280     3.0710    -0.3140 C.3   1 <1>   0.1100 
 15 C       10.5210     0.2920     0.2830 C.3   1 <1>   0.3430 
 16 C       11.2530     2.4200    -0.7580 C.3   1 <1>   0.3430 
 17 N       11.6370     1.2850     0.1450 N.4   1 <1>  -0.9060 
 18 H        0.7490     2.9020     0.7660 H     1 <1>   0.1500 
 19 H        2.1990    -0.4220    -1.4940 H     1 <1>   0.1500 
 20 H        4.5070     0.3490    -1.1880 H     1 <1>   0.1500 
 21 H        6.3160     1.7970    -1.3100 H     1 <1>   0.0800 
 22 H        6.3680     0.9260     0.2320 H     1 <1>   0.0800 
 23 H        7.5500     2.9030     1.2340 H     1 <1>   0.0800 
 24 H        7.4900     3.6760    -0.3320 H     1 <1>   0.0800 
 25 H        8.4240     0.2320     0.7080 H     1 <1>   0.0800 
 26 H        9.2990     1.3490     1.7140 H     1 <1>   0.0800 
 27 H       10.0630     3.5680     0.6320 H     1 <1>   0.0800 
 28 H        9.6540     3.8180    -1.0410 H     1 <1>   0.0800 
 29 H       10.3550    -0.1990    -0.6630 H     1 <1>   0.0800 
 30 H       10.7840    -0.4630     1.0070 H     1 <1>   0.0800 
 31 H       12.0320     3.1650    -0.7690 H     1 <1>   0.0800 
 32 H       11.1280     2.0560    -1.7650 H     1 <1>   0.0800 
 33 H       12.4800     0.8200    -0.2150 H     1 <1>   0.4500 
 34 H       11.8620     1.6620     1.0730 H     1 <1>   0.4500 
@<TRIPOS>BOND
  1   1   2  1   
  2   2   3  ar  
  3   2   4  ar  
  4   3   5  ar  
  5   3  18  1   
  6   4   6  ar  
  7   4  19  1   
  8   5   7  1   
  9   5   8  ar  
 10   6   8  ar  
 11   6  20  1   
 12   8   9  1   
 13   9  10  1   
 14  10  11  1   
 15  10  21  1   
 16  10  22  1   
 17  11  12  1   
 18  11  23  1   
 19  11  24  1   
 20  12  13  1   
 21  12  14  1   
 22  13  15  1   
 23  13  25  1   
 24  13  26  1   
 25  14  16  1   
 26  14  27  1   
 27  14  28  1   
 28  15  17  1   
 29  15  29  1   
 30  15  30  1   
 31  16  17  1   
 32  16  31  1   
 33  16  32  1   
 34  17  33  1   
 35  17  34  1   
@<TRIPOS>SUBSTRUCTURE
  1 ****  10 GROUP 4 **** **** 0

# MOE 2024.06 (io_trps.svl 2023.06)
