@<TRIPOS>MOLECULE
NONAME
38 39 1 0 0 
SMALL
USER_CHARGES


@<TRIPOS>ATOM
  1 S        0.0280     0.2430    -0.2490 S.o2  1 <1>   1.4470 
  2 O        0.0000     0.9630    -1.5000 O.2   1 <1>  -0.6500 
  3 O        0.0750     0.9510     1.0100 O.2   1 <1>  -0.6500 
  4 N        1.4340    -0.6650    -0.3600 N.am  1 <1>  -0.9140 
  5 C       -1.2720    -1.0220    -0.2100 C.ar  1 <1>  -0.0090 
  6 C        2.6220     0.0970    -0.0010 C.3   1 <1>   0.1960 
  7 C       -2.0550    -1.2880    -1.3280 C.ar  1 <1>  -0.1500 
  8 C       -1.5030    -1.7710     0.9380 C.ar  1 <1>  -0.1500 
  9 C        3.8490    -0.8020    -0.1470 C.3   1 <1>  -0.0990 
 10 C       -3.0350    -2.2660    -1.3030 C.ar  1 <1>  -0.1500 
 11 C       -2.4810    -2.7510     0.9730 C.ar  1 <1>  -0.1500 
 12 C        5.1400    -0.0820     0.2020 C.2   1 <1>   0.5690 
 13 C       -3.2480    -2.9990    -0.1500 C.ar  1 <1>  -0.1500 
 14 O        5.1150     1.1220     0.2970 O.2   1 <1>  -0.5700 
 15 N        6.2990    -0.7910     0.3890 N.am  1 <1>  -0.6600 
 16 C        7.5670    -0.1130     0.8010 C.3   1 <1>   0.1400 
 17 C        6.4690    -2.2640     0.1920 C.3   1 <1>   0.1400 
 18 C        8.7310    -0.5300    -0.1120 C.3   1 <1>   0.1200 
 19 C        7.6980    -2.5560    -0.6870 C.3   1 <1>   0.1200 
 20 O        8.8350    -1.9250    -0.1740 O.3   1 <1>  -0.5600 
 21 H        1.4980    -0.8550    -1.3580 H     1 <1>   0.4200 
 22 H        2.5490     0.4350     1.0210 H     1 <1>   0.0800 
 23 H        2.7130     0.9620    -0.6390 H     1 <1>   0.0800 
 24 H       -1.8990    -0.7230    -2.2320 H     1 <1>   0.1500 
 25 H       -0.9080    -1.5830     1.8160 H     1 <1>   0.1500 
 26 H        3.9220    -1.1500    -1.1590 H     1 <1>   0.0800 
 27 H        3.7320    -1.6400     0.5140 H     1 <1>   0.0800 
 28 H       -3.6310    -2.4560    -2.1790 H     1 <1>   0.1500 
 29 H       -2.6440    -3.3180     1.8740 H     1 <1>   0.1500 
 30 H       -4.0090    -3.7600    -0.1260 H     1 <1>   0.1500 
 31 H        7.7990    -0.3850     1.8160 H     1 <1>   0.0800 
 32 H        7.4580     0.9570     0.7650 H     1 <1>   0.0800 
 33 H        5.6030    -2.6980    -0.2720 H     1 <1>   0.0800 
 34 H        6.6050    -2.7340     1.1500 H     1 <1>   0.0800 
 35 H        9.6590    -0.1470     0.2720 H     1 <1>   0.0800 
 36 H        8.5850    -0.1480    -1.1080 H     1 <1>   0.0800 
 37 H        7.5360    -2.2090    -1.6930 H     1 <1>   0.0800 
 38 H        7.8950    -3.6130    -0.7130 H     1 <1>   0.0800 
@<TRIPOS>BOND
  1   1   2  2   
  2   1   3  2   
  3   1   4  am  
  4   1   5  1   
  5   4   6  1   
  6   4  21  1   
  7   5   7  ar  
  8   5   8  ar  
  9   6   9  1   
 10   6  22  1   
 11   6  23  1   
 12   7  10  ar  
 13   7  24  1   
 14   8  11  ar  
 15   8  25  1   
 16   9  12  1   
 17   9  26  1   
 18   9  27  1   
 19  10  13  ar  
 20  10  28  1   
 21  11  13  ar  
 22  11  29  1   
 23  12  14  2   
 24  12  15  am  
 25  13  30  1   
 26  15  16  1   
 27  15  17  1   
 28  16  18  1   
 29  16  31  1   
 30  16  32  1   
 31  17  19  1   
 32  17  33  1   
 33  17  34  1   
 34  18  20  1   
 35  18  35  1   
 36  18  36  1   
 37  19  20  1   
 38  19  37  1   
 39  19  38  1   
@<TRIPOS>SUBSTRUCTURE
  1 ****   6 GROUP 4 **** **** 0

# MOE 2024.06 (io_trps.svl 2023.06)
