@<TRIPOS>MOLECULE
NONAME
41 41 1 0 0 
SMALL
USER_CHARGES


@<TRIPOS>ATOM
  1 O        2.7480    -6.1930     0.0160 O.3   1 <1>  -0.3630 
  2 C        3.9440    -6.8290    -0.1210 C.ar  1 <1>   0.0830 
  3 C        1.5200    -6.8720    -0.1190 C.3   1 <1>   0.1200 
  4 C        5.1120    -6.0740     0.0170 C.ar  1 <1>  -0.1440 
  5 C        4.0280    -8.1910    -0.3970 C.ar  1 <1>  -0.1500 
  6 C        0.3990    -5.8580     0.0890 C.3   1 <1>   0.1200 
  7 C        6.3510    -6.6920    -0.1400 C.ar  1 <1>  -0.1440 
  8 C        5.0310    -4.5790     0.3300 C.3   1 <1>  -0.0960 
  9 C        5.2600    -8.7970    -0.5410 C.ar  1 <1>  -0.1500 
 10 O       -0.8300    -6.5090    -0.0430 O.3   1 <1>  -0.5600 
 11 C        6.4140    -8.0490    -0.4140 C.ar  1 <1>  -0.1500 
 12 C        7.6590    -5.9200    -0.0230 C.3   1 <1>  -0.0970 
 13 C       -1.9330    -5.6830     0.1260 C.3   1 <1>   0.1200 
 14 C       -3.1850    -6.5550    -0.0340 C.3   1 <1>   0.3430 
 15 N       -4.4650    -5.7950     0.1800 N.4   1 <1>  -0.9590 
 16 C       -5.6160    -6.7470     0.2500 C.3   1 <1>   0.2630 
 17 C       -4.7040    -4.7750    -0.8910 C.3   1 <1>   0.2630 
 18 H        1.4750    -7.6420     0.6300 H     1 <1>   0.0800 
 19 H        1.4720    -7.2890    -1.1090 H     1 <1>   0.0800 
 20 H        3.1510    -8.8000    -0.5050 H     1 <1>   0.1500 
 21 H        0.4650    -5.0830    -0.6570 H     1 <1>   0.0800 
 22 H        0.4670    -5.4370     1.0770 H     1 <1>   0.0800 
 23 H        4.0870    -4.3130     0.7670 H     1 <1>   0.0800 
 24 H        5.1580    -4.0150    -0.5760 H     1 <1>   0.0800 
 25 H        5.7920    -4.2940     1.0310 H     1 <1>   0.0800 
 26 H        5.3230    -9.8500    -0.7530 H     1 <1>   0.1500 
 27 H        7.3660    -8.5350    -0.5320 H     1 <1>   0.1500 
 28 H        7.6290    -5.0420    -0.6430 H     1 <1>   0.0800 
 29 H        8.4920    -6.5210    -0.3390 H     1 <1>   0.0800 
 30 H        7.8200    -5.6260     0.9980 H     1 <1>   0.0800 
 31 H       -1.8950    -4.9140    -0.6250 H     1 <1>   0.0800 
 32 H       -1.8880    -5.2550     1.1130 H     1 <1>   0.0800 
 33 H       -3.1230    -7.3560     0.6850 H     1 <1>   0.0800 
 34 H       -3.1820    -6.9880    -1.0200 H     1 <1>   0.0800 
 35 H       -4.4020    -5.3110     1.0900 H     1 <1>   0.4500 
 36 H       -5.7170    -7.2830    -0.6800 H     1 <1>   0.0800 
 37 H       -6.5330    -6.2140     0.4410 H     1 <1>   0.0800 
 38 H       -5.4640    -7.4610     1.0440 H     1 <1>   0.0800 
 39 H       -4.7580    -5.2510    -1.8570 H     1 <1>   0.0800 
 40 H       -3.9060    -4.0500    -0.9090 H     1 <1>   0.0800 
 41 H       -5.6310    -4.2550    -0.7120 H     1 <1>   0.0800 
@<TRIPOS>BOND
  1   1   2  1   
  2   1   3  1   
  3   2   4  ar  
  4   2   5  ar  
  5   3   6  1   
  6   3  18  1   
  7   3  19  1   
  8   4   7  ar  
  9   4   8  1   
 10   5   9  ar  
 11   5  20  1   
 12   6  10  1   
 13   6  21  1   
 14   6  22  1   
 15   7  11  ar  
 16   7  12  1   
 17   8  23  1   
 18   8  24  1   
 19   8  25  1   
 20   9  11  ar  
 21   9  26  1   
 22  10  13  1   
 23  11  27  1   
 24  12  28  1   
 25  12  29  1   
 26  12  30  1   
 27  13  14  1   
 28  13  31  1   
 29  13  32  1   
 30  14  15  1   
 31  14  33  1   
 32  14  34  1   
 33  15  16  1   
 34  15  17  1   
 35  15  35  1   
 36  16  36  1   
 37  16  37  1   
 38  16  38  1   
 39  17  39  1   
 40  17  40  1   
 41  17  41  1   
@<TRIPOS>SUBSTRUCTURE
  1 ****   3 GROUP 4 **** **** 0

# MOE 2024.06 (io_trps.svl 2023.06)
