@<TRIPOS>MOLECULE
NONAME
43 45 1 0 0 
SMALL
USER_CHARGES


@<TRIPOS>ATOM
  1 S       -0.6410    -0.2590    -0.6410 S.o2  1 <1>   1.3330 
  2 O       -1.6110     0.5900     0.0080 O.2   1 <1>  -0.6500 
  3 O       -0.9120    -0.8060    -1.9470 O.2   1 <1>  -0.6500 
  4 N       -0.3730    -1.5900     0.4280 N.am  1 <1>  -0.6930 
  5 C        0.9300     0.5770    -0.6270 C.3   1 <1>  -0.1350 
  6 C        0.7210    -2.4550     0.3270 C.ar  1 <1>   0.1990 
  7 C       -1.5420    -1.9570     1.2970 C.3   1 <1>   0.2570 
  8 C        1.1400    -2.9620    -0.9040 C.ar  1 <1>  -0.1500 
  9 C        1.4140    -2.8260     1.4850 C.ar  1 <1>  -0.1500 
 10 C       -1.7120    -3.4570     1.5730 C.2   1 <1>   0.5690 
 11 C        2.2310    -3.8050    -0.9340 C.ar  1 <1>   0.0830 
 12 C        2.5090    -3.6780     1.4380 C.ar  1 <1>  -0.1500 
 13 O       -1.5410    -3.8230     2.7150 O.2   1 <1>  -0.5700 
 14 N       -2.0490    -4.3430     0.5730 N.am  1 <1>  -0.6600 
 15 O        2.7920    -4.3940    -1.9950 O.3   1 <1>  -0.3630 
 16 C        2.8980    -4.1530     0.2030 C.ar  1 <1>   0.0830 
 17 C       -2.1510    -5.8050     0.8380 C.3   1 <1>   0.1400 
 18 C       -2.2630    -3.9720    -0.8570 C.3   1 <1>   0.1400 
 19 C        3.8830    -5.1710    -1.5030 C.3   1 <1>   0.4000 
 20 O        3.9140    -4.9780    -0.0900 O.3   1 <1>  -0.3630 
 21 C       -3.5230    -6.3190     0.3890 C.3   1 <1>  -0.1600 
 22 C       -3.6360    -4.4700    -1.3210 C.3   1 <1>  -0.1600 
 23 C       -3.8030    -5.9760    -1.0810 C.3   1 <1>  -0.1600 
 24 H        1.1880     0.8620     0.3740 H     1 <1>   0.0800 
 25 H        0.8810     1.4600    -1.2340 H     1 <1>   0.0800 
 26 H        1.6980    -0.0640    -1.0140 H     1 <1>   0.0800 
 27 H       -2.4530    -1.6100     0.8460 H     1 <1>   0.0800 
 28 H       -1.4390    -1.4480     2.2380 H     1 <1>   0.0800 
 29 H        0.6340    -2.7230    -1.8200 H     1 <1>   0.1500 
 30 H        1.0860    -2.4450     2.4350 H     1 <1>   0.1500 
 31 H        3.0410    -3.9670     2.3260 H     1 <1>   0.1500 
 32 H       -2.0140    -6.0150     1.8850 H     1 <1>   0.0800 
 33 H       -1.3730    -6.3120     0.2940 H     1 <1>   0.0800 
 34 H       -1.4900    -4.4270    -1.4530 H     1 <1>   0.0800 
 35 H       -2.2090    -2.9100    -1.0040 H     1 <1>   0.0800 
 36 H        4.8020    -4.8170    -1.9360 H     1 <1>   0.0800 
 37 H        3.7130    -6.2100    -1.7210 H     1 <1>   0.0800 
 38 H       -4.2780    -5.8780     1.0170 H     1 <1>   0.0800 
 39 H       -3.5640    -7.3850     0.5270 H     1 <1>   0.0800 
 40 H       -3.7530    -4.2560    -2.3690 H     1 <1>   0.0800 
 41 H       -4.3990    -3.9290    -0.7900 H     1 <1>   0.0800 
 42 H       -4.8020    -6.2790    -1.3420 H     1 <1>   0.0800 
 43 H       -3.1160    -6.5160    -1.7100 H     1 <1>   0.0800 
@<TRIPOS>BOND
  1   1   2  2   
  2   1   3  2   
  3   1   4  am  
  4   1   5  1   
  5   4   6  1   
  6   4   7  1   
  7   5  24  1   
  8   5  25  1   
  9   5  26  1   
 10   6   8  ar  
 11   6   9  ar  
 12   7  10  1   
 13   7  27  1   
 14   7  28  1   
 15   8  11  ar  
 16   8  29  1   
 17   9  12  ar  
 18   9  30  1   
 19  10  13  2   
 20  10  14  am  
 21  11  15  1   
 22  11  16  ar  
 23  12  16  ar  
 24  12  31  1   
 25  14  17  1   
 26  14  18  1   
 27  15  19  1   
 28  16  20  1   
 29  17  21  1   
 30  17  32  1   
 31  17  33  1   
 32  18  22  1   
 33  18  34  1   
 34  18  35  1   
 35  19  20  1   
 36  19  36  1   
 37  19  37  1   
 38  21  23  1   
 39  21  38  1   
 40  21  39  1   
 41  22  23  1   
 42  22  40  1   
 43  22  41  1   
 44  23  42  1   
 45  23  43  1   
@<TRIPOS>SUBSTRUCTURE
  1 ****   6 GROUP 4 **** **** 0

# MOE 2024.06 (io_trps.svl 2023.06)
