@<TRIPOS>MOLECULE
NONAME
46 49 1 0 0 
SMALL
USER_CHARGES


@<TRIPOS>ATOM
  1 O        0.7630    -0.7820     1.4460 O.2   1 <1>  -0.5700 
  2 C        0.9360    -1.6910     0.6640 C.2   1 <1>   0.5690 
  3 N        2.2200    -1.9380     0.2310 N.am  1 <1>  -0.6600 
  4 C       -0.3150    -2.5110     0.2240 C.3   1 <1>   0.0610 
  5 C        3.3320    -1.0030     0.6180 C.3   1 <1>   0.2810 
  6 C        2.7730    -3.1090    -0.4850 C.3   1 <1>   0.1400 
  7 C       -0.3830    -3.8650     0.9760 C.3   1 <1>  -0.1600 
  8 C       -0.3600    -2.7750    -1.3070 C.3   1 <1>  -0.1600 
  9 C       -1.6180    -1.7320     0.5760 C.3   1 <1>  -0.1600 
 10 C        3.1820     0.4500     0.1260 C.2   1 <1>   0.6590 
 11 C        4.6050    -1.6640     0.0770 C.3   1 <1>  -0.1600 
 12 C        4.2440    -3.1340    -0.1000 C.3   1 <1>  -0.1600 
 13 C       -1.6360    -4.6670     0.5720 C.3   1 <1>  -0.0800 
 14 C       -1.6140    -3.5750    -1.7060 C.3   1 <1>  -0.0800 
 15 C       -2.8850    -2.5140     0.1860 C.3   1 <1>  -0.0800 
 16 O        3.6280     1.3770     0.7580 O.2   1 <1>  -0.5700 
 17 O        2.5840     0.6340    -1.0520 O.3   1 <1>  -0.4300 
 18 C       -1.6180    -4.9160    -0.9480 C.3   1 <1>  -0.1600 
 19 C       -2.8940    -3.8580     0.9350 C.3   1 <1>  -0.1600 
 20 C       -2.8700    -2.7720    -1.3290 C.3   1 <1>  -0.1600 
 21 C        2.3700     1.9250    -1.5800 C.3   1 <1>   0.0400 
 22 H        3.3820    -0.9800     1.6930 H     1 <1>   0.0800 
 23 H        2.6800    -2.9480    -1.5450 H     1 <1>   0.0800 
 24 H        2.2870    -4.0250    -0.2080 H     1 <1>   0.0800 
 25 H       -0.4010    -3.6810     2.0360 H     1 <1>   0.0800 
 26 H        0.4850    -4.4580     0.7720 H     1 <1>   0.0800 
 27 H        0.4910    -3.3400    -1.6260 H     1 <1>   0.0800 
 28 H       -0.3420    -1.8370    -1.8340 H     1 <1>   0.0800 
 29 H       -1.6140    -0.7800     0.0750 H     1 <1>   0.0800 
 30 H       -1.6490    -1.5330     1.6340 H     1 <1>   0.0800 
 31 H        5.4360    -1.5200     0.7440 H     1 <1>   0.0800 
 32 H        4.8510    -1.2360    -0.8800 H     1 <1>   0.0800 
 33 H        4.8470    -3.6190    -0.8480 H     1 <1>   0.0800 
 34 H        4.3550    -3.6570     0.8350 H     1 <1>   0.0800 
 35 H       -1.6490    -5.6080     1.0950 H     1 <1>   0.0800 
 36 H       -1.6080    -3.7570    -2.7670 H     1 <1>   0.0800 
 37 H       -3.7600    -1.9440     0.4500 H     1 <1>   0.0800 
 38 H       -2.4830    -5.4900    -1.2310 H     1 <1>   0.0800 
 39 H       -0.7460    -5.4890    -1.2130 H     1 <1>   0.0800 
 40 H       -3.7760    -4.4160     0.6720 H     1 <1>   0.0800 
 41 H       -2.9220    -3.6840     1.9960 H     1 <1>   0.0800 
 42 H       -3.7520    -3.3180    -1.6150 H     1 <1>   0.0800 
 43 H       -2.8780    -1.8350    -1.8580 H     1 <1>   0.0800 
 44 H        1.8680     1.8270    -2.5250 H     1 <1>   0.0800 
 45 H        3.3220     2.4100    -1.7100 H     1 <1>   0.0800 
 46 H        1.7590     2.4820    -0.8910 H     1 <1>   0.0800 
@<TRIPOS>BOND
  1   1   2  2   
  2   2   3  am  
  3   2   4  1   
  4   3   5  1   
  5   3   6  1   
  6   4   7  1   
  7   4   8  1   
  8   4   9  1   
  9   5  10  1   
 10   5  11  1   
 11   5  22  1   
 12   6  12  1   
 13   6  23  1   
 14   6  24  1   
 15   7  13  1   
 16   7  25  1   
 17   7  26  1   
 18   8  14  1   
 19   8  27  1   
 20   8  28  1   
 21   9  15  1   
 22   9  29  1   
 23   9  30  1   
 24  10  16  2   
 25  10  17  1   
 26  11  12  1   
 27  11  31  1   
 28  11  32  1   
 29  12  33  1   
 30  12  34  1   
 31  13  18  1   
 32  13  19  1   
 33  13  35  1   
 34  14  18  1   
 35  14  20  1   
 36  14  36  1   
 37  15  19  1   
 38  15  20  1   
 39  15  37  1   
 40  17  21  1   
 41  18  38  1   
 42  18  39  1   
 43  19  40  1   
 44  19  41  1   
 45  20  42  1   
 46  20  43  1   
 47  21  44  1   
 48  21  45  1   
 49  21  46  1   
@<TRIPOS>SUBSTRUCTURE
  1 ****   2 GROUP 4 **** **** 0

# MOE 2024.06 (io_trps.svl 2023.06)
