@<TRIPOS>MOLECULE
NONAME
49 51 1 0 0 
SMALL
USER_CHARGES


@<TRIPOS>ATOM
  1 N        1.5090    -4.8260     0.0880 N.pl3 1 <1>  -0.8380 
  2 C        2.8990    -4.8360     0.0600 C.ar  1 <1>   0.1000 
  3 C        0.8240    -5.6090    -0.9780 C.3   1 <1>   0.2090 
  4 C        0.8670    -3.5210     0.4130 C.3   1 <1>   0.2090 
  5 C        3.6000    -5.5070     1.0520 C.ar  1 <1>  -0.1500 
  6 C        3.6120    -4.1860    -0.9420 C.ar  1 <1>  -0.1500 
  7 C       -0.6730    -5.7830    -0.6470 C.3   1 <1>   0.3430 
  8 C       -0.6310    -3.7160     0.7290 C.3   1 <1>   0.3430 
  9 C        4.9820    -5.5320     1.0480 C.ar  1 <1>  -0.1500 
 10 C        4.9950    -4.2080    -0.9500 C.ar  1 <1>  -0.1500 
 11 N       -1.3670    -4.4710    -0.3590 N.4   1 <1>  -0.9590 
 12 C        5.6820    -4.8820     0.0460 C.ar  1 <1>  -0.1500 
 13 C       -2.8000    -4.6970    -0.0230 C.3   1 <1>   0.3430 
 14 C       -3.5680    -3.3760    -0.0550 C.3   1 <1>  -0.1600 
 15 C       -5.0820    -3.5830     0.1060 C.3   1 <1>   0.0630 
 16 C       -5.7890    -2.2470    -0.0940 C.ar  1 <1>  -0.1430 
 17 C       -5.4520    -4.2050     1.4610 C.3   1 <1>  -0.2400 
 18 C       -6.5600    -2.0400    -1.2290 C.ar  1 <1>  -0.1500 
 19 C       -5.6700    -1.2180     0.8320 C.ar  1 <1>  -0.1500 
 20 C       -7.1970    -0.8290    -1.4380 C.ar  1 <1>  -0.1500 
 21 C       -6.3070    -0.0070     0.6250 C.ar  1 <1>  -0.1500 
 22 C       -7.0710     0.1890    -0.5120 C.ar  1 <1>  -0.1500 
 23 H        1.2890    -6.5780    -1.0560 H     1 <1>   0.0800 
 24 H        0.9370    -5.1110    -1.9250 H     1 <1>   0.0800 
 25 H        0.9840    -2.8420    -0.4140 H     1 <1>   0.0800 
 26 H        1.3600    -3.0890     1.2680 H     1 <1>   0.0800 
 27 H        3.0540    -6.0110     1.8280 H     1 <1>   0.1500 
 28 H        3.0870    -3.6620    -1.7170 H     1 <1>   0.1500 
 29 H       -0.7470    -6.4250     0.2160 H     1 <1>   0.0800 
 30 H       -1.1570    -6.2820    -1.4700 H     1 <1>   0.0800 
 31 H       -1.0800    -2.7490     0.8770 H     1 <1>   0.0800 
 32 H       -0.7050    -4.2600     1.6560 H     1 <1>   0.0800 
 33 H        5.5150    -6.0570     1.8220 H     1 <1>   0.1500 
 34 H        5.5410    -3.7030    -1.7280 H     1 <1>   0.1500 
 35 H       -1.3190    -3.9030    -1.2150 H     1 <1>   0.4500 
 36 H        6.7580    -4.9010     0.0410 H     1 <1>   0.1500 
 37 H       -2.8850    -5.1510     0.9510 H     1 <1>   0.0800 
 38 H       -3.2360    -5.3670    -0.7460 H     1 <1>   0.0800 
 39 H       -3.4000    -2.8880    -0.9990 H     1 <1>   0.0800 
 40 H       -3.2260    -2.7260     0.7300 H     1 <1>   0.0800 
 41 H       -5.4200    -4.2580    -0.6630 H     1 <1>   0.0800 
 42 H       -5.0550    -3.6290     2.2770 H     1 <1>   0.0800 
 43 H       -5.0900    -5.2140     1.5390 H     1 <1>   0.0800 
 44 H       -6.5230    -4.2300     1.5610 H     1 <1>   0.0800 
 45 H       -6.6760    -2.8180    -1.9640 H     1 <1>   0.1500 
 46 H       -5.0840    -1.3450     1.7230 H     1 <1>   0.1500 
 47 H       -7.7940    -0.6790    -2.3210 H     1 <1>   0.1500 
 48 H       -6.2120     0.7850     1.3480 H     1 <1>   0.1500 
 49 H       -7.5660     1.1300    -0.6730 H     1 <1>   0.1500 
@<TRIPOS>BOND
  1   1   2  1   
  2   1   3  1   
  3   1   4  1   
  4   2   5  ar  
  5   2   6  ar  
  6   3   7  1   
  7   3  23  1   
  8   3  24  1   
  9   4   8  1   
 10   4  25  1   
 11   4  26  1   
 12   5   9  ar  
 13   5  27  1   
 14   6  10  ar  
 15   6  28  1   
 16   7  11  1   
 17   7  29  1   
 18   7  30  1   
 19   8  11  1   
 20   8  31  1   
 21   8  32  1   
 22   9  12  ar  
 23   9  33  1   
 24  10  12  ar  
 25  10  34  1   
 26  11  13  1   
 27  11  35  1   
 28  12  36  1   
 29  13  14  1   
 30  13  37  1   
 31  13  38  1   
 32  14  15  1   
 33  14  39  1   
 34  14  40  1   
 35  15  16  1   
 36  15  17  1   
 37  15  41  1   
 38  16  18  ar  
 39  16  19  ar  
 40  17  42  1   
 41  17  43  1   
 42  17  44  1   
 43  18  20  ar  
 44  18  45  1   
 45  19  21  ar  
 46  19  46  1   
 47  20  22  ar  
 48  20  47  1   
 49  21  22  ar  
 50  21  48  1   
 51  22  49  1   
@<TRIPOS>SUBSTRUCTURE
  1 ****  11 GROUP 4 **** **** 0

# MOE 2024.06 (io_trps.svl 2023.06)
