@<TRIPOS>MOLECULE
NONAME
49 50 1 0 0 
SMALL
USER_CHARGES


@<TRIPOS>ATOM
  1 S        0.3410    -0.1360     0.0410 S.o2  1 <1>   1.3330 
  2 O       -0.2560    -0.8900    -1.0350 O.2   1 <1>  -0.6500 
  3 O        1.6980    -0.3690     0.4650 O.2   1 <1>  -0.6500 
  4 N        0.1990     1.5340    -0.3900 N.am  1 <1>  -0.6930 
  5 C       -0.6960    -0.2670     1.4830 C.3   1 <1>  -0.1350 
  6 C       -1.0370     2.1580    -0.2940 C.ar  1 <1>   0.1990 
  7 C        1.0040     1.9210    -1.5970 C.3   1 <1>   0.2570 
  8 C       -2.0890     1.8070    -1.1290 C.ar  1 <1>  -0.1500 
  9 C       -1.2420     3.1510     0.6540 C.ar  1 <1>  -0.1500 
 10 C        2.5250     1.7250    -1.5130 C.2   1 <1>   0.5690 
 11 C       -3.3150     2.4350    -1.0200 C.ar  1 <1>  -0.1500 
 12 C       -2.4680     3.7810     0.7630 C.ar  1 <1>  -0.1500 
 13 O        3.0320     1.0810    -2.4040 O.2   1 <1>  -0.5700 
 14 N        3.2850     2.2850    -0.5100 N.am  1 <1>  -0.6600 
 15 C       -3.5180     3.4300    -0.0740 C.ar  1 <1>  -0.1430 
 16 C        2.7510     3.1550     0.5730 C.3   1 <1>   0.1400 
 17 C        4.7050     1.8750    -0.3180 C.3   1 <1>   0.1400 
 18 C       -4.8650     4.1380     0.0560 C.3   1 <1>   0.0630 
 19 C        3.6310     4.3990     0.7330 C.3   1 <1>  -0.1600 
 20 C        5.5960     3.1130    -0.1720 C.3   1 <1>  -0.1600 
 21 C       -5.9730     3.1460     0.4250 C.3   1 <1>  -0.2400 
 22 C       -5.2130     4.8870    -1.2340 C.3   1 <1>  -0.2400 
 23 C        5.1040     4.0310     0.9540 C.3   1 <1>  -0.1600 
 24 H       -0.6610    -1.2670     1.8670 H     1 <1>   0.0800 
 25 H       -1.7130    -0.0320     1.2370 H     1 <1>   0.0800 
 26 H       -0.3570     0.4060     2.2450 H     1 <1>   0.0800 
 27 H        0.8240     2.9570    -1.8210 H     1 <1>   0.0800 
 28 H        0.6490     1.3470    -2.4350 H     1 <1>   0.0800 
 29 H       -1.9460     1.0350    -1.8660 H     1 <1>   0.1500 
 30 H       -0.4360     3.4290     1.3070 H     1 <1>   0.1500 
 31 H       -4.1150     2.1450    -1.6800 H     1 <1>   0.1500 
 32 H       -2.6020     4.5490     1.5050 H     1 <1>   0.1500 
 33 H        2.7350     2.5930     1.4910 H     1 <1>   0.0800 
 34 H        1.7490     3.4710     0.3530 H     1 <1>   0.0800 
 35 H        5.0480     1.2830    -1.1500 H     1 <1>   0.0800 
 36 H        4.7710     1.2670     0.5670 H     1 <1>   0.0800 
 37 H       -4.8000     4.8650     0.8490 H     1 <1>   0.0800 
 38 H        3.2770     4.9810     1.5660 H     1 <1>   0.0800 
 39 H        3.5400     5.0040    -0.1520 H     1 <1>   0.0800 
 40 H        5.5980     3.6480    -1.1060 H     1 <1>   0.0800 
 41 H        6.6050     2.8000     0.0290 H     1 <1>   0.0800 
 42 H       -6.1190     2.4230    -0.3570 H     1 <1>   0.0800 
 43 H       -6.9000     3.6680     0.5860 H     1 <1>   0.0800 
 44 H       -5.7130     2.6260     1.3300 H     1 <1>   0.0800 
 45 H       -5.3440     4.2030    -2.0520 H     1 <1>   0.0800 
 46 H       -4.4220     5.5720    -1.4830 H     1 <1>   0.0800 
 47 H       -6.1220     5.4470    -1.1060 H     1 <1>   0.0800 
 48 H        5.2090     3.5240     1.8990 H     1 <1>   0.0800 
 49 H        5.7040     4.9240     0.9850 H     1 <1>   0.0800 
@<TRIPOS>BOND
  1   1   2  2   
  2   1   3  2   
  3   1   4  am  
  4   1   5  1   
  5   4   6  1   
  6   4   7  1   
  7   5  24  1   
  8   5  25  1   
  9   5  26  1   
 10   6   8  ar  
 11   6   9  ar  
 12   7  10  1   
 13   7  27  1   
 14   7  28  1   
 15   8  11  ar  
 16   8  29  1   
 17   9  12  ar  
 18   9  30  1   
 19  10  13  2   
 20  10  14  am  
 21  11  15  ar  
 22  11  31  1   
 23  12  15  ar  
 24  12  32  1   
 25  14  16  1   
 26  14  17  1   
 27  15  18  1   
 28  16  19  1   
 29  16  33  1   
 30  16  34  1   
 31  17  20  1   
 32  17  35  1   
 33  17  36  1   
 34  18  21  1   
 35  18  22  1   
 36  18  37  1   
 37  19  23  1   
 38  19  38  1   
 39  19  39  1   
 40  20  23  1   
 41  20  40  1   
 42  20  41  1   
 43  21  42  1   
 44  21  43  1   
 45  21  44  1   
 46  22  45  1   
 47  22  46  1   
 48  22  47  1   
 49  23  48  1   
 50  23  49  1   
@<TRIPOS>SUBSTRUCTURE
  1 ****   4 GROUP 4 **** **** 0

# MOE 2024.06 (io_trps.svl 2023.06)
