@<TRIPOS>MOLECULE
NONAME
55 57 1 0 0 
SMALL
USER_CHARGES


@<TRIPOS>ATOM
  1 S        0.4680     0.3610     0.8650 S.o2  1 <1>   1.4470 
  2 O       -0.2110    -0.8930     0.6070 O.2   1 <1>  -0.6500 
  3 O        0.9020     0.6140     2.2230 O.2   1 <1>  -0.6500 
  4 N        1.8760     0.3230    -0.0840 N.am  1 <1>  -0.8490 
  5 C       -0.5230     1.6950     0.1300 C.ar  1 <1>  -0.0090 
  6 C        2.7700     1.4470     0.1850 C.3   1 <1>   0.1960 
  7 C        2.5660    -0.9680     0.0570 C.3   1 <1>   0.1960 
  8 C       -0.4750     3.0130     0.5830 C.ar  1 <1>   0.0830 
  9 C       -1.3570     1.4070    -0.9460 C.ar  1 <1>  -0.1500 
 10 C        3.8480     1.5370    -0.9050 C.3   1 <1>  -0.1600 
 11 C        3.9980    -0.9490    -0.5040 C.3   1 <1>  -0.1600 
 12 O        0.3550     3.3100     1.6130 O.3   1 <1>  -0.3620 
 13 C       -1.2570     3.9940    -0.0230 C.ar  1 <1>  -0.1500 
 14 C       -2.1340     2.3770    -1.5540 C.ar  1 <1>  -0.1430 
 15 C        4.1970     0.1720    -1.5380 C.3   1 <1>  -0.0190 
 16 C        0.1920     4.4740     2.3930 C.3   1 <1>   0.0400 
 17 C       -2.0820     3.6760    -1.0830 C.ar  1 <1>  -0.1500 
 18 C       -3.0330     2.0130    -2.7220 C.3   1 <1>  -0.0970 
 19 C        5.5920     0.1590    -2.1570 C.2   1 <1>   0.5690 
 20 O        5.7080     0.0480    -3.3530 O.2   1 <1>  -0.5700 
 21 N        6.6730     0.2630    -1.3440 N.am  1 <1>  -0.7300 
 22 C        8.0920     0.2000    -1.7600 C.3   1 <1>   0.1400 
 23 C        8.8780    -0.7050    -0.7980 C.3   1 <1>   0.2000 
 24 O        8.5840    -0.3760     0.5260 O.3   1 <1>  -0.5600 
 25 C       10.3900    -0.5650    -0.8970 C.3   1 <1>  -0.1600 
 26 C        9.6190    -0.7770     1.3700 C.3   1 <1>   0.1200 
 27 C       10.8510    -0.9810     0.4890 C.3   1 <1>  -0.1600 
 28 H        3.2270     1.3160     1.1530 H     1 <1>   0.0800 
 29 H        2.2210     2.3720     0.2010 H     1 <1>   0.0800 
 30 H        1.9930    -1.7130    -0.4700 H     1 <1>   0.0800 
 31 H        2.6000    -1.2570     1.0950 H     1 <1>   0.0800 
 32 H       -1.3970     0.3950    -1.3120 H     1 <1>   0.1500 
 33 H        4.7220     1.9880    -0.4700 H     1 <1>   0.0800 
 34 H        3.5080     2.1980    -1.6830 H     1 <1>   0.0800 
 35 H        4.2170    -1.9040    -0.9490 H     1 <1>   0.0800 
 36 H        4.6840    -0.8120     0.3130 H     1 <1>   0.0800 
 37 H       -1.2320     5.0140     0.3130 H     1 <1>   0.1500 
 38 H        3.4950    -0.0050    -2.3350 H     1 <1>   0.0800 
 39 H        0.8490     4.3990     3.2410 H     1 <1>   0.0800 
 40 H       -0.8290     4.5320     2.7270 H     1 <1>   0.0800 
 41 H        0.4560     5.3330     1.8030 H     1 <1>   0.0800 
 42 H       -2.6820     4.4430    -1.5420 H     1 <1>   0.1500 
 43 H       -2.5600     1.2710    -3.3400 H     1 <1>   0.0800 
 44 H       -3.2390     2.8770    -3.3280 H     1 <1>   0.0800 
 45 H       -3.9630     1.6170    -2.3550 H     1 <1>   0.0800 
 46 H        6.5650     0.2900    -0.3260 H     1 <1>   0.3700 
 47 H        8.5040     1.1930    -1.7410 H     1 <1>   0.0800 
 48 H        8.1690    -0.1780    -2.7650 H     1 <1>   0.0800 
 49 H        8.5920    -1.7320    -0.9460 H     1 <1>   0.0800 
 50 H       10.6520     0.4620    -1.0800 H     1 <1>   0.0800 
 51 H       10.8010    -1.1840    -1.6750 H     1 <1>   0.0800 
 52 H        9.3260    -1.6920     1.8560 H     1 <1>   0.0800 
 53 H        9.7720    -0.0030     2.1020 H     1 <1>   0.0800 
 54 H       11.6820    -0.3890     0.8310 H     1 <1>   0.0800 
 55 H       11.1310    -2.0190     0.5030 H     1 <1>   0.0800 
@<TRIPOS>BOND
  1   1   2  2   
  2   1   3  2   
  3   1   4  am  
  4   1   5  1   
  5   4   6  1   
  6   4   7  1   
  7   5   8  ar  
  8   5   9  ar  
  9   6  10  1   
 10   6  28  1   
 11   6  29  1   
 12   7  11  1   
 13   7  30  1   
 14   7  31  1   
 15   8  12  1   
 16   8  13  ar  
 17   9  14  ar  
 18   9  32  1   
 19  10  15  1   
 20  10  33  1   
 21  10  34  1   
 22  11  15  1   
 23  11  35  1   
 24  11  36  1   
 25  12  16  1   
 26  13  17  ar  
 27  13  37  1   
 28  14  17  ar  
 29  14  18  1   
 30  15  19  1   
 31  15  38  1   
 32  16  39  1   
 33  16  40  1   
 34  16  41  1   
 35  17  42  1   
 36  18  43  1   
 37  18  44  1   
 38  18  45  1   
 39  19  20  2   
 40  19  21  am  
 41  21  22  1   
 42  21  46  1   
 43  22  23  1   
 44  22  47  1   
 45  22  48  1   
 46  23  24  1   
 47  23  25  1   
 48  23  49  1   
 49  24  26  1   
 50  25  27  1   
 51  25  50  1   
 52  25  51  1   
 53  26  27  1   
 54  26  52  1   
 55  26  53  1   
 56  27  54  1   
 57  27  55  1   
@<TRIPOS>SUBSTRUCTURE
  1 ****   6 GROUP 4 **** **** 0

# MOE 2024.06 (io_trps.svl 2023.06)
