@<TRIPOS>MOLECULE
NONAME
35 37 1 0 0 
SMALL
USER_CHARGES


@<TRIPOS>ATOM
  1 CL       0.0680    -0.2900    -1.1000 Cl    1 <1>  -0.1770 
  2 C       -0.9620    -1.5930    -0.5680 C.ar  1 <1>   0.1770 
  3 C       -2.3150    -1.5350    -0.8270 C.ar  1 <1>  -0.1500 
  4 C       -0.3960    -2.6650     0.1060 C.ar  1 <1>  -0.1500 
  5 C       -3.1480    -2.5730    -0.4060 C.ar  1 <1>   0.0280 
  6 C       -1.2090    -3.6990     0.5290 C.ar  1 <1>  -0.1500 
  7 C       -2.5740    -3.6530     0.2770 C.ar  1 <1>   0.0830 
  8 C       -4.5520    -2.6010    -0.6400 C.2   1 <1>  -0.1780 
  9 O       -3.3520    -4.6700     0.7050 O.3   1 <1>  -0.2320 
 10 C       -5.3040    -3.6440    -0.1940 C.2   1 <1>   0.0290 
 11 C       -4.6810    -4.7060     0.5430 C.2   1 <1>   0.7060 
 12 C       -6.7140    -3.7440    -0.4250 C.2   1 <1>   0.6160 
 13 O       -5.2730    -5.6210     1.0760 O.2   1 <1>  -0.5700 
 14 O       -7.1650    -4.5940    -1.1650 O.2   1 <1>  -0.5700 
 15 N       -7.5600    -2.8310     0.1310 N.am  1 <1>  -0.7300 
 16 C       -9.0280    -2.7640    -0.0640 C.3   1 <1>   0.1400 
 17 C       -9.4560    -1.3140    -0.3400 C.3   1 <1>   0.2000 
 18 O       -8.8680    -0.4480     0.5850 O.3   1 <1>  -0.5600 
 19 C      -10.9510    -1.0660    -0.2080 C.3   1 <1>  -0.1600 
 20 C       -9.6490     0.6930     0.7690 C.3   1 <1>   0.1200 
 21 C      -11.0040     0.4140     0.1200 C.3   1 <1>  -0.1600 
 22 H       -2.7210    -0.6910    -1.3530 H     1 <1>   0.1500 
 23 H        0.6640    -2.6790     0.2900 H     1 <1>   0.1500 
 24 H       -0.7950    -4.5410     1.0550 H     1 <1>   0.1500 
 25 H       -4.9920    -1.7840    -1.1870 H     1 <1>   0.1500 
 26 H       -7.2060    -2.0510     0.6950 H     1 <1>   0.3700 
 27 H       -9.5120    -3.1190     0.8280 H     1 <1>   0.0800 
 28 H       -9.3280    -3.3950    -0.8820 H     1 <1>   0.0800 
 29 H       -9.1200    -1.0140    -1.3190 H     1 <1>   0.0800 
 30 H      -11.3480    -1.6400     0.6120 H     1 <1>   0.0800 
 31 H      -11.4830    -1.3120    -1.1090 H     1 <1>   0.0800 
 32 H       -9.1520     1.5290     0.3090 H     1 <1>   0.0800 
 33 H       -9.7450     0.8600     1.8280 H     1 <1>   0.0800 
 34 H      -11.8190     0.6590     0.7780 H     1 <1>   0.0800 
 35 H      -11.0920     0.9980    -0.7800 H     1 <1>   0.0800 
@<TRIPOS>BOND
  1   1   2  1   
  2   2   3  ar  
  3   2   4  ar  
  4   3   5  ar  
  5   3  22  1   
  6   4   6  ar  
  7   4  23  1   
  8   5   7  ar  
  9   5   8  1   
 10   6   7  ar  
 11   6  24  1   
 12   7   9  1   
 13   8  10  2   
 14   8  25  1   
 15   9  11  1   
 16  10  11  1   
 17  10  12  1   
 18  11  13  2   
 19  12  14  2   
 20  12  15  am  
 21  15  16  1   
 22  15  26  1   
 23  16  17  1   
 24  16  27  1   
 25  16  28  1   
 26  17  18  1   
 27  17  19  1   
 28  17  29  1   
 29  18  20  1   
 30  19  21  1   
 31  19  30  1   
 32  19  31  1   
 33  20  21  1   
 34  20  32  1   
 35  20  33  1   
 36  21  34  1   
 37  21  35  1   
@<TRIPOS>SUBSTRUCTURE
  1 ****   8 GROUP 4 **** **** 0

# MOE 2024.06 (io_trps.svl 2023.06)
