@<TRIPOS>MOLECULE
NONAME
36 37 1 0 0 
SMALL
USER_CHARGES


@<TRIPOS>ATOM
  1 O       -0.2290     0.6830     0.7100 O.3   1 <1>  -0.5600 
  2 C        1.1540     0.7470     0.5760 C.3   1 <1>   0.2800 
  3 C       -0.9920     1.2800    -0.2850 C.3   1 <1>   0.1200 
  4 C        1.5950     2.1570     0.1200 C.3   1 <1>  -0.1600 
  5 C        1.5990    -0.3350    -0.4160 C.3   1 <1>  -0.2400 
  6 C        1.7110     0.3930     1.9580 C.3   1 <1>  -0.2400 
  7 C       -0.7970     2.7990    -0.2450 C.3   1 <1>  -0.1600 
  8 C        0.5430     3.2580     0.3810 C.3   1 <1>   0.4700 
  9 N        0.9640     4.5240    -0.3240 N.3   1 <1>  -0.8100 
 10 C        0.3740     3.4810     1.8710 C.1   1 <1>   0.3570 
 11 C        2.3090     5.0340     0.0620 C.3   1 <1>   0.1100 
 12 C       -0.0090     5.6430    -0.1720 C.3   1 <1>   0.1100 
 13 N        0.2600     3.6940     2.9860 N.1   1 <1>  -0.5570 
 14 C        2.6790     6.3080    -0.7190 C.3   1 <1>   0.1200 
 15 C        0.4340     6.8890    -0.9570 C.3   1 <1>   0.1200 
 16 O        1.7060     7.2940    -0.5470 O.3   1 <1>  -0.5600 
 17 H       -2.0230     1.0270    -0.1070 H     1 <1>   0.0800 
 18 H       -0.7010     0.8760    -1.2390 H     1 <1>   0.0800 
 19 H        1.7920     2.1370    -0.9360 H     1 <1>   0.0800 
 20 H        2.5200     2.3900     0.6110 H     1 <1>   0.0800 
 21 H        1.2500    -0.1270    -1.4100 H     1 <1>   0.0800 
 22 H        1.2240    -1.2950    -0.1080 H     1 <1>   0.0800 
 23 H        2.6720    -0.3860    -0.4470 H     1 <1>   0.0800 
 24 H        1.3740     1.0880     2.7040 H     1 <1>   0.0800 
 25 H        2.7850     0.4010     1.9460 H     1 <1>   0.0800 
 26 H        1.3860    -0.5910     2.2440 H     1 <1>   0.0800 
 27 H       -1.6190     3.2310     0.2960 H     1 <1>   0.0800 
 28 H       -0.8620     3.1430    -1.2610 H     1 <1>   0.0800 
 29 H        3.0650     4.3030    -0.1520 H     1 <1>   0.0800 
 30 H        2.3380     5.2550     1.1160 H     1 <1>   0.0800 
 31 H       -0.1110     5.9160     0.8650 H     1 <1>   0.0800 
 32 H       -0.9780     5.3550    -0.5370 H     1 <1>   0.0800 
 33 H        2.7710     6.0940    -1.7700 H     1 <1>   0.0800 
 34 H        3.6130     6.7050    -0.3630 H     1 <1>   0.0800 
 35 H       -0.2420     7.7050    -0.7750 H     1 <1>   0.0800 
 36 H        0.4590     6.6840    -2.0130 H     1 <1>   0.0800 
@<TRIPOS>BOND
  1   1   2  1   
  2   1   3  1   
  3   2   4  1   
  4   2   5  1   
  5   2   6  1   
  6   3   7  1   
  7   3  17  1   
  8   3  18  1   
  9   4   8  1   
 10   4  19  1   
 11   4  20  1   
 12   5  21  1   
 13   5  22  1   
 14   5  23  1   
 15   6  24  1   
 16   6  25  1   
 17   6  26  1   
 18   7   8  1   
 19   7  27  1   
 20   7  28  1   
 21   8   9  1   
 22   8  10  1   
 23   9  11  1   
 24   9  12  1   
 25  10  13  3   
 26  11  14  1   
 27  11  29  1   
 28  11  30  1   
 29  12  15  1   
 30  12  31  1   
 31  12  32  1   
 32  14  16  1   
 33  14  33  1   
 34  14  34  1   
 35  15  16  1   
 36  15  35  1   
 37  15  36  1   
@<TRIPOS>SUBSTRUCTURE
  1 ****   8 GROUP 4 **** **** 0

# MOE 2024.06 (io_trps.svl 2023.06)
