@<TRIPOS>MOLECULE
NONAME
49 50 1 0 0 
SMALL
USER_CHARGES


@<TRIPOS>ATOM
  1 O       -3.5170     6.7810    -1.0880 O.3   1 <1>  -0.3630 
  2 C       -4.7560     6.4540    -0.6550 C.ar  1 <1>   0.0830 
  3 C       -2.4620     6.3920    -0.2460 C.3   1 <1>   0.1200 
  4 C       -5.4550     7.3190     0.1890 C.ar  1 <1>  -0.1440 
  5 C       -5.3130     5.2470    -1.0670 C.ar  1 <1>  -0.1440 
  6 C       -1.1540     6.8160    -0.9160 C.3   1 <1>  -0.1600 
  7 C       -6.7070     6.9360     0.6640 C.ar  1 <1>  -0.1430 
  8 C       -4.8620     8.6710     0.5840 C.3   1 <1>  -0.0960 
  9 C       -6.5610     4.8870    -0.5930 C.ar  1 <1>  -0.1500 
 10 C       -4.5830     4.3190    -2.0290 C.3   1 <1>  -0.0970 
 11 C        0.0700     6.4210    -0.0770 C.3   1 <1>  -0.1600 
 12 C       -7.2470     5.7220     0.2690 C.ar  1 <1>  -0.1500 
 13 C       -7.5160     7.8140     1.6100 C.3   1 <1>  -0.0970 
 14 C        1.3590     6.8540    -0.7780 C.3   1 <1>   0.3430 
 15 N        2.5520     6.3740    -0.0300 N.4   1 <1>  -0.9590 
 16 C        2.7480     7.1050     1.2760 C.3   1 <1>   0.3430 
 17 C        3.7910     6.4940    -0.8790 C.3   1 <1>   0.3430 
 18 C        4.0250     6.6400     2.0100 C.3   1 <1>   0.1100 
 19 C        5.0550     6.0330    -0.1210 C.3   1 <1>   0.1100 
 20 N        5.2100     6.7610     1.1470 N.3   1 <1>  -0.9000 
 21 H       -2.5090     5.3250    -0.1170 H     1 <1>   0.0800 
 22 H       -2.5920     6.8770     0.7050 H     1 <1>   0.0800 
 23 H       -1.1730     7.8840    -1.0550 H     1 <1>   0.0800 
 24 H       -1.1000     6.3450    -1.8840 H     1 <1>   0.0800 
 25 H       -4.0780     8.9680    -0.0870 H     1 <1>   0.0800 
 26 H       -4.4640     8.6170     1.5810 H     1 <1>   0.0800 
 27 H       -5.6140     9.4370     0.5490 H     1 <1>   0.0800 
 28 H       -7.0080     3.9560    -0.8910 H     1 <1>   0.1500 
 29 H       -4.1300     4.8900    -2.8200 H     1 <1>   0.0800 
 30 H       -5.2650     3.6160    -2.4720 H     1 <1>   0.0800 
 31 H       -3.8180     3.7760    -1.5060 H     1 <1>   0.0800 
 32 H        0.0700     5.3530     0.0560 H     1 <1>   0.0800 
 33 H       -0.0080     6.8950     0.8860 H     1 <1>   0.0800 
 34 H       -8.2140     5.4180     0.6270 H     1 <1>   0.1500 
 35 H       -6.9090     8.1230     2.4420 H     1 <1>   0.0800 
 36 H       -8.3650     7.2820     1.9980 H     1 <1>   0.0800 
 37 H       -7.8700     8.6840     1.0880 H     1 <1>   0.0800 
 38 H        1.3860     7.9280    -0.8690 H     1 <1>   0.0800 
 39 H        1.3670     6.4350    -1.7720 H     1 <1>   0.0800 
 40 H        2.4290     5.3780     0.1880 H     1 <1>   0.4500 
 41 H        1.8980     6.9490     1.9190 H     1 <1>   0.0800 
 42 H        2.8340     8.1630     1.0890 H     1 <1>   0.0800 
 43 H        3.9320     7.5220    -1.1710 H     1 <1>   0.0800 
 44 H        3.6830     5.9050    -1.7750 H     1 <1>   0.0800 
 45 H        3.9090     5.6190     2.3340 H     1 <1>   0.0800 
 46 H        4.1680     7.2490     2.8860 H     1 <1>   0.0800 
 47 H        5.9210     6.2170    -0.7360 H     1 <1>   0.0800 
 48 H        5.0040     4.9740     0.0660 H     1 <1>   0.0800 
 49 H        6.0470     6.4190     1.6490 H     1 <1>   0.3600 
@<TRIPOS>BOND
  1   1   2  1   
  2   1   3  1   
  3   2   4  ar  
  4   2   5  ar  
  5   3   6  1   
  6   3  21  1   
  7   3  22  1   
  8   4   7  ar  
  9   4   8  1   
 10   5   9  ar  
 11   5  10  1   
 12   6  11  1   
 13   6  23  1   
 14   6  24  1   
 15   7  12  ar  
 16   7  13  1   
 17   8  25  1   
 18   8  26  1   
 19   8  27  1   
 20   9  12  ar  
 21   9  28  1   
 22  10  29  1   
 23  10  30  1   
 24  10  31  1   
 25  11  14  1   
 26  11  32  1   
 27  11  33  1   
 28  12  34  1   
 29  13  35  1   
 30  13  36  1   
 31  13  37  1   
 32  14  15  1   
 33  14  38  1   
 34  14  39  1   
 35  15  16  1   
 36  15  17  1   
 37  15  40  1   
 38  16  18  1   
 39  16  41  1   
 40  16  42  1   
 41  17  19  1   
 42  17  43  1   
 43  17  44  1   
 44  18  20  1   
 45  18  45  1   
 46  18  46  1   
 47  19  20  1   
 48  19  47  1   
 49  19  48  1   
 50  20  49  1   
@<TRIPOS>SUBSTRUCTURE
  1 ****   3 GROUP 4 **** **** 0

# MOE 2024.06 (io_trps.svl 2023.06)
