@<TRIPOS>MOLECULE
NONAME
46 48 1 0 0 
SMALL
USER_CHARGES


@<TRIPOS>ATOM
  1 S       -0.3720     0.2990     0.7990 S.3   1 <1>  -0.0800 
  2 C       -0.6730    -1.2170    -0.0430 C.2   1 <1>   0.1040 
  3 C        1.3290     0.2440     0.3900 C.2   1 <1>  -0.1400 
  4 N       -2.0020    -1.6320    -0.0250 N.am  1 <1>  -0.4940 
  5 C        0.4870    -1.7160    -0.5610 C.2   1 <1>   0.0190 
  6 C        1.6180    -0.8630    -0.3070 C.2   1 <1>  -0.1810 
  7 C        2.2640     1.3520     0.8200 C.3   1 <1>   0.0200 
  8 C       -2.7130    -2.4200    -0.8820 C.2   1 <1>   0.5690 
  9 C        0.6550    -2.9590    -1.2540 C.1   1 <1>   0.5380 
 10 C        3.0410    -1.1450    -0.7710 C.3   1 <1>   0.0210 
 11 C        3.5940     1.2360     0.0420 C.3   1 <1>  -0.0800 
 12 O       -2.2570    -2.8880    -1.8950 O.2   1 <1>  -0.5700 
 13 C       -4.1760    -2.6750    -0.5210 C.3   1 <1>   0.1710 
 14 N        0.8920    -3.9490    -1.7710 N.1   1 <1>  -0.5570 
 15 C        4.0570    -0.2390    -0.0430 C.3   1 <1>  -0.1600 
 16 C        4.6540     2.1540     0.6840 C.3   1 <1>  -0.1600 
 17 N       -4.7980    -1.5590     0.2540 N.3   1 <1>  -0.8100 
 18 C        5.9330     2.2910    -0.1520 C.3   1 <1>  -0.2400 
 19 C       -6.0800    -1.9710     0.8780 C.3   1 <1>   0.1100 
 20 C       -4.9590    -0.3470    -0.5980 C.3   1 <1>   0.1100 
 21 C       -7.3020    -1.6360     0.0000 C.3   1 <1>   0.1200 
 22 C       -6.1990     0.4830    -0.2220 C.3   1 <1>   0.1200 
 23 O       -7.3770    -0.2720    -0.3340 O.3   1 <1>  -0.5600 
 24 H       -2.6130    -1.1920     0.6710 H     1 <1>   0.3700 
 25 H        2.4370     1.2620     1.8780 H     1 <1>   0.0800 
 26 H        1.8110     2.3080     0.6270 H     1 <1>   0.0800 
 27 H        3.0970    -0.9710    -1.8320 H     1 <1>   0.0800 
 28 H        3.2960    -2.1740    -0.5870 H     1 <1>   0.0800 
 29 H        3.4110     1.5820    -0.9620 H     1 <1>   0.0800 
 30 H       -4.1990    -3.5750     0.0660 H     1 <1>   0.0800 
 31 H       -4.7340    -2.8550    -1.4240 H     1 <1>   0.0800 
 32 H        4.9970    -0.3120    -0.5600 H     1 <1>   0.0800 
 33 H        4.2030    -0.6160     0.9550 H     1 <1>   0.0800 
 34 H        4.9080     1.7870     1.6640 H     1 <1>   0.0800 
 35 H        4.2320     3.1370     0.8060 H     1 <1>   0.0800 
 36 H        6.4720     1.3620    -0.1940 H     1 <1>   0.0800 
 37 H        6.5780     3.0290     0.2900 H     1 <1>   0.0800 
 38 H        5.6970     2.6040    -1.1540 H     1 <1>   0.0800 
 39 H       -6.1900    -1.4510     1.8150 H     1 <1>   0.0800 
 40 H       -6.0700    -3.0230     1.1030 H     1 <1>   0.0800 
 41 H       -5.0570    -0.6260    -1.6350 H     1 <1>   0.0800 
 42 H       -4.0800     0.2680    -0.5100 H     1 <1>   0.0800 
 43 H       -8.2120    -1.8940     0.5120 H     1 <1>   0.0800 
 44 H       -7.2580    -2.1950    -0.9180 H     1 <1>   0.0800 
 45 H       -6.2940     1.3340    -0.8730 H     1 <1>   0.0800 
 46 H       -6.1170     0.8340     0.7920 H     1 <1>   0.0800 
@<TRIPOS>BOND
  1   1   2  1   
  2   1   3  1   
  3   2   4  1   
  4   2   5  2   
  5   3   6  2   
  6   3   7  1   
  7   4   8  am  
  8   4  24  1   
  9   5   6  1   
 10   5   9  1   
 11   6  10  1   
 12   7  11  1   
 13   7  25  1   
 14   7  26  1   
 15   8  12  2   
 16   8  13  1   
 17   9  14  3   
 18  10  15  1   
 19  10  27  1   
 20  10  28  1   
 21  11  15  1   
 22  11  16  1   
 23  11  29  1   
 24  13  17  1   
 25  13  30  1   
 26  13  31  1   
 27  15  32  1   
 28  15  33  1   
 29  16  18  1   
 30  16  34  1   
 31  16  35  1   
 32  17  19  1   
 33  17  20  1   
 34  18  36  1   
 35  18  37  1   
 36  18  38  1   
 37  19  21  1   
 38  19  39  1   
 39  19  40  1   
 40  20  22  1   
 41  20  41  1   
 42  20  42  1   
 43  21  23  1   
 44  21  43  1   
 45  21  44  1   
 46  22  23  1   
 47  22  45  1   
 48  22  46  1   
@<TRIPOS>SUBSTRUCTURE
  1 ****   2 GROUP 4 **** **** 0

# MOE 2024.06 (io_trps.svl 2023.06)
