@<TRIPOS>MOLECULE
NONAME
39 41 1 0 0 
SMALL
USER_CHARGES


@<TRIPOS>ATOM
  1 S       -0.6750     1.1360    -0.5260 S.3   1 <1>  -0.0800 
  2 C        0.8900     1.2420    -1.2960 C.2   1 <1>  -0.1100 
  3 C       -0.0220     1.7630     0.9720 C.2   1 <1>  -0.1100 
  4 C        1.8420     1.7170    -0.4550 C.2   1 <1>  -0.0860 
  5 C        1.2930     2.0160     0.8460 C.2   1 <1>  -0.1500 
  6 C        3.2360     1.9100    -0.7890 C.2   1 <1>   0.7160 
  7 O        3.6560     1.7370    -1.9200 O.2   1 <1>  -0.5700 
  8 N        4.1740     2.2080     0.1670 N.am  1 <1>  -0.6600 
  9 C        5.2210     3.2340    -0.1710 C.3   1 <1>   0.1400 
 10 C        4.7300     1.0560     0.9420 C.3   1 <1>   0.1400 
 11 C        6.4590     2.6140    -0.8810 C.3   1 <1>   0.5670 
 12 C        5.9660     0.4320     0.2400 C.3   1 <1>   0.3430 
 13 N        6.3090     1.1250    -1.0510 N.4   1 <1>  -0.9590 
 14 C        7.7810     2.9440    -0.1860 C.ar  1 <1>  -0.1430 
 15 C        7.4640     0.4900    -1.7520 C.3   1 <1>   0.2630 
 16 C        7.9640     2.8250     1.1880 C.ar  1 <1>  -0.1500 
 17 C        8.8450     3.3790    -0.9670 C.ar  1 <1>  -0.1500 
 18 C        9.1870     3.1230     1.7630 C.ar  1 <1>  -0.1500 
 19 C       10.0680     3.6760    -0.3910 C.ar  1 <1>  -0.1500 
 20 C       10.2400     3.5460     0.9740 C.ar  1 <1>  -0.1500 
 21 H        0.9560     0.9340    -2.3250 H     1 <1>   0.1500 
 22 H       -0.7040     1.8800     1.7960 H     1 <1>   0.1500 
 23 H        1.9130     2.4150     1.6300 H     1 <1>   0.1500 
 24 H        5.5160     3.7520     0.7240 H     1 <1>   0.0800 
 25 H        4.7930     3.9760    -0.8250 H     1 <1>   0.0800 
 26 H        3.9720     0.2990     1.0600 H     1 <1>   0.0800 
 27 H        5.0020     1.3880     1.9290 H     1 <1>   0.0800 
 28 H        6.5030     3.0560    -1.8620 H     1 <1>   0.0800 
 29 H        5.7630    -0.6090     0.0470 H     1 <1>   0.0800 
 30 H        6.8100     0.4740     0.9090 H     1 <1>   0.0800 
 31 H        5.4550     1.0500    -1.6430 H     1 <1>   0.4500 
 32 H        8.3590     0.5800    -1.1560 H     1 <1>   0.0800 
 33 H        7.6350     0.9700    -2.7020 H     1 <1>   0.0800 
 34 H        7.2680    -0.5550    -1.9270 H     1 <1>   0.0800 
 35 H        7.1690     2.5090     1.8380 H     1 <1>   0.1500 
 36 H        8.7410     3.4960    -2.0330 H     1 <1>   0.1500 
 37 H        9.3260     3.0310     2.8280 H     1 <1>   0.1500 
 38 H       10.8880     4.0130    -1.0030 H     1 <1>   0.1500 
 39 H       11.1920     3.7790     1.4220 H     1 <1>   0.1500 
@<TRIPOS>BOND
  1   1   2  1   
  2   1   3  1   
  3   2   4  2   
  4   2  21  1   
  5   3   5  2   
  6   3  22  1   
  7   4   5  1   
  8   4   6  1   
  9   5  23  1   
 10   6   7  2   
 11   6   8  am  
 12   8   9  1   
 13   8  10  1   
 14   9  11  1   
 15   9  24  1   
 16   9  25  1   
 17  10  12  1   
 18  10  26  1   
 19  10  27  1   
 20  11  13  1   
 21  11  14  1   
 22  11  28  1   
 23  12  13  1   
 24  12  29  1   
 25  12  30  1   
 26  13  15  1   
 27  13  31  1   
 28  14  16  ar  
 29  14  17  ar  
 30  15  32  1   
 31  15  33  1   
 32  15  34  1   
 33  16  18  ar  
 34  16  35  1   
 35  17  19  ar  
 36  17  36  1   
 37  18  20  ar  
 38  18  37  1   
 39  19  20  ar  
 40  19  38  1   
 41  20  39  1   
@<TRIPOS>SUBSTRUCTURE
  1 ****   8 GROUP 4 **** **** 0

# MOE 2024.06 (io_trps.svl 2023.06)
