@<TRIPOS>MOLECULE
NONAME
37 37 1 0 0 
SMALL
USER_CHARGES


@<TRIPOS>ATOM
  1 O       -0.4070     0.9280     1.7880 O.3   1 <1>  -0.3630 
  2 C       -0.2320     2.0720     1.1080 C.ar  1 <1>   0.7020 
  3 C       -1.6880     0.4600     2.1630 C.3   1 <1>   0.0400 
  4 N       -1.2920     2.7700     0.7850 N.ar  1 <1>  -0.6200 
  5 N        1.0050     2.3660     0.8380 N.ar  1 <1>  -0.6200 
  6 C       -0.9990     3.8570     0.1270 C.ar  1 <1>   0.7030 
  7 C        1.1680     3.4830     0.1730 C.ar  1 <1>   0.7200 
  8 O       -2.0590     4.6040    -0.2220 O.3   1 <1>  -0.3630 
  9 N        0.1920     4.2720    -0.2110 N.ar  1 <1>  -0.6200 
 10 N        2.4540     3.8580    -0.1470 N.pl3 1 <1>  -0.8380 
 11 C       -1.9250     5.8160    -0.9380 C.3   1 <1>   0.0400 
 12 C        2.7750     5.1920    -0.7320 C.3   1 <1>   0.2090 
 13 C        3.6200     2.9540     0.0800 C.3   1 <1>   0.2090 
 14 C        2.7970     6.2850     0.3470 C.3   1 <1>  -0.1600 
 15 C        3.7390     1.9060    -1.0350 C.3   1 <1>  -0.1600 
 16 C        3.8590     6.0650     1.4340 C.3   1 <1>  -0.2400 
 17 C        3.9730     2.5020    -2.4310 C.3   1 <1>  -0.2400 
 18 H       -1.5670    -0.4660     2.6940 H     1 <1>   0.0800 
 19 H       -2.2760     0.3050     1.2760 H     1 <1>   0.0800 
 20 H       -2.1540     1.1930     2.7990 H     1 <1>   0.0800 
 21 H       -2.9070     6.2250    -1.0960 H     1 <1>   0.0800 
 22 H       -1.4530     5.6110    -1.8840 H     1 <1>   0.0800 
 23 H       -1.3280     6.4980    -0.3590 H     1 <1>   0.0800 
 24 H        2.0410     5.4420    -1.4800 H     1 <1>   0.0800 
 25 H        3.7300     5.1540    -1.2260 H     1 <1>   0.0800 
 26 H        3.5110     2.4560     1.0290 H     1 <1>   0.0800 
 27 H        4.5270     3.5320     0.1300 H     1 <1>   0.0800 
 28 H        1.8240     6.3480     0.8020 H     1 <1>   0.0800 
 29 H        2.9870     7.2270    -0.1350 H     1 <1>   0.0800 
 30 H        2.8470     1.3040    -1.0450 H     1 <1>   0.0800 
 31 H        4.5600     1.2550    -0.7960 H     1 <1>   0.0800 
 32 H        3.6430     5.1700     1.9910 H     1 <1>   0.0800 
 33 H        3.8610     6.8950     2.1180 H     1 <1>   0.0800 
 34 H        4.8370     5.9770     0.9960 H     1 <1>   0.0800 
 35 H        4.1090     1.7120    -3.1480 H     1 <1>   0.0800 
 36 H        4.8490     3.1250    -2.4340 H     1 <1>   0.0800 
 37 H        3.1230     3.0890    -2.7330 H     1 <1>   0.0800 
@<TRIPOS>BOND
  1   1   2  1   
  2   1   3  1   
  3   2   4  ar  
  4   2   5  ar  
  5   3  18  1   
  6   3  19  1   
  7   3  20  1   
  8   4   6  ar  
  9   5   7  ar  
 10   6   8  1   
 11   6   9  ar  
 12   7   9  ar  
 13   7  10  1   
 14   8  11  1   
 15  10  12  1   
 16  10  13  1   
 17  11  21  1   
 18  11  22  1   
 19  11  23  1   
 20  12  14  1   
 21  12  24  1   
 22  12  25  1   
 23  13  15  1   
 24  13  26  1   
 25  13  27  1   
 26  14  16  1   
 27  14  28  1   
 28  14  29  1   
 29  15  17  1   
 30  15  30  1   
 31  15  31  1   
 32  16  32  1   
 33  16  33  1   
 34  16  34  1   
 35  17  35  1   
 36  17  36  1   
 37  17  37  1   
@<TRIPOS>SUBSTRUCTURE
  1 ****   7 GROUP 4 **** **** 0

# MOE 2024.06 (io_trps.svl 2023.06)
