@<TRIPOS>MOLECULE
NONAME
43 45 1 0 0 
SMALL
USER_CHARGES


@<TRIPOS>ATOM
  1 O        0.4750     1.0550    -0.2570 O.3   1 <1>  -0.5600 
  2 C        1.6020     0.3890    -0.7590 C.3   1 <1>   0.1200 
  3 C        0.7000     2.4110     0.0240 C.3   1 <1>   0.1200 
  4 C        2.7740     0.4450     0.2390 C.3   1 <1>   0.2090 
  5 C        1.8130     2.5770     1.0740 C.3   1 <1>   0.2090 
  6 N        3.0510     1.8590     0.6360 N.pl3 1 <1>  -0.8380 
  7 C        4.2340     2.4980     0.3390 C.ar  1 <1>   0.7200 
  8 N        4.2150     3.8050     0.2810 N.ar  1 <1>  -0.6200 
  9 N        5.2850     1.7500     0.1330 N.ar  1 <1>  -0.6200 
 10 C        5.3640     4.3370    -0.0100 C.ar  1 <1>   0.7030 
 11 C        6.3820     2.4010    -0.1480 C.ar  1 <1>   0.7200 
 12 O        5.3600     5.6760    -0.0750 O.3   1 <1>  -0.3630 
 13 N        6.4840     3.7040    -0.2400 N.ar  1 <1>  -0.6200 
 14 N        7.5220     1.6590    -0.3700 N.pl3 1 <1>  -0.8380 
 15 C        6.5320     6.3990    -0.3690 C.3   1 <1>   0.2580 
 16 C        7.6120     0.1920    -0.0840 C.3   1 <1>   0.2090 
 17 C        8.7950     2.2220    -0.9190 C.3   1 <1>   0.2090 
 18 C        6.1900     7.8760    -0.3510 C.2   1 <1>  -0.2880 
 19 C        8.8900    -0.1330     0.7100 C.3   1 <1>   0.1200 
 20 C        9.9990     1.7780    -0.0700 C.3   1 <1>   0.1200 
 21 C        6.7690     8.7970     0.4260 C.2   1 <1>  -0.3000 
 22 O       10.0270     0.3850     0.0750 O.3   1 <1>  -0.5600 
 23 H        1.8850     0.8470    -1.6900 H     1 <1>   0.0800 
 24 H        1.3240    -0.6320    -0.9460 H     1 <1>   0.0800 
 25 H       -0.2200     2.8280     0.3910 H     1 <1>   0.0800 
 26 H        0.9710     2.9130    -0.8880 H     1 <1>   0.0800 
 27 H        3.6360    -0.0120    -0.2140 H     1 <1>   0.0800 
 28 H        2.5220    -0.1250     1.1150 H     1 <1>   0.0800 
 29 H        1.4780     2.1620     2.0080 H     1 <1>   0.0800 
 30 H        1.9960     3.6240     1.2360 H     1 <1>   0.0800 
 31 H        6.8820     6.1020    -1.3430 H     1 <1>   0.0800 
 32 H        7.2740     6.1660     0.3750 H     1 <1>   0.0800 
 33 H        7.6270    -0.3480    -1.0150 H     1 <1>   0.0800 
 34 H        6.7640    -0.1490     0.4820 H     1 <1>   0.0800 
 35 H        8.7710     3.2960    -0.9510 H     1 <1>   0.0800 
 36 H        8.9280     1.8690    -1.9270 H     1 <1>   0.0800 
 37 H        5.4040     8.1160    -1.0480 H     1 <1>   0.1500 
 38 H        9.0150    -1.1980     0.7900 H     1 <1>   0.0800 
 39 H        8.8280     0.2840     1.7000 H     1 <1>   0.0800 
 40 H        9.9520     2.2260     0.9080 H     1 <1>   0.0800 
 41 H       10.9170     2.0770    -0.5440 H     1 <1>   0.0800 
 42 H        6.5020     9.8400     0.4190 H     1 <1>   0.1500 
 43 H        7.5520     8.5890     1.1360 H     1 <1>   0.1500 
@<TRIPOS>BOND
  1   1   2  1   
  2   1   3  1   
  3   2   4  1   
  4   2  23  1   
  5   2  24  1   
  6   3   5  1   
  7   3  25  1   
  8   3  26  1   
  9   4   6  1   
 10   4  27  1   
 11   4  28  1   
 12   5   6  1   
 13   5  29  1   
 14   5  30  1   
 15   6   7  1   
 16   7   8  ar  
 17   7   9  ar  
 18   8  10  ar  
 19   9  11  ar  
 20  10  12  1   
 21  10  13  ar  
 22  11  13  ar  
 23  11  14  1   
 24  12  15  1   
 25  14  16  1   
 26  14  17  1   
 27  15  18  1   
 28  15  31  1   
 29  15  32  1   
 30  16  19  1   
 31  16  33  1   
 32  16  34  1   
 33  17  20  1   
 34  17  35  1   
 35  17  36  1   
 36  18  21  2   
 37  18  37  1   
 38  19  22  1   
 39  19  38  1   
 40  19  39  1   
 41  20  22  1   
 42  20  40  1   
 43  20  41  1   
 44  21  42  1   
 45  21  43  1   
@<TRIPOS>SUBSTRUCTURE
  1 ****  11 GROUP 4 **** **** 0

# MOE 2024.06 (io_trps.svl 2023.06)
