@<TRIPOS>MOLECULE
NONAME
41 41 1 0 0 
SMALL
USER_CHARGES


@<TRIPOS>ATOM
  1 O       -0.6130     0.7460    -0.9980 O.2   1 <1>  -0.5700 
  2 C       -1.6750     1.1840    -0.6710 C.2   1 <1>   0.4480 
  3 C       -1.9710     2.6720    -0.6310 C.3   1 <1>   0.1030 
  4 C       -2.8150     0.2820    -0.2250 C.3   1 <1>   0.0420 
  5 C       -3.2760     2.9480    -1.3540 C.2   1 <1>   0.4480 
  6 C       -0.7910     3.5220    -1.1220 C.2   1 <1>   0.3280 
  7 C       -2.3440    -1.1710    -0.1000 C.2   1 <1>   0.6590 
  8 C       -4.0840     0.5500    -1.0940 C.3   1 <1>   0.0000 
  9 O       -3.4270     3.8230    -2.1500 O.2   1 <1>  -0.5700 
 10 C       -4.4420     2.0480    -0.9800 C.3   1 <1>  -0.0990 
 11 N       -0.1060     4.2810    -0.3760 N.2   1 <1>  -0.5130 
 12 C       -0.4240     3.4230    -2.5980 C.3   1 <1>  -0.1790 
 13 O       -2.5850    -2.0010    -0.9330 O.2   1 <1>  -0.5700 
 14 O       -1.7340    -1.5480     1.0230 O.3   1 <1>  -0.4300 
 15 C       -3.8770     0.2200    -2.5900 C.3   1 <1>  -0.2400 
 16 C       -5.2840    -0.2660    -0.5780 C.3   1 <1>  -0.2400 
 17 O       -0.3860     4.3780     0.9060 O.3   1 <1>  -0.2170 
 18 C       -0.8140    -0.7750     1.7670 C.3   1 <1>   0.0400 
 19 C        0.4220     5.2740     1.6240 C.3   1 <1>   0.1200 
 20 C       -0.0270     5.2730     3.0840 C.3   1 <1>  -0.2400 
 21 H       -2.1620     2.9080     0.3960 H     1 <1>   0.0800 
 22 H       -3.0690     0.5780     0.7740 H     1 <1>   0.0800 
 23 H       -5.2760     2.2800    -1.6200 H     1 <1>   0.0800 
 24 H       -4.7410     2.2850     0.0260 H     1 <1>   0.0800 
 25 H       -0.3230     2.4010    -2.9080 H     1 <1>   0.0800 
 26 H        0.5160     3.9170    -2.7710 H     1 <1>   0.0800 
 27 H       -1.1640     3.9050    -3.2080 H     1 <1>   0.0800 
 28 H       -3.0140     0.7150    -3.0000 H     1 <1>   0.0800 
 29 H       -4.7340     0.5260    -3.1650 H     1 <1>   0.0800 
 30 H       -3.7550    -0.8360    -2.7480 H     1 <1>   0.0800 
 31 H       -5.4720    -0.0680     0.4620 H     1 <1>   0.0800 
 32 H       -5.1100    -1.3220    -0.6930 H     1 <1>   0.0800 
 33 H       -6.1730    -0.0220    -1.1330 H     1 <1>   0.0800 
 34 H       -0.4480    -1.3820     2.5760 H     1 <1>   0.0800 
 35 H       -1.3020     0.0970     2.1620 H     1 <1>   0.0800 
 36 H        0.0090    -0.4990     1.1290 H     1 <1>   0.0800 
 37 H        0.3100     6.2500     1.1840 H     1 <1>   0.0800 
 38 H        1.4440     4.9500     1.5320 H     1 <1>   0.0800 
 39 H       -1.0530     5.5870     3.1550 H     1 <1>   0.0800 
 40 H        0.5800     5.9570     3.6490 H     1 <1>   0.0800 
 41 H        0.0820     4.2900     3.5040 H     1 <1>   0.0800 
@<TRIPOS>BOND
  1   1   2  2   
  2   2   3  1   
  3   2   4  1   
  4   3   5  1   
  5   3   6  1   
  6   3  21  1   
  7   4   7  1   
  8   4   8  1   
  9   4  22  1   
 10   5   9  2   
 11   5  10  1   
 12   6  11  2   
 13   6  12  1   
 14   7  13  2   
 15   7  14  1   
 16   8  10  1   
 17   8  15  1   
 18   8  16  1   
 19  10  23  1   
 20  10  24  1   
 21  11  17  1   
 22  12  25  1   
 23  12  26  1   
 24  12  27  1   
 25  14  18  1   
 26  15  28  1   
 27  15  29  1   
 28  15  30  1   
 29  16  31  1   
 30  16  32  1   
 31  16  33  1   
 32  17  19  1   
 33  18  34  1   
 34  18  35  1   
 35  18  36  1   
 36  19  20  1   
 37  19  37  1   
 38  19  38  1   
 39  20  39  1   
 40  20  40  1   
 41  20  41  1   
@<TRIPOS>SUBSTRUCTURE
  1 ****   2 GROUP 4 **** **** 0

# MOE 2024.06 (io_trps.svl 2023.06)
