@<TRIPOS>MOLECULE
NONAME
51 53 1 0 0 
SMALL
USER_CHARGES


@<TRIPOS>ATOM
  1 S       -0.0380     0.3880    -1.6950 S.o2  1 <1>   1.4470 
  2 O       -0.2510    -0.7440    -2.5720 O.2   1 <1>  -0.6500 
  3 O        0.1250     1.7090    -2.2600 O.2   1 <1>  -0.6500 
  4 N       -1.3690     0.4570    -0.6480 N.am  1 <1>  -0.8490 
  5 C        1.3520     0.0540    -0.5770 C.ar  1 <1>  -0.0090 
  6 C       -1.7710    -0.8770    -0.1620 C.3   1 <1>   0.1960 
  7 C       -2.5220     1.1130    -1.2950 C.3   1 <1>   0.1960 
  8 C        2.1490    -1.0760    -0.7240 C.ar  1 <1>  -0.1500 
  9 C        1.6580     0.9260     0.4630 C.ar  1 <1>  -0.1500 
 10 C       -2.9380    -0.7990     0.8400 C.3   1 <1>   0.1400 
 11 C       -3.7090     1.2590    -0.3270 C.3   1 <1>   0.1400 
 12 C        3.2090    -1.3250     0.1290 C.ar  1 <1>  -0.1500 
 13 C        2.7180     0.6830     1.3180 C.ar  1 <1>  -0.1500 
 14 N       -4.0940    -0.0640     0.2480 N.am  1 <1>  -0.6600 
 15 C        3.5130    -0.4420     1.1570 C.ar  1 <1>   0.1170 
 16 C       -5.1920    -0.7360    -0.2250 C.2   1 <1>   0.6900 
 17 N        4.5800    -0.6700     2.0300 N.am  1 <1>  -0.5470 
 18 O       -5.6850    -0.4100    -1.2910 O.2   1 <1>  -0.5700 
 19 N       -5.7330    -1.7730     0.4880 N.am  1 <1>  -0.6600 
 20 C        5.8870    -0.9500     1.7840 C.2   1 <1>   0.5690 
 21 C       -5.9300    -1.6790     1.9640 C.3   1 <1>   0.1400 
 22 C       -6.6540    -2.7510    -0.1610 C.3   1 <1>   0.1400 
 23 O        6.6410    -1.1410     2.7010 O.2   1 <1>  -0.5700 
 24 C        6.4240    -1.0040     0.3730 C.3   1 <1>  -0.1790 
 25 C       -7.4220    -1.5170     2.3040 C.3   1 <1>   0.1200 
 26 C       -8.1020    -2.5160     0.2960 C.3   1 <1>   0.1200 
 27 O       -8.1830    -2.5220     1.6940 O.3   1 <1>  -0.5600 
 28 H       -0.9340    -1.3530     0.3200 H     1 <1>   0.0800 
 29 H       -2.0720    -1.4970    -0.9910 H     1 <1>   0.0800 
 30 H       -2.8360     0.5460    -2.1560 H     1 <1>   0.0800 
 31 H       -2.2400     2.0960    -1.6320 H     1 <1>   0.0800 
 32 H        1.9350    -1.7720    -1.5200 H     1 <1>   0.1500 
 33 H        1.0540     1.8080     0.5980 H     1 <1>   0.1500 
 34 H       -2.6130    -0.2890     1.7290 H     1 <1>   0.0800 
 35 H       -3.2290    -1.7970     1.1120 H     1 <1>   0.0800 
 36 H       -4.5430     1.6970    -0.8480 H     1 <1>   0.0800 
 37 H       -3.4350     1.9250     0.4710 H     1 <1>   0.0800 
 38 H        3.8010    -2.2130    -0.0020 H     1 <1>   0.1500 
 39 H        2.9370     1.3770     2.1110 H     1 <1>   0.1500 
 40 H        4.3920    -0.5560     3.0270 H     1 <1>   0.3700 
 41 H       -5.3890    -0.8390     2.3620 H     1 <1>   0.0800 
 42 H       -5.5540    -2.5720     2.4300 H     1 <1>   0.0800 
 43 H       -6.3560    -3.7490     0.1070 H     1 <1>   0.0800 
 44 H       -6.5970    -2.6680    -1.2330 H     1 <1>   0.0800 
 45 H        5.9680    -0.2430    -0.2320 H     1 <1>   0.0800 
 46 H        6.2280    -1.9700    -0.0520 H     1 <1>   0.0800 
 47 H        7.4860    -0.8420     0.3870 H     1 <1>   0.0800 
 48 H       -7.7840    -0.5610     1.9680 H     1 <1>   0.0800 
 49 H       -7.5730    -1.5900     3.3660 H     1 <1>   0.0800 
 50 H       -8.7410    -3.2970    -0.0750 H     1 <1>   0.0800 
 51 H       -8.4630    -1.5700    -0.0710 H     1 <1>   0.0800 
@<TRIPOS>BOND
  1   1   2  2   
  2   1   3  2   
  3   1   4  am  
  4   1   5  1   
  5   4   6  1   
  6   4   7  1   
  7   5   8  ar  
  8   5   9  ar  
  9   6  10  1   
 10   6  28  1   
 11   6  29  1   
 12   7  11  1   
 13   7  30  1   
 14   7  31  1   
 15   8  12  ar  
 16   8  32  1   
 17   9  13  ar  
 18   9  33  1   
 19  10  14  1   
 20  10  34  1   
 21  10  35  1   
 22  11  14  1   
 23  11  36  1   
 24  11  37  1   
 25  12  15  ar  
 26  12  38  1   
 27  13  15  ar  
 28  13  39  1   
 29  14  16  am  
 30  15  17  1   
 31  16  18  2   
 32  16  19  am  
 33  17  20  am  
 34  17  40  1   
 35  19  21  1   
 36  19  22  1   
 37  20  23  2   
 38  20  24  1   
 39  21  25  1   
 40  21  41  1   
 41  21  42  1   
 42  22  26  1   
 43  22  43  1   
 44  22  44  1   
 45  24  45  1   
 46  24  46  1   
 47  24  47  1   
 48  25  27  1   
 49  25  48  1   
 50  25  49  1   
 51  26  27  1   
 52  26  50  1   
 53  26  51  1   
@<TRIPOS>SUBSTRUCTURE
  1 ****   6 GROUP 4 **** **** 0

# MOE 2024.06 (io_trps.svl 2023.06)
