@<TRIPOS>MOLECULE
NONAME
34 35 1 0 0 
SMALL
USER_CHARGES


@<TRIPOS>ATOM
  1 CL      -0.2970    -0.7780     0.1430 Cl    1 <1>  -0.1770 
  2 C       -1.5570     0.4400     0.1030 C.ar  1 <1>   0.1770 
  3 C       -1.3440     1.7400    -0.3760 C.ar  1 <1>   0.0820 
  4 C       -2.8030     0.0460     0.5530 C.ar  1 <1>  -0.1500 
  5 O       -0.1610     2.2330    -0.8290 O.3   1 <1>  -0.3630 
  6 C       -2.4140     2.6240    -0.4130 C.ar  1 <1>  -0.1500 
  7 C       -3.8460     0.9510     0.5150 C.ar  1 <1>   0.1770 
  8 C        1.0530     1.9220    -0.1860 C.3   1 <1>   0.1200 
  9 C       -3.6670     2.2350     0.0340 C.ar  1 <1>  -0.1500 
 10 CL      -5.4230     0.4630     1.0820 Cl    1 <1>  -0.1770 
 11 C        2.0130     3.0910    -0.4020 C.3   1 <1>  -0.1600 
 12 C        3.3660     2.8350     0.2770 C.3   1 <1>   0.0200 
 13 C        4.3400     3.9710     0.0260 C.2   1 <1>   0.1980 
 14 S        4.0770     5.4810     0.8300 S.3   1 <1>  -0.0800 
 15 N        5.3700     3.9830    -0.7150 N.2   1 <1>  -0.3380 
 16 C        5.5000     6.0690     0.0330 C.2   1 <1>   0.4420 
 17 N        6.0370     5.1780    -0.7170 N.2   1 <1>  -0.3380 
 18 N        5.8580     7.3750     0.2990 N.am  1 <1>  -0.4940 
 19 C        6.9090     8.0970    -0.1830 C.2   1 <1>   0.5690 
 20 O        7.7230     7.6750    -0.9590 O.2   1 <1>  -0.5700 
 21 C        7.0450     9.5200     0.2990 C.3   1 <1>  -0.1790 
 22 H       -2.9630    -0.9500     0.9220 H     1 <1>   0.1500 
 23 H       -2.2590     3.6190    -0.7930 H     1 <1>   0.1500 
 24 H        1.4480     1.0240    -0.6280 H     1 <1>   0.0800 
 25 H        0.8620     1.7710     0.8630 H     1 <1>   0.0800 
 26 H       -4.4970     2.9180     0.0100 H     1 <1>   0.1500 
 27 H        1.5720     3.9870    -0.0010 H     1 <1>   0.0800 
 28 H        2.1700     3.2270    -1.4590 H     1 <1>   0.0800 
 29 H        3.7970     1.9290    -0.1120 H     1 <1>   0.0800 
 30 H        3.2340     2.7140     1.3370 H     1 <1>   0.0800 
 31 H        5.2470     7.8620     0.9460 H     1 <1>   0.3700 
 32 H        6.1770    10.0870     0.0200 H     1 <1>   0.0800 
 33 H        7.9110     9.9710    -0.1510 H     1 <1>   0.0800 
 34 H        7.1640     9.5370     1.3660 H     1 <1>   0.0800 
@<TRIPOS>BOND
  1   1   2  1   
  2   2   3  ar  
  3   2   4  ar  
  4   3   5  1   
  5   3   6  ar  
  6   4   7  ar  
  7   4  22  1   
  8   5   8  1   
  9   6   9  ar  
 10   6  23  1   
 11   7   9  ar  
 12   7  10  1   
 13   8  11  1   
 14   8  24  1   
 15   8  25  1   
 16   9  26  1   
 17  11  12  1   
 18  11  27  1   
 19  11  28  1   
 20  12  13  1   
 21  12  29  1   
 22  12  30  1   
 23  13  14  1   
 24  13  15  2   
 25  14  16  1   
 26  15  17  1   
 27  16  17  2   
 28  16  18  1   
 29  18  19  am  
 30  18  31  1   
 31  19  20  2   
 32  19  21  1   
 33  21  32  1   
 34  21  33  1   
 35  21  34  1   
@<TRIPOS>SUBSTRUCTURE
  1 ****  11 GROUP 4 **** **** 0

# MOE 2024.06 (io_trps.svl 2023.06)
