@<TRIPOS>MOLECULE
Structure1652
31 31 1 0 0 
SMALL
USER_CHARGES


@<TRIPOS>ATOM
  1 O        0.4300     2.5020     1.6730 O.co2 1 <1>  -0.9000 
  2 C        0.9050     1.8240     0.7740 C.2   1 <1>   0.9060 
  3 O        0.3440     1.6220    -0.3080 O.co2 1 <1>  -0.9000 
  4 C        2.3540     1.5170     0.8210 C.3   1 <1>  -0.2660 
  5 C        2.9740     2.7060     0.1270 C.3   1 <1>   0.5660 
  6 N        2.5370     2.7340    -1.2690 N.4   1 <1>  -0.8530 
  7 C        4.4930     2.6760     0.1140 C.ar  1 <1>  -0.1430 
  8 C        5.2010     1.5750    -0.3500 C.ar  1 <1>  -0.1500 
  9 C        5.1980     3.7830     0.5610 C.ar  1 <1>  -0.1500 
 10 C        6.5860     1.5800    -0.3790 C.ar  1 <1>   0.0820 
 11 C        6.5830     3.8020     0.5410 C.ar  1 <1>   0.0820 
 12 O        7.1790     0.4590    -0.8590 O.3   1 <1>  -0.3630 
 13 C        7.2830     2.6970     0.0680 C.ar  1 <1>  -0.1500 
 14 O        7.1750     4.9350     0.9940 O.3   1 <1>  -0.3630 
 15 C        8.5830     0.3140    -0.8710 C.3   1 <1>   0.0400 
 16 C        8.5780     5.0520     1.0840 C.3   1 <1>   0.0400 
 17 H        2.5560     0.5850     0.3310 H     1 <1>   0.0800 
 18 H        2.6700     1.4690     1.8450 H     1 <1>   0.0800 
 19 H        2.6330     3.5990     0.6290 H     1 <1>   0.0800 
 20 H        3.0600     2.0530    -1.8140 H     1 <1>   0.4500 
 21 H        2.5960     3.6690    -1.6650 H     1 <1>   0.4500 
 22 H        1.5340     2.4250    -1.2440 H     1 <1>   0.4500 
 23 H        4.6990     0.6870    -0.6950 H     1 <1>   0.1500 
 24 H        4.6870     4.6520     0.9370 H     1 <1>   0.1500 
 25 H        8.3530     2.7070     0.0470 H     1 <1>   0.1500 
 26 H        8.8150    -0.6600    -1.2640 H     1 <1>   0.0800 
 27 H        8.9520     0.3970     0.1360 H     1 <1>   0.0800 
 28 H        9.0090     1.0730    -1.5030 H     1 <1>   0.0800 
 29 H        8.8070     6.0200     1.4930 H     1 <1>   0.0800 
 30 H        9.0010     4.9640     0.0990 H     1 <1>   0.0800 
 31 H        8.9530     4.2830     1.7360 H     1 <1>   0.0800 
@<TRIPOS>BOND
  1   1   2  ar  
  2   2   3  ar  
  3   2   4  1   
  4   4   5  1   
  5   4  17  1   
  6   4  18  1   
  7   5   6  1   
  8   5   7  1   
  9   5  19  1   
 10   6  20  1   
 11   6  21  1   
 12   6  22  1   
 13   7   8  ar  
 14   7   9  ar  
 15   8  10  ar  
 16   8  23  1   
 17   9  11  ar  
 18   9  24  1   
 19  10  12  1   
 20  10  13  ar  
 21  11  13  ar  
 22  11  14  1   
 23  12  15  1   
 24  13  25  1   
 25  14  16  1   
 26  15  26  1   
 27  15  27  1   
 28  15  28  1   
 29  16  29  1   
 30  16  30  1   
 31  16  31  1   
@<TRIPOS>SUBSTRUCTURE
  1 ****   7 GROUP 4 **** **** 0

# MOE 2024.06 (io_trps.svl 2023.06)
