@<TRIPOS>MOLECULE
NONAME
40 42 1 0 0 
SMALL
USER_CHARGES


@<TRIPOS>ATOM
  1 F       -1.8240     2.1260    -2.5460 F     1 <1>  -0.1900 
  2 C       -2.2750     1.9250    -1.3350 C.ar  1 <1>   0.1900 
  3 C       -1.6170     2.4580    -0.2410 C.ar  1 <1>   0.1900 
  4 C       -3.4250     1.1720    -1.1750 C.ar  1 <1>  -0.1500 
  5 F       -0.5330     3.1720    -0.4000 F     1 <1>  -0.1900 
  6 C       -2.0960     2.2470     1.0390 C.ar  1 <1>  -0.1500 
  7 C       -3.9210     0.9590     0.1080 C.ar  1 <1>  -0.1440 
  8 C       -3.2500     1.4940     1.2070 C.ar  1 <1>  -0.1500 
  9 C       -5.1890     0.1460     0.3100 C.3   1 <1>   0.4870 
 10 N       -6.3580     0.9590    -0.1180 N.4   1 <1>  -0.9590 
 11 C       -6.5200     2.2040     0.7240 C.3   1 <1>   0.3430 
 12 C       -7.6300     0.1470    -0.1200 C.3   1 <1>   0.3430 
 13 C       -7.7410     3.0480     0.3040 C.3   1 <1>   0.2090 
 14 C       -8.8600     0.9750    -0.5480 C.3   1 <1>   0.2090 
 15 N       -8.9820     2.2180     0.2720 N.pl3 1 <1>  -0.8380 
 16 C      -10.1700     2.9370     0.0830 C.ar  1 <1>   0.1000 
 17 C      -10.5150     3.6060    -1.0980 C.ar  1 <1>   0.1900 
 18 C      -11.0820     3.0040     1.1300 C.ar  1 <1>  -0.1500 
 19 F       -9.6910     3.5770    -2.1200 F     1 <1>  -0.1900 
 20 C      -11.6960     4.3050    -1.2470 C.ar  1 <1>  -0.1500 
 21 C      -12.2730     3.7000     1.0000 C.ar  1 <1>  -0.1500 
 22 C      -12.5840     4.3510    -0.1850 C.ar  1 <1>  -0.1500 
 23 H       -3.9010     0.7670    -2.0510 H     1 <1>   0.1500 
 24 H       -1.5690     2.6630     1.8810 H     1 <1>   0.1500 
 25 H       -3.6120     1.3290     2.2090 H     1 <1>   0.1500 
 26 H       -5.2880    -0.1310     1.3470 H     1 <1>   0.0800 
 27 H       -5.1290    -0.7560    -0.2790 H     1 <1>   0.0800 
 28 H       -6.1810     1.2750    -1.0800 H     1 <1>   0.4500 
 29 H       -5.6350     2.8150     0.6530 H     1 <1>   0.0800 
 30 H       -6.6470     1.9280     1.7580 H     1 <1>   0.0800 
 31 H       -7.8170    -0.2330     0.8710 H     1 <1>   0.0800 
 32 H       -7.5300    -0.6950    -0.7850 H     1 <1>   0.0800 
 33 H       -7.5650     3.4830    -0.6650 H     1 <1>   0.0800 
 34 H       -7.8750     3.8550     1.0060 H     1 <1>   0.0800 
 35 H       -9.7510     0.3830    -0.4210 H     1 <1>   0.0800 
 36 H       -8.7810     1.2310    -1.5900 H     1 <1>   0.0800 
 37 H      -10.8520     2.5030     2.0520 H     1 <1>   0.1500 
 38 H      -11.9190     4.8030    -2.1740 H     1 <1>   0.1500 
 39 H      -12.9640     3.7370     1.8250 H     1 <1>   0.1500 
 40 H      -13.5110     4.8900    -0.2780 H     1 <1>   0.1500 
@<TRIPOS>BOND
  1   1   2  1   
  2   2   3  ar  
  3   2   4  ar  
  4   3   5  1   
  5   3   6  ar  
  6   4   7  ar  
  7   4  23  1   
  8   6   8  ar  
  9   6  24  1   
 10   7   8  ar  
 11   7   9  1   
 12   8  25  1   
 13   9  10  1   
 14   9  26  1   
 15   9  27  1   
 16  10  11  1   
 17  10  12  1   
 18  10  28  1   
 19  11  13  1   
 20  11  29  1   
 21  11  30  1   
 22  12  14  1   
 23  12  31  1   
 24  12  32  1   
 25  13  15  1   
 26  13  33  1   
 27  13  34  1   
 28  14  15  1   
 29  14  35  1   
 30  14  36  1   
 31  15  16  1   
 32  16  17  ar  
 33  16  18  ar  
 34  17  19  1   
 35  17  20  ar  
 36  18  21  ar  
 37  18  37  1   
 38  20  22  ar  
 39  20  38  1   
 40  21  22  ar  
 41  21  39  1   
 42  22  40  1   
@<TRIPOS>SUBSTRUCTURE
  1 ****  11 GROUP 4 **** **** 0

# MOE 2024.06 (io_trps.svl 2023.06)
