@<TRIPOS>MOLECULE
NONAME
37 39 1 0 0 
SMALL
USER_CHARGES


@<TRIPOS>ATOM
  1 O       -0.1720     0.3910    -0.0870 O.2   1 <1>  -0.5700 
  2 C       -0.1560     1.5900     0.1170 C.2   1 <1>   0.5440 
  3 N        1.0470     2.2170     0.3690 N.am  1 <1>  -0.6600 
  4 C       -1.4030     2.3080     0.0780 C.ar  1 <1>   0.0860 
  5 C        1.2850     3.6770     0.1730 C.3   1 <1>   0.1400 
  6 C        2.2870     1.4360     0.6490 C.3   1 <1>   0.1400 
  7 C       -2.3010     2.1580    -0.9570 C.ar  1 <1>   0.1600 
  8 C       -1.7960     3.1830     1.0700 C.ar  1 <1>   0.1600 
  9 C        2.2840     3.8900    -0.9690 C.3   1 <1>  -0.1600 
 10 C        3.2890     1.6270    -0.4930 C.3   1 <1>  -0.1600 
 11 N       -3.4360     2.8160    -1.0260 N.ar  1 <1>  -0.6200 
 12 N       -2.9210     3.8580     1.0310 N.ar  1 <1>  -0.6200 
 13 C        3.5880     3.1120    -0.7390 C.3   1 <1>  -0.1600 
 14 C       -3.7190     3.6570    -0.0250 C.ar  1 <1>   0.6200 
 15 C       -4.9720     4.3980    -0.0870 C.ar  1 <1>   0.0000 
 16 C       -5.1490     5.6050     0.6000 C.ar  1 <1>  -0.1500 
 17 C       -6.0600     3.9410    -0.8380 C.ar  1 <1>  -0.1500 
 18 C       -6.3360     6.3110     0.5420 C.ar  1 <1>  -0.1500 
 19 C       -7.2510     4.6430    -0.9010 C.ar  1 <1>  -0.1500 
 20 C       -7.3920     5.8310    -0.2110 C.ar  1 <1>  -0.1500 
 21 H        1.6800     4.0940     1.0840 H     1 <1>   0.0800 
 22 H        0.3720     4.1930    -0.0650 H     1 <1>   0.0800 
 23 H        2.0620     0.3880     0.7620 H     1 <1>   0.0800 
 24 H        2.7170     1.7810     1.5730 H     1 <1>   0.0800 
 25 H       -2.0630     1.4690    -1.7510 H     1 <1>   0.1500 
 26 H       -1.1520     3.3240     1.9210 H     1 <1>   0.1500 
 27 H        2.5030     4.9390    -1.0610 H     1 <1>   0.0800 
 28 H        1.8310     3.5690    -1.8910 H     1 <1>   0.0800 
 29 H        2.8830     1.1820    -1.3850 H     1 <1>   0.0800 
 30 H        4.2010     1.1080    -0.2560 H     1 <1>   0.0800 
 31 H        4.1020     3.5190     0.1150 H     1 <1>   0.0800 
 32 H        4.2310     3.2170    -1.5960 H     1 <1>   0.0800 
 33 H       -4.3410     5.9980     1.1920 H     1 <1>   0.1500 
 34 H       -5.9740     3.0170    -1.3830 H     1 <1>   0.1500 
 35 H       -6.4400     7.2360     1.0820 H     1 <1>   0.1500 
 36 H       -8.0690     4.2630    -1.4890 H     1 <1>   0.1500 
 37 H       -8.3170     6.3790    -0.2580 H     1 <1>   0.1500 
@<TRIPOS>BOND
  1   1   2  2   
  2   2   3  am  
  3   2   4  1   
  4   3   5  1   
  5   3   6  1   
  6   4   7  ar  
  7   4   8  ar  
  8   5   9  1   
  9   5  21  1   
 10   5  22  1   
 11   6  10  1   
 12   6  23  1   
 13   6  24  1   
 14   7  11  ar  
 15   7  25  1   
 16   8  12  ar  
 17   8  26  1   
 18   9  13  1   
 19   9  27  1   
 20   9  28  1   
 21  10  13  1   
 22  10  29  1   
 23  10  30  1   
 24  11  14  ar  
 25  12  14  ar  
 26  13  31  1   
 27  13  32  1   
 28  14  15  1   
 29  15  16  ar  
 30  15  17  ar  
 31  16  18  ar  
 32  16  33  1   
 33  17  19  ar  
 34  17  34  1   
 35  18  20  ar  
 36  18  35  1   
 37  19  20  ar  
 38  19  36  1   
 39  20  37  1   
@<TRIPOS>SUBSTRUCTURE
  1 ****   8 GROUP 4 **** **** 0

# MOE 2024.06 (io_trps.svl 2023.06)
