@<TRIPOS>MOLECULE
NONAME
38 40 1 0 0 
SMALL
USER_CHARGES


@<TRIPOS>ATOM
  1 O        3.0910     1.1550    -2.2290 O.co2 1 <1>  -0.9000 
  2 C        3.5210     0.1880    -1.5970 C.2   1 <1>   0.9060 
  3 O        4.5540    -0.4030    -1.9380 O.co2 1 <1>  -0.9000 
  4 C        2.7590    -0.2580    -0.3630 C.3   1 <1>  -0.1860 
  5 C        3.2290     0.3500     1.0130 C.3   1 <1>  -0.0190 
  6 C        2.6450    -1.8010    -0.2580 C.3   1 <1>   0.0580 
  7 C        4.5480     1.1300     1.0680 C.2   1 <1>   0.5690 
  8 C        3.2600    -0.7650     2.0920 C.3   1 <1>   0.0580 
  9 C        3.9200    -2.3350     0.3840 C.2   1 <1>  -0.2880 
 10 C        1.5270    -2.0940     0.7700 C.3   1 <1>  -0.1600 
 11 O        4.6170     2.0660     1.8340 O.2   1 <1>  -0.5700 
 12 N        5.6150     0.7640     0.3220 N.am  1 <1>  -0.7300 
 13 C        4.2240    -1.8250     1.5790 C.2   1 <1>  -0.2880 
 14 C        1.8670    -1.4380     2.1390 C.3   1 <1>  -0.1600 
 15 C        6.8720     1.5320     0.1940 C.3   1 <1>   0.2840 
 16 C        8.0630     0.6500    -0.1830 C.ar  1 <1>   0.1670 
 17 N        9.1920     0.8390     0.4960 N.ar  1 <1>  -0.6200 
 18 C        7.9330    -0.2800    -1.2060 C.ar  1 <1>  -0.1500 
 19 C       10.2080     0.0660     0.1500 C.ar  1 <1>   0.1600 
 20 C        9.0010    -1.0760    -1.5550 C.ar  1 <1>  -0.1500 
 21 C       10.1690    -0.8910    -0.8490 C.ar  1 <1>  -0.1500 
 22 H        1.7640     0.1080    -0.5350 H     1 <1>   0.0800 
 23 H        2.4760     1.0580     1.3050 H     1 <1>   0.0800 
 24 H        2.4470    -2.2560    -1.2140 H     1 <1>   0.0800 
 25 H        3.5540    -0.3800     3.0530 H     1 <1>   0.0800 
 26 H        4.4760    -3.0640    -0.1780 H     1 <1>   0.1500 
 27 H        1.4420    -3.1590     0.8940 H     1 <1>   0.0800 
 28 H        0.5850    -1.7270     0.4040 H     1 <1>   0.0800 
 29 H        5.4310     0.1010    -0.4580 H     1 <1>   0.3700 
 30 H        5.0760    -2.0610     2.1930 H     1 <1>   0.1500 
 31 H        1.1200    -0.7060     2.3920 H     1 <1>   0.0800 
 32 H        1.8660    -2.1920     2.9060 H     1 <1>   0.0800 
 33 H        7.0780     2.0280     1.1260 H     1 <1>   0.0800 
 34 H        6.7410     2.2830    -0.5650 H     1 <1>   0.0800 
 35 H        6.9980    -0.3820    -1.7320 H     1 <1>   0.1500 
 36 H       11.1250     0.2030     0.6960 H     1 <1>   0.1500 
 37 H        8.9160    -1.8050    -2.3430 H     1 <1>   0.1500 
 38 H       11.0390    -1.4800    -1.0690 H     1 <1>   0.1500 
@<TRIPOS>BOND
  1   1   2  ar  
  2   2   3  ar  
  3   2   4  1   
  4   4   5  1   
  5   4   6  1   
  6   4  22  1   
  7   5   7  1   
  8   5   8  1   
  9   5  23  1   
 10   6   9  1   
 11   6  10  1   
 12   6  24  1   
 13   7  11  2   
 14   7  12  am  
 15   8  13  1   
 16   8  14  1   
 17   8  25  1   
 18   9  13  2   
 19   9  26  1   
 20  10  14  1   
 21  10  27  1   
 22  10  28  1   
 23  12  15  1   
 24  12  29  1   
 25  13  30  1   
 26  14  31  1   
 27  14  32  1   
 28  15  16  1   
 29  15  33  1   
 30  15  34  1   
 31  16  17  ar  
 32  16  18  ar  
 33  17  19  ar  
 34  18  20  ar  
 35  18  35  1   
 36  19  21  ar  
 37  19  36  1   
 38  20  21  ar  
 39  20  37  1   
 40  21  38  1   
@<TRIPOS>SUBSTRUCTURE
  1 ****  12 GROUP 4 **** **** 0

# MOE 2024.06 (io_trps.svl 2023.06)
