@<TRIPOS>MOLECULE
NONAME
41 42 1 0 0 
SMALL
USER_CHARGES


@<TRIPOS>ATOM
  1 O        0.1080     1.6650    -1.5050 O.2   1 <1>  -0.5700 
  2 C        0.1550     2.1460    -0.3990 C.2   1 <1>   0.5690 
  3 N        1.2830     2.1360     0.3710 N.am  1 <1>  -0.5470 
  4 C       -1.0930     2.8120     0.1830 C.3   1 <1>  -0.0190 
  5 C        2.5520     1.6250     0.0570 C.ar  1 <1>   0.1170 
  6 C       -2.2820     1.8320     0.2400 C.3   1 <1>  -0.1600 
  7 C       -1.4720     4.0760    -0.6120 C.3   1 <1>  -0.1600 
  8 C        3.6310     2.5040    -0.0630 C.ar  1 <1>  -0.1430 
  9 C        2.7670     0.2530    -0.1030 C.ar  1 <1>  -0.1430 
 10 C       -3.5380     2.5020     0.8140 C.3   1 <1>  -0.1600 
 11 C       -2.7280     4.7480    -0.0390 C.3   1 <1>  -0.1600 
 12 C        4.8950     2.0120    -0.3390 C.ar  1 <1>  -0.1500 
 13 C        3.4430     4.0080     0.0900 C.3   1 <1>  -0.0970 
 14 C        4.0390    -0.2160    -0.3830 C.ar  1 <1>  -0.1500 
 15 C        1.6330    -0.7570     0.0240 C.3   1 <1>  -0.0970 
 16 C       -3.9040     3.7630     0.0200 C.3   1 <1>  -0.1600 
 17 C        5.1080     0.6550    -0.5020 C.ar  1 <1>  -0.1430 
 18 C        6.4970     0.1250    -0.8070 C.3   1 <1>  -0.0970 
 19 H        1.2430     2.6620     1.2390 H     1 <1>   0.3700 
 20 H       -0.8730     3.1120     1.1910 H     1 <1>   0.0800 
 21 H       -2.0190     0.9800     0.8430 H     1 <1>   0.0800 
 22 H       -2.4940     1.4750    -0.7540 H     1 <1>   0.0800 
 23 H       -1.6510     3.8060    -1.6400 H     1 <1>   0.0800 
 24 H       -0.6520     4.7730    -0.5970 H     1 <1>   0.0800 
 25 H       -3.3660     2.7660     1.8440 H     1 <1>   0.0800 
 26 H       -4.3600     1.8090     0.7850 H     1 <1>   0.0800 
 27 H       -2.9970     5.5900    -0.6530 H     1 <1>   0.0800 
 28 H       -2.5200     5.1150     0.9510 H     1 <1>   0.0800 
 29 H        5.7260     2.6890    -0.4320 H     1 <1>   0.1500 
 30 H        2.6840     4.3520    -0.5900 H     1 <1>   0.0800 
 31 H        4.3530     4.5350    -0.1310 H     1 <1>   0.0800 
 32 H        3.1490     4.2430     1.0960 H     1 <1>   0.0800 
 33 H        4.2030    -1.2710    -0.5110 H     1 <1>   0.1500 
 34 H        1.0160    -0.5270     0.8720 H     1 <1>   0.0800 
 35 H        2.0160    -1.7530     0.1490 H     1 <1>   0.0800 
 36 H        1.0270    -0.7340    -0.8640 H     1 <1>   0.0800 
 37 H       -4.7540     4.2430     0.4750 H     1 <1>   0.0800 
 38 H       -4.1820     3.4830    -0.9820 H     1 <1>   0.0800 
 39 H        7.0700     0.8590    -1.3440 H     1 <1>   0.0800 
 40 H        6.4350    -0.7630    -1.4100 H     1 <1>   0.0800 
 41 H        7.0050    -0.1110     0.1100 H     1 <1>   0.0800 
@<TRIPOS>BOND
  1   1   2  2   
  2   2   3  am  
  3   2   4  1   
  4   3   5  1   
  5   3  19  1   
  6   4   6  1   
  7   4   7  1   
  8   4  20  1   
  9   5   8  ar  
 10   5   9  ar  
 11   6  10  1   
 12   6  21  1   
 13   6  22  1   
 14   7  11  1   
 15   7  23  1   
 16   7  24  1   
 17   8  12  ar  
 18   8  13  1   
 19   9  14  ar  
 20   9  15  1   
 21  10  16  1   
 22  10  25  1   
 23  10  26  1   
 24  11  16  1   
 25  11  27  1   
 26  11  28  1   
 27  12  17  ar  
 28  12  29  1   
 29  13  30  1   
 30  13  31  1   
 31  13  32  1   
 32  14  17  ar  
 33  14  33  1   
 34  15  34  1   
 35  15  35  1   
 36  15  36  1   
 37  16  37  1   
 38  16  38  1   
 39  17  18  1   
 40  18  39  1   
 41  18  40  1   
 42  18  41  1   
@<TRIPOS>SUBSTRUCTURE
  1 ****   3 GROUP 4 **** **** 0

# MOE 2024.06 (io_trps.svl 2023.06)
