@<TRIPOS>MOLECULE
NONAME
38 38 1 0 0 
SMALL
USER_CHARGES


@<TRIPOS>ATOM
  1 O        0.3220    -4.6680    -0.0100 O.3   1 <1>  -0.3630 
  2 C       -0.8930    -5.2730    -0.0070 C.ar  1 <1>   0.0830 
  3 C        1.5120    -5.4140    -0.0140 C.3   1 <1>   0.1200 
  4 C       -2.0010    -4.4420    -0.0040 C.ar  1 <1>  -0.1500 
  5 C       -1.0730    -6.6540    -0.0070 C.ar  1 <1>  -0.1500 
  6 C        2.6680    -4.4110    -0.0160 C.3   1 <1>   0.3430 
  7 C       -3.2820    -4.9670    -0.0010 C.ar  1 <1>   0.0820 
  8 C       -2.3520    -7.1840    -0.0040 C.ar  1 <1>  -0.1500 
  9 N        3.9980    -5.0930    -0.0210 N.4   1 <1>  -0.9060 
 10 O       -4.3060    -4.0770     0.0020 O.3   1 <1>  -0.3620 
 11 C       -3.4550    -6.3480    -0.0010 C.ar  1 <1>  -0.1500 
 12 C        5.1190    -4.1220    -0.0230 C.3   1 <1>   0.3430 
 13 C       -5.6500    -4.5060     0.0050 C.3   1 <1>   0.0400 
 14 C        6.4380    -4.8890    -0.0270 C.3   1 <1>  -0.1600 
 15 C        7.6300    -3.9240    -0.0290 C.3   1 <1>  -0.1600 
 16 C        8.9550    -4.6910    -0.0330 C.3   1 <1>  -0.2400 
 17 H        1.5210    -6.0210    -0.9020 H     1 <1>   0.0800 
 18 H        1.5260    -6.0220     0.8740 H     1 <1>   0.0800 
 19 H       -1.8730    -3.3760    -0.0040 H     1 <1>   0.1500 
 20 H       -0.2440    -7.3340    -0.0100 H     1 <1>   0.1500 
 21 H        2.5830    -3.7870     0.8590 H     1 <1>   0.0800 
 22 H        2.5780    -3.7860    -0.8910 H     1 <1>   0.0800 
 23 H       -2.4930    -8.2520    -0.0050 H     1 <1>   0.1500 
 24 H        4.0820    -5.6960    -0.8490 H     1 <1>   0.4500 
 25 H        4.0870    -5.6980     0.8060 H     1 <1>   0.4500 
 26 H       -4.4350    -6.7870     0.0010 H     1 <1>   0.1500 
 27 H        5.0690    -3.4940     0.8530 H     1 <1>   0.0800 
 28 H        5.0640    -3.4930    -0.8980 H     1 <1>   0.0800 
 29 H       -6.2780    -3.6330     0.0070 H     1 <1>   0.0800 
 30 H       -5.8290    -5.0870     0.8920 H     1 <1>   0.0800 
 31 H       -5.8340    -5.0860    -0.8820 H     1 <1>   0.0800 
 32 H        6.4960    -5.5120    -0.9040 H     1 <1>   0.0800 
 33 H        6.5010    -5.5130     0.8480 H     1 <1>   0.0800 
 34 H        7.5980    -3.2920     0.8430 H     1 <1>   0.0800 
 35 H        7.5930    -3.2910    -0.9010 H     1 <1>   0.0800 
 36 H        9.0400    -5.3130     0.8410 H     1 <1>   0.0800 
 37 H        9.7800    -3.9990    -0.0350 H     1 <1>   0.0800 
 38 H        9.0350    -5.3110    -0.9090 H     1 <1>   0.0800 
@<TRIPOS>BOND
  1   1   2  1   
  2   1   3  1   
  3   2   4  ar  
  4   2   5  ar  
  5   3   6  1   
  6   3  17  1   
  7   3  18  1   
  8   4   7  ar  
  9   4  19  1   
 10   5   8  ar  
 11   5  20  1   
 12   6   9  1   
 13   6  21  1   
 14   6  22  1   
 15   7  10  1   
 16   7  11  ar  
 17   8  11  ar  
 18   8  23  1   
 19   9  12  1   
 20   9  24  1   
 21   9  25  1   
 22  10  13  1   
 23  11  26  1   
 24  12  14  1   
 25  12  27  1   
 26  12  28  1   
 27  13  29  1   
 28  13  30  1   
 29  13  31  1   
 30  14  15  1   
 31  14  32  1   
 32  14  33  1   
 33  15  16  1   
 34  15  34  1   
 35  15  35  1   
 36  16  36  1   
 37  16  37  1   
 38  16  38  1   
@<TRIPOS>SUBSTRUCTURE
  1 ****   1 GROUP 4 **** **** 0

# MOE 2024.06 (io_trps.svl 2023.06)
