@<TRIPOS>MOLECULE
NONAME
43 43 1 0 0 
SMALL
USER_CHARGES


@<TRIPOS>ATOM
  1 CL       0.2250     0.6240    -0.2540 Cl    1 <1>  -0.1770 
  2 C        1.8850     1.1870    -0.1820 C.ar  1 <1>   0.1770 
  3 C        2.9170     0.2580    -0.2080 C.ar  1 <1>  -0.1440 
  4 C        2.1330     2.5510    -0.1010 C.ar  1 <1>  -0.1440 
  5 C        4.2260     0.7110    -0.1510 C.ar  1 <1>  -0.1500 
  6 C        2.6260    -1.2340    -0.2980 C.3   1 <1>  -0.0960 
  7 C        3.4480     2.9830    -0.0450 C.ar  1 <1>  -0.1500 
  8 C        0.9950     3.5610    -0.0730 C.3   1 <1>  -0.0960 
  9 C        4.4950     2.0760    -0.0690 C.ar  1 <1>   0.0830 
 10 O        5.7470     2.5970    -0.0100 O.3   1 <1>  -0.3630 
 11 C        6.8870     1.7780    -0.0280 C.3   1 <1>   0.1200 
 12 C        8.1020     2.7010     0.0530 C.3   1 <1>  -0.1600 
 13 C        9.3980     1.9010     0.0400 C.3   1 <1>   0.3430 
 14 N       10.5430     2.8450     0.1200 N.4   1 <1>  -0.9060 
 15 C       11.8870     2.2620     0.1200 C.3   1 <1>   0.5030 
 16 C       12.0550     1.3520     1.3360 C.3   1 <1>  -0.2400 
 17 C       12.1160     1.4930    -1.1800 C.3   1 <1>  -0.2400 
 18 C       12.8600     3.4320     0.2090 C.3   1 <1>  -0.2400 
 19 H        5.0210    -0.0090    -0.1720 H     1 <1>   0.1500 
 20 H        2.0780    -1.4470    -1.1990 H     1 <1>   0.0800 
 21 H        2.0350    -1.5430     0.5460 H     1 <1>   0.0800 
 22 H        3.5330    -1.8090    -0.3070 H     1 <1>   0.0800 
 23 H        3.6750     4.0320     0.0190 H     1 <1>   0.1500 
 24 H        0.4050     3.4740    -0.9680 H     1 <1>   0.0800 
 25 H        1.3710     4.5660    -0.0080 H     1 <1>   0.0800 
 26 H        0.3630     3.3780     0.7780 H     1 <1>   0.0800 
 27 H        6.8810     1.2140    -0.9460 H     1 <1>   0.0800 
 28 H        6.8380     1.1160     0.8210 H     1 <1>   0.0800 
 29 H        8.0340     3.2710     0.9640 H     1 <1>   0.0800 
 30 H        8.0770     3.3680    -0.7910 H     1 <1>   0.0800 
 31 H        9.4570     1.3220    -0.8680 H     1 <1>   0.0800 
 32 H        9.4140     1.2250     0.8800 H     1 <1>   0.0800 
 33 H       10.4540     3.4090     0.9710 H     1 <1>   0.4500 
 34 H       10.4940     3.5000    -0.6660 H     1 <1>   0.4500 
 35 H       11.8460     1.8810     2.2490 H     1 <1>   0.0800 
 36 H       13.0720     1.0020     1.3870 H     1 <1>   0.0800 
 37 H       11.4250     0.4840     1.2740 H     1 <1>   0.0800 
 38 H       11.4860     0.6240    -1.2450 H     1 <1>   0.0800 
 39 H       13.1350     1.1480    -1.2200 H     1 <1>   0.0800 
 40 H       11.9500     2.1200    -2.0370 H     1 <1>   0.0800 
 41 H       12.7150     3.9930     1.1160 H     1 <1>   0.0800 
 42 H       12.7570     4.0910    -0.6350 H     1 <1>   0.0800 
 43 H       13.8730     3.0670     0.2140 H     1 <1>   0.0800 
@<TRIPOS>BOND
  1   1   2  1   
  2   2   3  ar  
  3   2   4  ar  
  4   3   5  ar  
  5   3   6  1   
  6   4   7  ar  
  7   4   8  1   
  8   5   9  ar  
  9   5  19  1   
 10   6  20  1   
 11   6  21  1   
 12   6  22  1   
 13   7   9  ar  
 14   7  23  1   
 15   8  24  1   
 16   8  25  1   
 17   8  26  1   
 18   9  10  1   
 19  10  11  1   
 20  11  12  1   
 21  11  27  1   
 22  11  28  1   
 23  12  13  1   
 24  12  29  1   
 25  12  30  1   
 26  13  14  1   
 27  13  31  1   
 28  13  32  1   
 29  14  15  1   
 30  14  33  1   
 31  14  34  1   
 32  15  16  1   
 33  15  17  1   
 34  15  18  1   
 35  16  35  1   
 36  16  36  1   
 37  16  37  1   
 38  17  38  1   
 39  17  39  1   
 40  17  40  1   
 41  18  41  1   
 42  18  42  1   
 43  18  43  1   
@<TRIPOS>SUBSTRUCTURE
  1 ****  11 GROUP 4 **** **** 0

# MOE 2024.06 (io_trps.svl 2023.06)
