@<TRIPOS>MOLECULE
NONAME
34 35 1 0 0 
SMALL
USER_CHARGES


@<TRIPOS>ATOM
  1 S        0.5700     0.7950     0.6540 S.3   1 <1>  -0.3320 
  2 C       -1.1360     1.2400     0.3930 C.ar  1 <1>   0.7220 
  3 C        1.3190     0.8430    -1.0510 C.3   1 <1>   0.1310 
  4 N       -1.8720     1.2710     1.4900 N.ar  1 <1>  -0.6200 
  5 N       -1.4820     1.4920    -0.8600 N.ar  1 <1>  -0.6200 
  6 C        2.7970     0.4850    -1.0370 C.2   1 <1>   0.5690 
  7 C       -3.1290     1.5990     1.2930 C.ar  1 <1>   0.1600 
  8 C       -2.7470     1.8170    -1.0180 C.ar  1 <1>   0.1600 
  9 O        3.3840     0.4860    -2.0920 O.2   1 <1>  -0.5700 
 10 N        3.4030     0.1810     0.1450 N.am  1 <1>  -0.7300 
 11 C       -3.6220     1.8860     0.0410 C.ar  1 <1>  -0.1500 
 12 C        4.8100    -0.1910     0.4010 C.3   1 <1>   0.2200 
 13 C        5.7580     0.9490     0.0110 C.3   1 <1>  -0.1600 
 14 C        5.1690    -1.4980    -0.3170 C.3   1 <1>  -0.1600 
 15 C        7.2210     0.5620     0.2780 C.3   1 <1>  -0.1600 
 16 C        6.6320    -1.8870    -0.0500 C.3   1 <1>  -0.1600 
 17 C        7.5850    -0.7470    -0.4380 C.3   1 <1>  -0.1600 
 18 H        1.1840     1.8380    -1.4310 H     1 <1>   0.0800 
 19 H        0.7760     0.1440    -1.6590 H     1 <1>   0.0800 
 20 H       -3.7790     1.6410     2.1520 H     1 <1>   0.1500 
 21 H       -3.0920     2.0340    -2.0160 H     1 <1>   0.1500 
 22 H        2.8140     0.2110     0.9820 H     1 <1>   0.3700 
 23 H       -4.6520     2.1530    -0.1040 H     1 <1>   0.1500 
 24 H        4.9140    -0.3580     1.4600 H     1 <1>   0.0800 
 25 H        5.5120     1.8310     0.5740 H     1 <1>   0.0800 
 26 H        5.6460     1.1700    -1.0360 H     1 <1>   0.0800 
 27 H        5.0330    -1.3770    -1.3770 H     1 <1>   0.0800 
 28 H        4.5210    -2.2860     0.0220 H     1 <1>   0.0800 
 29 H        7.3740     0.4440     1.3370 H     1 <1>   0.0800 
 30 H        7.8690     1.3510    -0.0640 H     1 <1>   0.0800 
 31 H        6.8780    -2.7690    -0.6160 H     1 <1>   0.0800 
 32 H        6.7570    -2.1180     0.9940 H     1 <1>   0.0800 
 33 H        8.5960    -1.0230    -0.1920 H     1 <1>   0.0800 
 34 H        7.5370    -0.5930    -1.5030 H     1 <1>   0.0800 
@<TRIPOS>BOND
  1   1   2  1   
  2   1   3  1   
  3   2   4  ar  
  4   2   5  ar  
  5   3   6  1   
  6   3  18  1   
  7   3  19  1   
  8   4   7  ar  
  9   5   8  ar  
 10   6   9  2   
 11   6  10  am  
 12   7  11  ar  
 13   7  20  1   
 14   8  11  ar  
 15   8  21  1   
 16  10  12  1   
 17  10  22  1   
 18  11  23  1   
 19  12  13  1   
 20  12  14  1   
 21  12  24  1   
 22  13  15  1   
 23  13  25  1   
 24  13  26  1   
 25  14  16  1   
 26  14  27  1   
 27  14  28  1   
 28  15  17  1   
 29  15  29  1   
 30  15  30  1   
 31  16  17  1   
 32  16  31  1   
 33  16  32  1   
 34  17  33  1   
 35  17  34  1   
@<TRIPOS>SUBSTRUCTURE
  1 ****   6 GROUP 4 **** **** 0

# MOE 2024.06 (io_trps.svl 2023.06)
