@<TRIPOS>MOLECULE
NONAME
40 40 1 0 0 
SMALL
USER_CHARGES


@<TRIPOS>ATOM
  1 CL      -0.5430    -0.3970     0.9460 Cl    1 <1>  -0.1770 
  2 C        0.5330    -1.6830     0.4390 C.ar  1 <1>   0.1770 
  3 C        0.0220    -2.9390     0.1300 C.ar  1 <1>   0.0820 
  4 C        1.8860    -1.4130     0.3570 C.ar  1 <1>  -0.1500 
  5 O       -1.3210    -3.1280     0.2340 O.3   1 <1>  -0.3630 
  6 C        0.9080    -3.9360    -0.2690 C.ar  1 <1>  -0.1500 
  7 C        2.7620    -2.4100    -0.0430 C.ar  1 <1>  -0.1430 
  8 C       -1.9250    -4.3610    -0.0560 C.3   1 <1>   0.1200 
  9 C        2.2650    -3.6670    -0.3520 C.ar  1 <1>  -0.1500 
 10 C        4.2510    -2.1320    -0.1370 C.3   1 <1>  -0.0960 
 11 C       -3.4250    -4.1800     0.1770 C.3   1 <1>  -0.1600 
 12 C       -4.1890    -5.4660    -0.1090 C.3   1 <1>   0.3430 
 13 N       -5.6320    -5.2260     0.1400 N.4   1 <1>  -0.9060 
 14 C       -6.4970    -6.3860    -0.1360 C.3   1 <1>   0.4230 
 15 C       -7.9420    -5.8770    -0.2180 C.3   1 <1>  -0.1600 
 16 C       -6.3050    -7.4160     0.9770 C.3   1 <1>  -0.2400 
 17 C       -8.9400    -6.9520    -0.6790 C.3   1 <1>  -0.2400 
 18 H        2.2410    -0.4300     0.6050 H     1 <1>   0.1500 
 19 H        0.5710    -4.9230    -0.5180 H     1 <1>   0.1500 
 20 H       -1.5100    -5.1030     0.6060 H     1 <1>   0.0800 
 21 H       -1.7120    -4.6070    -1.0820 H     1 <1>   0.0800 
 22 H        2.9410    -4.4470    -0.6600 H     1 <1>   0.1500 
 23 H        4.4330    -1.0810    -0.2740 H     1 <1>   0.0800 
 24 H        4.6790    -2.6600    -0.9700 H     1 <1>   0.0800 
 25 H        4.7400    -2.4530     0.7660 H     1 <1>   0.0800 
 26 H       -3.7750    -3.3950    -0.4720 H     1 <1>   0.0800 
 27 H       -3.5740    -3.8880     1.2030 H     1 <1>   0.0800 
 28 H       -3.8260    -6.2530     0.5330 H     1 <1>   0.0800 
 29 H       -4.0340    -5.7600    -1.1360 H     1 <1>   0.0800 
 30 H       -5.9450    -4.4410    -0.4430 H     1 <1>   0.4500 
 31 H       -5.7740    -4.9390     1.1150 H     1 <1>   0.4500 
 32 H       -6.2270    -6.8230    -1.0860 H     1 <1>   0.0800 
 33 H       -7.9940    -5.0700    -0.9280 H     1 <1>   0.0800 
 34 H       -8.2600    -5.5030     0.7400 H     1 <1>   0.0800 
 35 H       -6.6000    -7.0170     1.9320 H     1 <1>   0.0800 
 36 H       -5.2870    -7.7540     1.0300 H     1 <1>   0.0800 
 37 H       -6.9100    -8.2830     0.7820 H     1 <1>   0.0800 
 38 H       -8.6390    -7.3780    -1.6210 H     1 <1>   0.0800 
 39 H       -9.9150    -6.5120    -0.8090 H     1 <1>   0.0800 
 40 H       -9.0320    -7.7410     0.0460 H     1 <1>   0.0800 
@<TRIPOS>BOND
  1   1   2  1   
  2   2   3  ar  
  3   2   4  ar  
  4   3   5  1   
  5   3   6  ar  
  6   4   7  ar  
  7   4  18  1   
  8   5   8  1   
  9   6   9  ar  
 10   6  19  1   
 11   7   9  ar  
 12   7  10  1   
 13   8  11  1   
 14   8  20  1   
 15   8  21  1   
 16   9  22  1   
 17  10  23  1   
 18  10  24  1   
 19  10  25  1   
 20  11  12  1   
 21  11  26  1   
 22  11  27  1   
 23  12  13  1   
 24  12  28  1   
 25  12  29  1   
 26  13  14  1   
 27  13  30  1   
 28  13  31  1   
 29  14  15  1   
 30  14  16  1   
 31  14  32  1   
 32  15  17  1   
 33  15  33  1   
 34  15  34  1   
 35  16  35  1   
 36  16  36  1   
 37  16  37  1   
 38  17  38  1   
 39  17  39  1   
 40  17  40  1   
@<TRIPOS>SUBSTRUCTURE
  1 ****   8 GROUP 4 **** **** 0

# MOE 2024.06 (io_trps.svl 2023.06)
