@<TRIPOS>MOLECULE
NONAME
43 45 1 0 0 
SMALL
USER_CHARGES


@<TRIPOS>ATOM
  1 S       -1.6350     0.8750     1.8880 S.3   1 <1>  -0.0800 
  2 C       -1.9330     0.8600     0.1550 C.2   1 <1>  -0.1400 
  3 C       -0.1560     1.7870     1.6720 C.2   1 <1>  -0.1100 
  4 C       -0.9470     1.5050    -0.5010 C.2   1 <1>  -0.1810 
  5 C       -3.1820     0.1450    -0.3120 C.3   1 <1>   0.5230 
  6 C        0.0600     2.0350     0.3680 C.2   1 <1>  -0.1500 
  7 C       -0.8070     1.7040    -2.0010 C.3   1 <1>  -0.0590 
  8 N       -4.2850     1.1370    -0.4210 N.4   1 <1>  -0.9590 
  9 C       -4.7250     1.6370     0.9370 C.3   1 <1>   0.3430 
 10 C       -5.4520     0.5840    -1.2020 C.3   1 <1>   0.3430 
 11 C       -5.9060     2.6270     0.8590 C.3   1 <1>   0.2090 
 12 C       -6.6300     1.5770    -1.2980 C.3   1 <1>   0.2090 
 13 N       -7.0270     2.0560     0.0560 N.pl3 1 <1>  -0.8380 
 14 C       -8.2480     2.7130     0.1430 C.ar  1 <1>   0.1000 
 15 C       -9.3180     2.0880     0.7680 C.ar  1 <1>  -0.1500 
 16 C       -8.4280     3.9860    -0.3830 C.ar  1 <1>  -0.1500 
 17 C      -10.5590     2.7060     0.8750 C.ar  1 <1>  -0.1430 
 18 C       -9.6520     4.6170    -0.2860 C.ar  1 <1>  -0.1500 
 19 C      -10.7120     3.9820     0.3390 C.ar  1 <1>  -0.1500 
 20 C      -11.7480     2.0210     1.5670 C.3   1 <1>   1.1630 
 21 F      -12.0620     2.6080     2.7140 F     1 <1>  -0.3400 
 22 F      -11.5240     0.7420     1.8520 F     1 <1>  -0.3400 
 23 F      -12.8460     2.0470     0.8220 F     1 <1>  -0.3400 
 24 H        0.4060     2.0430     2.5540 H     1 <1>   0.1500 
 25 H       -3.4390    -0.6440     0.3760 H     1 <1>   0.0800 
 26 H       -2.9880    -0.2910    -1.2780 H     1 <1>   0.0800 
 27 H        0.9060     2.5760    -0.0220 H     1 <1>   0.1500 
 28 H       -1.6190     1.2490    -2.5370 H     1 <1>   0.0800 
 29 H        0.1140     1.2620    -2.3400 H     1 <1>   0.0800 
 30 H       -0.7840     2.7550    -2.2320 H     1 <1>   0.0800 
 31 H       -3.8960     1.9440    -0.9240 H     1 <1>   0.4500 
 32 H       -3.9020     2.1240     1.4340 H     1 <1>   0.0800 
 33 H       -5.0300     0.8030     1.5470 H     1 <1>   0.0800 
 34 H       -5.8150    -0.3090    -0.7210 H     1 <1>   0.0800 
 35 H       -5.1380     0.3190    -2.1980 H     1 <1>   0.0800 
 36 H       -5.5780     3.5530     0.4190 H     1 <1>   0.0800 
 37 H       -6.2570     2.8420     1.8540 H     1 <1>   0.0800 
 38 H       -7.4730     1.0890    -1.7600 H     1 <1>   0.0800 
 39 H       -6.3560     2.4160    -1.9140 H     1 <1>   0.0800 
 40 H       -9.1560     1.1040     1.1720 H     1 <1>   0.1500 
 41 H       -7.6110     4.4840    -0.8700 H     1 <1>   0.1500 
 42 H       -9.7860     5.6040    -0.6960 H     1 <1>   0.1500 
 43 H      -11.6610     4.4890     0.4070 H     1 <1>   0.1500 
@<TRIPOS>BOND
  1   1   2  1   
  2   1   3  1   
  3   2   4  2   
  4   2   5  1   
  5   3   6  2   
  6   3  24  1   
  7   4   6  1   
  8   4   7  1   
  9   5   8  1   
 10   5  25  1   
 11   5  26  1   
 12   6  27  1   
 13   7  28  1   
 14   7  29  1   
 15   7  30  1   
 16   8   9  1   
 17   8  10  1   
 18   8  31  1   
 19   9  11  1   
 20   9  32  1   
 21   9  33  1   
 22  10  12  1   
 23  10  34  1   
 24  10  35  1   
 25  11  13  1   
 26  11  36  1   
 27  11  37  1   
 28  12  13  1   
 29  12  38  1   
 30  12  39  1   
 31  13  14  1   
 32  14  15  ar  
 33  14  16  ar  
 34  15  17  ar  
 35  15  40  1   
 36  16  18  ar  
 37  16  41  1   
 38  17  19  ar  
 39  17  20  1   
 40  18  19  ar  
 41  18  42  1   
 42  19  43  1   
 43  20  21  1   
 44  20  22  1   
 45  20  23  1   
@<TRIPOS>SUBSTRUCTURE
  1 ****  13 GROUP 4 **** **** 0

# MOE 2024.06 (io_trps.svl 2023.06)
