@<TRIPOS>MOLECULE
NONAME
38 39 1 0 0 
SMALL
USER_CHARGES


@<TRIPOS>ATOM
  1 S        2.0500     1.5420     2.8950 S.3   1 <1>  -0.0800 
  2 C        2.7810     1.2350     1.3270 C.2   1 <1>  -0.1400 
  3 C        0.5690     2.1120     2.1470 C.2   1 <1>  -0.1100 
  4 C        1.9230     1.5580     0.3400 C.2   1 <1>  -0.1500 
  5 C        4.1960     0.6820     1.3450 C.3   1 <1>   0.0200 
  6 C        0.6640     2.0570     0.8060 C.2   1 <1>  -0.1500 
  7 C        4.7550     0.4710    -0.0680 C.3   1 <1>  -0.1600 
  8 C        6.1880    -0.0770    -0.0280 C.3   1 <1>  -0.1600 
  9 C        6.7470    -0.2870    -1.4440 C.3   1 <1>  -0.0990 
 10 C        8.1620    -0.8280    -1.4180 C.2   1 <1>   0.5690 
 11 O        8.3560    -1.9940    -1.6550 O.2   1 <1>  -0.5700 
 12 N        9.1720     0.0210    -1.1190 N.am  1 <1>  -0.7300 
 13 C       10.5770    -0.3790    -0.9550 C.3   1 <1>   0.2840 
 14 C       11.2090     0.5600     0.0550 C.ar  1 <1>  -0.1440 
 15 C       11.0410     0.3340     1.4130 C.ar  1 <1>  -0.1500 
 16 C       11.9510     1.6540    -0.3660 C.ar  1 <1>  -0.1500 
 17 C       11.6090     1.1910     2.3400 C.ar  1 <1>  -0.1500 
 18 C       12.5190     2.5110     0.5610 C.ar  1 <1>  -0.1500 
 19 C       12.3480     2.2800     1.9140 C.ar  1 <1>  -0.1500 
 20 H       -0.2240     2.4310     2.7990 H     1 <1>   0.1500 
 21 H        2.1140     1.4690    -0.7140 H     1 <1>   0.1500 
 22 H        4.1930    -0.2540     1.8760 H     1 <1>   0.0800 
 23 H        4.8260     1.3690     1.8830 H     1 <1>   0.0800 
 24 H       -0.1050     2.3490     0.1130 H     1 <1>   0.1500 
 25 H        4.7420     1.4100    -0.5940 H     1 <1>   0.0800 
 26 H        4.1200    -0.2210    -0.5960 H     1 <1>   0.0800 
 27 H        6.2000    -1.0190     0.4950 H     1 <1>   0.0800 
 28 H        6.8210     0.6090     0.5090 H     1 <1>   0.0800 
 29 H        6.7410     0.6400    -1.9870 H     1 <1>   0.0800 
 30 H        6.1280    -0.9860    -1.9780 H     1 <1>   0.0800 
 31 H        8.9810     0.9910    -0.8640 H     1 <1>   0.3700 
 32 H       11.0820    -0.3120    -1.9030 H     1 <1>   0.0800 
 33 H       10.6330    -1.3980    -0.6090 H     1 <1>   0.0800 
 34 H       10.4640    -0.5100     1.7510 H     1 <1>   0.1500 
 35 H       12.0900     1.8440    -1.4160 H     1 <1>   0.1500 
 36 H       11.4750     1.0090     3.3930 H     1 <1>   0.1500 
 37 H       13.0950     3.3580     0.2290 H     1 <1>   0.1500 
 38 H       12.7910     2.9450     2.6350 H     1 <1>   0.1500 
@<TRIPOS>BOND
  1   1   2  1   
  2   1   3  1   
  3   2   4  2   
  4   2   5  1   
  5   3   6  2   
  6   3  20  1   
  7   4   6  1   
  8   4  21  1   
  9   5   7  1   
 10   5  22  1   
 11   5  23  1   
 12   6  24  1   
 13   7   8  1   
 14   7  25  1   
 15   7  26  1   
 16   8   9  1   
 17   8  27  1   
 18   8  28  1   
 19   9  10  1   
 20   9  29  1   
 21   9  30  1   
 22  10  11  2   
 23  10  12  am  
 24  12  13  1   
 25  12  31  1   
 26  13  14  1   
 27  13  32  1   
 28  13  33  1   
 29  14  15  ar  
 30  14  16  ar  
 31  15  17  ar  
 32  15  34  1   
 33  16  18  ar  
 34  16  35  1   
 35  17  19  ar  
 36  17  36  1   
 37  18  19  ar  
 38  18  37  1   
 39  19  38  1   
@<TRIPOS>SUBSTRUCTURE
  1 ****   8 GROUP 4 **** **** 0

# MOE 2024.06 (io_trps.svl 2023.06)
