@<TRIPOS>MOLECULE
NONAME
37 38 1 0 0 
SMALL
USER_CHARGES


@<TRIPOS>ATOM
  1 BR       1.8310    -1.0760    -0.4210 Br    1 <1>  -0.1110 
  2 C        0.4750    -2.1830     0.3850 C.ar  1 <1>   0.1110 
  3 C        0.4610    -2.3920     1.7520 C.ar  1 <1>   0.1900 
  4 C       -0.4810    -2.7590    -0.4310 C.ar  1 <1>  -0.1500 
  5 F        1.3680    -1.8390     2.5130 F     1 <1>  -0.1900 
  6 C       -0.5110    -3.1840     2.3330 C.ar  1 <1>  -0.1500 
  7 C       -1.4690    -3.5540     0.1420 C.ar  1 <1>  -0.1440 
  8 C       -1.4750    -3.7650     1.5200 C.ar  1 <1>  -0.1500 
  9 C       -2.5350    -4.1890    -0.7350 C.3   1 <1>   0.4870 
 10 N       -3.8230    -3.4800    -0.5270 N.4   1 <1>  -0.9590 
 11 C       -4.9910    -4.1240    -1.2100 C.3   1 <1>   0.3430 
 12 C       -3.7780    -2.0090    -0.8250 C.3   1 <1>   0.3430 
 13 C       -6.3170    -3.4110    -0.8420 C.3   1 <1>   0.1100 
 14 C       -5.1210    -1.3270    -0.4640 C.3   1 <1>   0.1100 
 15 N       -6.1140    -2.2770     0.0970 N.3   1 <1>  -0.8100 
 16 C       -7.3810    -1.5780     0.4080 C.3   1 <1>   0.1100 
 17 C       -8.2860    -2.4090     1.3260 C.3   1 <1>   0.1200 
 18 O       -9.4350    -1.6860     1.6050 O.3   1 <1>  -0.6800 
 19 H       -0.4350    -2.5810    -1.4920 H     1 <1>   0.1500 
 20 H       -0.5060    -3.3410     3.3980 H     1 <1>   0.1500 
 21 H       -2.2260    -4.3870     1.9800 H     1 <1>   0.1500 
 22 H       -2.6390    -5.2290    -0.4700 H     1 <1>   0.0800 
 23 H       -2.2420    -4.1290    -1.7700 H     1 <1>   0.0800 
 24 H       -4.0660    -3.5070     0.4750 H     1 <1>   0.4500 
 25 H       -5.0630    -5.1590    -0.9200 H     1 <1>   0.0800 
 26 H       -4.8590    -4.0910    -2.2790 H     1 <1>   0.0800 
 27 H       -3.5680    -1.8470    -1.8690 H     1 <1>   0.0800 
 28 H       -2.9910    -1.5420    -0.2550 H     1 <1>   0.0800 
 29 H       -6.9780    -4.1370    -0.3990 H     1 <1>   0.0800 
 30 H       -6.7890    -3.0590    -1.7440 H     1 <1>   0.0800 
 31 H       -5.5230    -0.8550    -1.3450 H     1 <1>   0.0800 
 32 H       -4.9270    -0.5490     0.2560 H     1 <1>   0.0800 
 33 H       -7.9080    -1.3460    -0.5030 H     1 <1>   0.0800 
 34 H       -7.1560    -0.6550     0.9160 H     1 <1>   0.0800 
 35 H       -7.7940    -2.6360     2.2560 H     1 <1>   0.0800 
 36 H       -8.5950    -3.3200     0.8450 H     1 <1>   0.0800 
 37 H       -9.2470    -0.9460     2.2160 H     1 <1>   0.4000 
@<TRIPOS>BOND
  1   1   2  1   
  2   2   3  ar  
  3   2   4  ar  
  4   3   5  1   
  5   3   6  ar  
  6   4   7  ar  
  7   4  19  1   
  8   6   8  ar  
  9   6  20  1   
 10   7   8  ar  
 11   7   9  1   
 12   8  21  1   
 13   9  10  1   
 14   9  22  1   
 15   9  23  1   
 16  10  11  1   
 17  10  12  1   
 18  10  24  1   
 19  11  13  1   
 20  11  25  1   
 21  11  26  1   
 22  12  14  1   
 23  12  27  1   
 24  12  28  1   
 25  13  15  1   
 26  13  29  1   
 27  13  30  1   
 28  14  15  1   
 29  14  31  1   
 30  14  32  1   
 31  15  16  1   
 32  16  17  1   
 33  16  33  1   
 34  16  34  1   
 35  17  18  1   
 36  17  35  1   
 37  17  36  1   
 38  18  37  1   
@<TRIPOS>SUBSTRUCTURE
  1 ****  10 GROUP 4 **** **** 0

# MOE 2024.06 (io_trps.svl 2023.06)
