@<TRIPOS>MOLECULE
NONAME
47 49 1 0 0 
SMALL
USER_CHARGES


@<TRIPOS>ATOM
  1 F        0.5510    -0.1100    -0.7930 F     1 <1>  -0.1900 
  2 C        1.7000    -0.7130    -0.6730 C.ar  1 <1>   0.1900 
  3 C        2.1170    -1.1150     0.5810 C.ar  1 <1>  -0.1500 
  4 C        2.4620    -0.9310    -1.8050 C.ar  1 <1>  -0.1500 
  5 C        3.3400    -1.7520     0.7000 C.ar  1 <1>  -0.1500 
  6 C        3.6830    -1.5700    -1.6670 C.ar  1 <1>  -0.1500 
  7 C        4.1490    -1.9850    -0.4170 C.ar  1 <1>   0.0860 
  8 C        5.4340    -2.6450    -0.2920 C.2   1 <1>   0.5440 
  9 O        5.6250    -3.6750    -0.9110 O.2   1 <1>  -0.5700 
 10 N        6.4470    -2.1380     0.5020 N.am  1 <1>  -0.6600 
 11 C        7.7050    -2.9010     0.7360 C.3   1 <1>   0.1400 
 12 C        6.4590    -0.7470     1.0350 C.3   1 <1>   0.1400 
 13 C        8.8870    -2.1450     0.1230 C.3   1 <1>  -0.1600 
 14 C        7.6360     0.0230     0.4300 C.3   1 <1>  -0.1600 
 15 C        8.9780    -0.7040     0.6570 C.3   1 <1>  -0.0190 
 16 C       10.1630     0.0370     0.0330 C.2   1 <1>   0.5690 
 17 O        9.9960     0.6770    -0.9760 O.2   1 <1>  -0.5700 
 18 N       11.3750    -0.0830     0.6590 N.am  1 <1>  -0.5470 
 19 C       12.6310     0.4730     0.3590 C.ar  1 <1>   0.1170 
 20 C       12.7940     1.6100    -0.4260 C.ar  1 <1>  -0.1500 
 21 C       13.7670    -0.1310     0.8870 C.ar  1 <1>  -0.1500 
 22 C       14.0510     2.1270    -0.6840 C.ar  1 <1>  -0.1500 
 23 C       15.0260     0.3820     0.6340 C.ar  1 <1>  -0.1500 
 24 C       15.1800     1.5120    -0.1510 C.ar  1 <1>   0.0830 
 25 O       16.4510     1.9500    -0.3520 O.3   1 <1>  -0.3630 
 26 C       16.7080     3.0760    -1.1610 C.3   1 <1>   0.0400 
 27 H        1.4930    -0.9340     1.4380 H     1 <1>   0.1500 
 28 H        2.1040    -0.6100    -2.7670 H     1 <1>   0.1500 
 29 H        3.6810    -2.0820     1.6660 H     1 <1>   0.1500 
 30 H        4.2930    -1.7590    -2.5340 H     1 <1>   0.1500 
 31 H        7.6430    -3.8850     0.3040 H     1 <1>   0.0800 
 32 H        7.8500    -3.0170     1.7960 H     1 <1>   0.0800 
 33 H        6.5540    -0.7830     2.1070 H     1 <1>   0.0800 
 34 H        5.5470    -0.2310     0.7960 H     1 <1>   0.0800 
 35 H        8.7670    -2.1280    -0.9480 H     1 <1>   0.0800 
 36 H        9.7960    -2.6780     0.3390 H     1 <1>   0.0800 
 37 H        7.6800     1.0060     0.8630 H     1 <1>   0.0800 
 38 H        7.4600     0.1420    -0.6250 H     1 <1>   0.0800 
 39 H        9.1440    -0.7490     1.7180 H     1 <1>   0.0800 
 40 H       11.3850    -0.7180     1.4530 H     1 <1>   0.3700 
 41 H       11.9350     2.1040    -0.8420 H     1 <1>   0.1500 
 42 H       13.6730    -1.0100     1.4960 H     1 <1>   0.1500 
 43 H       14.1290     3.0050    -1.2960 H     1 <1>   0.1500 
 44 H       15.9010    -0.0900     1.0430 H     1 <1>   0.1500 
 45 H       17.7720     3.2310    -1.1880 H     1 <1>   0.0800 
 46 H       16.2240     3.9340    -0.7300 H     1 <1>   0.0800 
 47 H       16.3420     2.8830    -2.1540 H     1 <1>   0.0800 
@<TRIPOS>BOND
  1   1   2  1   
  2   2   3  ar  
  3   2   4  ar  
  4   3   5  ar  
  5   3  27  1   
  6   4   6  ar  
  7   4  28  1   
  8   5   7  ar  
  9   5  29  1   
 10   6   7  ar  
 11   6  30  1   
 12   7   8  1   
 13   8   9  2   
 14   8  10  am  
 15  10  11  1   
 16  10  12  1   
 17  11  13  1   
 18  11  31  1   
 19  11  32  1   
 20  12  14  1   
 21  12  33  1   
 22  12  34  1   
 23  13  15  1   
 24  13  35  1   
 25  13  36  1   
 26  14  15  1   
 27  14  37  1   
 28  14  38  1   
 29  15  16  1   
 30  15  39  1   
 31  16  17  2   
 32  16  18  am  
 33  18  19  1   
 34  18  40  1   
 35  19  20  ar  
 36  19  21  ar  
 37  20  22  ar  
 38  20  41  1   
 39  21  23  ar  
 40  21  42  1   
 41  22  24  ar  
 42  22  43  1   
 43  23  24  ar  
 44  23  44  1   
 45  24  25  1   
 46  25  26  1   
 47  26  45  1   
 48  26  46  1   
 49  26  47  1   
@<TRIPOS>SUBSTRUCTURE
  1 ****  15 GROUP 4 **** **** 0

# MOE 2024.06 (io_trps.svl 2023.06)
