@<TRIPOS>MOLECULE
NONAME
43 45 1 0 0 
SMALL
USER_CHARGES


@<TRIPOS>ATOM
  1 F       -1.1090    -0.2770     1.8020 F     1 <1>  -0.1900 
  2 C       -2.1030    -0.8910     1.2220 C.ar  1 <1>   0.1900 
  3 C       -2.2360    -0.7970    -0.1490 C.ar  1 <1>  -0.1500 
  4 C       -2.9870    -1.6130     2.0000 C.ar  1 <1>  -0.1500 
  5 C       -3.2950    -1.4470    -0.7610 C.ar  1 <1>  -0.1500 
  6 C       -4.0430    -2.2590     1.3810 C.ar  1 <1>  -0.1500 
  7 C       -4.2050    -2.1740     0.0010 C.ar  1 <1>  -0.1430 
  8 C       -5.3740    -2.8690    -0.6730 C.3   1 <1>   0.4870 
  9 N       -6.6190    -2.1240    -0.3550 N.4   1 <1>  -0.9590 
 10 C       -7.8340    -2.8490    -0.8130 C.3   1 <1>   0.4860 
 11 C       -6.6170    -0.7270    -0.8840 C.3   1 <1>   0.3430 
 12 C       -9.0790    -2.0790    -0.4100 C.ar  1 <1>  -0.1430 
 13 C       -7.7540     0.0770    -0.2470 C.3   1 <1>  -0.0170 
 14 C       -9.0530    -0.7140    -0.1580 C.ar  1 <1>  -0.1430 
 15 C      -10.2780    -2.7630    -0.3020 C.ar  1 <1>  -0.1500 
 16 C      -10.2210    -0.0580     0.1970 C.ar  1 <1>  -0.1500 
 17 C      -11.4530    -2.1230     0.0520 C.ar  1 <1>   0.0830 
 18 C      -11.4310    -0.7400     0.3090 C.ar  1 <1>   0.0830 
 19 O      -12.5310    -2.9580     0.1080 O.3   1 <1>  -0.3630 
 20 O      -12.5750    -0.0850     0.6630 O.3   1 <1>  -0.3620 
 21 C      -13.8450    -2.5250     0.3830 C.3   1 <1>   0.0400 
 22 C      -12.6190     1.3020     0.9200 C.3   1 <1>   0.0400 
 23 H       -1.5190    -0.2300    -0.7180 H     1 <1>   0.1500 
 24 H       -2.8410    -1.6640     3.0650 H     1 <1>   0.1500 
 25 H       -3.3930    -1.3780    -1.8320 H     1 <1>   0.1500 
 26 H       -4.7270    -2.8280     1.9890 H     1 <1>   0.1500 
 27 H       -5.4410    -3.8810    -0.3080 H     1 <1>   0.0800 
 28 H       -5.2180    -2.9000    -1.7400 H     1 <1>   0.0800 
 29 H       -6.6880    -2.0510     0.6670 H     1 <1>   0.4500 
 30 H       -7.8680    -3.8320    -0.3710 H     1 <1>   0.0800 
 31 H       -7.8200    -2.9570    -1.8860 H     1 <1>   0.0800 
 32 H       -6.7500    -0.7460    -1.9540 H     1 <1>   0.0800 
 33 H       -5.6790    -0.2400    -0.6670 H     1 <1>   0.0800 
 34 H       -7.9110     0.9720    -0.8230 H     1 <1>   0.0800 
 35 H       -7.4590     0.3780     0.7430 H     1 <1>   0.0800 
 36 H      -10.3290    -3.8210    -0.4930 H     1 <1>   0.1500 
 37 H      -10.1710     0.9970     0.3900 H     1 <1>   0.1500 
 38 H      -14.4970    -3.3770     0.3280 H     1 <1>   0.0800 
 39 H      -14.1330    -1.7950    -0.3520 H     1 <1>   0.0800 
 40 H      -13.8730    -2.1070     1.3740 H     1 <1>   0.0800 
 41 H      -13.6320     1.5620     1.1690 H     1 <1>   0.0800 
 42 H      -12.3150     1.8320     0.0350 H     1 <1>   0.0800 
 43 H      -11.9730     1.5260     1.7500 H     1 <1>   0.0800 
@<TRIPOS>BOND
  1   1   2  1   
  2   2   3  ar  
  3   2   4  ar  
  4   3   5  ar  
  5   3  23  1   
  6   4   6  ar  
  7   4  24  1   
  8   5   7  ar  
  9   5  25  1   
 10   6   7  ar  
 11   6  26  1   
 12   7   8  1   
 13   8   9  1   
 14   8  27  1   
 15   8  28  1   
 16   9  10  1   
 17   9  11  1   
 18   9  29  1   
 19  10  12  1   
 20  10  30  1   
 21  10  31  1   
 22  11  13  1   
 23  11  32  1   
 24  11  33  1   
 25  12  14  ar  
 26  12  15  ar  
 27  13  14  1   
 28  13  34  1   
 29  13  35  1   
 30  14  16  ar  
 31  15  17  ar  
 32  15  36  1   
 33  16  18  ar  
 34  16  37  1   
 35  17  18  ar  
 36  17  19  1   
 37  18  20  1   
 38  19  21  1   
 39  20  22  1   
 40  21  38  1   
 41  21  39  1   
 42  21  40  1   
 43  22  41  1   
 44  22  42  1   
 45  22  43  1   
@<TRIPOS>SUBSTRUCTURE
  1 ****   9 GROUP 4 **** **** 0

# MOE 2024.06 (io_trps.svl 2023.06)
