@<TRIPOS>MOLECULE
NONAME
37 37 1 0 0 
SMALL
USER_CHARGES


@<TRIPOS>ATOM
  1 S       -0.1240    -0.2600     0.4200 S.o2  1 <1>   1.4470 
  2 O       -0.5860    -0.2830     1.7890 O.2   1 <1>  -0.6500 
  3 O       -0.0650    -1.4810    -0.3480 O.2   1 <1>  -0.6500 
  4 N       -1.1640     0.7060    -0.4700 N.am  1 <1>  -0.9140 
  5 C        1.4490     0.6370     0.3110 C.ar  1 <1>  -0.0090 
  6 C       -2.5580     0.4840    -0.1740 C.3   1 <1>   0.2760 
  7 C        2.2860     0.4930    -0.7830 C.ar  1 <1>  -0.1500 
  8 C        1.8420     1.5170     1.3090 C.ar  1 <1>  -0.1500 
  9 C       -3.3200     0.5160    -1.5070 C.3   1 <1>  -0.1600 
 10 C       -3.0150     1.5880     0.7790 C.3   1 <1>  -0.2400 
 11 C        3.4930     1.1830    -0.9270 C.ar  1 <1>   0.0860 
 12 C        3.0270     2.2180     1.2140 C.ar  1 <1>  -0.1500 
 13 C       -4.8130     0.1840    -1.3670 C.3   1 <1>  -0.2400 
 14 C        3.8590     2.0640     0.1070 C.ar  1 <1>   0.0830 
 15 C        4.2860     0.9530    -2.1270 C.2   1 <1>   0.5440 
 16 O        5.0200     2.7600     0.0040 O.3   1 <1>  -0.3630 
 17 O        3.7900     0.4850    -3.1300 O.2   1 <1>  -0.5700 
 18 N        5.6060     1.2260    -2.2070 N.am  1 <1>  -0.8000 
 19 C        5.4260     3.7330     0.9440 C.3   1 <1>   0.0400 
 20 H       -1.0260     0.3600    -1.4160 H     1 <1>   0.4200 
 21 H       -2.7000    -0.4840     0.2850 H     1 <1>   0.0800 
 22 H        1.9920    -0.1880    -1.5650 H     1 <1>   0.1500 
 23 H        1.2070     1.6530     2.1710 H     1 <1>   0.1500 
 24 H       -2.8850    -0.2120    -2.1710 H     1 <1>   0.0800 
 25 H       -3.2170     1.4880    -1.9580 H     1 <1>   0.0800 
 26 H       -2.9260     2.5510     0.3090 H     1 <1>   0.0800 
 27 H       -2.4220     1.5800     1.6750 H     1 <1>   0.0800 
 28 H       -4.0390     1.4360     1.0650 H     1 <1>   0.0800 
 29 H        3.2810     2.8830     2.0180 H     1 <1>   0.1500 
 30 H       -4.9450    -0.7660    -0.8790 H     1 <1>   0.0800 
 31 H       -5.2680     0.1310    -2.3410 H     1 <1>   0.0800 
 32 H       -5.3260     0.9420    -0.8010 H     1 <1>   0.0800 
 33 H        6.0920     1.1050    -3.0940 H     1 <1>   0.3700 
 34 H        6.0680     1.7760    -1.4790 H     1 <1>   0.3700 
 35 H        6.3540     4.1590     0.6080 H     1 <1>   0.0800 
 36 H        5.5680     3.2600     1.9000 H     1 <1>   0.0800 
 37 H        4.6740     4.5010     1.0010 H     1 <1>   0.0800 
@<TRIPOS>BOND
  1   1   2  2   
  2   1   3  2   
  3   1   4  am  
  4   1   5  1   
  5   4   6  1   
  6   4  20  1   
  7   5   7  ar  
  8   5   8  ar  
  9   6   9  1   
 10   6  10  1   
 11   6  21  1   
 12   7  11  ar  
 13   7  22  1   
 14   8  12  ar  
 15   8  23  1   
 16   9  13  1   
 17   9  24  1   
 18   9  25  1   
 19  10  26  1   
 20  10  27  1   
 21  10  28  1   
 22  11  14  ar  
 23  11  15  1   
 24  12  14  ar  
 25  12  29  1   
 26  13  30  1   
 27  13  31  1   
 28  13  32  1   
 29  14  16  1   
 30  15  17  2   
 31  15  18  am  
 32  16  19  1   
 33  18  33  1   
 34  18  34  1   
 35  19  35  1   
 36  19  36  1   
 37  19  37  1   
@<TRIPOS>SUBSTRUCTURE
  1 ****   5 GROUP 4 **** **** 0

# MOE 2024.06 (io_trps.svl 2023.06)
