@<TRIPOS>MOLECULE
NONAME
38 39 1 0 0 
SMALL
USER_CHARGES


@<TRIPOS>ATOM
  1 F       -5.8770    -3.9570    -0.4610 F     1 <1>  -0.3400 
  2 C       -4.6390    -4.4350    -0.4150 C.3   1 <1>   1.1640 
  3 F       -4.6770    -5.5010     0.3750 F     1 <1>  -0.3400 
  4 F       -4.3650    -4.8880    -1.6320 F     1 <1>  -0.3400 
  5 C       -3.5940    -3.4100     0.0550 C.ar  1 <1>  -0.1440 
  6 C       -2.2740    -3.8090     0.2450 C.ar  1 <1>  -0.1500 
  7 C       -3.9280    -2.0820     0.2960 C.ar  1 <1>  -0.1500 
  8 C       -1.3050    -2.9100     0.6650 C.ar  1 <1>  -0.1440 
  9 C       -2.9680    -1.1810     0.7200 C.ar  1 <1>  -0.1500 
 10 C       -1.6610    -1.5930     0.9050 C.ar  1 <1>  -0.1500 
 11 C        0.1330    -3.3670     0.8580 C.3   1 <1>  -0.0160 
 12 C        0.8590    -3.4930    -0.4960 C.3   1 <1>   0.4230 
 13 N        2.1960    -4.1410    -0.3720 N.4   1 <1>  -0.9590 
 14 C        1.0470    -2.1400    -1.1830 C.3   1 <1>  -0.2400 
 15 C        2.1320    -5.6230    -0.1280 C.3   1 <1>   0.3430 
 16 C        3.1680    -3.4900     0.5770 C.3   1 <1>   0.3430 
 17 C        3.5440    -6.2510    -0.0860 C.3   1 <1>   0.1200 
 18 C        4.5320    -4.2190     0.5760 C.3   1 <1>   0.1200 
 19 O        4.5350    -5.2900    -0.3310 O.3   1 <1>  -0.5600 
 20 H       -2.0110    -4.8380     0.0650 H     1 <1>   0.1500 
 21 H       -4.9390    -1.7330     0.1590 H     1 <1>   0.1500 
 22 H       -3.2410    -0.1560     0.9070 H     1 <1>   0.1500 
 23 H       -0.9330    -0.8740     1.2390 H     1 <1>   0.1500 
 24 H        0.1130    -4.3170     1.3580 H     1 <1>   0.0800 
 25 H        0.6430    -2.6650     1.4930 H     1 <1>   0.0800 
 26 H        0.2460    -4.1020    -1.1410 H     1 <1>   0.0800 
 27 H        2.6610    -4.0640    -1.2900 H     1 <1>   0.4500 
 28 H        1.5610    -1.4400    -0.5500 H     1 <1>   0.0800 
 29 H        0.0850    -1.7200    -1.4210 H     1 <1>   0.0800 
 30 H        1.5840    -2.2530    -2.1080 H     1 <1>   0.0800 
 31 H        1.5610    -6.1000    -0.9080 H     1 <1>   0.0800 
 32 H        1.6350    -5.8250     0.8070 H     1 <1>   0.0800 
 33 H        2.7710    -3.4980     1.5780 H     1 <1>   0.0800 
 34 H        3.3250    -2.4610     0.2980 H     1 <1>   0.0800 
 35 H        3.6340    -7.0140    -0.8410 H     1 <1>   0.0800 
 36 H        3.7330    -6.7050     0.8720 H     1 <1>   0.0800 
 37 H        4.7640    -4.5970     1.5570 H     1 <1>   0.0800 
 38 H        5.3150    -3.5400     0.2840 H     1 <1>   0.0800 
@<TRIPOS>BOND
  1   1   2  1   
  2   2   3  1   
  3   2   4  1   
  4   2   5  1   
  5   5   6  ar  
  6   5   7  ar  
  7   6   8  ar  
  8   6  20  1   
  9   7   9  ar  
 10   7  21  1   
 11   8  10  ar  
 12   8  11  1   
 13   9  10  ar  
 14   9  22  1   
 15  10  23  1   
 16  11  12  1   
 17  11  24  1   
 18  11  25  1   
 19  12  13  1   
 20  12  14  1   
 21  12  26  1   
 22  13  15  1   
 23  13  16  1   
 24  13  27  1   
 25  14  28  1   
 26  14  29  1   
 27  14  30  1   
 28  15  17  1   
 29  15  31  1   
 30  15  32  1   
 31  16  18  1   
 32  16  33  1   
 33  16  34  1   
 34  17  19  1   
 35  17  35  1   
 36  17  36  1   
 37  18  19  1   
 38  18  37  1   
 39  18  38  1   
@<TRIPOS>SUBSTRUCTURE
  1 ****   8 GROUP 4 **** **** 0

# MOE 2024.06 (io_trps.svl 2023.06)
