@<TRIPOS>MOLECULE
NONAME
51 53 1 0 0 
SMALL
USER_CHARGES


@<TRIPOS>ATOM
  1 O        0.1260     0.7100    -0.8100 O.2   1 <1>  -0.5700 
  2 C        0.0770     1.7070    -0.1150 C.2   1 <1>   0.5440 
  3 N        1.2370     2.1720     0.4780 N.am  1 <1>  -0.6600 
  4 C       -1.1980     2.3750     0.0600 C.ar  1 <1>   0.0860 
  5 C        2.5010     1.3840     0.4370 C.3   1 <1>   0.1400 
  6 C        1.3770     3.5410     1.0490 C.3   1 <1>   0.1400 
  7 C       -1.7420     2.5930     1.3270 C.ar  1 <1>  -0.1500 
  8 C       -1.9290     2.8200    -1.0410 C.ar  1 <1>  -0.1500 
  9 C        3.5640     2.1510    -0.3550 C.3   1 <1>  -0.1600 
 10 C        2.4380     4.3190     0.2660 C.3   1 <1>  -0.1600 
 11 C       -2.9510     3.2430     1.4850 C.ar  1 <1>  -0.1500 
 12 C       -3.1400     3.4710    -0.8910 C.ar  1 <1>  -0.1500 
 13 C        3.7820     3.5640     0.2140 C.3   1 <1>  -0.0190 
 14 C       -3.6590     3.6910     0.3820 C.ar  1 <1>   0.0820 
 15 C        4.8550     4.3130    -0.5790 C.2   1 <1>   0.5690 
 16 O       -4.8320     4.3210     0.6190 O.3   1 <1>  -0.3630 
 17 O        4.5250     5.0340    -1.4900 O.2   1 <1>  -0.5700 
 18 N        6.1530     4.1120    -0.2040 N.am  1 <1>  -0.5470 
 19 C       -5.6500     4.7870    -0.4310 C.3   1 <1>   0.0400 
 20 C        7.3880     4.5990    -0.6720 C.ar  1 <1>   0.1170 
 21 C        8.5500     4.1550    -0.0290 C.ar  1 <1>   0.0820 
 22 C        7.5080     5.4920    -1.7310 C.ar  1 <1>  -0.1500 
 23 O        8.3920     3.2770     1.0090 O.3   1 <1>  -0.3630 
 24 C        9.7970     4.6060    -0.4520 C.ar  1 <1>  -0.1500 
 25 C        8.7500     5.9370    -2.1470 C.ar  1 <1>  -0.1500 
 26 C        9.5050     2.7800     1.7210 C.3   1 <1>   0.0400 
 27 C        9.8940     5.4950    -1.5090 C.ar  1 <1>  -0.1500 
 28 H        2.3380     0.4220    -0.0180 H     1 <1>   0.0800 
 29 H        2.8400     1.2170     1.4440 H     1 <1>   0.0800 
 30 H        1.6670     3.4610     2.0830 H     1 <1>   0.0800 
 31 H        0.4480     4.0800     1.0010 H     1 <1>   0.0800 
 32 H       -1.2060     2.2430     2.1910 H     1 <1>   0.1500 
 33 H       -1.5310     2.6440    -2.0250 H     1 <1>   0.1500 
 34 H        3.2480     2.2180    -1.3820 H     1 <1>   0.0800 
 35 H        4.4860     1.5980    -0.3330 H     1 <1>   0.0800 
 36 H        2.5830     5.2830     0.7210 H     1 <1>   0.0800 
 37 H        2.0740     4.4840    -0.7340 H     1 <1>   0.0800 
 38 H       -3.3600     3.4070     2.4670 H     1 <1>   0.1500 
 39 H       -3.6640     3.7960    -1.7700 H     1 <1>   0.1500 
 40 H        4.1360     3.4680     1.2250 H     1 <1>   0.0800 
 41 H        6.2930     3.4660     0.5740 H     1 <1>   0.3700 
 42 H       -6.5240     5.2370     0.0030 H     1 <1>   0.0800 
 43 H       -5.9350     3.9530    -1.0470 H     1 <1>   0.0800 
 44 H       -5.1050     5.5190    -0.9990 H     1 <1>   0.0800 
 45 H        6.6340     5.8490    -2.2430 H     1 <1>   0.1500 
 46 H       10.7030     4.2820     0.0220 H     1 <1>   0.1500 
 47 H        8.8230     6.6280    -2.9700 H     1 <1>   0.1500 
 48 H        9.1450     2.1170     2.4860 H     1 <1>   0.0800 
 49 H       10.0290     3.6050     2.1710 H     1 <1>   0.0800 
 50 H       10.1430     2.2420     1.0420 H     1 <1>   0.0800 
 51 H       10.8590     5.8430    -1.8350 H     1 <1>   0.1500 
@<TRIPOS>BOND
  1   1   2  2   
  2   2   3  am  
  3   2   4  1   
  4   3   5  1   
  5   3   6  1   
  6   4   7  ar  
  7   4   8  ar  
  8   5   9  1   
  9   5  28  1   
 10   5  29  1   
 11   6  10  1   
 12   6  30  1   
 13   6  31  1   
 14   7  11  ar  
 15   7  32  1   
 16   8  12  ar  
 17   8  33  1   
 18   9  13  1   
 19   9  34  1   
 20   9  35  1   
 21  10  13  1   
 22  10  36  1   
 23  10  37  1   
 24  11  14  ar  
 25  11  38  1   
 26  12  14  ar  
 27  12  39  1   
 28  13  15  1   
 29  13  40  1   
 30  14  16  1   
 31  15  17  2   
 32  15  18  am  
 33  16  19  1   
 34  18  20  1   
 35  18  41  1   
 36  19  42  1   
 37  19  43  1   
 38  19  44  1   
 39  20  21  ar  
 40  20  22  ar  
 41  21  23  1   
 42  21  24  ar  
 43  22  25  ar  
 44  22  45  1   
 45  23  26  1   
 46  24  27  ar  
 47  24  46  1   
 48  25  27  ar  
 49  25  47  1   
 50  26  48  1   
 51  26  49  1   
 52  26  50  1   
 53  27  51  1   
@<TRIPOS>SUBSTRUCTURE
  1 ****  10 GROUP 4 **** **** 0

# MOE 2024.06 (io_trps.svl 2023.06)
