@<TRIPOS>MOLECULE
NONAME
25 25 1 0 0 
SMALL
USER_CHARGES


@<TRIPOS>ATOM
  1 O       -0.3450     0.5830    -0.9130 O.2   1 <1>  -0.5700 
  2 C       -0.5590     1.7180    -0.5650 C.2   1 <1>   0.5690 
  3 N       -1.7930     2.0990    -0.1530 N.am  1 <1>  -0.6600 
  4 C        0.5820     2.7070    -0.5950 C.3   1 <1>  -0.1790 
  5 C       -2.2320     3.4700     0.1000 C.3   1 <1>   0.5000 
  6 C       -2.9490     1.2030    -0.3060 C.3   1 <1>   0.4400 
  7 O       -1.8990     3.6830     1.4180 O.3   1 <1>  -0.6800 
  8 C       -3.7620     3.4550    -0.1120 C.3   1 <1>   0.5000 
  9 N       -4.1330     2.0460    -0.0700 N.am  1 <1>  -0.6600 
 10 O       -4.1100     3.8610    -1.3800 O.3   1 <1>  -0.6800 
 11 C       -5.3870     1.6270     0.2230 C.2   1 <1>   0.5690 
 12 O       -6.2840     2.4140     0.3910 O.2   1 <1>  -0.5700 
 13 C       -5.6900     0.1520     0.3280 C.3   1 <1>  -0.1790 
 14 H        0.4110     3.4380    -1.3620 H     1 <1>   0.0800 
 15 H        1.5010     2.1920    -0.8070 H     1 <1>   0.0800 
 16 H        0.6730     3.1950     0.3570 H     1 <1>   0.0800 
 17 H       -1.7440     4.2070    -0.5150 H     1 <1>   0.0800 
 18 H       -2.8940     0.4010     0.4110 H     1 <1>   0.0800 
 19 H       -2.9710     0.8000    -1.3060 H     1 <1>   0.0800 
 20 H       -2.0600     2.8480     1.8930 H     1 <1>   0.4000 
 21 H       -4.2900     4.0550     0.6100 H     1 <1>   0.0800 
 22 H       -5.0630     3.6690    -1.4790 H     1 <1>   0.4000 
 23 H       -5.4290    -0.3440    -0.5880 H     1 <1>   0.0800 
 24 H       -6.7400     0.0110     0.5080 H     1 <1>   0.0800 
 25 H       -5.1410    -0.2780     1.1440 H     1 <1>   0.0800 
@<TRIPOS>BOND
  1   1   2  2   
  2   2   3  am  
  3   2   4  1   
  4   3   5  1   
  5   3   6  1   
  6   4  14  1   
  7   4  15  1   
  8   4  16  1   
  9   5   7  1   
 10   5   8  1   
 11   5  17  1   
 12   6   9  1   
 13   6  18  1   
 14   6  19  1   
 15   7  20  1   
 16   8   9  1   
 17   8  10  1   
 18   8  21  1   
 19   9  11  am  
 20  10  22  1   
 21  11  12  2   
 22  11  13  1   
 23  13  23  1   
 24  13  24  1   
 25  13  25  1   
@<TRIPOS>SUBSTRUCTURE
  1 ****   6 GROUP 4 **** **** 0

# MOE 2024.06 (io_trps.svl 2023.06)
