@<TRIPOS>MOLECULE
NONAME
34 34 1 0 0 
SMALL
USER_CHARGES


@<TRIPOS>ATOM
  1 F        0.4420     0.3130    -0.0210 F     1 <1>  -0.1900 
  2 C        0.2490     1.6090    -0.0150 C.ar  1 <1>   0.1900 
  3 C        1.3480     2.4630    -0.0090 C.ar  1 <1>   0.0830 
  4 C       -1.0520     2.0720    -0.0150 C.ar  1 <1>  -0.1500 
  5 O        2.5950     1.9160    -0.0100 O.3   1 <1>  -0.3630 
  6 C        1.1080     3.8360    -0.0030 C.ar  1 <1>  -0.1500 
  7 C       -1.2720     3.4390    -0.0080 C.ar  1 <1>  -0.1500 
  8 C        3.7550     2.7070    -0.0040 C.3   1 <1>   0.1200 
  9 C       -0.1950     4.3130    -0.0020 C.ar  1 <1>  -0.1500 
 10 C        4.9430     1.7410    -0.0070 C.3   1 <1>   0.3430 
 11 N        6.2530     2.4610     0.0000 N.4   1 <1>  -0.9060 
 12 C        7.3970     1.5180    -0.0020 C.3   1 <1>   0.3430 
 13 C        8.6970     2.3180     0.0060 C.3   1 <1>  -0.1600 
 14 C        9.9130     1.3830     0.0040 C.3   1 <1>  -0.1600 
 15 C       11.2180     2.1820     0.0120 C.3   1 <1>  -0.2400 
 16 H       -1.8720     1.3760    -0.0190 H     1 <1>   0.1500 
 17 H        1.9080     4.5500     0.0020 H     1 <1>   0.1500 
 18 H       -2.2780     3.8220    -0.0080 H     1 <1>   0.1500 
 19 H        3.7440     3.3090     0.8870 H     1 <1>   0.0800 
 20 H        3.7470     3.3180    -0.8890 H     1 <1>   0.0800 
 21 H       -0.3770     5.3750     0.0030 H     1 <1>   0.1500 
 22 H        4.8760     1.1190    -0.8840 H     1 <1>   0.0800 
 23 H        4.8730     1.1090     0.8640 H     1 <1>   0.0800 
 24 H        6.3230     3.0620     0.8310 H     1 <1>   0.4500 
 25 H        6.3270     3.0710    -0.8240 H     1 <1>   0.4500 
 26 H        7.3630     0.8930    -0.8800 H     1 <1>   0.0800 
 27 H        7.3580     0.8840     0.8700 H     1 <1>   0.0800 
 28 H        8.7400     2.9380     0.8850 H     1 <1>   0.0800 
 29 H        8.7440     2.9470    -0.8670 H     1 <1>   0.0800 
 30 H        9.8960     0.7540    -0.8710 H     1 <1>   0.0800 
 31 H        9.8910     0.7450     0.8730 H     1 <1>   0.0800 
 32 H       11.2880     2.8100    -0.8600 H     1 <1>   0.0800 
 33 H       12.0600     1.5110     0.0110 H     1 <1>   0.0800 
 34 H       11.2830     2.8010     0.8900 H     1 <1>   0.0800 
@<TRIPOS>BOND
  1   1   2  1   
  2   2   3  ar  
  3   2   4  ar  
  4   3   5  1   
  5   3   6  ar  
  6   4   7  ar  
  7   4  16  1   
  8   5   8  1   
  9   6   9  ar  
 10   6  17  1   
 11   7   9  ar  
 12   7  18  1   
 13   8  10  1   
 14   8  19  1   
 15   8  20  1   
 16   9  21  1   
 17  10  11  1   
 18  10  22  1   
 19  10  23  1   
 20  11  12  1   
 21  11  24  1   
 22  11  25  1   
 23  12  13  1   
 24  12  26  1   
 25  12  27  1   
 26  13  14  1   
 27  13  28  1   
 28  13  29  1   
 29  14  15  1   
 30  14  30  1   
 31  14  31  1   
 32  15  32  1   
 33  15  33  1   
 34  15  34  1   
@<TRIPOS>SUBSTRUCTURE
  1 ****   8 GROUP 4 **** **** 0

# MOE 2024.06 (io_trps.svl 2023.06)
