@<TRIPOS>MOLECULE
NONAME
31 31 1 0 0 
SMALL
USER_CHARGES


@<TRIPOS>ATOM
  1 CL       0.8870    -0.2180     0.9520 Cl    1 <1>  -0.1770 
  2 C        0.5240    -1.8950     0.6210 C.ar  1 <1>   0.1770 
  3 C        1.3870    -2.6370    -0.1710 C.ar  1 <1>  -0.1440 
  4 C       -0.6140    -2.4520     1.1730 C.ar  1 <1>  -0.1500 
  5 C        1.0910    -3.9720    -0.4100 C.ar  1 <1>  -0.1500 
  6 C        2.6200    -1.9940    -0.7610 C.3   1 <1>   0.4870 
  7 C       -0.8990    -3.7840     0.9300 C.ar  1 <1>  -0.1500 
  8 C       -0.0470    -4.5400     0.1410 C.ar  1 <1>  -0.1500 
  9 N        3.5850    -1.7890     0.3440 N.4   1 <1>  -0.9060 
 10 C        4.8680    -1.1440     0.0120 C.3   1 <1>   0.5030 
 11 C        5.6730    -1.9770    -1.0300 C.3   1 <1>   0.1200 
 12 C        5.6250    -1.0530     1.3380 C.3   1 <1>  -0.2400 
 13 C        4.5730     0.2710    -0.5010 C.3   1 <1>  -0.2400 
 14 O        6.8980    -1.3810    -1.3100 O.3   1 <1>  -0.6800 
 15 H       -1.2690    -1.8540     1.7830 H     1 <1>   0.1500 
 16 H        1.7290    -4.5870    -1.0240 H     1 <1>   0.1500 
 17 H        2.3530    -1.0490    -1.2090 H     1 <1>   0.0800 
 18 H        3.0390    -2.6330    -1.5200 H     1 <1>   0.0800 
 19 H       -1.7840    -4.2330     1.3520 H     1 <1>   0.1500 
 20 H       -0.2780    -5.5770    -0.0460 H     1 <1>   0.1500 
 21 H        3.7590    -2.6840     0.8100 H     1 <1>   0.4500 
 22 H        3.1180    -1.1960     1.0400 H     1 <1>   0.4500 
 23 H        5.1380    -2.0500    -1.9600 H     1 <1>   0.0800 
 24 H        5.8740    -2.9640    -0.6480 H     1 <1>   0.0800 
 25 H        5.0710    -0.4940     2.0710 H     1 <1>   0.0800 
 26 H        5.8470    -2.0310     1.7260 H     1 <1>   0.0800 
 27 H        6.5630    -0.5460     1.1880 H     1 <1>   0.0800 
 28 H        5.4980     0.8110    -0.6150 H     1 <1>   0.0800 
 29 H        4.1010     0.2530    -1.4660 H     1 <1>   0.0800 
 30 H        3.9600     0.8210     0.1910 H     1 <1>   0.0800 
 31 H        7.4290    -1.9060    -1.9470 H     1 <1>   0.4000 
@<TRIPOS>BOND
  1   1   2  1   
  2   2   3  ar  
  3   2   4  ar  
  4   3   5  ar  
  5   3   6  1   
  6   4   7  ar  
  7   4  15  1   
  8   5   8  ar  
  9   5  16  1   
 10   6   9  1   
 11   6  17  1   
 12   6  18  1   
 13   7   8  ar  
 14   7  19  1   
 15   8  20  1   
 16   9  10  1   
 17   9  21  1   
 18   9  22  1   
 19  10  11  1   
 20  10  12  1   
 21  10  13  1   
 22  11  14  1   
 23  11  23  1   
 24  11  24  1   
 25  12  25  1   
 26  12  26  1   
 27  12  27  1   
 28  13  28  1   
 29  13  29  1   
 30  13  30  1   
 31  14  31  1   
@<TRIPOS>SUBSTRUCTURE
  1 ****   6 GROUP 4 **** **** 0

# MOE 2024.06 (io_trps.svl 2023.06)
