@<TRIPOS>MOLECULE
NONAME
41 42 1 0 0 
SMALL
USER_CHARGES


@<TRIPOS>ATOM
  1 S       -0.1100     2.6120    -0.5620 S.3   1 <1>  -0.0800 
  2 C       -1.0720     1.6250     0.4890 C.2   1 <1>   0.4420 
  3 C        1.2760     1.7440     0.0030 C.2   1 <1>   0.1980 
  4 N       -0.3590     0.7780     1.1410 N.2   1 <1>  -0.3380 
  5 N       -2.4270     1.8710     0.4800 N.am  1 <1>  -0.4940 
  6 N        0.9780     0.8530     0.8590 N.2   1 <1>  -0.3380 
  7 C        2.6280     2.1390    -0.5710 C.3   1 <1>   0.0200 
  8 C       -3.4610     1.3200     1.1940 C.2   1 <1>   0.5440 
  9 C        3.7860     1.3080    -0.0030 C.3   1 <1>  -0.2400 
 10 O       -3.2040     0.4740     2.0270 O.2   1 <1>  -0.5700 
 11 C       -4.8430     1.7280     0.9660 C.ar  1 <1>   0.0860 
 12 C       -5.2420     2.7830     0.1170 C.ar  1 <1>   0.0820 
 13 C       -5.8650     1.0370     1.6300 C.ar  1 <1>  -0.1500 
 14 O       -4.2930     3.4910    -0.5500 O.3   1 <1>  -0.3620 
 15 C       -6.5910     3.0950    -0.0360 C.ar  1 <1>  -0.1500 
 16 C       -7.2000     1.3510     1.4760 C.ar  1 <1>  -0.1500 
 17 C       -4.5840     4.5830    -1.3940 C.3   1 <1>   0.1200 
 18 C       -7.5720     2.3910     0.6340 C.ar  1 <1>   0.0820 
 19 C       -3.2610     5.1150    -1.9370 C.3   1 <1>  -0.2400 
 20 O       -8.8520     2.7690     0.4220 O.3   1 <1>  -0.3630 
 21 C       -9.9340     2.1240     1.0540 C.3   1 <1>   0.1200 
 22 C      -11.2210     2.8010     0.5930 C.3   1 <1>  -0.2400 
 23 H       -2.7310     2.6070    -0.1580 H     1 <1>   0.3700 
 24 H        2.8010     3.1780    -0.3590 H     1 <1>   0.0800 
 25 H        2.5960     2.0160    -1.6390 H     1 <1>   0.0800 
 26 H        3.8410     1.4310     1.0650 H     1 <1>   0.0800 
 27 H        4.7190     1.6220    -0.4360 H     1 <1>   0.0800 
 28 H        3.6350     0.2650    -0.2190 H     1 <1>   0.0800 
 29 H       -5.6040     0.2250     2.2880 H     1 <1>   0.1500 
 30 H       -6.9220     3.8900    -0.6750 H     1 <1>   0.1500 
 31 H       -7.9320     0.7790     2.0150 H     1 <1>   0.1500 
 32 H       -5.0900     5.3380    -0.8160 H     1 <1>   0.0800 
 33 H       -5.2140     4.2400    -2.1960 H     1 <1>   0.0800 
 34 H       -2.6310     5.4420    -1.1290 H     1 <1>   0.0800 
 35 H       -3.4470     5.9530    -2.5840 H     1 <1>   0.0800 
 36 H       -2.7570     4.3530    -2.5040 H     1 <1>   0.0800 
 37 H       -9.8140     2.2220     2.1190 H     1 <1>   0.0800 
 38 H       -9.9270     1.0860     0.7690 H     1 <1>   0.0800 
 39 H      -11.2120     3.8400     0.8680 H     1 <1>   0.0800 
 40 H      -12.0680     2.3300     1.0590 H     1 <1>   0.0800 
 41 H      -11.3240     2.7120    -0.4740 H     1 <1>   0.0800 
@<TRIPOS>BOND
  1   1   2  1   
  2   1   3  1   
  3   2   4  2   
  4   2   5  1   
  5   3   6  2   
  6   3   7  1   
  7   4   6  1   
  8   5   8  am  
  9   5  23  1   
 10   7   9  1   
 11   7  24  1   
 12   7  25  1   
 13   8  10  2   
 14   8  11  1   
 15   9  26  1   
 16   9  27  1   
 17   9  28  1   
 18  11  12  ar  
 19  11  13  ar  
 20  12  14  1   
 21  12  15  ar  
 22  13  16  ar  
 23  13  29  1   
 24  14  17  1   
 25  15  18  ar  
 26  15  30  1   
 27  16  18  ar  
 28  16  31  1   
 29  17  19  1   
 30  17  32  1   
 31  17  33  1   
 32  18  20  1   
 33  19  34  1   
 34  19  35  1   
 35  19  36  1   
 36  20  21  1   
 37  21  22  1   
 38  21  37  1   
 39  21  38  1   
 40  22  39  1   
 41  22  40  1   
 42  22  41  1   
@<TRIPOS>SUBSTRUCTURE
  1 ****   8 GROUP 4 **** **** 0

# MOE 2024.06 (io_trps.svl 2023.06)
