@<TRIPOS>MOLECULE
NONAME
30 30 1 0 0 
SMALL
USER_CHARGES


@<TRIPOS>ATOM
  1 BR       0.4080    -0.5740     0.5940 Br    1 <1>  -0.1110 
  2 C       -1.4000    -1.1850     0.3260 C.ar  1 <1>   0.1110 
  3 C       -1.6440    -2.5430     0.2840 C.ar  1 <1>  -0.1500 
  4 C       -2.4050    -0.2510     0.1830 C.ar  1 <1>  -0.1500 
  5 C       -2.9430    -2.9910     0.0920 C.ar  1 <1>  -0.1440 
  6 C       -3.6970    -0.7030    -0.0110 C.ar  1 <1>  -0.1500 
  7 C       -3.9850    -2.0670    -0.0560 C.ar  1 <1>   0.1170 
  8 C       -3.2020    -4.4920     0.0540 C.3   1 <1>  -0.0960 
  9 N       -5.2940    -2.5270    -0.2720 N.am  1 <1>  -0.5470 
 10 C       -6.4980    -1.9720     0.0410 C.2   1 <1>   0.6900 
 11 O       -6.5930    -0.9570     0.7030 O.2   1 <1>  -0.5700 
 12 N       -7.6090    -2.6050    -0.4090 N.am  1 <1>  -0.7300 
 13 C       -8.9920    -2.1620    -0.1350 C.3   1 <1>   0.1400 
 14 C       -9.8840    -3.3900     0.0480 C.3   1 <1>  -0.1600 
 15 C      -11.3340    -2.9860     0.3360 C.3   1 <1>  -0.2400 
 16 H       -0.8250    -3.2290     0.4020 H     1 <1>   0.1500 
 17 H       -2.1830     0.8000     0.2210 H     1 <1>   0.1500 
 18 H       -4.4900     0.0140    -0.1280 H     1 <1>   0.1500 
 19 H       -2.3030    -5.0430     0.2690 H     1 <1>   0.0800 
 20 H       -3.5510    -4.7830    -0.9200 H     1 <1>   0.0800 
 21 H       -3.9390    -4.7580     0.7910 H     1 <1>   0.0800 
 22 H       -5.3580    -3.4870    -0.5850 H     1 <1>   0.3700 
 23 H       -7.5150    -3.3170    -1.1280 H     1 <1>   0.3700 
 24 H       -9.3430    -1.5640    -0.9590 H     1 <1>   0.0800 
 25 H       -9.0120    -1.5570     0.7570 H     1 <1>   0.0800 
 26 H       -9.5130    -3.9750     0.8730 H     1 <1>   0.0800 
 27 H       -9.8580    -3.9920    -0.8430 H     1 <1>   0.0800 
 28 H      -11.3890    -2.3970     1.2350 H     1 <1>   0.0800 
 29 H      -11.9420    -3.8640     0.4660 H     1 <1>   0.0800 
 30 H      -11.7350    -2.4100    -0.4800 H     1 <1>   0.0800 
@<TRIPOS>BOND
  1   1   2  1   
  2   2   3  ar  
  3   2   4  ar  
  4   3   5  ar  
  5   3  16  1   
  6   4   6  ar  
  7   4  17  1   
  8   5   7  ar  
  9   5   8  1   
 10   6   7  ar  
 11   6  18  1   
 12   7   9  1   
 13   8  19  1   
 14   8  20  1   
 15   8  21  1   
 16   9  10  am  
 17   9  22  1   
 18  10  11  2   
 19  10  12  am  
 20  12  13  1   
 21  12  23  1   
 22  13  14  1   
 23  13  24  1   
 24  13  25  1   
 25  14  15  1   
 26  14  26  1   
 27  14  27  1   
 28  15  28  1   
 29  15  29  1   
 30  15  30  1   
@<TRIPOS>SUBSTRUCTURE
  1 ****   9 GROUP 4 **** **** 0

# MOE 2024.06 (io_trps.svl 2023.06)
