@<TRIPOS>MOLECULE
NONAME
28 28 1 0 0 
SMALL
USER_CHARGES


@<TRIPOS>ATOM
  1 S       -0.1160     0.1790     0.0510 S.o2  1 <1>   1.4470 
  2 O       -0.3590     0.6650    -1.2890 O.2   1 <1>  -0.6500 
  3 O       -0.2410     1.0790     1.1760 O.2   1 <1>  -0.6500 
  4 N       -1.2790    -0.9890     0.3620 N.am  1 <1>  -0.9140 
  5 C        1.4410    -0.7440     0.1320 C.ar  1 <1>  -0.0090 
  6 C       -2.6140    -0.5600    -0.0060 C.3   1 <1>   0.1960 
  7 C        1.6520    -1.8630    -0.6620 C.ar  1 <1>  -0.1500 
  8 C        2.4670    -0.3610     0.9870 C.ar  1 <1>  -0.1500 
  9 C       -3.6110    -1.6300     0.4360 C.3   1 <1>  -0.1600 
 10 C        2.8370    -2.5740    -0.6000 C.ar  1 <1>  -0.1500 
 11 C        3.6510    -1.0710     1.0500 C.ar  1 <1>  -0.1500 
 12 C       -5.0460    -1.2450     0.0610 C.3   1 <1>  -0.2400 
 13 C        3.8690    -2.1990     0.2590 C.ar  1 <1>  -0.1790 
 14 C        5.1180    -2.9510     0.3280 C.2   1 <1>   0.9790 
 15 O        6.0300    -2.5960     1.0970 O.co2 1 <1>  -0.9000 
 16 O        5.2890    -3.9610    -0.3780 O.co2 1 <1>  -0.9000 
 17 H       -1.2620    -1.0730     1.3760 H     1 <1>   0.4200 
 18 H       -2.6700    -0.4300    -1.0760 H     1 <1>   0.0800 
 19 H       -2.8450     0.3810     0.4680 H     1 <1>   0.0800 
 20 H        0.8790    -2.1850    -1.3390 H     1 <1>   0.1500 
 21 H        2.3420     0.5040     1.6160 H     1 <1>   0.1500 
 22 H       -3.5510    -1.7610     1.5020 H     1 <1>   0.0800 
 23 H       -3.3620    -2.5630    -0.0400 H     1 <1>   0.0800 
 24 H        2.9810    -3.4420    -1.2240 H     1 <1>   0.1500 
 25 H        4.4360    -0.7590     1.7210 H     1 <1>   0.1500 
 26 H       -5.3270    -0.3220     0.5380 H     1 <1>   0.0800 
 27 H       -5.7280    -2.0140     0.3790 H     1 <1>   0.0800 
 28 H       -5.1380    -1.1280    -1.0050 H     1 <1>   0.0800 
@<TRIPOS>BOND
  1   1   2  2   
  2   1   3  2   
  3   1   4  am  
  4   1   5  1   
  5   4   6  1   
  6   4  17  1   
  7   5   7  ar  
  8   5   8  ar  
  9   6   9  1   
 10   6  18  1   
 11   6  19  1   
 12   7  10  ar  
 13   7  20  1   
 14   8  11  ar  
 15   8  21  1   
 16   9  12  1   
 17   9  22  1   
 18   9  23  1   
 19  10  13  ar  
 20  10  24  1   
 21  11  13  ar  
 22  11  25  1   
 23  12  26  1   
 24  12  27  1   
 25  12  28  1   
 26  13  14  1   
 27  14  15  ar  
 28  14  16  ar  
@<TRIPOS>SUBSTRUCTURE
  1 ****   5 GROUP 4 **** **** 0

# MOE 2024.06 (io_trps.svl 2023.06)
