@<TRIPOS>MOLECULE
NONAME
41 42 1 0 0 
SMALL
USER_CHARGES


@<TRIPOS>ATOM
  1 O       11.2550    -4.3530    -0.6460 O.3   1 <1>  -0.5600 
  2 C       10.5170    -3.2440    -0.2250 C.3   1 <1>   0.1200 
  3 C       10.7950    -5.5590    -0.1130 C.3   1 <1>   0.1200 
  4 C        9.0400    -3.4010    -0.6310 C.3   1 <1>   0.1100 
  5 C        9.3280    -5.7940    -0.5210 C.3   1 <1>   0.1100 
  6 N        8.4630    -4.6620    -0.1080 N.3   1 <1>  -0.8100 
  7 C        7.0710    -4.8220    -0.5380 C.3   1 <1>   0.1100 
  8 C        6.3490    -5.8000     0.3980 C.3   1 <1>   0.3430 
  9 N        4.8940    -5.8720     0.0890 N.4   1 <1>  -0.9060 
 10 C        4.1490    -6.7800     0.9840 C.3   1 <1>   0.4860 
 11 C        2.7120    -6.7270     0.5240 C.ar  1 <1>  -0.1430 
 12 C        2.2670    -7.5860    -0.4710 C.ar  1 <1>  -0.1500 
 13 C        1.8310    -5.8110     1.0820 C.ar  1 <1>  -0.1500 
 14 C        0.9580    -7.5170    -0.9100 C.ar  1 <1>  -0.1500 
 15 C        0.5200    -5.7440     0.6410 C.ar  1 <1>  -0.1500 
 16 C        0.0780    -6.5990    -0.3640 C.ar  1 <1>   0.0820 
 17 O       -1.1830    -6.5980    -0.8570 O.3   1 <1>  -0.3630 
 18 C       -2.1810    -5.7470    -0.3360 C.3   1 <1>   0.0400 
 19 H       10.9430    -2.3720    -0.6890 H     1 <1>   0.0800 
 20 H       10.6110    -3.1500     0.8430 H     1 <1>   0.0800 
 21 H       10.8930    -5.5230     0.9580 H     1 <1>   0.0800 
 22 H       11.4220    -6.3450    -0.4940 H     1 <1>   0.0800 
 23 H        8.9770    -3.3810    -1.7060 H     1 <1>   0.0800 
 24 H        8.4870    -2.5620    -0.2460 H     1 <1>   0.0800 
 25 H        8.9900    -6.7050    -0.0610 H     1 <1>   0.0800 
 26 H        9.2910    -5.9200    -1.5900 H     1 <1>   0.0800 
 27 H        7.0400    -5.1660    -1.5580 H     1 <1>   0.0800 
 28 H        6.5790    -3.8660    -0.4780 H     1 <1>   0.0800 
 29 H        6.4890    -5.4620     1.4120 H     1 <1>   0.0800 
 30 H        6.7950    -6.7760     0.2970 H     1 <1>   0.0800 
 31 H        4.7310    -6.1830    -0.8760 H     1 <1>   0.4500 
 32 H        4.4590    -4.9440     0.1620 H     1 <1>   0.4500 
 33 H        4.2240    -6.4530     2.0090 H     1 <1>   0.0800 
 34 H        4.5260    -7.7870     0.9060 H     1 <1>   0.0800 
 35 H        2.9210    -8.3190    -0.9150 H     1 <1>   0.1500 
 36 H        2.1450    -5.1400     1.8640 H     1 <1>   0.1500 
 37 H        0.6020    -8.1780    -1.6820 H     1 <1>   0.1500 
 38 H       -0.1430    -5.0260     1.0870 H     1 <1>   0.1500 
 39 H       -3.0950    -5.9420    -0.8670 H     1 <1>   0.0800 
 40 H       -1.8830    -4.7250    -0.4860 H     1 <1>   0.0800 
 41 H       -2.3130    -5.9630     0.7090 H     1 <1>   0.0800 
@<TRIPOS>BOND
  1   1   2  1   
  2   1   3  1   
  3   2   4  1   
  4   2  19  1   
  5   2  20  1   
  6   3   5  1   
  7   3  21  1   
  8   3  22  1   
  9   4   6  1   
 10   4  23  1   
 11   4  24  1   
 12   5   6  1   
 13   5  25  1   
 14   5  26  1   
 15   6   7  1   
 16   7   8  1   
 17   7  27  1   
 18   7  28  1   
 19   8   9  1   
 20   8  29  1   
 21   8  30  1   
 22   9  10  1   
 23   9  31  1   
 24   9  32  1   
 25  10  11  1   
 26  10  33  1   
 27  10  34  1   
 28  11  12  ar  
 29  11  13  ar  
 30  12  14  ar  
 31  12  35  1   
 32  13  15  ar  
 33  13  36  1   
 34  14  16  ar  
 35  14  37  1   
 36  15  16  ar  
 37  15  38  1   
 38  16  17  1   
 39  17  18  1   
 40  18  39  1   
 41  18  40  1   
 42  18  41  1   
@<TRIPOS>SUBSTRUCTURE
  1 ****   9 GROUP 4 **** **** 0

# MOE 2024.06 (io_trps.svl 2023.06)
