@<TRIPOS>MOLECULE
NONAME
36 36 1 0 0 
SMALL
USER_CHARGES


@<TRIPOS>ATOM
  1 S       -0.0880     0.1990     0.7740 S.o2  1 <1>   1.3330 
  2 O        1.1800    -0.4440     1.0000 O.2   1 <1>  -0.6500 
  3 O       -0.6750     1.0810     1.7500 O.2   1 <1>  -0.6500 
  4 N       -1.1690    -1.1050     0.5030 N.am  1 <1>  -0.7570 
  5 C       -0.0510     0.9900    -0.8190 C.3   1 <1>  -0.1350 
  6 C       -2.5500    -1.1280     0.4020 C.ar  1 <1>   0.1990 
  7 C       -3.1840    -2.3410     0.1650 C.ar  1 <1>  -0.1500 
  8 C       -3.3490     0.0070     0.5220 C.ar  1 <1>  -0.1500 
  9 C       -4.5580    -2.4170     0.0420 C.ar  1 <1>  -0.1500 
 10 C       -4.7230    -0.0730     0.4010 C.ar  1 <1>  -0.1500 
 11 C       -5.3690    -1.2860     0.1480 C.ar  1 <1>   0.0860 
 12 C       -6.8100    -1.3830     0.0050 C.2   1 <1>   0.5440 
 13 O       -7.3830    -2.4390     0.1940 O.2   1 <1>  -0.5700 
 14 N       -7.5540    -0.2960    -0.3650 N.am  1 <1>  -0.7300 
 15 C       -9.0250    -0.2730    -0.5030 C.3   1 <1>   0.1400 
 16 C       -9.5620     1.0270     0.0960 C.3   1 <1>  -0.1600 
 17 C      -11.0890     1.1010    -0.0190 C.3   1 <1>  -0.1600 
 18 C      -11.6250     2.4030     0.5820 C.3   1 <1>  -0.2400 
 19 H       -0.6680    -1.9850     0.5910 H     1 <1>   0.4200 
 20 H        0.6310     1.8180    -0.8010 H     1 <1>   0.0800 
 21 H       -1.0260     1.3530    -1.0770 H     1 <1>   0.0800 
 22 H        0.2710     0.2960    -1.5700 H     1 <1>   0.0800 
 23 H       -2.5960    -3.2360     0.0750 H     1 <1>   0.1500 
 24 H       -2.9030     0.9620     0.7240 H     1 <1>   0.1500 
 25 H       -5.0250    -3.3710    -0.1400 H     1 <1>   0.1500 
 26 H       -5.3050     0.8230     0.5180 H     1 <1>   0.1500 
 27 H       -7.0780     0.5590    -0.6510 H     1 <1>   0.3700 
 28 H       -9.4560    -1.1180     0.0100 H     1 <1>   0.0800 
 29 H       -9.2840    -0.3400    -1.5460 H     1 <1>   0.0800 
 30 H       -9.1260     1.8640    -0.4210 H     1 <1>   0.0800 
 31 H       -9.2810     1.0750     1.1340 H     1 <1>   0.0800 
 32 H      -11.5310     0.2650     0.4980 H     1 <1>   0.0800 
 33 H      -11.3800     1.0430    -1.0550 H     1 <1>   0.0800 
 34 H      -11.3670     2.4710     1.6240 H     1 <1>   0.0800 
 35 H      -12.6970     2.4350     0.4940 H     1 <1>   0.0800 
 36 H      -11.2150     3.2540     0.0660 H     1 <1>   0.0800 
@<TRIPOS>BOND
  1   1   2  2   
  2   1   3  2   
  3   1   4  am  
  4   1   5  1   
  5   4   6  1   
  6   4  19  1   
  7   5  20  1   
  8   5  21  1   
  9   5  22  1   
 10   6   7  ar  
 11   6   8  ar  
 12   7   9  ar  
 13   7  23  1   
 14   8  10  ar  
 15   8  24  1   
 16   9  11  ar  
 17   9  25  1   
 18  10  11  ar  
 19  10  26  1   
 20  11  12  1   
 21  12  13  2   
 22  12  14  am  
 23  14  15  1   
 24  14  27  1   
 25  15  16  1   
 26  15  28  1   
 27  15  29  1   
 28  16  17  1   
 29  16  30  1   
 30  16  31  1   
 31  17  18  1   
 32  17  32  1   
 33  17  33  1   
 34  18  34  1   
 35  18  35  1   
 36  18  36  1   
@<TRIPOS>SUBSTRUCTURE
  1 ****  10 GROUP 4 **** **** 0

# MOE 2024.06 (io_trps.svl 2023.06)
