@<TRIPOS>MOLECULE
NONAME
42 44 1 0 0 
SMALL
USER_CHARGES


@<TRIPOS>ATOM
  1 CL      -1.3420     1.1690     2.4840 Cl    1 <1>  -0.1770 
  2 C       -1.9020     1.2580     0.8290 C.ar  1 <1>   0.1770 
  3 C       -1.2670     2.0820    -0.0910 C.ar  1 <1>  -0.1440 
  4 C       -2.9950     0.4810     0.4800 C.ar  1 <1>  -0.1500 
  5 C       -1.7890     2.0980    -1.3760 C.ar  1 <1>   0.1900 
  6 C       -0.0620     2.9380     0.2740 C.3   1 <1>   0.2540 
  7 C       -3.4850     0.5140    -0.8160 C.ar  1 <1>  -0.1500 
  8 F       -1.2510     2.8710    -2.2830 F     1 <1>  -0.1900 
  9 C       -2.8770     1.3320    -1.7540 C.ar  1 <1>  -0.1500 
 10 N        1.1890     2.3140    -0.1870 N.3   1 <1>  -0.8100 
 11 C        2.3110     3.2710    -0.1100 C.3   1 <1>   0.1100 
 12 C        1.5110     1.0800     0.5660 C.3   1 <1>   0.1100 
 13 C        3.6220     2.6630    -0.6360 C.3   1 <1>   0.1400 
 14 C        2.8050     0.4210     0.0590 C.3   1 <1>   0.1400 
 15 N        3.9430     1.3880     0.0760 N.am  1 <1>  -0.6600 
 16 C        5.1610     1.0710     0.6330 C.2   1 <1>   0.5690 
 17 O        5.3330    -0.0090     1.1580 O.2   1 <1>  -0.5700 
 18 C        6.3330     2.0900     0.6250 C.3   1 <1>   0.2610 
 19 O        6.7010     2.4410    -0.6830 O.3   1 <1>  -0.5600 
 20 C        7.6520     1.5910     1.2210 C.3   1 <1>  -0.1600 
 21 C        7.6070     1.5090    -1.1820 C.3   1 <1>   0.1200 
 22 C        8.3580     0.9600     0.0300 C.3   1 <1>  -0.1600 
 23 H       -3.4570    -0.1460     1.2210 H     1 <1>   0.1500 
 24 H       -0.0150     3.1120     1.3350 H     1 <1>   0.0800 
 25 H       -0.1730     3.8970    -0.2030 H     1 <1>   0.0800 
 26 H       -4.3330    -0.0900    -1.0920 H     1 <1>   0.1500 
 27 H       -3.2400     1.3800    -2.7660 H     1 <1>   0.1500 
 28 H        2.4540     3.5850     0.9100 H     1 <1>   0.0800 
 29 H        2.0770     4.1400    -0.7000 H     1 <1>   0.0800 
 30 H        0.7110     0.3700     0.4560 H     1 <1>   0.0800 
 31 H        1.6190     1.3040     1.6130 H     1 <1>   0.0800 
 32 H        4.4090     3.3840    -0.5180 H     1 <1>   0.0800 
 33 H        3.5180     2.4590    -1.6870 H     1 <1>   0.0800 
 34 H        2.6520     0.0770    -0.9480 H     1 <1>   0.0800 
 35 H        3.0250    -0.4360     0.6720 H     1 <1>   0.0800 
 36 H        6.0120     2.9800     1.1320 H     1 <1>   0.0800 
 37 H        7.5110     0.9040     2.0360 H     1 <1>   0.0800 
 38 H        8.2130     2.4370     1.5740 H     1 <1>   0.0800 
 39 H        8.2610     2.0030    -1.8800 H     1 <1>   0.0800 
 40 H        7.0500     0.7330    -1.6790 H     1 <1>   0.0800 
 41 H        8.2660    -0.1130     0.0530 H     1 <1>   0.0800 
 42 H        9.3990     1.2250    -0.0010 H     1 <1>   0.0800 
@<TRIPOS>BOND
  1   1   2  1   
  2   2   3  ar  
  3   2   4  ar  
  4   3   5  ar  
  5   3   6  1   
  6   4   7  ar  
  7   4  23  1   
  8   5   8  1   
  9   5   9  ar  
 10   6  10  1   
 11   6  24  1   
 12   6  25  1   
 13   7   9  ar  
 14   7  26  1   
 15   9  27  1   
 16  10  11  1   
 17  10  12  1   
 18  11  13  1   
 19  11  28  1   
 20  11  29  1   
 21  12  14  1   
 22  12  30  1   
 23  12  31  1   
 24  13  15  1   
 25  13  32  1   
 26  13  33  1   
 27  14  15  1   
 28  14  34  1   
 29  14  35  1   
 30  15  16  am  
 31  16  17  2   
 32  16  18  1   
 33  18  19  1   
 34  18  20  1   
 35  18  36  1   
 36  19  21  1   
 37  20  22  1   
 38  20  37  1   
 39  20  38  1   
 40  21  22  1   
 41  21  39  1   
 42  21  40  1   
 43  22  41  1   
 44  22  42  1   
@<TRIPOS>SUBSTRUCTURE
  1 ****  12 GROUP 4 **** **** 0

# MOE 2024.06 (io_trps.svl 2023.06)
