@<TRIPOS>MOLECULE
NONAME
49 51 1 0 0 
SMALL
USER_CHARGES


@<TRIPOS>ATOM
  1 O        0.3120    -0.7020     0.4580 O.2   1 <1>  -0.5700 
  2 C        0.8070    -1.7670     0.1800 C.2   1 <1>   0.5690 
  3 N        2.1370    -2.0410     0.3160 N.am  1 <1>  -0.5470 
  4 C       -0.0700    -2.9060    -0.3430 C.3   1 <1>  -0.0190 
  5 C        3.2440    -1.2550     0.6700 C.ar  1 <1>   0.1170 
  6 C       -1.3020    -2.4070    -1.1240 C.3   1 <1>  -0.1600 
  7 C       -0.5170    -3.8290     0.8040 C.3   1 <1>  -0.1600 
  8 C        4.3980    -1.8570     1.1880 C.ar  1 <1>  -0.1440 
  9 C        3.2320     0.1230     0.4760 C.ar  1 <1>  -0.1500 
 10 C       -2.1610    -3.5720    -1.6210 C.3   1 <1>   0.1400 
 11 C       -1.3790    -4.9840     0.2890 C.3   1 <1>   0.1400 
 12 C        5.5020    -1.0690     1.4820 C.ar  1 <1>  -0.1500 
 13 C        4.4960    -3.3590     1.4850 C.3   1 <1>   0.1270 
 14 C        4.3360     0.8960     0.7760 C.ar  1 <1>  -0.1500 
 15 N       -2.5380    -4.4410    -0.4710 N.am  1 <1>  -0.6600 
 16 C        5.4760     0.2980     1.2780 C.ar  1 <1>  -0.1500 
 17 C        3.9530    -4.2590     0.3780 C.ar  1 <1>  -0.1440 
 18 C       -3.8240    -4.7250    -0.0860 C.2   1 <1>   0.5690 
 19 C        3.0370    -5.2580     0.6730 C.ar  1 <1>  -0.1500 
 20 C        4.3460    -4.0670    -0.9380 C.ar  1 <1>  -0.1500 
 21 O       -4.0730    -5.4640     0.8360 O.2   1 <1>  -0.5700 
 22 C       -5.0010    -4.1160    -0.8130 C.3   1 <1>  -0.1790 
 23 C        2.5110    -6.0460    -0.3350 C.ar  1 <1>  -0.1500 
 24 C        3.8210    -4.8550    -1.9470 C.ar  1 <1>  -0.1500 
 25 C        2.9010    -5.8430    -1.6470 C.ar  1 <1>  -0.1500 
 26 H        2.3970    -3.0060     0.0950 H     1 <1>   0.3700 
 27 H        0.5300    -3.4860    -1.0230 H     1 <1>   0.0800 
 28 H       -0.9810    -1.8150    -1.9630 H     1 <1>   0.0800 
 29 H       -1.9040    -1.7760    -0.4920 H     1 <1>   0.0800 
 30 H       -1.0860    -3.2650     1.5240 H     1 <1>   0.0800 
 31 H        0.3420    -4.2290     1.3110 H     1 <1>   0.0800 
 32 H        2.3540     0.6000     0.0800 H     1 <1>   0.1500 
 33 H       -1.6030    -4.1590    -2.3300 H     1 <1>   0.0800 
 34 H       -3.0280    -3.1850    -2.1240 H     1 <1>   0.0800 
 35 H       -1.7120    -5.5810     1.1220 H     1 <1>   0.0800 
 36 H       -0.7990    -5.6170    -0.3610 H     1 <1>   0.0800 
 37 H        6.3990    -1.5120     1.8810 H     1 <1>   0.1500 
 38 H        3.9620    -3.5480     2.4000 H     1 <1>   0.0800 
 39 H        5.5220    -3.6320     1.6560 H     1 <1>   0.0800 
 40 H        4.3070     1.9600     0.6190 H     1 <1>   0.1500 
 41 H        6.3400     0.8970     1.5110 H     1 <1>   0.1500 
 42 H        2.7270    -5.4290     1.6900 H     1 <1>   0.1500 
 43 H        5.0590    -3.2960    -1.1820 H     1 <1>   0.1500 
 44 H       -5.0040    -4.4390    -1.8360 H     1 <1>   0.0800 
 45 H       -4.9440    -3.0450    -0.7640 H     1 <1>   0.0800 
 46 H       -5.9160    -4.4330    -0.3490 H     1 <1>   0.0800 
 47 H        1.8030    -6.8220    -0.0990 H     1 <1>   0.1500 
 48 H        4.1310    -4.6980    -2.9670 H     1 <1>   0.1500 
 49 H        2.4950    -6.4570    -2.4320 H     1 <1>   0.1500 
@<TRIPOS>BOND
  1   1   2  2   
  2   2   3  am  
  3   2   4  1   
  4   3   5  1   
  5   3  26  1   
  6   4   6  1   
  7   4   7  1   
  8   4  27  1   
  9   5   8  ar  
 10   5   9  ar  
 11   6  10  1   
 12   6  28  1   
 13   6  29  1   
 14   7  11  1   
 15   7  30  1   
 16   7  31  1   
 17   8  12  ar  
 18   8  13  1   
 19   9  14  ar  
 20   9  32  1   
 21  10  15  1   
 22  10  33  1   
 23  10  34  1   
 24  11  15  1   
 25  11  35  1   
 26  11  36  1   
 27  12  16  ar  
 28  12  37  1   
 29  13  17  1   
 30  13  38  1   
 31  13  39  1   
 32  14  16  ar  
 33  14  40  1   
 34  15  18  am  
 35  16  41  1   
 36  17  19  ar  
 37  17  20  ar  
 38  18  21  2   
 39  18  22  1   
 40  19  23  ar  
 41  19  42  1   
 42  20  24  ar  
 43  20  43  1   
 44  22  44  1   
 45  22  45  1   
 46  22  46  1   
 47  23  25  ar  
 48  23  47  1   
 49  24  25  ar  
 50  24  48  1   
 51  25  49  1   
@<TRIPOS>SUBSTRUCTURE
  1 ****   3 GROUP 4 **** **** 0

# MOE 2024.06 (io_trps.svl 2023.06)
