@<TRIPOS>MOLECULE
NONAME
46 47 1 0 0 
SMALL
USER_CHARGES


@<TRIPOS>ATOM
  1 N       -0.2510    -0.4740     0.0300 N.4   1 <1>  -0.9590 
  2 C        0.1950    -1.6420     0.8420 C.3   1 <1>   0.3430 
  3 C        0.7620     0.6180    -0.0370 C.3   1 <1>   0.3430 
  4 C       -1.5490     0.0590     0.5660 C.3   1 <1>   0.2630 
  5 C        1.5040    -2.1990     0.2780 C.3   1 <1>  -0.1600 
  6 C        2.0800     0.0830    -0.6060 C.3   1 <1>  -0.1600 
  7 C        2.5890    -1.1170     0.2080 C.3   1 <1>   0.4230 
  8 N        3.8630    -1.7260    -0.3230 N.4   1 <1>  -0.9590 
  9 C        5.1200    -1.0520     0.1700 C.3   1 <1>   0.4230 
 10 C        3.8470    -2.0330    -1.8030 C.3   1 <1>   0.2630 
 11 C        5.6850     0.0170    -0.7820 C.3   1 <1>  -0.1600 
 12 C        6.1830    -2.1240     0.4260 C.3   1 <1>  -0.1600 
 13 C        6.9750     0.6220    -0.2210 C.3   1 <1>   0.3430 
 14 C        7.4770    -1.5100     0.9680 C.3   1 <1>   0.3430 
 15 N        7.9730    -0.4560     0.0370 N.4   1 <1>  -0.9590 
 16 C        9.2490     0.1370     0.5630 C.3   1 <1>   0.2630 
 17 H       -0.4480    -0.7980    -0.9310 H     1 <1>   0.4500 
 18 H       -0.5620    -2.4110     0.8260 H     1 <1>   0.0800 
 19 H        0.3380    -1.3380     1.8680 H     1 <1>   0.0800 
 20 H        0.9270     1.0200     0.9510 H     1 <1>   0.0800 
 21 H        0.3970     1.4190    -0.6630 H     1 <1>   0.0800 
 22 H       -1.4250     0.4190     1.5750 H     1 <1>   0.0800 
 23 H       -2.3010    -0.7150     0.5690 H     1 <1>   0.0800 
 24 H       -1.9040     0.8720    -0.0470 H     1 <1>   0.0800 
 25 H        1.3040    -2.6130    -0.6950 H     1 <1>   0.0800 
 26 H        1.8270    -2.9980     0.9220 H     1 <1>   0.0800 
 27 H        2.7920     0.8850    -0.5700 H     1 <1>   0.0800 
 28 H        1.9160    -0.1790    -1.6350 H     1 <1>   0.0800 
 29 H        2.7690    -0.7810     1.2180 H     1 <1>   0.0800 
 30 H        3.8930    -2.6550     0.1250 H     1 <1>   0.4500 
 31 H        4.9050    -0.5780     1.1160 H     1 <1>   0.0800 
 32 H        3.8080    -1.1230    -2.3800 H     1 <1>   0.0800 
 33 H        2.9910    -2.6360    -2.0580 H     1 <1>   0.0800 
 34 H        4.7350    -2.5760    -2.0850 H     1 <1>   0.0800 
 35 H        4.9810     0.8160    -0.9130 H     1 <1>   0.0800 
 36 H        5.9120    -0.3940    -1.7490 H     1 <1>   0.0800 
 37 H        6.4110    -2.6630    -0.4770 H     1 <1>   0.0800 
 38 H        5.8240    -2.8280     1.1560 H     1 <1>   0.0800 
 39 H        6.7650     1.1500     0.6970 H     1 <1>   0.0800 
 40 H        7.3780     1.3330    -0.9270 H     1 <1>   0.0800 
 41 H        8.2240    -2.2820     1.0790 H     1 <1>   0.0800 
 42 H        7.2980    -1.0800     1.9410 H     1 <1>   0.0800 
 43 H        8.2140    -0.9020    -0.8640 H     1 <1>   0.4500 
 44 H        9.0790     0.6240     1.5100 H     1 <1>   0.0800 
 45 H        9.6410     0.8630    -0.1310 H     1 <1>   0.0800 
 46 H        9.9920    -0.6330     0.7030 H     1 <1>   0.0800 
@<TRIPOS>BOND
  1   1   2  1   
  2   1   3  1   
  3   1   4  1   
  4   1  17  1   
  5   2   5  1   
  6   2  18  1   
  7   2  19  1   
  8   3   6  1   
  9   3  20  1   
 10   3  21  1   
 11   4  22  1   
 12   4  23  1   
 13   4  24  1   
 14   5   7  1   
 15   5  25  1   
 16   5  26  1   
 17   6   7  1   
 18   6  27  1   
 19   6  28  1   
 20   7   8  1   
 21   7  29  1   
 22   8   9  1   
 23   8  10  1   
 24   8  30  1   
 25   9  11  1   
 26   9  12  1   
 27   9  31  1   
 28  10  32  1   
 29  10  33  1   
 30  10  34  1   
 31  11  13  1   
 32  11  35  1   
 33  11  36  1   
 34  12  14  1   
 35  12  37  1   
 36  12  38  1   
 37  13  15  1   
 38  13  39  1   
 39  13  40  1   
 40  14  15  1   
 41  14  41  1   
 42  14  42  1   
 43  15  16  1   
 44  15  43  1   
 45  16  44  1   
 46  16  45  1   
 47  16  46  1   
@<TRIPOS>SUBSTRUCTURE
  1 ****   8 GROUP 4 **** **** 0

# MOE 2024.06 (io_trps.svl 2023.06)
