@<TRIPOS>MOLECULE
NONAME
46 48 1 0 0 
SMALL
USER_CHARGES


@<TRIPOS>ATOM
  1 CL      -0.4870    -0.5520    -0.0580 Cl    1 <1>  -0.1770 
  2 C       -2.0550    -1.2770    -0.3210 C.ar  1 <1>   0.1770 
  3 C       -2.2340    -2.1440    -1.3820 C.ar  1 <1>  -0.1500 
  4 C       -3.0960    -0.9730     0.5380 C.ar  1 <1>  -0.1500 
  5 C       -3.4790    -2.7140    -1.5840 C.ar  1 <1>  -0.1500 
  6 C       -4.3360    -1.5490     0.3270 C.ar  1 <1>  -0.1500 
  7 C       -4.5430    -2.4260    -0.7360 C.ar  1 <1>   0.1000 
  8 N       -5.7790    -3.0240    -0.9700 N.pl3 1 <1>  -0.8380 
  9 C       -7.0520    -2.2520    -0.8420 C.3   1 <1>   0.2090 
 10 C       -5.9250    -4.4850    -0.6990 C.3   1 <1>   0.2090 
 11 C       -7.8210    -2.6070     0.4480 C.3   1 <1>   0.1100 
 12 C       -6.7090    -4.7460     0.6020 C.3   1 <1>   0.1100 
 13 N       -8.0260    -4.0700     0.6070 N.3   1 <1>  -0.8100 
 14 C       -8.7690    -4.3680     1.8700 C.3   1 <1>   0.1710 
 15 C      -10.2570    -4.0190     1.8050 C.2   1 <1>   0.5690 
 16 O      -10.8480    -3.7780     2.8300 O.2   1 <1>  -0.5700 
 17 N      -10.8160    -3.9990     0.5590 N.am  1 <1>  -0.5470 
 18 C      -12.1070    -3.7270     0.0820 C.ar  1 <1>   0.1170 
 19 C      -13.2080    -3.5450     0.9130 C.ar  1 <1>  -0.1500 
 20 C      -12.2990    -3.6390    -1.2910 C.ar  1 <1>  -0.1500 
 21 C      -14.4580    -3.2780     0.3860 C.ar  1 <1>  -0.1500 
 22 C      -13.5490    -3.3730    -1.8210 C.ar  1 <1>  -0.1500 
 23 C      -14.6370    -3.1880    -0.9840 C.ar  1 <1>  -0.1430 
 24 C      -16.0110    -2.8970    -1.5610 C.3   1 <1>  -0.0970 
 25 H       -1.4120    -2.3650    -2.0380 H     1 <1>   0.1500 
 26 H       -2.9310    -0.2960     1.3560 H     1 <1>   0.1500 
 27 H       -3.6410    -3.3840    -2.4080 H     1 <1>   0.1500 
 28 H       -5.1460    -1.3240     0.9930 H     1 <1>   0.1500 
 29 H       -7.6750    -2.4710    -1.6910 H     1 <1>   0.0800 
 30 H       -6.8390    -1.1970    -0.8580 H     1 <1>   0.0800 
 31 H       -4.9520    -4.9390    -0.6240 H     1 <1>   0.0800 
 32 H       -6.4420    -4.9440    -1.5230 H     1 <1>   0.0800 
 33 H       -8.7730    -2.1060     0.4240 H     1 <1>   0.0800 
 34 H       -7.2720    -2.2250     1.2910 H     1 <1>   0.0800 
 35 H       -6.1170    -4.4040     1.4340 H     1 <1>   0.0800 
 36 H       -6.8510    -5.8070     0.7070 H     1 <1>   0.0800 
 37 H       -8.3230    -3.8410     2.6950 H     1 <1>   0.0800 
 38 H       -8.7060    -5.4210     2.0780 H     1 <1>   0.0800 
 39 H      -10.1040    -4.1710    -0.1570 H     1 <1>   0.3700 
 40 H      -13.0970    -3.6110     1.9790 H     1 <1>   0.1500 
 41 H      -11.4660    -3.7790    -1.9540 H     1 <1>   0.1500 
 42 H      -15.2930    -3.1420     1.0510 H     1 <1>   0.1500 
 43 H      -13.6720    -3.3100    -2.8880 H     1 <1>   0.1500 
 44 H      -15.9240    -2.3850    -2.5020 H     1 <1>   0.0800 
 45 H      -16.5750    -2.2750    -0.8890 H     1 <1>   0.0800 
 46 H      -16.5440    -3.8180    -1.7130 H     1 <1>   0.0800 
@<TRIPOS>BOND
  1   1   2  1   
  2   2   3  ar  
  3   2   4  ar  
  4   3   5  ar  
  5   3  25  1   
  6   4   6  ar  
  7   4  26  1   
  8   5   7  ar  
  9   5  27  1   
 10   6   7  ar  
 11   6  28  1   
 12   7   8  1   
 13   8   9  1   
 14   8  10  1   
 15   9  11  1   
 16   9  29  1   
 17   9  30  1   
 18  10  12  1   
 19  10  31  1   
 20  10  32  1   
 21  11  13  1   
 22  11  33  1   
 23  11  34  1   
 24  12  13  1   
 25  12  35  1   
 26  12  36  1   
 27  13  14  1   
 28  14  15  1   
 29  14  37  1   
 30  14  38  1   
 31  15  16  2   
 32  15  17  am  
 33  17  18  1   
 34  17  39  1   
 35  18  19  ar  
 36  18  20  ar  
 37  19  21  ar  
 38  19  40  1   
 39  20  22  ar  
 40  20  41  1   
 41  21  23  ar  
 42  21  42  1   
 43  22  23  ar  
 44  22  43  1   
 45  23  24  1   
 46  24  44  1   
 47  24  45  1   
 48  24  46  1   
@<TRIPOS>SUBSTRUCTURE
  1 ****  11 GROUP 4 **** **** 0

# MOE 2024.06 (io_trps.svl 2023.06)
