@<TRIPOS>MOLECULE
NONAME
33 35 1 0 0 
SMALL
USER_CHARGES


@<TRIPOS>ATOM
  1 F       -0.6170    -0.0630     0.2920 F     1 <1>  -0.1900 
  2 C       -1.7390    -0.7160     0.1140 C.ar  1 <1>   0.1900 
  3 C       -2.9510    -0.0570     0.2290 C.ar  1 <1>   0.1900 
  4 C       -1.6860    -2.0630    -0.1870 C.ar  1 <1>  -0.1500 
  5 F       -2.9890     1.2220     0.5140 F     1 <1>  -0.1900 
  6 C       -4.1420    -0.7350     0.0470 C.ar  1 <1>  -0.1500 
  7 C       -2.8770    -2.7630    -0.3790 C.ar  1 <1>   0.1170 
  8 C       -4.0910    -2.0870    -0.2560 C.ar  1 <1>  -0.1500 
  9 N       -2.9380    -4.1260    -0.6860 N.am  1 <1>  -0.5470 
 10 C       -2.0050    -5.0880    -0.9430 C.2   1 <1>   0.5690 
 11 O       -0.8360    -4.8070    -1.0840 O.2   1 <1>  -0.5700 
 12 C       -2.3940    -6.5610    -1.1580 C.3   1 <1>  -0.0190 
 13 C       -3.7660    -7.1660    -0.7230 C.3   1 <1>  -0.1860 
 14 C       -1.4510    -7.4370    -0.3170 C.3   1 <1>   0.2000 
 15 C       -4.9030    -6.2580    -0.3100 C.2   1 <1>   0.9060 
 16 C       -3.3320    -8.1370     0.3850 C.3   1 <1>   0.2000 
 17 O       -2.1680    -7.5580     0.8490 O.3   1 <1>  -0.5600 
 18 C       -1.4340    -8.8950    -0.7990 C.3   1 <1>  -0.1600 
 19 O       -5.2700    -5.4060    -1.1270 O.co2 1 <1>  -0.9000 
 20 O       -5.4570    -6.3750     0.7820 O.co2 1 <1>  -0.9000 
 21 C       -2.7630    -9.4130    -0.2400 C.3   1 <1>  -0.1600 
 22 H       -0.7350    -2.5520    -0.2650 H     1 <1>   0.1500 
 23 H       -5.0820    -0.2230     0.1400 H     1 <1>   0.1500 
 24 H       -5.0060    -2.6420    -0.3980 H     1 <1>   0.1500 
 25 H       -3.9110    -4.4730    -0.7750 H     1 <1>   0.3700 
 26 H       -2.2320    -6.7600    -2.2000 H     1 <1>   0.0800 
 27 H       -4.1710    -7.7320    -1.5390 H     1 <1>   0.0800 
 28 H       -0.4740    -7.0260    -0.1280 H     1 <1>   0.0800 
 29 H       -4.0400    -8.2970     1.1820 H     1 <1>   0.0800 
 30 H       -0.6020    -9.4170    -0.3600 H     1 <1>   0.0800 
 31 H       -1.3770    -8.9600    -1.8710 H     1 <1>   0.0800 
 32 H       -3.4100    -9.8230    -0.9940 H     1 <1>   0.0800 
 33 H       -2.5980   -10.1460     0.5300 H     1 <1>   0.0800 
@<TRIPOS>BOND
  1   1   2  1   
  2   2   3  ar  
  3   2   4  ar  
  4   3   5  1   
  5   3   6  ar  
  6   4   7  ar  
  7   4  22  1   
  8   6   8  ar  
  9   6  23  1   
 10   7   8  ar  
 11   7   9  1   
 12   8  24  1   
 13   9  10  am  
 14   9  25  1   
 15  10  11  2   
 16  10  12  1   
 17  12  13  1   
 18  12  14  1   
 19  12  26  1   
 20  13  15  1   
 21  13  16  1   
 22  13  27  1   
 23  14  17  1   
 24  14  18  1   
 25  14  28  1   
 26  15  19  ar  
 27  15  20  ar  
 28  16  17  1   
 29  16  21  1   
 30  16  29  1   
 31  18  21  1   
 32  18  30  1   
 33  18  31  1   
 34  21  32  1   
 35  21  33  1   
@<TRIPOS>SUBSTRUCTURE
  1 ****   9 GROUP 4 **** **** 0

# MOE 2024.06 (io_trps.svl 2023.06)
