@<TRIPOS>MOLECULE
NONAME
33 33 1 0 0 
SMALL
USER_CHARGES


@<TRIPOS>ATOM
  1 CL      -1.4160     0.9120    -1.6990 Cl    1 <1>  -0.1770 
  2 C       -2.2670     0.3900    -0.2690 C.ar  1 <1>   0.1770 
  3 C       -2.9780    -0.7910    -0.3030 C.ar  1 <1>  -0.1500 
  4 C       -2.2070     1.1650     0.8740 C.ar  1 <1>  -0.1500 
  5 C       -3.6480    -1.2270     0.8340 C.ar  1 <1>   0.1990 
  6 C       -2.8800     0.7430     2.0090 C.ar  1 <1>  -0.1500 
  7 N       -4.3390    -2.4340     0.8440 N.am  1 <1>  -0.6930 
  8 C       -3.5940    -0.4430     1.9830 C.ar  1 <1>  -0.1500 
  9 S       -5.6920    -2.6990    -0.2180 S.o2  1 <1>   1.3330 
 10 C       -3.7550    -3.5530     1.6520 C.3   1 <1>   0.3370 
 11 O       -5.8670    -1.4880    -0.9810 O.2   1 <1>  -0.6500 
 12 O       -6.7890    -3.2230     0.5570 O.2   1 <1>  -0.6500 
 13 C       -5.1380    -3.9460    -1.3620 C.3   1 <1>  -0.1350 
 14 C       -2.8900    -4.5020     0.7910 C.2   1 <1>   0.5690 
 15 C       -4.8120    -4.2540     2.5170 C.3   1 <1>  -0.2400 
 16 O       -3.1800    -5.6720     0.6910 O.2   1 <1>  -0.5700 
 17 N       -1.8150    -3.9830     0.1290 N.am  1 <1>  -0.7300 
 18 C       -0.8750    -4.7510    -0.7280 C.3   1 <1>   0.0600 
 19 H       -3.0170    -1.3620    -1.2110 H     1 <1>   0.1500 
 20 H       -1.6460     2.0830     0.8720 H     1 <1>   0.1500 
 21 H       -2.8510     1.3390     2.9060 H     1 <1>   0.1500 
 22 H       -4.1260    -0.7660     2.8600 H     1 <1>   0.1500 
 23 H       -3.0660    -3.1090     2.3490 H     1 <1>   0.0800 
 24 H       -4.1970    -3.6690    -1.7950 H     1 <1>   0.0800 
 25 H       -5.8570    -4.0590    -2.1490 H     1 <1>   0.0800 
 26 H       -5.0350    -4.8920    -0.8690 H     1 <1>   0.0800 
 27 H       -5.4480    -4.8810     1.9180 H     1 <1>   0.0800 
 28 H       -5.4100    -3.5310     3.0410 H     1 <1>   0.0800 
 29 H       -4.3240    -4.8850     3.2370 H     1 <1>   0.0800 
 30 H       -1.6180    -2.9820     0.2170 H     1 <1>   0.3700 
 31 H       -1.1570    -5.7900    -0.7610 H     1 <1>   0.0800 
 32 H        0.1230    -4.6770    -0.3310 H     1 <1>   0.0800 
 33 H       -0.8880    -4.3560    -1.7290 H     1 <1>   0.0800 
@<TRIPOS>BOND
  1   1   2  1   
  2   2   3  ar  
  3   2   4  ar  
  4   3   5  ar  
  5   3  19  1   
  6   4   6  ar  
  7   4  20  1   
  8   5   7  1   
  9   5   8  ar  
 10   6   8  ar  
 11   6  21  1   
 12   7   9  am  
 13   7  10  1   
 14   8  22  1   
 15   9  11  2   
 16   9  12  2   
 17   9  13  1   
 18  10  14  1   
 19  10  15  1   
 20  10  23  1   
 21  13  24  1   
 22  13  25  1   
 23  13  26  1   
 24  14  16  2   
 25  14  17  am  
 26  15  27  1   
 27  15  28  1   
 28  15  29  1   
 29  17  18  1   
 30  17  30  1   
 31  18  31  1   
 32  18  32  1   
 33  18  33  1   
@<TRIPOS>SUBSTRUCTURE
  1 ****   7 GROUP 4 **** **** 0

# MOE 2024.06 (io_trps.svl 2023.06)
