@<TRIPOS>MOLECULE
NONAME
49 51 1 0 0 
SMALL
USER_CHARGES


@<TRIPOS>ATOM
  1 P        0.3710     0.1440     0.6940 P.3   1 <1>   1.2420 
  2 O        0.0280     0.9770     1.8500 O.2   1 <1>  -0.7000 
  3 O        0.0150     0.8790    -0.6930 O.3   1 <1>  -0.5510 
  4 O       -0.5700    -1.1620     0.5870 O.3   1 <1>  -0.5510 
  5 C        2.0950    -0.4290     0.5080 C.3   1 <1>   0.4330 
  6 C       -1.3170     0.9300    -1.0600 C.3   1 <1>   0.1200 
  7 C       -1.0010    -1.6000    -0.6540 C.3   1 <1>   0.1200 
  8 N        2.6650    -1.3990     1.5080 N.pl3 1 <1>  -0.8690 
  9 C        3.1320     0.6920     0.4380 C.ar  1 <1>  -0.1430 
 10 C       -1.8280    -0.4960    -1.3320 C.3   1 <1>  -0.1600 
 11 C        2.9050    -2.6800     1.0410 C.ar  1 <1>   0.1000 
 12 C        3.2320     1.6300     1.4580 C.ar  1 <1>  -0.1500 
 13 C        4.0030     0.7740    -0.6400 C.ar  1 <1>  -0.1500 
 14 C        4.1870    -3.0680     0.6790 C.ar  1 <1>  -0.1500 
 15 C        1.8660    -3.5900     0.9150 C.ar  1 <1>  -0.1500 
 16 C        4.1800     2.6350     1.3930 C.ar  1 <1>  -0.1500 
 17 C        4.9530     1.7790    -0.7060 C.ar  1 <1>  -0.1500 
 18 C        4.4220    -4.3370     0.1820 C.ar  1 <1>  -0.1500 
 19 C        2.0990    -4.8590     0.4180 C.ar  1 <1>  -0.1500 
 20 C        5.0450     2.7190     0.3160 C.ar  1 <1>   0.0830 
 21 C        3.3780    -5.2400     0.0430 C.ar  1 <1>  -0.1430 
 22 O        5.9440     3.7350     0.3310 O.3   1 <1>  -0.3630 
 23 C        3.6380    -6.6330    -0.5000 C.3   1 <1>  -0.0970 
 24 C        6.8370     3.9430    -0.7380 C.3   1 <1>   0.1200 
 25 C        7.6800     5.1730    -0.4160 C.3   1 <1>  -0.2400 
 26 H        2.1360    -0.9280    -0.4430 H     1 <1>   0.0800 
 27 H       -1.4050     1.5480    -1.9370 H     1 <1>   0.0800 
 28 H       -1.8660     1.3860    -0.2520 H     1 <1>   0.0800 
 29 H       -1.5890    -2.4910    -0.5120 H     1 <1>   0.0800 
 30 H       -0.1330    -1.8450    -1.2430 H     1 <1>   0.0800 
 31 H        3.4930    -0.9590     1.9260 H     1 <1>   0.4000 
 32 H       -1.8370    -0.6730    -2.3920 H     1 <1>   0.0800 
 33 H       -2.8490    -0.5640    -1.0010 H     1 <1>   0.0800 
 34 H        2.5720     1.5870     2.3100 H     1 <1>   0.1500 
 35 H        3.9510     0.0530    -1.4380 H     1 <1>   0.1500 
 36 H        5.0000    -2.3730     0.7830 H     1 <1>   0.1500 
 37 H        0.8770    -3.3000     1.2190 H     1 <1>   0.1500 
 38 H        4.2540     3.3630     2.1810 H     1 <1>   0.1500 
 39 H        5.6090     1.8130    -1.5550 H     1 <1>   0.1500 
 40 H        5.4210    -4.6220    -0.0960 H     1 <1>   0.1500 
 41 H        1.2810    -5.5520     0.3290 H     1 <1>   0.1500 
 42 H        4.4310    -6.6100    -1.2260 H     1 <1>   0.0800 
 43 H        2.7560    -7.0230    -0.9750 H     1 <1>   0.0800 
 44 H        3.9200    -7.2890     0.3030 H     1 <1>   0.0800 
 45 H        6.2630     4.0990    -1.6350 H     1 <1>   0.0800 
 46 H        7.4590     3.0700    -0.8370 H     1 <1>   0.0800 
 47 H        7.0460     6.0340    -0.3010 H     1 <1>   0.0800 
 48 H        8.3730     5.3600    -1.2150 H     1 <1>   0.0800 
 49 H        8.2350     5.0120     0.4910 H     1 <1>   0.0800 
@<TRIPOS>BOND
  1   1   2  2   
  2   1   3  1   
  3   1   4  1   
  4   1   5  1   
  5   3   6  1   
  6   4   7  1   
  7   5   8  1   
  8   5   9  1   
  9   5  26  1   
 10   6  10  1   
 11   6  27  1   
 12   6  28  1   
 13   7  10  1   
 14   7  29  1   
 15   7  30  1   
 16   8  11  1   
 17   8  31  1   
 18   9  12  ar  
 19   9  13  ar  
 20  10  32  1   
 21  10  33  1   
 22  11  14  ar  
 23  11  15  ar  
 24  12  16  ar  
 25  12  34  1   
 26  13  17  ar  
 27  13  35  1   
 28  14  18  ar  
 29  14  36  1   
 30  15  19  ar  
 31  15  37  1   
 32  16  20  ar  
 33  16  38  1   
 34  17  20  ar  
 35  17  39  1   
 36  18  21  ar  
 37  18  40  1   
 38  19  21  ar  
 39  19  41  1   
 40  20  22  1   
 41  21  23  1   
 42  22  24  1   
 43  23  42  1   
 44  23  43  1   
 45  23  44  1   
 46  24  25  1   
 47  24  45  1   
 48  24  46  1   
 49  25  47  1   
 50  25  48  1   
 51  25  49  1   
@<TRIPOS>SUBSTRUCTURE
  1 ****   5 GROUP 4 **** **** 0

# MOE 2024.06 (io_trps.svl 2023.06)
