@<TRIPOS>MOLECULE
NONAME
53 55 1 0 0 
SMALL
USER_CHARGES


@<TRIPOS>ATOM
  1 O       -0.6180    -1.3090    -0.4930 O.3   1 <1>  -0.3630 
  2 C       -1.9090    -1.7170    -0.3800 C.ar  1 <1>   0.0830 
  3 C       -0.0320    -1.0170    -1.7420 C.3   1 <1>   0.0400 
  4 C       -2.3600    -2.0900     0.8830 C.ar  1 <1>  -0.1440 
  5 C       -2.7800    -1.7750    -1.4650 C.ar  1 <1>  -0.1500 
  6 C       -3.6690    -2.5110     1.0490 C.ar  1 <1>  -0.1500 
  7 C       -1.4180    -2.0440     2.0790 C.3   1 <1>  -0.0960 
  8 C       -4.0860    -2.1940    -1.2890 C.ar  1 <1>  -0.1500 
  9 C       -4.5400    -2.5580    -0.0300 C.ar  1 <1>  -0.1440 
 10 C       -5.9780    -2.9910     0.1680 C.3   1 <1>   0.4860 
 11 N       -6.7010    -1.9070     0.8840 N.4   1 <1>  -0.9590 
 12 C       -8.0960    -2.3180     1.2780 C.3   1 <1>   0.3430 
 13 C       -6.7170    -0.6210     0.0890 C.3   1 <1>   0.3430 
 14 C       -8.8480    -1.2110     2.0450 C.3   1 <1>   0.2090 
 15 C       -7.4460     0.5240     0.8210 C.3   1 <1>   0.2090 
 16 N       -8.7810     0.0960     1.3310 N.pl3 1 <1>  -0.8380 
 17 C       -9.9090     0.4920     0.6120 C.ar  1 <1>   0.1000 
 18 C      -10.7770     1.4580     1.1230 C.ar  1 <1>  -0.1430 
 19 C      -10.1860    -0.0750    -0.6280 C.ar  1 <1>  -0.1500 
 20 C      -11.8920     1.8320     0.3940 C.ar  1 <1>  -0.1500 
 21 C      -10.5120     2.1080     2.4740 C.3   1 <1>  -0.0970 
 22 C      -11.3010     0.3000    -1.3560 C.ar  1 <1>  -0.1430 
 23 C      -12.1540     1.2580    -0.8370 C.ar  1 <1>  -0.1500 
 24 C      -11.6050    -0.3180    -2.7090 C.3   1 <1>  -0.0970 
 25 H       -0.5460    -0.1820    -2.1840 H     1 <1>   0.0800 
 26 H       -0.0930    -1.8880    -2.3700 H     1 <1>   0.0800 
 27 H        0.9990    -0.7610    -1.5730 H     1 <1>   0.0800 
 28 H       -2.4540    -1.4990    -2.4500 H     1 <1>   0.1500 
 29 H       -3.9980    -2.8060     2.0300 H     1 <1>   0.1500 
 30 H       -1.0570    -1.0410     2.2200 H     1 <1>   0.0800 
 31 H       -0.5740    -2.6870     1.9000 H     1 <1>   0.0800 
 32 H       -1.9060    -2.3650     2.9810 H     1 <1>   0.0800 
 33 H       -4.7360    -2.2340    -2.1470 H     1 <1>   0.1500 
 34 H       -5.9980    -3.9000     0.7480 H     1 <1>   0.0800 
 35 H       -6.4400    -3.1840    -0.7860 H     1 <1>   0.0800 
 36 H       -6.1670    -1.7070     1.7390 H     1 <1>   0.4500 
 37 H       -8.0610    -3.2030     1.8910 H     1 <1>   0.0800 
 38 H       -8.6650    -2.5520     0.3940 H     1 <1>   0.0800 
 39 H       -7.2140    -0.7860    -0.8520 H     1 <1>   0.0800 
 40 H       -5.7080    -0.3070    -0.1250 H     1 <1>   0.0800 
 41 H       -8.4260    -1.0950     3.0280 H     1 <1>   0.0800 
 42 H       -9.8790    -1.4970     2.1670 H     1 <1>   0.0800 
 43 H       -7.5710     1.3560     0.1470 H     1 <1>   0.0800 
 44 H       -6.8480     0.8660     1.6470 H     1 <1>   0.0800 
 45 H       -9.5240    -0.8160    -1.0260 H     1 <1>   0.1500 
 46 H      -12.5680     2.5750     0.7790 H     1 <1>   0.1500 
 47 H      -10.5170     1.3590     3.2450 H     1 <1>   0.0800 
 48 H      -11.2600     2.8440     2.7050 H     1 <1>   0.0800 
 49 H       -9.5500     2.5880     2.4640 H     1 <1>   0.0800 
 50 H      -13.0270     1.5620    -1.3890 H     1 <1>   0.1500 
 51 H      -10.8620    -1.0460    -2.9800 H     1 <1>   0.0800 
 52 H      -11.6250     0.4480    -3.4630 H     1 <1>   0.0800 
 53 H      -12.5650    -0.8010    -2.6820 H     1 <1>   0.0800 
@<TRIPOS>BOND
  1   1   2  1   
  2   1   3  1   
  3   2   4  ar  
  4   2   5  ar  
  5   3  25  1   
  6   3  26  1   
  7   3  27  1   
  8   4   6  ar  
  9   4   7  1   
 10   5   8  ar  
 11   5  28  1   
 12   6   9  ar  
 13   6  29  1   
 14   7  30  1   
 15   7  31  1   
 16   7  32  1   
 17   8   9  ar  
 18   8  33  1   
 19   9  10  1   
 20  10  11  1   
 21  10  34  1   
 22  10  35  1   
 23  11  12  1   
 24  11  13  1   
 25  11  36  1   
 26  12  14  1   
 27  12  37  1   
 28  12  38  1   
 29  13  15  1   
 30  13  39  1   
 31  13  40  1   
 32  14  16  1   
 33  14  41  1   
 34  14  42  1   
 35  15  16  1   
 36  15  43  1   
 37  15  44  1   
 38  16  17  1   
 39  17  18  ar  
 40  17  19  ar  
 41  18  20  ar  
 42  18  21  1   
 43  19  22  ar  
 44  19  45  1   
 45  20  23  ar  
 46  20  46  1   
 47  21  47  1   
 48  21  48  1   
 49  21  49  1   
 50  22  23  ar  
 51  22  24  1   
 52  23  50  1   
 53  24  51  1   
 54  24  52  1   
 55  24  53  1   
@<TRIPOS>SUBSTRUCTURE
  1 ****  13 GROUP 4 **** **** 0

# MOE 2024.06 (io_trps.svl 2023.06)
