@<TRIPOS>MOLECULE
NONAME
27 28 1 0 0 
SMALL
USER_CHARGES


@<TRIPOS>ATOM
  1 N       -2.8700     1.0420    -0.7460 N.2   1 <1>  -0.2650 
  2 N       -3.8970     1.4700     0.2190 N.4   1 <1>  -0.5550 
  3 C       -2.0890     1.9890    -1.0400 C.2   1 <1>   0.4390 
  4 C       -5.2990     1.2090    -0.2650 C.ar  1 <1>   0.3640 
  5 C       -3.6730     2.9410     0.4000 C.3   1 <1>   0.3430 
  6 C       -3.6600     0.6970     1.4710 C.3   1 <1>   0.2630 
  7 N       -1.0370     1.9100    -1.9020 N.pl3 1 <1>  -0.8500 
  8 C       -2.3860     3.2770    -0.3420 C.3   1 <1>  -0.0990 
  9 C       -6.3650     1.6730     0.4960 C.ar  1 <1>  -0.1500 
 10 C       -5.5610     0.5170    -1.4410 C.ar  1 <1>  -0.1500 
 11 C       -7.6700     1.4560     0.0870 C.ar  1 <1>  -0.1500 
 12 C       -6.8650     0.3000    -1.8510 C.ar  1 <1>  -0.1500 
 13 C       -7.9190     0.7700    -1.0880 C.ar  1 <1>  -0.1500 
 14 H       -3.6030     3.1940     1.4440 H     1 <1>   0.0800 
 15 H       -4.4940     3.4850    -0.0360 H     1 <1>   0.0800 
 16 H       -4.3520     1.0040     2.2360 H     1 <1>   0.0800 
 17 H       -2.6540     0.8580     1.8190 H     1 <1>   0.0800 
 18 H       -3.8030    -0.3530     1.2770 H     1 <1>   0.0800 
 19 H       -0.8320     1.0350    -2.3950 H     1 <1>   0.4000 
 20 H       -0.4290     2.7000    -2.1360 H     1 <1>   0.4000 
 21 H       -2.5430     4.0770    -1.0410 H     1 <1>   0.0800 
 22 H       -1.5990     3.5290     0.3440 H     1 <1>   0.0800 
 23 H       -6.1970     2.2050     1.4140 H     1 <1>   0.1500 
 24 H       -4.7650     0.1360    -2.0540 H     1 <1>   0.1500 
 25 H       -8.4950     1.8180     0.6790 H     1 <1>   0.1500 
 26 H       -7.0630    -0.2370    -2.7650 H     1 <1>   0.1500 
 27 H       -8.9340     0.6000    -1.4090 H     1 <1>   0.1500 
@<TRIPOS>BOND
  1   1   2  1   
  2   1   3  2   
  3   2   4  1   
  4   2   5  1   
  5   2   6  1   
  6   3   7  1   
  7   3   8  1   
  8   4   9  ar  
  9   4  10  ar  
 10   5   8  1   
 11   5  14  1   
 12   5  15  1   
 13   6  16  1   
 14   6  17  1   
 15   6  18  1   
 16   7  19  1   
 17   7  20  1   
 18   8  21  1   
 19   8  22  1   
 20   9  11  ar  
 21   9  23  1   
 22  10  12  ar  
 23  10  24  1   
 24  11  13  ar  
 25  11  25  1   
 26  12  13  ar  
 27  12  26  1   
 28  13  27  1   
@<TRIPOS>SUBSTRUCTURE
  1 ****   4 GROUP 4 **** **** 0

# MOE 2024.06 (io_trps.svl 2023.06)
