@<TRIPOS>MOLECULE
NONAME
38 38 1 0 0 
SMALL
USER_CHARGES


@<TRIPOS>ATOM
  1 O        0.0470    -3.6650     0.6920 O.2   1 <1>  -0.5700 
  2 C       -0.6170    -2.9760    -0.0470 C.2   1 <1>   0.5690 
  3 N       -0.0710    -2.4430    -1.1730 N.am  1 <1>  -0.7300 
  4 C       -2.0450    -2.6180     0.3330 C.3   1 <1>   0.1810 
  5 C        1.2570    -2.7640    -1.7440 C.3   1 <1>   0.1400 
  6 O       -2.1850    -1.2060     0.3350 O.3   1 <1>  -0.3620 
  7 C        2.2590    -1.6360    -1.4600 C.3   1 <1>  -0.1600 
  8 C       -3.3680    -0.6220     0.6460 C.ar  1 <1>   0.0820 
  9 C        2.9720    -1.7280    -0.1010 C.3   1 <1>   0.3430 
 10 C       -4.4930    -1.3270     1.0690 C.ar  1 <1>  -0.1500 
 11 C       -3.4340     0.7580     0.5260 C.ar  1 <1>  -0.1500 
 12 N        2.0320    -1.6990     1.0510 N.4   1 <1>  -0.9590 
 13 C       -5.6620    -0.6490     1.3670 C.ar  1 <1>  -0.1500 
 14 C       -4.6040     1.4330     0.8240 C.ar  1 <1>  -0.1500 
 15 C        1.2770    -0.4140     1.1770 C.3   1 <1>   0.2630 
 16 C        2.7150    -2.0500     2.3290 C.3   1 <1>   0.2630 
 17 C       -5.7190     0.7290     1.2450 C.ar  1 <1>  -0.1500 
 18 H       -0.6620    -1.8280    -1.7440 H     1 <1>   0.3700 
 19 H       -2.2620    -2.9870     1.3190 H     1 <1>   0.0800 
 20 H       -2.7330    -3.0330    -0.3800 H     1 <1>   0.0800 
 21 H        1.1440    -2.8830    -2.8090 H     1 <1>   0.0800 
 22 H        1.6170    -3.7010    -1.3480 H     1 <1>   0.0800 
 23 H        1.7960    -0.6750    -1.5920 H     1 <1>   0.0800 
 24 H        3.0300    -1.7040    -2.2070 H     1 <1>   0.0800 
 25 H        3.6750    -0.9160    -0.0120 H     1 <1>   0.0800 
 26 H        3.5300    -2.6510    -0.0730 H     1 <1>   0.0800 
 27 H       -4.4860    -2.3940     1.1770 H     1 <1>   0.1500 
 28 H       -2.5700     1.3040     0.1970 H     1 <1>   0.1500 
 29 H        1.3300    -2.4530     0.8720 H     1 <1>   0.4500 
 30 H       -6.5310    -1.1920     1.6960 H     1 <1>   0.1500 
 31 H       -4.6500     2.5040     0.7290 H     1 <1>   0.1500 
 32 H        1.9560     0.4080     1.3320 H     1 <1>   0.0800 
 33 H        0.5940    -0.4650     2.0090 H     1 <1>   0.0800 
 34 H        0.7030    -0.2310     0.2830 H     1 <1>   0.0800 
 35 H        3.4620    -1.3120     2.5720 H     1 <1>   0.0800 
 36 H        3.1910    -3.0140     2.2430 H     1 <1>   0.0800 
 37 H        1.9970    -2.0960     3.1320 H     1 <1>   0.0800 
 38 H       -6.6300     1.2530     1.4780 H     1 <1>   0.1500 
@<TRIPOS>BOND
  1   1   2  2   
  2   2   3  am  
  3   2   4  1   
  4   3   5  1   
  5   3  18  1   
  6   4   6  1   
  7   4  19  1   
  8   4  20  1   
  9   5   7  1   
 10   5  21  1   
 11   5  22  1   
 12   6   8  1   
 13   7   9  1   
 14   7  23  1   
 15   7  24  1   
 16   8  10  ar  
 17   8  11  ar  
 18   9  12  1   
 19   9  25  1   
 20   9  26  1   
 21  10  13  ar  
 22  10  27  1   
 23  11  14  ar  
 24  11  28  1   
 25  12  15  1   
 26  12  16  1   
 27  12  29  1   
 28  13  17  ar  
 29  13  30  1   
 30  14  17  ar  
 31  14  31  1   
 32  15  32  1   
 33  15  33  1   
 34  15  34  1   
 35  16  35  1   
 36  16  36  1   
 37  16  37  1   
 38  17  38  1   
@<TRIPOS>SUBSTRUCTURE
  1 ****   6 GROUP 4 **** **** 0

# MOE 2024.06 (io_trps.svl 2023.06)
