@<TRIPOS>MOLECULE
NONAME
49 51 1 0 0 
SMALL
USER_CHARGES


@<TRIPOS>ATOM
  1 O       -0.2190    -0.0060    -0.0430 O.2   1 <1>  -0.5700 
  2 C       -0.2200     1.2060    -0.1250 C.2   1 <1>   0.5440 
  3 N       -1.4060     1.8980    -0.2370 N.am  1 <1>  -0.5470 
  4 C        1.0300     1.9380    -0.0980 C.ar  1 <1>   0.0860 
  5 C       -2.7400     1.4640    -0.3300 C.ar  1 <1>   0.1170 
  6 C        2.0840     1.5050     0.7150 C.ar  1 <1>  -0.1500 
  7 C        1.2270     3.0930    -0.8750 C.ar  1 <1>  -0.1500 
  8 C       -3.1800     0.2340     0.1450 C.ar  1 <1>  -0.1500 
  9 C       -3.6710     2.3150    -0.9110 C.ar  1 <1>  -0.1500 
 10 C        3.2580     2.2270     0.7400 C.ar  1 <1>   0.0830 
 11 C        2.4150     3.8100    -0.8390 C.ar  1 <1>  -0.1500 
 12 C       -4.5120    -0.1460     0.0320 C.ar  1 <1>   0.0830 
 13 C       -5.0000     1.9500    -1.0220 C.ar  1 <1>  -0.1500 
 14 O        4.3660     1.9850     1.4480 O.3   1 <1>  -0.3630 
 15 C        3.4210     3.3520    -0.0140 C.ar  1 <1>   0.0830 
 16 O       -4.9770    -1.3560     0.4730 O.3   1 <1>  -0.3630 
 17 C       -5.4420     0.7190    -0.5540 C.ar  1 <1>   0.1170 
 18 C        5.2960     3.0160     1.1200 C.3   1 <1>   0.4000 
 19 O        4.6350     3.8670     0.1850 O.3   1 <1>  -0.3630 
 20 C       -4.0870    -2.3470     0.9420 C.3   1 <1>   0.0400 
 21 N       -6.7820     0.2920    -0.6400 N.am  1 <1>  -0.5470 
 22 C       -7.9340     0.8930    -1.0560 C.2   1 <1>   0.5690 
 23 O       -7.9970     2.0230    -1.4730 O.2   1 <1>  -0.5700 
 24 C       -9.2100     0.0770    -0.9820 C.3   1 <1>  -0.0990 
 25 C       -9.6870    -0.1290     0.4650 C.3   1 <1>  -0.1600 
 26 C      -10.9850    -0.9450     0.5130 C.3   1 <1>  -0.1600 
 27 C      -11.4540    -1.1460     1.9570 C.3   1 <1>  -0.2400 
 28 H       -1.2970     2.9090    -0.2700 H     1 <1>   0.3700 
 29 H        1.9830     0.6180     1.3160 H     1 <1>   0.1500 
 30 H        0.4430     3.4320    -1.5290 H     1 <1>   0.1500 
 31 H       -2.4680    -0.4150     0.6100 H     1 <1>   0.1500 
 32 H       -3.3610     3.2720    -1.2870 H     1 <1>   0.1500 
 33 H        2.5670     4.6940    -1.4330 H     1 <1>   0.1500 
 34 H       -5.6910     2.6340    -1.4800 H     1 <1>   0.1500 
 35 H        6.1680     2.5840     0.6610 H     1 <1>   0.0800 
 36 H        5.5450     3.5750     2.0040 H     1 <1>   0.0800 
 37 H       -3.6010    -1.9880     1.8320 H     1 <1>   0.0800 
 38 H       -3.3650    -2.5620     0.1730 H     1 <1>   0.0800 
 39 H       -4.6550    -3.2300     1.1680 H     1 <1>   0.0800 
 40 H       -6.8890    -0.6560    -0.2760 H     1 <1>   0.3700 
 41 H       -9.0390    -0.8740    -1.4540 H     1 <1>   0.0800 
 42 H       -9.9720     0.5890    -1.5410 H     1 <1>   0.0800 
 43 H       -9.8520     0.8340     0.9190 H     1 <1>   0.0800 
 44 H       -8.9240    -0.6360     1.0310 H     1 <1>   0.0800 
 45 H      -10.8270    -1.9080     0.0560 H     1 <1>   0.0800 
 46 H      -11.7550    -0.4340    -0.0400 H     1 <1>   0.0800 
 47 H      -10.7100    -1.6760     2.5260 H     1 <1>   0.0800 
 48 H      -12.3660    -1.7160     1.9710 H     1 <1>   0.0800 
 49 H      -11.6390    -0.1960     2.4270 H     1 <1>   0.0800 
@<TRIPOS>BOND
  1   1   2  2   
  2   2   3  am  
  3   2   4  1   
  4   3   5  1   
  5   3  28  1   
  6   4   6  ar  
  7   4   7  ar  
  8   5   8  ar  
  9   5   9  ar  
 10   6  10  ar  
 11   6  29  1   
 12   7  11  ar  
 13   7  30  1   
 14   8  12  ar  
 15   8  31  1   
 16   9  13  ar  
 17   9  32  1   
 18  10  14  1   
 19  10  15  ar  
 20  11  15  ar  
 21  11  33  1   
 22  12  16  1   
 23  12  17  ar  
 24  13  17  ar  
 25  13  34  1   
 26  14  18  1   
 27  15  19  1   
 28  16  20  1   
 29  17  21  1   
 30  18  19  1   
 31  18  35  1   
 32  18  36  1   
 33  20  37  1   
 34  20  38  1   
 35  20  39  1   
 36  21  22  am  
 37  21  40  1   
 38  22  23  2   
 39  22  24  1   
 40  24  25  1   
 41  24  41  1   
 42  24  42  1   
 43  25  26  1   
 44  25  43  1   
 45  25  44  1   
 46  26  27  1   
 47  26  45  1   
 48  26  46  1   
 49  27  47  1   
 50  27  48  1   
 51  27  49  1   
@<TRIPOS>SUBSTRUCTURE
  1 ****   5 GROUP 4 **** **** 0

# MOE 2024.06 (io_trps.svl 2023.06)
