@<TRIPOS>MOLECULE
NONAME
44 46 1 0 0 
SMALL
USER_CHARGES


@<TRIPOS>ATOM
  1 S       -1.5430     0.9840    -1.8030 S.3   1 <1>  -0.0800 
  2 C       -1.8730     0.8510    -0.0810 C.2   1 <1>  -0.1400 
  3 C       -0.0240     1.7990    -1.4950 C.2   1 <1>  -0.1100 
  4 C       -0.8690     1.3920     0.6380 C.2   1 <1>  -0.1810 
  5 C       -3.1650     0.1680     0.3100 C.3   1 <1>   0.5230 
  6 C        0.1800     1.9340    -0.1730 C.2   1 <1>  -0.1500 
  7 C       -0.7460     1.4670     2.1500 C.3   1 <1>  -0.0590 
  8 N       -4.2150     1.2040     0.4910 N.4   1 <1>  -0.9590 
  9 C       -5.4250     0.6460     1.2020 C.3   1 <1>   0.3430 
 10 C       -4.5990     1.8470    -0.8250 C.3   1 <1>   0.3430 
 11 C       -6.5510     1.6880     1.3720 C.3   1 <1>   0.2090 
 12 C       -5.7200     2.8950    -0.6750 C.3   1 <1>   0.2090 
 13 N       -6.8770     2.3110     0.0610 N.pl3 1 <1>  -0.8380 
 14 C       -8.1470     2.8630    -0.0920 C.ar  1 <1>   0.1000 
 15 C       -9.2450     2.0240    -0.2190 C.ar  1 <1>  -0.1500 
 16 C       -8.3550     4.2380    -0.1160 C.ar  1 <1>  -0.1500 
 17 C      -10.5240     2.5300    -0.3640 C.ar  1 <1>   0.0820 
 18 C       -9.6290     4.7570    -0.2640 C.ar  1 <1>  -0.1500 
 19 O      -11.5280     1.6240    -0.4760 O.3   1 <1>  -0.3620 
 20 C      -10.7160     3.9090    -0.3870 C.ar  1 <1>  -0.1500 
 21 C      -12.8650     2.0360    -0.6540 C.3   1 <1>   0.0400 
 22 H        0.5670     2.0920    -2.3460 H     1 <1>   0.1500 
 23 H       -3.0090    -0.3580     1.2370 H     1 <1>   0.0800 
 24 H       -3.4530    -0.5460    -0.4450 H     1 <1>   0.0800 
 25 H        1.0440     2.4000     0.2710 H     1 <1>   0.1500 
 26 H       -1.5900     1.0140     2.6370 H     1 <1>   0.0800 
 27 H       -0.6760     2.4950     2.4630 H     1 <1>   0.0800 
 28 H        0.1450     0.9550     2.4680 H     1 <1>   0.0800 
 29 H       -3.7990     1.9420     1.0710 H     1 <1>   0.4500 
 30 H       -5.1450     0.2740     2.1730 H     1 <1>   0.0800 
 31 H       -5.8260    -0.1780     0.6350 H     1 <1>   0.0800 
 32 H       -4.9410     1.0900    -1.5100 H     1 <1>   0.0800 
 33 H       -3.7400     2.3250    -1.2650 H     1 <1>   0.0800 
 34 H       -6.2490     2.4510     2.0680 H     1 <1>   0.0800 
 35 H       -7.4280     1.2070     1.7710 H     1 <1>   0.0800 
 36 H       -6.0440     3.2160    -1.6510 H     1 <1>   0.0800 
 37 H       -5.3490     3.7550    -0.1450 H     1 <1>   0.0800 
 38 H       -9.1060     0.9610    -0.2110 H     1 <1>   0.1500 
 39 H       -7.5230     4.9080    -0.0130 H     1 <1>   0.1500 
 40 H       -9.7770     5.8230    -0.2810 H     1 <1>   0.1500 
 41 H      -11.6940     4.3360    -0.4990 H     1 <1>   0.1500 
 42 H      -13.4790     1.1570    -0.7280 H     1 <1>   0.0800 
 43 H      -12.9360     2.6080    -1.5630 H     1 <1>   0.0800 
 44 H      -13.1670     2.6220     0.1960 H     1 <1>   0.0800 
@<TRIPOS>BOND
  1   1   2  1   
  2   1   3  1   
  3   2   4  2   
  4   2   5  1   
  5   3   6  2   
  6   3  22  1   
  7   4   6  1   
  8   4   7  1   
  9   5   8  1   
 10   5  23  1   
 11   5  24  1   
 12   6  25  1   
 13   7  26  1   
 14   7  27  1   
 15   7  28  1   
 16   8   9  1   
 17   8  10  1   
 18   8  29  1   
 19   9  11  1   
 20   9  30  1   
 21   9  31  1   
 22  10  12  1   
 23  10  32  1   
 24  10  33  1   
 25  11  13  1   
 26  11  34  1   
 27  11  35  1   
 28  12  13  1   
 29  12  36  1   
 30  12  37  1   
 31  13  14  1   
 32  14  15  ar  
 33  14  16  ar  
 34  15  17  ar  
 35  15  38  1   
 36  16  18  ar  
 37  16  39  1   
 38  17  19  1   
 39  17  20  ar  
 40  18  20  ar  
 41  18  40  1   
 42  19  21  1   
 43  20  41  1   
 44  21  42  1   
 45  21  43  1   
 46  21  44  1   
@<TRIPOS>SUBSTRUCTURE
  1 ****  12 GROUP 4 **** **** 0

# MOE 2024.06 (io_trps.svl 2023.06)
