@<TRIPOS>MOLECULE
NONAME
44 45 1 0 0 
SMALL
USER_CHARGES


@<TRIPOS>ATOM
  1 F       10.0330     0.2350     0.8370 F     1 <1>  -0.1900 
  2 C       10.2780     1.4870     0.5380 C.ar  1 <1>   0.1900 
  3 C        9.2230     2.3250     0.1870 C.ar  1 <1>   0.0830 
  4 C       11.5880     1.9220     0.5870 C.ar  1 <1>  -0.1500 
  5 O        7.9630     1.8090     0.1670 O.3   1 <1>  -0.3630 
  6 C        9.5180     3.6510    -0.1250 C.ar  1 <1>  -0.1500 
  7 C       11.8620     3.2430     0.2750 C.ar  1 <1>  -0.1500 
  8 C        6.8390     2.6000    -0.1220 C.3   1 <1>   0.1200 
  9 C       10.8300     4.1000    -0.0790 C.ar  1 <1>  -0.1500 
 10 C        5.6180     1.6790    -0.0320 C.3   1 <1>   0.3430 
 11 N        4.3250     2.3830    -0.3310 N.4   1 <1>  -0.9590 
 12 C        3.9650     3.3780     0.7230 C.3   1 <1>   0.3430 
 13 C        3.2370     1.3810    -0.5210 C.3   1 <1>   0.3430 
 14 C        2.7110     4.1400     0.2980 C.3   1 <1>  -0.1600 
 15 C        1.9640     2.0900    -0.9800 C.3   1 <1>  -0.1600 
 16 C        1.5310     3.1950     0.0020 C.3   1 <1>  -0.0190 
 17 C        0.3330     3.9670    -0.5450 C.2   1 <1>   0.6590 
 18 O        0.4290     4.6410    -1.5360 O.2   1 <1>  -0.5700 
 19 O       -0.7970     3.8410     0.1320 O.3   1 <1>  -0.4300 
 20 C       -1.9740     4.5020    -0.2750 C.3   1 <1>   0.1200 
 21 C       -3.0820     4.1470     0.7110 C.3   1 <1>  -0.2400 
 22 H       12.3720     1.2410     0.8640 H     1 <1>   0.1500 
 23 H        8.7540     4.3490    -0.4070 H     1 <1>   0.1500 
 24 H       12.8760     3.6040     0.3060 H     1 <1>   0.1500 
 25 H        6.9540     2.9940    -1.1160 H     1 <1>   0.0800 
 26 H        6.7950     3.3890     0.6080 H     1 <1>   0.0800 
 27 H       11.0550     5.1250    -0.3220 H     1 <1>   0.1500 
 28 H        5.5770     1.2520     0.9570 H     1 <1>   0.0800 
 29 H        5.7580     0.8770    -0.7380 H     1 <1>   0.0800 
 30 H        4.4230     2.8880    -1.2230 H     1 <1>   0.4500 
 31 H        4.7720     4.0780     0.8690 H     1 <1>   0.0800 
 32 H        3.7820     2.8720     1.6580 H     1 <1>   0.0800 
 33 H        3.0490     0.8620     0.4050 H     1 <1>   0.0800 
 34 H        3.5270     0.6540    -1.2640 H     1 <1>   0.0800 
 35 H        2.9370     4.7330    -0.5720 H     1 <1>   0.0800 
 36 H        2.4310     4.8220     1.0820 H     1 <1>   0.0800 
 37 H        1.1720     1.3660    -1.0700 H     1 <1>   0.0800 
 38 H        2.1240     2.5090    -1.9590 H     1 <1>   0.0800 
 39 H        1.2270     2.7310     0.9250 H     1 <1>   0.0800 
 40 H       -2.2240     4.1760    -1.2710 H     1 <1>   0.0800 
 41 H       -1.7870     5.5630    -0.2800 H     1 <1>   0.0800 
 42 H       -3.2530     3.0850     0.7120 H     1 <1>   0.0800 
 43 H       -3.9930     4.6390     0.4240 H     1 <1>   0.0800 
 44 H       -2.8160     4.4710     1.7020 H     1 <1>   0.0800 
@<TRIPOS>BOND
  1   1   2  1   
  2   2   3  ar  
  3   2   4  ar  
  4   3   5  1   
  5   3   6  ar  
  6   4   7  ar  
  7   4  22  1   
  8   5   8  1   
  9   6   9  ar  
 10   6  23  1   
 11   7   9  ar  
 12   7  24  1   
 13   8  10  1   
 14   8  25  1   
 15   8  26  1   
 16   9  27  1   
 17  10  11  1   
 18  10  28  1   
 19  10  29  1   
 20  11  12  1   
 21  11  13  1   
 22  11  30  1   
 23  12  14  1   
 24  12  31  1   
 25  12  32  1   
 26  13  15  1   
 27  13  33  1   
 28  13  34  1   
 29  14  16  1   
 30  14  35  1   
 31  14  36  1   
 32  15  16  1   
 33  15  37  1   
 34  15  38  1   
 35  16  17  1   
 36  16  39  1   
 37  17  18  2   
 38  17  19  1   
 39  19  20  1   
 40  20  21  1   
 41  20  40  1   
 42  20  41  1   
 43  21  42  1   
 44  21  43  1   
 45  21  44  1   
@<TRIPOS>SUBSTRUCTURE
  1 ****  11 GROUP 4 **** **** 0

# MOE 2024.06 (io_trps.svl 2023.06)
