@<TRIPOS>MOLECULE
NONAME
48 50 1 0 0 
SMALL
USER_CHARGES


@<TRIPOS>ATOM
  1 CL       7.5160    -3.8770    -0.1190 Cl    1 <1>  -0.1770 
  2 C        7.0480    -2.2410    -0.5020 C.ar  1 <1>   0.1770 
  3 C        6.2650    -1.5310     0.3860 C.ar  1 <1>  -0.1500 
  4 C        7.4720    -1.6760    -1.6880 C.ar  1 <1>  -0.1500 
  5 C        5.9090    -0.2280     0.0790 C.ar  1 <1>  -0.1500 
  6 C        7.1110    -0.3710    -1.9800 C.ar  1 <1>  -0.1500 
  7 C        6.3340     0.3790    -1.1000 C.ar  1 <1>  -0.0090 
  8 S        5.8900     2.0970    -1.4920 S.o2  1 <1>   1.4470 
  9 O        4.5070     2.1450    -1.9100 O.2   1 <1>  -0.6500 
 10 O        6.8940     2.6750    -2.3610 O.2   1 <1>  -0.6500 
 11 N        5.9830     2.9430    -0.0310 N.am  1 <1>  -0.8490 
 12 C        7.3550     3.2050     0.4390 C.3   1 <1>   0.3370 
 13 C        5.3310     4.2400    -0.0970 C.3   1 <1>   0.1960 
 14 C        8.1300     1.9670     0.9720 C.2   1 <1>   0.5690 
 15 C        7.1610     4.2960     1.4960 C.3   1 <1>  -0.1600 
 16 C        5.8890     5.0340     1.0800 C.3   1 <1>  -0.1600 
 17 O        7.7510     1.4580     2.0040 O.2   1 <1>  -0.5700 
 18 N        9.1990     1.4350     0.2870 N.am  1 <1>  -0.6600 
 19 C        9.8700     0.1820     0.7610 C.3   1 <1>   0.1400 
 20 C        9.8350     2.0490    -0.9250 C.3   1 <1>   0.1400 
 21 C       11.4130     0.3110     0.7820 C.3   1 <1>   0.2000 
 22 C       11.1190     1.3120    -1.3590 C.3   1 <1>   0.2000 
 23 O       11.9360     1.1080    -0.2490 O.3   1 <1>  -0.5600 
 24 C       12.1010    -1.0500     0.6950 C.3   1 <1>  -0.2400 
 25 C       11.9290     2.1160    -2.3730 C.3   1 <1>  -0.2400 
 26 H        5.9420    -1.9870     1.3050 H     1 <1>   0.1500 
 27 H        8.0740    -2.2500    -2.3690 H     1 <1>   0.1500 
 28 H        5.3040     0.3330     0.7730 H     1 <1>   0.1500 
 29 H        7.4380     0.0750    -2.9050 H     1 <1>   0.1500 
 30 H        7.9110     3.6530    -0.3640 H     1 <1>   0.0800 
 31 H        4.2600     4.1310    -0.0370 H     1 <1>   0.0800 
 32 H        5.5850     4.7340    -1.0210 H     1 <1>   0.0800 
 33 H        8.0160     4.9470     1.5410 H     1 <1>   0.0800 
 34 H        7.0150     3.8500     2.4650 H     1 <1>   0.0800 
 35 H        5.1780     5.0390     1.8880 H     1 <1>   0.0800 
 36 H        6.0900     6.0480     0.7850 H     1 <1>   0.0800 
 37 H        9.5890    -0.6210     0.1040 H     1 <1>   0.0800 
 38 H        9.5330    -0.0870     1.7470 H     1 <1>   0.0800 
 39 H       10.0840     3.0730    -0.7110 H     1 <1>   0.0800 
 40 H        9.1440     2.0330    -1.7460 H     1 <1>   0.0800 
 41 H       11.7000     0.7860     1.7050 H     1 <1>   0.0800 
 42 H       10.8730     0.3520    -1.7800 H     1 <1>   0.0800 
 43 H       11.8590    -1.5370    -0.2320 H     1 <1>   0.0800 
 44 H       11.7830    -1.6760     1.5080 H     1 <1>   0.0800 
 45 H       13.1670    -0.9230     0.7610 H     1 <1>   0.0800 
 46 H       12.2240     3.0600    -1.9520 H     1 <1>   0.0800 
 47 H       11.3430     2.2960    -3.2560 H     1 <1>   0.0800 
 48 H       12.8080     1.5640    -2.6530 H     1 <1>   0.0800 
@<TRIPOS>BOND
  1   1   2  1   
  2   2   3  ar  
  3   2   4  ar  
  4   3   5  ar  
  5   3  26  1   
  6   4   6  ar  
  7   4  27  1   
  8   5   7  ar  
  9   5  28  1   
 10   6   7  ar  
 11   6  29  1   
 12   7   8  1   
 13   8   9  2   
 14   8  10  2   
 15   8  11  am  
 16  11  12  1   
 17  11  13  1   
 18  12  14  1   
 19  12  15  1   
 20  12  30  1   
 21  13  16  1   
 22  13  31  1   
 23  13  32  1   
 24  14  17  2   
 25  14  18  am  
 26  15  16  1   
 27  15  33  1   
 28  15  34  1   
 29  16  35  1   
 30  16  36  1   
 31  18  19  1   
 32  18  20  1   
 33  19  21  1   
 34  19  37  1   
 35  19  38  1   
 36  20  22  1   
 37  20  39  1   
 38  20  40  1   
 39  21  23  1   
 40  21  24  1   
 41  21  41  1   
 42  22  23  1   
 43  22  25  1   
 44  22  42  1   
 45  24  43  1   
 46  24  44  1   
 47  24  45  1   
 48  25  46  1   
 49  25  47  1   
 50  25  48  1   
@<TRIPOS>SUBSTRUCTURE
  1 ****  18 GROUP 4 **** **** 0

# MOE 2024.06 (io_trps.svl 2023.06)
