@<TRIPOS>MOLECULE
NONAME
56 60 1 0 0 
SMALL
USER_CHARGES


@<TRIPOS>ATOM
  1 O        2.3030     7.3670    -0.2320 O.2   1 <1>  -0.5700 
  2 C        3.1300     6.4920    -0.1670 C.2   1 <1>   0.6590 
  3 O        2.8180     5.1980    -0.1400 O.3   1 <1>  -0.2330 
  4 C        4.6440     6.7750    -0.1320 C.3   1 <1>   0.0610 
  5 C        1.6420     4.5160    -0.1910 C.ar  1 <1>   0.0820 
  6 C        4.9500     8.2960    -0.1260 C.3   1 <1>  -0.1600 
  7 C        5.2790     6.1510     1.1370 C.3   1 <1>  -0.1600 
  8 C        5.3270     6.1500    -1.3770 C.3   1 <1>  -0.1600 
  9 C        1.7260     3.1260    -0.3540 C.ar  1 <1>   0.3100 
 10 C        0.4000     5.1190    -0.0940 C.ar  1 <1>  -0.1500 
 11 C        6.4690     8.5530    -0.0970 C.3   1 <1>  -0.0800 
 12 C        6.8000     6.3960     1.1690 C.3   1 <1>  -0.0800 
 13 C        6.8460     6.3990    -1.3540 C.3   1 <1>  -0.0800 
 14 N        0.6520     2.3370    -0.4390 N.ar  1 <1>  -0.6200 
 15 C        3.0290     2.5050    -0.4410 C.ar  1 <1>   0.0000 
 16 C       -0.7010     4.2960    -0.1770 C.ar  1 <1>  -0.1500 
 17 C        7.0670     7.9120     1.1690 C.3   1 <1>  -0.1600 
 18 C        7.1130     7.9150    -1.3410 C.3   1 <1>  -0.1600 
 19 C        7.4400     5.7660    -0.0830 C.3   1 <1>  -0.1600 
 20 C       -0.5220     2.9340    -0.3480 C.ar  1 <1>   0.1600 
 21 C        3.7920     2.2790     0.7030 C.ar  1 <1>  -0.1500 
 22 C        3.5770     2.1550    -1.6730 C.ar  1 <1>  -0.1500 
 23 C        5.0640     1.7440     0.6260 C.ar  1 <1>   0.0830 
 24 C        4.8430     1.6060    -1.7630 C.ar  1 <1>  -0.1500 
 25 O        5.7480     1.5890     1.7870 O.3   1 <1>  -0.3630 
 26 C        5.5920     1.3850    -0.6200 C.ar  1 <1>   0.0830 
 27 C        6.9010     2.3840     1.9570 C.3   1 <1>   0.0400 
 28 O        6.8110     0.8180    -0.7710 O.3   1 <1>  -0.3630 
 29 C        6.9790    -0.4720    -0.2220 C.3   1 <1>   0.0400 
 30 H        4.4910     8.7560     0.7320 H     1 <1>   0.0800 
 31 H        4.5260     8.7560    -1.0020 H     1 <1>   0.0800 
 32 H        5.0930     5.0910     1.1570 H     1 <1>   0.0800 
 33 H        4.8270     6.5770     2.0160 H     1 <1>   0.0800 
 34 H        5.1460     5.0890    -1.4040 H     1 <1>   0.0800 
 35 H        4.9070     6.5740    -2.2720 H     1 <1>   0.0800 
 36 H        0.2720     6.1770     0.0410 H     1 <1>   0.1500 
 37 H        6.6590     9.6130    -0.0920 H     1 <1>   0.0800 
 38 H        7.2220     5.9540     2.0560 H     1 <1>   0.0800 
 39 H        7.3000     5.9570    -2.2250 H     1 <1>   0.0800 
 40 H       -1.6940     4.7050    -0.1100 H     1 <1>   0.1500 
 41 H        8.1270     8.0950     1.2020 H     1 <1>   0.0800 
 42 H        6.6310     8.3600     2.0450 H     1 <1>   0.0800 
 43 H        8.1730     8.0980    -1.3360 H     1 <1>   0.0800 
 44 H        6.7090     8.3640    -2.2320 H     1 <1>   0.0800 
 45 H        7.2650     4.7040    -0.0930 H     1 <1>   0.0800 
 46 H        8.5050     5.9200    -0.0640 H     1 <1>   0.0800 
 47 H       -1.3930     2.3040    -0.4140 H     1 <1>   0.1500 
 48 H        3.3880     2.5320     1.6660 H     1 <1>   0.1500 
 49 H        2.9970     2.3160    -2.5650 H     1 <1>   0.1500 
 50 H        5.2550     1.3390    -2.7190 H     1 <1>   0.1500 
 51 H        7.3270     2.1560     2.9160 H     1 <1>   0.0800 
 52 H        6.6150     3.4180     1.9180 H     1 <1>   0.0800 
 53 H        7.6090     2.1620     1.1790 H     1 <1>   0.0800 
 54 H        6.9220    -0.4140     0.8500 H     1 <1>   0.0800 
 55 H        6.2050    -1.1140    -0.6030 H     1 <1>   0.0800 
 56 H        7.9440    -0.8400    -0.5180 H     1 <1>   0.0800 
@<TRIPOS>BOND
  1   1   2  2   
  2   2   3  1   
  3   2   4  1   
  4   3   5  1   
  5   4   6  1   
  6   4   7  1   
  7   4   8  1   
  8   5   9  ar  
  9   5  10  ar  
 10   6  11  1   
 11   6  30  1   
 12   6  31  1   
 13   7  12  1   
 14   7  32  1   
 15   7  33  1   
 16   8  13  1   
 17   8  34  1   
 18   8  35  1   
 19   9  14  ar  
 20   9  15  1   
 21  10  16  ar  
 22  10  36  1   
 23  11  17  1   
 24  11  18  1   
 25  11  37  1   
 26  12  17  1   
 27  12  19  1   
 28  12  38  1   
 29  13  18  1   
 30  13  19  1   
 31  13  39  1   
 32  14  20  ar  
 33  15  21  ar  
 34  15  22  ar  
 35  16  20  ar  
 36  16  40  1   
 37  17  41  1   
 38  17  42  1   
 39  18  43  1   
 40  18  44  1   
 41  19  45  1   
 42  19  46  1   
 43  20  47  1   
 44  21  23  ar  
 45  21  48  1   
 46  22  24  ar  
 47  22  49  1   
 48  23  25  1   
 49  23  26  ar  
 50  24  26  ar  
 51  24  50  1   
 52  25  27  1   
 53  26  28  1   
 54  27  51  1   
 55  27  52  1   
 56  27  53  1   
 57  28  29  1   
 58  29  54  1   
 59  29  55  1   
 60  29  56  1   
@<TRIPOS>SUBSTRUCTURE
  1 ****   3 GROUP 4 **** **** 0

# MOE 2024.06 (io_trps.svl 2023.06)
