@<TRIPOS>MOLECULE
NONAME
36 37 1 0 0 
SMALL
USER_CHARGES


@<TRIPOS>ATOM
  1 CL      -0.8090    -0.0610    -1.6910 Cl    1 <1>  -0.1770 
  2 C       -1.7950     0.6210    -0.4190 C.ar  1 <1>   0.1770 
  3 C       -3.0460     0.0800    -0.1410 C.ar  1 <1>   0.0830 
  4 C       -1.3040     1.6960     0.2930 C.ar  1 <1>  -0.1500 
  5 O       -3.5050    -0.9770    -0.8510 O.3   1 <1>  -0.2320 
  6 C       -3.8370     0.6290     0.8760 C.ar  1 <1>   0.0280 
  7 C       -2.0920     2.2310     1.2990 C.ar  1 <1>   0.1770 
  8 C       -4.6950    -1.5550    -0.6410 C.2   1 <1>   0.7060 
  9 C       -5.1100     0.0440     1.1210 C.2   1 <1>  -0.1780 
 10 C       -3.3370     1.7170     1.5960 C.ar  1 <1>  -0.1500 
 11 CL      -1.4880     3.5910     2.2100 Cl    1 <1>  -0.1770 
 12 O       -4.9770    -2.4980    -1.3500 O.2   1 <1>  -0.5700 
 13 C       -5.5440    -1.0140     0.3830 C.2   1 <1>   0.0290 
 14 C       -6.8160    -1.6410     0.6120 C.2   1 <1>   0.6160 
 15 O       -7.0330    -2.0940     1.7200 O.2   1 <1>  -0.5700 
 16 N       -7.8180    -1.6860    -0.3400 N.am  1 <1>  -0.6600 
 17 C       -9.0440    -2.5010    -0.1190 C.3   1 <1>   0.1400 
 18 C       -7.7270    -1.0460    -1.6830 C.3   1 <1>   0.0600 
 19 C      -10.1660    -1.6130     0.4260 C.3   1 <1>  -0.1600 
 20 C      -11.4470    -2.4230     0.6640 C.3   1 <1>  -0.1600 
 21 C      -12.5670    -1.5340     1.2100 C.3   1 <1>  -0.2400 
 22 H       -0.3370     2.1100     0.0750 H     1 <1>   0.1500 
 23 H       -5.7170     0.4550     1.9110 H     1 <1>   0.1500 
 24 H       -3.9200     2.1580     2.3850 H     1 <1>   0.1500 
 25 H       -8.8360    -3.2920     0.5830 H     1 <1>   0.0800 
 26 H       -9.3450    -2.9570    -1.0460 H     1 <1>   0.0800 
 27 H       -7.0240    -0.2330    -1.6740 H     1 <1>   0.0800 
 28 H       -8.6880    -0.6590    -1.9720 H     1 <1>   0.0800 
 29 H       -7.4120    -1.7770    -2.4080 H     1 <1>   0.0800 
 30 H      -10.3710    -0.8210    -0.2720 H     1 <1>   0.0800 
 31 H       -9.8430    -1.1790     1.3560 H     1 <1>   0.0800 
 32 H      -11.2480    -3.2130     1.3690 H     1 <1>   0.0800 
 33 H      -11.7700    -2.8730    -0.2600 H     1 <1>   0.0800 
 34 H      -12.2720    -1.0910     2.1450 H     1 <1>   0.0800 
 35 H      -13.4550    -2.1190     1.3740 H     1 <1>   0.0800 
 36 H      -12.7990    -0.7480     0.5130 H     1 <1>   0.0800 
@<TRIPOS>BOND
  1   1   2  1   
  2   2   3  ar  
  3   2   4  ar  
  4   3   5  1   
  5   3   6  ar  
  6   4   7  ar  
  7   4  22  1   
  8   5   8  1   
  9   6   9  1   
 10   6  10  ar  
 11   7  10  ar  
 12   7  11  1   
 13   8  12  2   
 14   8  13  1   
 15   9  13  2   
 16   9  23  1   
 17  10  24  1   
 18  13  14  1   
 19  14  15  2   
 20  14  16  am  
 21  16  17  1   
 22  16  18  1   
 23  17  19  1   
 24  17  25  1   
 25  17  26  1   
 26  18  27  1   
 27  18  28  1   
 28  18  29  1   
 29  19  20  1   
 30  19  30  1   
 31  19  31  1   
 32  20  21  1   
 33  20  32  1   
 34  20  33  1   
 35  21  34  1   
 36  21  35  1   
 37  21  36  1   
@<TRIPOS>SUBSTRUCTURE
  1 ****  13 GROUP 4 **** **** 0

# MOE 2024.06 (io_trps.svl 2023.06)
