@<TRIPOS>MOLECULE
NONAME
51 53 1 0 0 
SMALL
USER_CHARGES


@<TRIPOS>ATOM
  1 O       -2.6800    -4.6130     0.3760 O.3   1 <1>  -0.3630 
  2 C       -4.0300    -4.6060     0.2520 C.ar  1 <1>   0.0830 
  3 C       -1.9310    -5.7870     0.1570 C.3   1 <1>   0.1200 
  4 C       -4.7890    -5.7000    -0.0890 C.ar  1 <1>  -0.1500 
  5 C       -4.6600    -3.3790     0.4960 C.ar  1 <1>  -0.1500 
  6 C       -0.4580    -5.4520     0.3780 C.3   1 <1>   0.1200 
  7 C       -6.1910    -5.6120    -0.1980 C.ar  1 <1>   0.0000 
  8 C       -6.0180    -3.2660     0.3970 C.ar  1 <1>  -0.1500 
  9 O        0.3060    -6.6030     0.1630 O.3   1 <1>  -0.5600 
 10 C       -6.8190    -4.3720     0.0490 C.ar  1 <1>   0.0000 
 11 C       -6.9950    -6.7180    -0.5460 C.ar  1 <1>  -0.1500 
 12 C        1.6710    -6.4200     0.3390 C.3   1 <1>   0.1200 
 13 C       -8.2220    -4.2870    -0.0610 C.ar  1 <1>  -0.1500 
 14 C       -8.3540    -6.6070    -0.6460 C.ar  1 <1>  -0.1500 
 15 C        2.3510    -7.7720     0.0850 C.3   1 <1>   0.3430 
 16 C       -8.9750    -5.3770    -0.4000 C.ar  1 <1>  -0.1500 
 17 N        3.8350    -7.7320     0.3000 N.4   1 <1>  -0.9590 
 18 C        4.5340    -6.8900    -0.7180 C.3   1 <1>   0.3430 
 19 C        4.3830    -9.1200     0.3180 C.3   1 <1>   0.3430 
 20 C        6.0240    -6.8060    -0.3830 C.3   1 <1>  -0.1600 
 21 C        5.8690    -9.0840     0.6750 C.3   1 <1>  -0.1600 
 22 C        6.6630    -8.1990    -0.2950 C.3   1 <1>  -0.0800 
 23 C        8.1280    -8.0940     0.1430 C.3   1 <1>  -0.2400 
 24 H       -2.0970    -6.1100    -0.8560 H     1 <1>   0.0800 
 25 H       -2.2580    -6.5330     0.8590 H     1 <1>   0.0800 
 26 H       -4.3420    -6.6550    -0.2830 H     1 <1>   0.1500 
 27 H       -4.0490    -2.5350     0.7610 H     1 <1>   0.1500 
 28 H       -0.3080    -5.1180     1.3900 H     1 <1>   0.0800 
 29 H       -0.1480    -4.6930    -0.3190 H     1 <1>   0.0800 
 30 H       -6.5000    -2.3230     0.5850 H     1 <1>   0.1500 
 31 H       -6.5150    -7.6610    -0.7340 H     1 <1>   0.1500 
 32 H        1.8420    -6.0900     1.3490 H     1 <1>   0.0800 
 33 H        2.0040    -5.6770    -0.3660 H     1 <1>   0.0800 
 34 H       -8.6940    -3.3400     0.1290 H     1 <1>   0.1500 
 35 H       -8.9610    -7.4550    -0.9120 H     1 <1>   0.1500 
 36 H        2.1390    -8.0840    -0.9240 H     1 <1>   0.0800 
 37 H        1.9140    -8.4910     0.7580 H     1 <1>   0.0800 
 38 H      -10.0460    -5.3060    -0.4830 H     1 <1>   0.1500 
 39 H        4.0260    -7.3270     1.2260 H     1 <1>   0.4500 
 40 H        4.1180    -5.8950    -0.7310 H     1 <1>   0.0800 
 41 H        4.4100    -7.3230    -1.6970 H     1 <1>   0.0800 
 42 H        4.2580    -9.5750    -0.6520 H     1 <1>   0.0800 
 43 H        3.8550    -9.7180     1.0430 H     1 <1>   0.0800 
 44 H        6.1500    -6.2780     0.5460 H     1 <1>   0.0800 
 45 H        6.5200    -6.2340    -1.1480 H     1 <1>   0.0800 
 46 H        6.2580   -10.0870     0.6420 H     1 <1>   0.0800 
 47 H        5.9840    -8.7290     1.6850 H     1 <1>   0.0800 
 48 H        6.6380    -8.6520    -1.2740 H     1 <1>   0.0800 
 49 H        8.2100    -7.6470     1.1190 H     1 <1>   0.0800 
 50 H        8.6870    -7.4940    -0.5540 H     1 <1>   0.0800 
 51 H        8.5800    -9.0710     0.1780 H     1 <1>   0.0800 
@<TRIPOS>BOND
  1   1   2  1   
  2   1   3  1   
  3   2   4  ar  
  4   2   5  ar  
  5   3   6  1   
  6   3  24  1   
  7   3  25  1   
  8   4   7  ar  
  9   4  26  1   
 10   5   8  ar  
 11   5  27  1   
 12   6   9  1   
 13   6  28  1   
 14   6  29  1   
 15   7  10  ar  
 16   7  11  ar  
 17   8  10  ar  
 18   8  30  1   
 19   9  12  1   
 20  10  13  ar  
 21  11  14  ar  
 22  11  31  1   
 23  12  15  1   
 24  12  32  1   
 25  12  33  1   
 26  13  16  ar  
 27  13  34  1   
 28  14  16  ar  
 29  14  35  1   
 30  15  17  1   
 31  15  36  1   
 32  15  37  1   
 33  16  38  1   
 34  17  18  1   
 35  17  19  1   
 36  17  39  1   
 37  18  20  1   
 38  18  40  1   
 39  18  41  1   
 40  19  21  1   
 41  19  42  1   
 42  19  43  1   
 43  20  22  1   
 44  20  44  1   
 45  20  45  1   
 46  21  22  1   
 47  21  46  1   
 48  21  47  1   
 49  22  23  1   
 50  22  48  1   
 51  23  49  1   
 52  23  50  1   
 53  23  51  1   
@<TRIPOS>SUBSTRUCTURE
  1 ****   3 GROUP 4 **** **** 0

# MOE 2024.06 (io_trps.svl 2023.06)
