@<TRIPOS>MOLECULE
NONAME
42 44 1 0 0 
SMALL
USER_CHARGES


@<TRIPOS>ATOM
  1 O       -0.1840    -1.4520     1.7610 O.2   1 <1>  -0.5700 
  2 C       -0.0790    -1.7530     0.5870 C.2   1 <1>   0.6160 
  3 N       -1.1630    -1.5790    -0.2510 N.am  1 <1>  -0.6600 
  4 C        1.1650    -2.2560     0.1050 C.2   1 <1>  -0.1240 
  5 C       -2.2480    -0.6280     0.1250 C.3   1 <1>   0.1400 
  6 C       -1.4260    -2.4310    -1.4450 C.3   1 <1>   0.1400 
  7 C        1.7980    -3.3950     0.5060 C.2   1 <1>  -0.0380 
  8 C        1.8060    -1.3290    -0.9370 C.3   1 <1>   0.4570 
  9 C       -3.4160    -1.3720     0.7670 C.3   1 <1>  -0.2400 
 10 C       -1.6550    -3.8840    -1.0290 C.3   1 <1>  -0.2400 
 11 N        2.9920    -3.7830    -0.0640 N.pl3 1 <1>  -0.5840 
 12 C        1.2740    -4.3410     1.5740 C.3   1 <1>  -0.1020 
 13 N        2.9950    -1.9570    -1.5580 N.pl3 1 <1>   0.3140 
 14 C        2.2020     0.0070    -0.3160 C.ar  1 <1>  -0.1440 
 15 C        3.5320    -3.0830    -1.1340 C.2   1 <1>   0.2700 
 16 N        3.6780    -1.5540    -2.6160 N.2   1 <1>  -0.4180 
 17 C        2.9790     0.0490     0.8350 C.ar  1 <1>   0.1600 
 18 C        1.8030     1.1990    -0.8900 C.ar  1 <1>  -0.1500 
 19 N        4.5360    -3.3940    -1.8640 N.2   1 <1>  -0.3380 
 20 N        4.6090    -2.4260    -2.7820 N.2   1 <1>   0.0000 
 21 N        3.3810     1.1560     1.4370 N.ar  1 <1>  -0.6200 
 22 C        2.2100     2.3610    -0.2700 C.ar  1 <1>  -0.1500 
 23 C        2.9870     2.2840     0.8730 C.ar  1 <1>   0.1600 
 24 H       -2.5830    -0.0960    -0.7490 H     1 <1>   0.0800 
 25 H       -1.8650     0.0980     0.8230 H     1 <1>   0.0800 
 26 H       -0.6010    -2.3800    -2.1330 H     1 <1>   0.0800 
 27 H       -2.3010    -2.0700    -1.9590 H     1 <1>   0.0800 
 28 H        1.1070    -1.1460    -1.7290 H     1 <1>   0.0800 
 29 H       -3.8840    -2.0340     0.0630 H     1 <1>   0.0800 
 30 H       -4.1510    -0.6640     1.1050 H     1 <1>   0.0800 
 31 H       -3.0700    -1.9330     1.6180 H     1 <1>   0.0800 
 32 H       -0.7610    -4.3070    -0.6100 H     1 <1>   0.0800 
 33 H       -1.9270    -4.4660    -1.8900 H     1 <1>   0.0800 
 34 H       -2.4500    -3.9510    -0.3090 H     1 <1>   0.0800 
 35 H        3.4820    -4.6390     0.2220 H     1 <1>   0.4000 
 36 H        1.9660    -4.3790     2.3960 H     1 <1>   0.0800 
 37 H        1.1600    -5.3300     1.1690 H     1 <1>   0.0800 
 38 H        0.3210    -4.0220     1.9560 H     1 <1>   0.0800 
 39 H        3.2900    -0.8770     1.2920 H     1 <1>   0.1500 
 40 H        1.2020     1.2360    -1.7830 H     1 <1>   0.1500 
 41 H        1.9330     3.3200    -0.6670 H     1 <1>   0.1500 
 42 H        3.3000     3.1990     1.3470 H     1 <1>   0.1500 
@<TRIPOS>BOND
  1   1   2  2   
  2   2   3  am  
  3   2   4  1   
  4   3   5  1   
  5   3   6  1   
  6   4   7  2   
  7   4   8  1   
  8   5   9  1   
  9   5  24  1   
 10   5  25  1   
 11   6  10  1   
 12   6  26  1   
 13   6  27  1   
 14   7  11  1   
 15   7  12  1   
 16   8  13  1   
 17   8  14  1   
 18   8  28  1   
 19   9  29  1   
 20   9  30  1   
 21   9  31  1   
 22  10  32  1   
 23  10  33  1   
 24  10  34  1   
 25  11  15  1   
 26  11  35  1   
 27  12  36  1   
 28  12  37  1   
 29  12  38  1   
 30  13  15  1   
 31  13  16  1   
 32  14  17  ar  
 33  14  18  ar  
 34  15  19  2   
 35  16  20  2   
 36  17  21  ar  
 37  17  39  1   
 38  18  22  ar  
 39  18  40  1   
 40  19  20  1   
 41  21  23  ar  
 42  22  23  ar  
 43  22  41  1   
 44  23  42  1   
@<TRIPOS>SUBSTRUCTURE
  1 ****   8 GROUP 4 **** **** 0

# MOE 2024.06 (io_trps.svl 2023.06)
