@<TRIPOS>MOLECULE
NONAME
51 52 1 0 0 
SMALL
USER_CHARGES


@<TRIPOS>ATOM
  1 S        0.1060    -0.2760    -0.1140 S.o2  1 <1>   1.3330 
  2 O        0.8990    -0.8160     0.9680 O.2   1 <1>  -0.6500 
  3 O        0.4980    -0.5160    -1.4850 O.2   1 <1>  -0.6500 
  4 N       -1.4750    -0.8580     0.0770 N.am  1 <1>  -0.8490 
  5 C       -0.0920     1.4980     0.1090 C.3   1 <1>  -0.0550 
  6 C       -1.6780    -2.0990    -0.6890 C.3   1 <1>   0.1960 
  7 C       -1.8530    -1.0460     1.4790 C.3   1 <1>   0.1960 
  8 C        1.2120     2.3060    -0.0230 C.3   1 <1>  -0.2400 
  9 C       -2.9970    -2.8080    -0.3320 C.3   1 <1>  -0.1600 
 10 C       -3.3740    -1.2310     1.5890 C.3   1 <1>  -0.1600 
 11 C       -4.0090    -1.8520     0.3250 C.3   1 <1>  -0.0190 
 12 C       -5.3480    -2.5290     0.6440 C.2   1 <1>   0.5690 
 13 O       -5.3160    -3.6560     1.0820 O.2   1 <1>  -0.5700 
 14 N       -6.5430    -1.8780     0.4540 N.am  1 <1>  -0.6600 
 15 C       -7.8330    -2.6150     0.6630 C.3   1 <1>   0.1400 
 16 C       -6.6670    -0.4410     0.0440 C.3   1 <1>   0.1400 
 17 C       -8.9450    -2.1140    -0.2710 C.3   1 <1>   0.1400 
 18 C       -8.0340     0.1670     0.4040 C.3   1 <1>   0.1400 
 19 N       -9.1620    -0.6400    -0.1500 N.am  1 <1>  -0.6600 
 20 C      -10.3540    -0.0810    -0.5190 C.2   1 <1>   0.7800 
 21 O      -11.2640    -0.7350    -0.9900 O.2   1 <1>  -0.5700 
 22 O      -10.5020     1.2330    -0.3430 O.3   1 <1>  -0.4300 
 23 C      -11.7050     1.8760    -0.6950 C.3   1 <1>   0.1200 
 24 C      -11.5590     3.3610    -0.3780 C.3   1 <1>  -0.2400 
 25 H       -0.5100     1.6840     1.0790 H     1 <1>   0.0800 
 26 H       -0.7930     1.8580    -0.6200 H     1 <1>   0.0800 
 27 H       -0.8560    -2.7770    -0.5180 H     1 <1>   0.0800 
 28 H       -1.6840    -1.8520    -1.7380 H     1 <1>   0.0800 
 29 H       -1.5530    -0.1970     2.0700 H     1 <1>   0.0800 
 30 H       -1.3460    -1.9150     1.8700 H     1 <1>   0.0800 
 31 H        1.9260     1.9800     0.7130 H     1 <1>   0.0800 
 32 H        1.0180     3.3540     0.1190 H     1 <1>   0.0800 
 33 H        1.6380     2.1610    -1.0010 H     1 <1>   0.0800 
 34 H       -2.7800    -3.6170     0.3440 H     1 <1>   0.0800 
 35 H       -3.4190    -3.2440    -1.2200 H     1 <1>   0.0800 
 36 H       -3.8340    -0.2800     1.7850 H     1 <1>   0.0800 
 37 H       -3.5700    -1.8600     2.4400 H     1 <1>   0.0800 
 38 H       -4.1750    -1.0680    -0.3900 H     1 <1>   0.0800 
 39 H       -8.1460    -2.4950     1.6850 H     1 <1>   0.0800 
 40 H       -7.6860    -3.6680     0.4880 H     1 <1>   0.0800 
 41 H       -6.5270    -0.3680    -1.0200 H     1 <1>   0.0800 
 42 H       -5.9010     0.1410     0.5250 H     1 <1>   0.0800 
 43 H       -9.8600    -2.6310    -0.0380 H     1 <1>   0.0800 
 44 H       -8.6850    -2.3470    -1.2880 H     1 <1>   0.0800 
 45 H       -8.0790     1.1720     0.0210 H     1 <1>   0.0800 
 46 H       -8.1310     0.2150     1.4740 H     1 <1>   0.0800 
 47 H      -12.5070     1.4350    -0.1260 H     1 <1>   0.0800 
 48 H      -11.8800     1.7200    -1.7470 H     1 <1>   0.0800 
 49 H      -11.3750     3.4990     0.6730 H     1 <1>   0.0800 
 50 H      -12.4650     3.8770    -0.6370 H     1 <1>   0.0800 
 51 H      -10.7490     3.7840    -0.9450 H     1 <1>   0.0800 
@<TRIPOS>BOND
  1   1   2  2   
  2   1   3  2   
  3   1   4  am  
  4   1   5  1   
  5   4   6  1   
  6   4   7  1   
  7   5   8  1   
  8   5  25  1   
  9   5  26  1   
 10   6   9  1   
 11   6  27  1   
 12   6  28  1   
 13   7  10  1   
 14   7  29  1   
 15   7  30  1   
 16   8  31  1   
 17   8  32  1   
 18   8  33  1   
 19   9  11  1   
 20   9  34  1   
 21   9  35  1   
 22  10  11  1   
 23  10  36  1   
 24  10  37  1   
 25  11  12  1   
 26  11  38  1   
 27  12  13  2   
 28  12  14  am  
 29  14  15  1   
 30  14  16  1   
 31  15  17  1   
 32  15  39  1   
 33  15  40  1   
 34  16  18  1   
 35  16  41  1   
 36  16  42  1   
 37  17  19  1   
 38  17  43  1   
 39  17  44  1   
 40  18  19  1   
 41  18  45  1   
 42  18  46  1   
 43  19  20  am  
 44  20  21  2   
 45  20  22  1   
 46  22  23  1   
 47  23  24  1   
 48  23  47  1   
 49  23  48  1   
 50  24  49  1   
 51  24  50  1   
 52  24  51  1   
@<TRIPOS>SUBSTRUCTURE
  1 ****  16 GROUP 4 **** **** 0

# MOE 2024.06 (io_trps.svl 2023.06)
