@<TRIPOS>MOLECULE
NONAME
42 44 1 0 0 
SMALL
USER_CHARGES


@<TRIPOS>ATOM
  1 CL      -1.6970    -2.6450    -0.2230 Cl    1 <1>  -0.1770 
  2 C       -0.0900    -2.6610    -0.9050 C.ar  1 <1>   0.1770 
  3 C        0.9850    -2.9840    -0.1020 C.ar  1 <1>  -0.1500 
  4 C        0.0740    -2.3490    -2.2420 C.ar  1 <1>  -0.1500 
  5 C        2.2700    -3.0000    -0.6360 C.ar  1 <1>   0.1170 
  6 C        1.3480    -2.3640    -2.7830 C.ar  1 <1>  -0.1500 
  7 N        3.4110    -3.3180     0.1140 N.am  1 <1>  -0.5470 
  8 C        2.4310    -2.6870    -1.9830 C.ar  1 <1>  -0.1500 
  9 C        3.6300    -3.5480     1.4420 C.2   1 <1>   0.5690 
 10 O        2.7760    -3.5100     2.2950 O.2   1 <1>  -0.5700 
 11 C        5.0720    -3.8680     1.8390 C.3   1 <1>   0.1710 
 12 N        6.0820    -3.3630     0.8600 N.3   1 <1>  -0.8100 
 13 C        7.3880    -4.0370     1.0510 C.3   1 <1>   0.1100 
 14 C        6.2640    -1.8940     0.9960 C.3   1 <1>   0.1100 
 15 C        8.4550    -3.5270     0.0640 C.3   1 <1>   0.2090 
 16 C        7.3120    -1.3410     0.0100 C.3   1 <1>   0.2090 
 17 N        8.6140    -2.0450     0.1620 N.pl3 1 <1>  -0.8380 
 18 C        9.6920    -1.4720    -0.4830 C.ar  1 <1>   0.4100 
 19 N       10.0810    -2.0160    -1.6300 N.ar  1 <1>  -0.6200 
 20 C       10.3080    -0.3570     0.0810 C.ar  1 <1>  -0.1500 
 21 C       11.1060    -1.4320    -2.2280 C.ar  1 <1>   0.1600 
 22 C       11.3720     0.2410    -0.5510 C.ar  1 <1>  -0.1500 
 23 C       11.7770    -0.3220    -1.7440 C.ar  1 <1>  -0.1500 
 24 H        0.8090    -3.2220     0.9300 H     1 <1>   0.1500 
 25 H       -0.7830    -2.1020    -2.8430 H     1 <1>   0.1500 
 26 H        1.4940    -2.1240    -3.8230 H     1 <1>   0.1500 
 27 H        4.2980    -3.3450    -0.4010 H     1 <1>   0.3700 
 28 H        3.4160    -2.6960    -2.4130 H     1 <1>   0.1500 
 29 H        5.1470    -4.9390     1.9060 H     1 <1>   0.0800 
 30 H        5.2670    -3.4620     2.8160 H     1 <1>   0.0800 
 31 H        7.2680    -5.0960     0.9080 H     1 <1>   0.0800 
 32 H        7.7440    -3.8720     2.0540 H     1 <1>   0.0800 
 33 H        6.5820    -1.6570     1.9970 H     1 <1>   0.0800 
 34 H        5.3290    -1.3930     0.8180 H     1 <1>   0.0800 
 35 H        8.1680    -3.7910    -0.9390 H     1 <1>   0.0800 
 36 H        9.3990    -3.9990     0.2750 H     1 <1>   0.0800 
 37 H        7.4490    -0.2880     0.1870 H     1 <1>   0.0800 
 38 H        6.9570    -1.4670    -0.9990 H     1 <1>   0.0800 
 39 H        9.9370     0.0170     1.0150 H     1 <1>   0.1500 
 40 H       11.4310    -1.8640    -3.1580 H     1 <1>   0.1500 
 41 H       11.8660     1.1030    -0.1370 H     1 <1>   0.1500 
 42 H       12.6020     0.0930    -2.2920 H     1 <1>   0.1500 
@<TRIPOS>BOND
  1   1   2  1   
  2   2   3  ar  
  3   2   4  ar  
  4   3   5  ar  
  5   3  24  1   
  6   4   6  ar  
  7   4  25  1   
  8   5   7  1   
  9   5   8  ar  
 10   6   8  ar  
 11   6  26  1   
 12   7   9  am  
 13   7  27  1   
 14   8  28  1   
 15   9  10  2   
 16   9  11  1   
 17  11  12  1   
 18  11  29  1   
 19  11  30  1   
 20  12  13  1   
 21  12  14  1   
 22  13  15  1   
 23  13  31  1   
 24  13  32  1   
 25  14  16  1   
 26  14  33  1   
 27  14  34  1   
 28  15  17  1   
 29  15  35  1   
 30  15  36  1   
 31  16  17  1   
 32  16  37  1   
 33  16  38  1   
 34  17  18  1   
 35  18  19  ar  
 36  18  20  ar  
 37  19  21  ar  
 38  20  22  ar  
 39  20  39  1   
 40  21  23  ar  
 41  21  40  1   
 42  22  23  ar  
 43  22  41  1   
 44  23  42  1   
@<TRIPOS>SUBSTRUCTURE
  1 ****  14 GROUP 4 **** **** 0

# MOE 2024.06 (io_trps.svl 2023.06)
