@<TRIPOS>MOLECULE
NONAME
36 36 1 0 0 
SMALL
USER_CHARGES


@<TRIPOS>ATOM
  1 O       -0.1880     0.2380     0.0390 O.2   1 <1>  -0.5700 
  2 C       -0.2400     1.4380     0.1250 C.2   1 <1>   0.6590 
  3 O        0.8440     2.1740     0.2890 O.3   1 <1>  -0.4300 
  4 C       -1.5490     2.2010     0.0690 C.3   1 <1>  -0.0990 
  5 C        2.1130     1.5690     0.3580 C.3   1 <1>   0.3200 
  6 C       -2.7150     1.3670    -0.4950 C.3   1 <1>  -0.0990 
  7 C        3.1330     2.6370     0.5610 C.1   1 <1>  -0.2000 
  8 C       -4.0020     2.1610    -0.5080 C.2   1 <1>   0.5690 
  9 C        3.9490     3.4870     0.7230 C.1   1 <1>  -0.1770 
 10 O       -4.1210     3.0640    -1.2980 O.2   1 <1>  -0.5700 
 11 N       -4.9810     1.8320     0.3710 N.am  1 <1>  -0.7300 
 12 C       -6.2830     2.5340     0.4780 C.3   1 <1>   0.1400 
 13 C       -7.3470     1.7860    -0.3230 C.3   1 <1>  -0.0170 
 14 C       -8.6940     2.4750    -0.1760 C.ar  1 <1>  -0.1440 
 15 C       -9.0070     3.5630    -0.9760 C.ar  1 <1>  -0.1500 
 16 C       -9.6170     2.0290     0.7570 C.ar  1 <1>  -0.1500 
 17 C      -10.2290     4.1990    -0.8440 C.ar  1 <1>  -0.1500 
 18 C      -10.8400     2.6640     0.8900 C.ar  1 <1>  -0.1500 
 19 C      -11.1470     3.7500     0.0890 C.ar  1 <1>  -0.1500 
 20 H       -1.4080     3.0710    -0.5470 H     1 <1>   0.0800 
 21 H       -1.7880     2.5330     1.0620 H     1 <1>   0.0800 
 22 H        2.2920     1.0420    -0.5630 H     1 <1>   0.0800 
 23 H        2.1200     0.8770     1.1820 H     1 <1>   0.0800 
 24 H       -2.8460     0.4760     0.0910 H     1 <1>   0.0800 
 25 H       -2.4900     1.0700    -1.5030 H     1 <1>   0.0800 
 26 H        4.6830     4.2600     0.8700 H     1 <1>   0.1770 
 27 H       -4.8500     1.0400     1.0020 H     1 <1>   0.3700 
 28 H       -6.1880     3.5370     0.0970 H     1 <1>   0.0800 
 29 H       -6.5750     2.5950     1.5130 H     1 <1>   0.0800 
 30 H       -7.4190     0.7710     0.0240 H     1 <1>   0.0800 
 31 H       -7.0650     1.7700    -1.3610 H     1 <1>   0.0800 
 32 H       -8.3000     3.9200    -1.7050 H     1 <1>   0.1500 
 33 H       -9.3910     1.1850     1.3860 H     1 <1>   0.1500 
 34 H      -10.4650     5.0430    -1.4690 H     1 <1>   0.1500 
 35 H      -11.5530     2.3140     1.6150 H     1 <1>   0.1500 
 36 H      -12.0970     4.2440     0.1910 H     1 <1>   0.1500 
@<TRIPOS>BOND
  1   1   2  2   
  2   2   3  1   
  3   2   4  1   
  4   3   5  1   
  5   4   6  1   
  6   4  20  1   
  7   4  21  1   
  8   5   7  1   
  9   5  22  1   
 10   5  23  1   
 11   6   8  1   
 12   6  24  1   
 13   6  25  1   
 14   7   9  3   
 15   8  10  2   
 16   8  11  am  
 17   9  26  1   
 18  11  12  1   
 19  11  27  1   
 20  12  13  1   
 21  12  28  1   
 22  12  29  1   
 23  13  14  1   
 24  13  30  1   
 25  13  31  1   
 26  14  15  ar  
 27  14  16  ar  
 28  15  17  ar  
 29  15  32  1   
 30  16  18  ar  
 31  16  33  1   
 32  17  19  ar  
 33  17  34  1   
 34  18  19  ar  
 35  18  35  1   
 36  19  36  1   
@<TRIPOS>SUBSTRUCTURE
  1 ****   8 GROUP 4 **** **** 0

# MOE 2024.06 (io_trps.svl 2023.06)
