@<TRIPOS>MOLECULE
NONAME
53 56 1 0 0 
SMALL
USER_CHARGES


@<TRIPOS>ATOM
  1 O       -1.3000     0.5950     0.2670 O.3   1 <1>  -0.3630 
  2 C       -0.8290     1.8670     0.3750 C.ar  1 <1>   0.0830 
  3 C       -0.6230    -0.5140     0.8200 C.3   1 <1>   0.0400 
  4 C       -1.4640     2.8730    -0.3230 C.ar  1 <1>  -0.1440 
  5 C        0.2830     2.1640     1.1830 C.ar  1 <1>  -0.1500 
  6 C       -0.9880     4.2120    -0.2590 C.ar  1 <1>   0.0000 
  7 C       -2.6940     2.5160    -1.1600 C.3   1 <1>   0.2540 
  8 C        0.7380     3.4460     1.2770 C.ar  1 <1>  -0.1500 
  9 C        0.1220     4.4950     0.5720 C.ar  1 <1>   0.0000 
 10 C       -1.5520     5.3040    -0.9670 C.ar  1 <1>  -0.1500 
 11 N       -3.9270     2.5020    -0.3380 N.3   1 <1>  -0.8100 
 12 C        0.5950     5.8170     0.6810 C.ar  1 <1>  -0.1500 
 13 C       -1.0710     6.5780    -0.8470 C.ar  1 <1>  -0.1500 
 14 C       -5.0930     2.0360    -1.1050 C.3   1 <1>   0.1100 
 15 C       -4.1960     3.7640     0.3780 C.3   1 <1>   0.1100 
 16 C        0.0140     6.8420    -0.0090 C.ar  1 <1>  -0.1500 
 17 C       -6.3230     1.8740    -0.1900 C.3   1 <1>   0.3430 
 18 C       -5.4120     3.6200     1.3110 C.3   1 <1>   0.3430 
 19 N       -6.6270     3.1370     0.5710 N.4   1 <1>  -0.9590 
 20 C       -7.7910     2.9640     1.4770 C.3   1 <1>   0.4860 
 21 C       -9.0160     2.6830     0.6310 C.ar  1 <1>  -0.1430 
 22 C       -9.6240     3.7060    -0.0840 C.ar  1 <1>  -0.1500 
 23 C       -9.5350     1.3970     0.5590 C.ar  1 <1>  -0.1500 
 24 C      -10.7290     3.4410    -0.8740 C.ar  1 <1>  -0.1500 
 25 C      -10.6400     1.1360    -0.2320 C.ar  1 <1>  -0.1500 
 26 C      -11.2350     2.1570    -0.9500 C.ar  1 <1>  -0.1500 
 27 H       -1.1550    -1.4040     0.5380 H     1 <1>   0.0800 
 28 H       -0.6130    -0.4190     1.8910 H     1 <1>   0.0800 
 29 H        0.3770    -0.5460     0.4240 H     1 <1>   0.0800 
 30 H        0.7840     1.3930     1.7360 H     1 <1>   0.1500 
 31 H       -2.5490     1.5350    -1.5780 H     1 <1>   0.0800 
 32 H       -2.8070     3.1800    -1.9960 H     1 <1>   0.0800 
 33 H        1.5850     3.6750     1.8980 H     1 <1>   0.1500 
 34 H       -2.3810     5.1450    -1.6250 H     1 <1>   0.1500 
 35 H        1.4340     6.0100     1.3250 H     1 <1>   0.1500 
 36 H       -1.5130     7.3940    -1.3950 H     1 <1>   0.1500 
 37 H       -4.8670     1.0800    -1.5480 H     1 <1>   0.0800 
 38 H       -5.3160     2.7270    -1.9000 H     1 <1>   0.0800 
 39 H       -4.3610     4.5640    -0.3230 H     1 <1>   0.0800 
 40 H       -3.3480     4.0240     0.9880 H     1 <1>   0.0800 
 41 H        0.3810     7.8500     0.0770 H     1 <1>   0.1500 
 42 H       -6.1230     1.0720     0.5020 H     1 <1>   0.0800 
 43 H       -7.1730     1.5910    -0.7900 H     1 <1>   0.0800 
 44 H       -5.6130     4.5700     1.7780 H     1 <1>   0.0800 
 45 H       -5.1540     2.9150     2.0850 H     1 <1>   0.0800 
 46 H       -6.8880     3.8430    -0.1250 H     1 <1>   0.4500 
 47 H       -7.9530     3.8620     2.0510 H     1 <1>   0.0800 
 48 H       -7.6150     2.1480     2.1590 H     1 <1>   0.0800 
 49 H       -9.2540     4.7160    -0.0360 H     1 <1>   0.1500 
 50 H       -9.0930     0.5870     1.1130 H     1 <1>   0.1500 
 51 H      -11.2020     4.2340    -1.4290 H     1 <1>   0.1500 
 52 H      -11.0440     0.1380    -0.2880 H     1 <1>   0.1500 
 53 H      -12.0960     1.9520    -1.5640 H     1 <1>   0.1500 
@<TRIPOS>BOND
  1   1   2  1   
  2   1   3  1   
  3   2   4  ar  
  4   2   5  ar  
  5   3  27  1   
  6   3  28  1   
  7   3  29  1   
  8   4   6  ar  
  9   4   7  1   
 10   5   8  ar  
 11   5  30  1   
 12   6   9  ar  
 13   6  10  ar  
 14   7  11  1   
 15   7  31  1   
 16   7  32  1   
 17   8   9  ar  
 18   8  33  1   
 19   9  12  ar  
 20  10  13  ar  
 21  10  34  1   
 22  11  14  1   
 23  11  15  1   
 24  12  16  ar  
 25  12  35  1   
 26  13  16  ar  
 27  13  36  1   
 28  14  17  1   
 29  14  37  1   
 30  14  38  1   
 31  15  18  1   
 32  15  39  1   
 33  15  40  1   
 34  16  41  1   
 35  17  19  1   
 36  17  42  1   
 37  17  43  1   
 38  18  19  1   
 39  18  44  1   
 40  18  45  1   
 41  19  20  1   
 42  19  46  1   
 43  20  21  1   
 44  20  47  1   
 45  20  48  1   
 46  21  22  ar  
 47  21  23  ar  
 48  22  24  ar  
 49  22  49  1   
 50  23  25  ar  
 51  23  50  1   
 52  24  26  ar  
 53  24  51  1   
 54  25  26  ar  
 55  25  52  1   
 56  26  53  1   
@<TRIPOS>SUBSTRUCTURE
  1 ****  15 GROUP 4 **** **** 0

# MOE 2024.06 (io_trps.svl 2023.06)
