@<TRIPOS>MOLECULE
NONAME
32 32 1 0 0 
SMALL
USER_CHARGES


@<TRIPOS>ATOM
  1 BR      -0.4030     0.3270    -0.2970 Br    1 <1>  -0.1110 
  2 C        1.3880     1.0190    -0.1400 C.ar  1 <1>   0.1110 
  3 C        2.4480     0.2100    -0.5040 C.ar  1 <1>  -0.1500 
  4 C        1.5650     2.3060     0.3320 C.ar  1 <1>  -0.1500 
  5 C        3.7350     0.7090    -0.3910 C.ar  1 <1>  -0.1500 
  6 C        2.8560     2.7940     0.4410 C.ar  1 <1>  -0.1500 
  7 C        3.9420     2.0060     0.0830 C.ar  1 <1>   0.0830 
  8 O        5.1690     2.5690     0.2240 O.3   1 <1>  -0.3630 
  9 C        6.3430     1.8650    -0.1070 C.3   1 <1>   0.1200 
 10 C        7.5390     2.7750     0.1650 C.3   1 <1>  -0.1600 
 11 C        8.8510     2.0680    -0.1760 C.3   1 <1>   0.0700 
 12 S       10.2050     3.2170     0.1780 S.3   1 <1>  -0.4600 
 13 C       11.6840     2.3310    -0.3700 C.3   1 <1>   0.1500 
 14 C       12.0370     1.2990     0.7000 C.3   1 <1>  -0.2400 
 15 C       12.7830     3.3740    -0.5520 C.3   1 <1>  -0.2400 
 16 H        2.2670    -0.7850    -0.8670 H     1 <1>   0.1500 
 17 H        0.7170     2.9070     0.6050 H     1 <1>   0.1500 
 18 H        4.5570     0.0790    -0.6750 H     1 <1>   0.1500 
 19 H        3.0320     3.7910     0.8040 H     1 <1>   0.1500 
 20 H        6.2960     1.6000    -1.1490 H     1 <1>   0.0800 
 21 H        6.3900     0.9800     0.5040 H     1 <1>   0.0800 
 22 H        7.5470     3.0500     1.2050 H     1 <1>   0.0800 
 23 H        7.4520     3.6660    -0.4320 H     1 <1>   0.0800 
 24 H        8.9080     1.8160    -1.2210 H     1 <1>   0.0800 
 25 H        9.0000     1.1940     0.4320 H     1 <1>   0.0800 
 26 H       11.4480     1.8580    -1.3090 H     1 <1>   0.0800 
 27 H       12.1910     1.7840     1.6470 H     1 <1>   0.0800 
 28 H       12.9380     0.7810     0.4270 H     1 <1>   0.0800 
 29 H       11.2480     0.5770     0.8030 H     1 <1>   0.0800 
 30 H       12.9740     3.8810     0.3770 H     1 <1>   0.0800 
 31 H       12.4820     4.0990    -1.2870 H     1 <1>   0.0800 
 32 H       13.6900     2.9030    -0.8850 H     1 <1>   0.0800 
@<TRIPOS>BOND
  1   1   2  1   
  2   2   3  ar  
  3   2   4  ar  
  4   3   5  ar  
  5   3  16  1   
  6   4   6  ar  
  7   4  17  1   
  8   5   7  ar  
  9   5  18  1   
 10   6   7  ar  
 11   6  19  1   
 12   7   8  1   
 13   8   9  1   
 14   9  10  1   
 15   9  20  1   
 16   9  21  1   
 17  10  11  1   
 18  10  22  1   
 19  10  23  1   
 20  11  12  1   
 21  11  24  1   
 22  11  25  1   
 23  12  13  1   
 24  13  14  1   
 25  13  15  1   
 26  13  26  1   
 27  14  27  1   
 28  14  28  1   
 29  14  29  1   
 30  15  30  1   
 31  15  31  1   
 32  15  32  1   
@<TRIPOS>SUBSTRUCTURE
  1 ****   9 GROUP 4 **** **** 0

# MOE 2024.06 (io_trps.svl 2023.06)
