@<TRIPOS>MOLECULE
NONAME
47 49 1 0 0 
SMALL
USER_CHARGES


@<TRIPOS>ATOM
  1 O       -3.2890    -0.7970     1.5580 O.2   1 <1>  -0.5700 
  2 C       -2.7340    -1.0190     0.4970 C.2   1 <1>   0.5440 
  3 N       -1.3810    -1.2570     0.4890 N.am  1 <1>  -0.6600 
  4 C       -3.5010    -1.0230    -0.7250 C.ar  1 <1>   0.0860 
  5 C       -0.5720    -1.3510     1.7240 C.3   1 <1>   0.1400 
  6 C       -0.5970    -1.6610    -0.6980 C.3   1 <1>   0.1400 
  7 C       -4.3340    -2.1010    -1.0610 C.ar  1 <1>   0.1170 
  8 C       -3.4270     0.0580    -1.6040 C.ar  1 <1>  -0.1500 
  9 C        0.6840    -2.1040     1.3040 C.3   1 <1>  -0.1600 
 10 C        0.8320    -1.8090    -0.1860 C.3   1 <1>  -0.1600 
 11 N       -4.4620    -3.2190    -0.2350 N.am  1 <1>  -0.5470 
 12 C       -5.0550    -2.0680    -2.2480 C.ar  1 <1>  -0.1500 
 13 C       -4.1480     0.0790    -2.7820 C.ar  1 <1>  -0.1500 
 14 C       -5.2610    -3.3870     0.8610 C.2   1 <1>   0.5690 
 15 C       -4.9660    -0.9900    -3.1050 C.ar  1 <1>  -0.1500 
 16 O       -5.2170    -4.4550     1.4280 O.2   1 <1>  -0.5700 
 17 C       -6.2040    -2.2460     1.3250 C.3   1 <1>   0.4040 
 18 O       -6.5840    -2.3340     2.6810 O.3   1 <1>  -0.5600 
 19 C       -7.4770    -2.2230     0.4800 C.ar  1 <1>  -0.1430 
 20 C       -5.5560    -2.0710     3.5850 C.3   1 <1>   0.0400 
 21 C       -7.7330    -1.1660    -0.3830 C.ar  1 <1>  -0.1500 
 22 C       -8.3870    -3.2680     0.5550 C.ar  1 <1>  -0.1500 
 23 C       -8.8770    -1.1570    -1.1620 C.ar  1 <1>  -0.1500 
 24 C       -9.5320    -3.2610    -0.2230 C.ar  1 <1>  -0.1500 
 25 C       -9.7770    -2.2060    -1.0830 C.ar  1 <1>  -0.1500 
 26 H       -1.1090    -1.8710     2.5000 H     1 <1>   0.0800 
 27 H       -0.3280    -0.3570     2.0570 H     1 <1>   0.0800 
 28 H       -0.6600    -0.9190    -1.4760 H     1 <1>   0.0800 
 29 H       -0.9660    -2.6060    -1.0600 H     1 <1>   0.0800 
 30 H       -2.7940     0.8910    -1.3490 H     1 <1>   0.1500 
 31 H        0.5250    -3.1570     1.4550 H     1 <1>   0.0800 
 32 H        1.5430    -1.7950     1.8730 H     1 <1>   0.0800 
 33 H        1.3500    -0.8750    -0.3230 H     1 <1>   0.0800 
 34 H        1.3660    -2.5840    -0.7070 H     1 <1>   0.0800 
 35 H       -3.9290    -4.0570    -0.4670 H     1 <1>   0.3700 
 36 H       -5.7000    -2.8950    -2.4950 H     1 <1>   0.1500 
 37 H       -4.0780     0.9230    -3.4470 H     1 <1>   0.1500 
 38 H       -5.5340    -0.9770    -4.0200 H     1 <1>   0.1500 
 39 H       -5.7000    -1.3060     1.2030 H     1 <1>   0.0800 
 40 H       -5.9580    -2.1500     4.5800 H     1 <1>   0.0800 
 41 H       -5.1830    -1.0740     3.4240 H     1 <1>   0.0800 
 42 H       -4.7670    -2.7920     3.4580 H     1 <1>   0.0800 
 43 H       -7.0420    -0.3440    -0.4530 H     1 <1>   0.1500 
 44 H       -8.1990    -4.0880     1.2290 H     1 <1>   0.1500 
 45 H       -9.0680    -0.3340    -1.8270 H     1 <1>   0.1500 
 46 H      -10.2300    -4.0770    -0.1540 H     1 <1>   0.1500 
 47 H      -10.6680    -2.2000    -1.6870 H     1 <1>   0.1500 
@<TRIPOS>BOND
  1   1   2  2   
  2   2   3  am  
  3   2   4  1   
  4   3   5  1   
  5   3   6  1   
  6   4   7  ar  
  7   4   8  ar  
  8   5   9  1   
  9   5  26  1   
 10   5  27  1   
 11   6  10  1   
 12   6  28  1   
 13   6  29  1   
 14   7  11  1   
 15   7  12  ar  
 16   8  13  ar  
 17   8  30  1   
 18   9  10  1   
 19   9  31  1   
 20   9  32  1   
 21  10  33  1   
 22  10  34  1   
 23  11  14  am  
 24  11  35  1   
 25  12  15  ar  
 26  12  36  1   
 27  13  15  ar  
 28  13  37  1   
 29  14  16  2   
 30  14  17  1   
 31  15  38  1   
 32  17  18  1   
 33  17  19  1   
 34  17  39  1   
 35  18  20  1   
 36  19  21  ar  
 37  19  22  ar  
 38  20  40  1   
 39  20  41  1   
 40  20  42  1   
 41  21  23  ar  
 42  21  43  1   
 43  22  24  ar  
 44  22  44  1   
 45  23  25  ar  
 46  23  45  1   
 47  24  25  ar  
 48  24  46  1   
 49  25  47  1   
@<TRIPOS>SUBSTRUCTURE
  1 ****   7 GROUP 4 **** **** 0

# MOE 2024.06 (io_trps.svl 2023.06)
