@<TRIPOS>MOLECULE
NONAME
42 45 1 0 0 
SMALL
USER_CHARGES


@<TRIPOS>ATOM
  1 S        0.2220    -0.8900     1.1300 S.3   1 <1>  -0.0800 
  2 C        1.3700     0.3140     0.5850 C.2   1 <1>  -0.0360 
  3 C       -1.1050     0.1570     0.6530 C.2   1 <1>  -0.1400 
  4 N        2.7480     0.1570     0.6530 N.pl3 1 <1>   0.3790 
  5 C        0.7720     1.4260     0.0830 C.2   1 <1>  -0.0860 
  6 C       -0.6640     1.3170     0.1430 C.2   1 <1>  -0.1810 
  7 C       -2.5370    -0.2940     0.8390 C.3   1 <1>   0.0200 
  8 C        3.5430     1.1490     0.1970 C.2   1 <1>   0.2500 
  9 C        3.6340    -0.7560     1.0750 C.2   1 <1>   0.0360 
 10 C        1.6080     2.4990    -0.4180 C.2   1 <1>   0.7160 
 11 C       -1.6350     2.3890    -0.3220 C.3   1 <1>   0.0210 
 12 C       -3.4930     0.6300     0.0380 C.3   1 <1>  -0.0800 
 13 N        4.7980     0.8500     0.3370 N.2   1 <1>  -0.3380 
 14 N        2.9910     2.3290    -0.3490 N.am  1 <1>  -0.4240 
 15 N        4.8480    -0.3680     0.8980 N.2   1 <1>  -0.3380 
 16 O        1.1370     3.5210    -0.8870 O.2   1 <1>  -0.5700 
 17 C       -3.0570     2.1130     0.2060 C.3   1 <1>  -0.1600 
 18 C       -5.0080     0.3690     0.3330 C.3   1 <1>   0.0000 
 19 C        3.9310     3.3800    -0.8320 C.3   1 <1>   0.0600 
 20 C       -5.8900     1.1160    -0.6860 C.3   1 <1>  -0.2400 
 21 C       -5.4250     0.8240     1.7430 C.3   1 <1>  -0.2400 
 22 C       -5.3410    -1.1280     0.1960 C.3   1 <1>  -0.2400 
 23 H       -2.7650    -0.2690     1.8890 H     1 <1>   0.0800 
 24 H       -2.6250    -1.3080     0.4920 H     1 <1>   0.0800 
 25 H        3.3320    -1.6920     1.5070 H     1 <1>   0.1500 
 26 H       -1.6400     2.4090    -1.3980 H     1 <1>   0.0800 
 27 H       -1.3140     3.3540     0.0290 H     1 <1>   0.0800 
 28 H       -3.3360     0.3860    -0.9990 H     1 <1>   0.0800 
 29 H       -3.7280     2.7750    -0.3070 H     1 <1>   0.0800 
 30 H       -3.0810     2.3690     1.2510 H     1 <1>   0.0800 
 31 H        4.6630     2.9370    -1.4850 H     1 <1>   0.0800 
 32 H        4.4350     3.8220     0.0090 H     1 <1>   0.0800 
 33 H        3.4100     4.1500    -1.3730 H     1 <1>   0.0800 
 34 H       -5.8180     2.1810    -0.5670 H     1 <1>   0.0800 
 35 H       -6.9250     0.8510    -0.5580 H     1 <1>   0.0800 
 36 H       -5.6030     0.8640    -1.6920 H     1 <1>   0.0800 
 37 H       -4.8610     0.3140     2.5020 H     1 <1>   0.0800 
 38 H       -6.4670     0.6130     1.9100 H     1 <1>   0.0800 
 39 H       -5.2830     1.8820     1.8670 H     1 <1>   0.0800 
 40 H       -4.8660    -1.7070     0.9670 H     1 <1>   0.0800 
 41 H       -5.0230    -1.5000    -0.7610 H     1 <1>   0.0800 
 42 H       -6.4010    -1.2900     0.2820 H     1 <1>   0.0800 
@<TRIPOS>BOND
  1   1   2  1   
  2   1   3  1   
  3   2   4  1   
  4   2   5  2   
  5   3   6  2   
  6   3   7  1   
  7   4   8  1   
  8   4   9  1   
  9   5   6  1   
 10   5  10  1   
 11   6  11  1   
 12   7  12  1   
 13   7  23  1   
 14   7  24  1   
 15   8  13  2   
 16   8  14  1   
 17   9  15  2   
 18   9  25  1   
 19  10  14  am  
 20  10  16  2   
 21  11  17  1   
 22  11  26  1   
 23  11  27  1   
 24  12  17  1   
 25  12  18  1   
 26  12  28  1   
 27  13  15  1   
 28  14  19  1   
 29  17  29  1   
 30  17  30  1   
 31  18  20  1   
 32  18  21  1   
 33  18  22  1   
 34  19  31  1   
 35  19  32  1   
 36  19  33  1   
 37  20  34  1   
 38  20  35  1   
 39  20  36  1   
 40  21  37  1   
 41  21  38  1   
 42  21  39  1   
 43  22  40  1   
 44  22  41  1   
 45  22  42  1   
@<TRIPOS>SUBSTRUCTURE
  1 ****   6 GROUP 4 **** **** 0

# MOE 2024.06 (io_trps.svl 2023.06)
