@<TRIPOS>MOLECULE
NONAME
37 38 1 0 0 
SMALL
USER_CHARGES


@<TRIPOS>ATOM
  1 S        0.0360    -0.2590     0.4370 S.o2  1 <1>   1.3330 
  2 O        0.2870     0.5540     1.5980 O.2   1 <1>  -0.6500 
  3 O        1.1000    -0.6840    -0.4370 O.2   1 <1>  -0.6500 
  4 N       -0.7740    -1.6570     1.0130 N.am  1 <1>  -0.7570 
  5 C       -1.2410     0.5140    -0.5310 C.3   1 <1>  -0.1350 
  6 C       -1.2100    -2.7140     0.2290 C.ar  1 <1>   0.1990 
  7 C       -2.5770    -3.0320     0.1100 C.ar  1 <1>   0.0860 
  8 C       -0.2640    -3.4820    -0.4430 C.ar  1 <1>  -0.1500 
  9 C       -3.6090    -2.2280     0.7400 C.2   1 <1>   0.5440 
 10 C       -2.9220    -4.1470    -0.6620 C.ar  1 <1>  -0.1500 
 11 C       -0.6340    -4.5630    -1.2130 C.ar  1 <1>  -0.1500 
 12 O       -3.3920    -1.5870     1.7530 O.2   1 <1>  -0.5700 
 13 N       -4.8550    -2.1430     0.1850 N.am  1 <1>  -0.7300 
 14 C       -1.9710    -4.9010    -1.3190 C.ar  1 <1>  -0.1500 
 15 C       -6.0050    -1.4040     0.7360 C.3   1 <1>   0.2200 
 16 C       -7.1740    -2.3680     0.8880 C.3   1 <1>  -0.1600 
 17 C       -6.4990    -0.4170    -0.3140 C.3   1 <1>  -0.1600 
 18 C       -7.8020    -2.4870    -0.5060 C.3   1 <1>  -0.1600 
 19 C       -7.3710    -1.2320    -1.2770 C.3   1 <1>  -0.1600 
 20 H       -1.4310    -1.3800     1.7520 H     1 <1>   0.4200 
 21 H       -2.1020     0.7100     0.0790 H     1 <1>   0.0800 
 22 H       -1.5280    -0.1250    -1.3430 H     1 <1>   0.0800 
 23 H       -0.8850     1.4420    -0.9330 H     1 <1>   0.0800 
 24 H        0.7780    -3.2270    -0.3490 H     1 <1>   0.1500 
 25 H       -3.9540    -4.4370    -0.7480 H     1 <1>   0.1500 
 26 H        0.1140    -5.1450    -1.7250 H     1 <1>   0.1500 
 27 H       -5.0550    -2.6050    -0.7010 H     1 <1>   0.3700 
 28 H       -2.2620    -5.7530    -1.9110 H     1 <1>   0.1500 
 29 H       -5.7490    -0.9220     1.6660 H     1 <1>   0.0800 
 30 H       -7.8920    -1.9260     1.5570 H     1 <1>   0.0800 
 31 H       -6.8700    -3.3180     1.2930 H     1 <1>   0.0800 
 32 H       -5.6900     0.0900    -0.8100 H     1 <1>   0.0800 
 33 H       -7.1150     0.3170     0.1750 H     1 <1>   0.0800 
 34 H       -8.8750    -2.5560    -0.4370 H     1 <1>   0.0800 
 35 H       -7.4310    -3.3660    -1.0030 H     1 <1>   0.0800 
 36 H       -6.7970    -1.5170    -2.1430 H     1 <1>   0.0800 
 37 H       -8.2230    -0.6590    -1.6010 H     1 <1>   0.0800 
@<TRIPOS>BOND
  1   1   2  2   
  2   1   3  2   
  3   1   4  am  
  4   1   5  1   
  5   4   6  1   
  6   4  20  1   
  7   5  21  1   
  8   5  22  1   
  9   5  23  1   
 10   6   7  ar  
 11   6   8  ar  
 12   7   9  1   
 13   7  10  ar  
 14   8  11  ar  
 15   8  24  1   
 16   9  12  2   
 17   9  13  am  
 18  10  14  ar  
 19  10  25  1   
 20  11  14  ar  
 21  11  26  1   
 22  13  15  1   
 23  13  27  1   
 24  14  28  1   
 25  15  16  1   
 26  15  17  1   
 27  15  29  1   
 28  16  18  1   
 29  16  30  1   
 30  16  31  1   
 31  17  19  1   
 32  17  32  1   
 33  17  33  1   
 34  18  19  1   
 35  18  34  1   
 36  18  35  1   
 37  19  36  1   
 38  19  37  1   
@<TRIPOS>SUBSTRUCTURE
  1 ****   9 GROUP 4 **** **** 0

# MOE 2024.06 (io_trps.svl 2023.06)
