@<TRIPOS>MOLECULE
NONAME
47 49 1 0 0 
SMALL
USER_CHARGES


@<TRIPOS>ATOM
  1 O        0.8150    -2.5430     2.2090 O.2   1 <1>  -0.5700 
  2 C        0.0490    -2.0820     1.3970 C.2   1 <1>   0.5690 
  3 N        0.3850    -1.1670     0.4400 N.am  1 <1>  -0.5470 
  4 C       -1.4130    -2.5310     1.4130 C.3   1 <1>   0.1710 
  5 C        1.5820    -0.5230     0.0960 C.ar  1 <1>   0.1170 
  6 N       -2.3450    -1.5550     0.7730 N.3   1 <1>  -0.8100 
  7 C        2.8180    -0.8660     0.6370 C.ar  1 <1>  -0.1500 
  8 C        1.5340     0.5060    -0.8390 C.ar  1 <1>  -0.1500 
  9 C       -3.6450    -2.1950     0.4590 C.3   1 <1>   0.1100 
 10 C       -2.5780    -0.3840     1.6600 C.3   1 <1>   0.1100 
 11 C        3.9690    -0.1980     0.2580 C.ar  1 <1>  -0.1500 
 12 C        2.6830     1.1760    -1.2210 C.ar  1 <1>  -0.1500 
 13 C       -4.6450    -1.2080    -0.1730 C.3   1 <1>   0.2090 
 14 C       -3.5640     0.6290     1.0470 C.3   1 <1>   0.2090 
 15 C        3.9030     0.8240    -0.6720 C.ar  1 <1>  -0.1500 
 16 N       -4.8590    -0.0300     0.7160 N.pl3 1 <1>  -0.8380 
 17 C       -5.8970     0.8330     0.3390 C.ar  1 <1>   0.1000 
 18 C       -5.9020     1.6120    -0.8340 C.ar  1 <1>   0.0830 
 19 C       -6.9860     0.9120     1.1940 C.ar  1 <1>  -0.1500 
 20 O       -4.8250     1.5310    -1.6780 O.3   1 <1>  -0.3630 
 21 C       -6.9900     2.4370    -1.1060 C.ar  1 <1>  -0.1500 
 22 C       -8.0630     1.7340     0.9160 C.ar  1 <1>  -0.1500 
 23 C       -4.7960     2.2250    -2.9050 C.3   1 <1>   0.0400 
 24 C       -8.0650     2.4980    -0.2350 C.ar  1 <1>  -0.1500 
 25 H       -0.4480    -0.8780    -0.0820 H     1 <1>   0.3700 
 26 H       -1.7120    -2.7160     2.4300 H     1 <1>   0.0800 
 27 H       -1.4580    -3.4650     0.8820 H     1 <1>   0.0800 
 28 H        2.8900    -1.6580     1.3580 H     1 <1>   0.1500 
 29 H        0.5910     0.7860    -1.2710 H     1 <1>   0.1500 
 30 H       -4.0830    -2.5940     1.3580 H     1 <1>   0.0800 
 31 H       -3.4860    -3.0080    -0.2270 H     1 <1>   0.0800 
 32 H       -1.6460     0.1190     1.8530 H     1 <1>   0.0800 
 33 H       -2.9770    -0.7140     2.6040 H     1 <1>   0.0800 
 34 H        4.9150    -0.4760     0.6870 H     1 <1>   0.1500 
 35 H        2.6290     1.9700    -1.9450 H     1 <1>   0.1500 
 36 H       -5.5860    -1.7010    -0.3370 H     1 <1>   0.0800 
 37 H       -4.2660    -0.8820    -1.1260 H     1 <1>   0.0800 
 38 H       -3.1310     1.0530     0.1580 H     1 <1>   0.0800 
 39 H       -3.7440     1.4270     1.7470 H     1 <1>   0.0800 
 40 H        4.7990     1.3430    -0.9670 H     1 <1>   0.1500 
 41 H       -6.9780     0.3160     2.0870 H     1 <1>   0.1500 
 42 H       -7.0260     3.0450    -1.9890 H     1 <1>   0.1500 
 43 H       -8.8960     1.7770     1.5960 H     1 <1>   0.1500 
 44 H       -3.8740     1.9830    -3.4020 H     1 <1>   0.0800 
 45 H       -4.8400     3.2820    -2.7100 H     1 <1>   0.0800 
 46 H       -5.6300     1.9060    -3.5060 H     1 <1>   0.0800 
 47 H       -8.9010     3.1380    -0.4540 H     1 <1>   0.1500 
@<TRIPOS>BOND
  1   1   2  2   
  2   2   3  am  
  3   2   4  1   
  4   3   5  1   
  5   3  25  1   
  6   4   6  1   
  7   4  26  1   
  8   4  27  1   
  9   5   7  ar  
 10   5   8  ar  
 11   6   9  1   
 12   6  10  1   
 13   7  11  ar  
 14   7  28  1   
 15   8  12  ar  
 16   8  29  1   
 17   9  13  1   
 18   9  30  1   
 19   9  31  1   
 20  10  14  1   
 21  10  32  1   
 22  10  33  1   
 23  11  15  ar  
 24  11  34  1   
 25  12  15  ar  
 26  12  35  1   
 27  13  16  1   
 28  13  36  1   
 29  13  37  1   
 30  14  16  1   
 31  14  38  1   
 32  14  39  1   
 33  15  40  1   
 34  16  17  1   
 35  17  18  ar  
 36  17  19  ar  
 37  18  20  1   
 38  18  21  ar  
 39  19  22  ar  
 40  19  41  1   
 41  20  23  1   
 42  21  24  ar  
 43  21  42  1   
 44  22  24  ar  
 45  22  43  1   
 46  23  44  1   
 47  23  45  1   
 48  23  46  1   
 49  24  47  1   
@<TRIPOS>SUBSTRUCTURE
  1 ****  10 GROUP 4 **** **** 0

# MOE 2024.06 (io_trps.svl 2023.06)
