@<TRIPOS>MOLECULE
NONAME
49 50 1 0 0 
SMALL
USER_CHARGES


@<TRIPOS>ATOM
  1 O       -0.0120     0.8090    -2.2480 O.2   1 <1>  -0.5700 
  2 C       -0.7150     1.7910    -2.1880 C.2   1 <1>   0.5690 
  3 N       -2.0900     1.6480    -2.1470 N.am  1 <1>  -0.6600 
  4 C        0.0010     3.1500    -2.0680 C.3   1 <1>   0.2610 
  5 C       -2.6890     0.3020    -1.9140 C.3   1 <1>   0.1400 
  6 C       -3.0540     2.7380    -1.8160 C.3   1 <1>   0.1400 
  7 O       -0.5230     3.8730    -0.9600 O.3   1 <1>  -0.3630 
  8 C       -0.1050     4.0250    -3.3240 C.3   1 <1>  -0.2400 
  9 C       -3.0350     0.1660    -0.4170 C.3   1 <1>   0.3430 
 10 C       -3.3950     2.6600    -0.3160 C.3   1 <1>   0.3430 
 11 C        0.3560     4.4340    -0.1030 C.ar  1 <1>   0.0820 
 12 N       -3.9120     1.2920     0.0810 N.4   1 <1>  -0.9590 
 13 C        1.0920     3.6710     0.8050 C.ar  1 <1>  -0.1440 
 14 C        0.4870     5.8120    -0.1480 C.ar  1 <1>  -0.1500 
 15 C       -4.0880     1.2150     1.5500 C.3   1 <1>   0.4810 
 16 C        1.9970     4.3190     1.6440 C.ar  1 <1>  -0.1440 
 17 C        0.9090     2.1550     0.8810 C.3   1 <1>  -0.0970 
 18 C        1.3740     6.4460     0.6970 C.ar  1 <1>  -0.1500 
 19 C       -5.1560     2.2110     1.9400 C.2   1 <1>  -0.2880 
 20 C        2.1260     5.7000     1.5840 C.ar  1 <1>  -0.1500 
 21 C        2.8680     3.5630     2.6400 C.3   1 <1>  -0.0970 
 22 C       -4.9480     3.3310     2.6410 C.2   1 <1>  -0.3000 
 23 H        1.0420     2.9560    -1.8760 H     1 <1>   0.0800 
 24 H       -2.0040    -0.4790    -2.1990 H     1 <1>   0.0800 
 25 H       -3.5740     0.1880    -2.5150 H     1 <1>   0.0800 
 26 H       -3.9480     2.6200    -2.4030 H     1 <1>   0.0800 
 27 H       -2.6520     3.7060    -2.0480 H     1 <1>   0.0800 
 28 H       -1.1260     4.2560    -3.5590 H     1 <1>   0.0800 
 29 H        0.4480     4.9360    -3.1840 H     1 <1>   0.0800 
 30 H        0.3230     3.4990    -4.1600 H     1 <1>   0.0800 
 31 H       -2.1080     0.1600     0.1330 H     1 <1>   0.0800 
 32 H       -3.5210    -0.7820    -0.2530 H     1 <1>   0.0800 
 33 H       -4.1280     3.4140    -0.0790 H     1 <1>   0.0800 
 34 H       -2.5010     2.8880     0.2430 H     1 <1>   0.0800 
 35 H       -4.8430     1.1870    -0.3390 H     1 <1>   0.4500 
 36 H       -0.0990     6.3820    -0.8450 H     1 <1>   0.1500 
 37 H       -3.1610     1.4560     2.0450 H     1 <1>   0.0800 
 38 H       -4.3890     0.2230     1.8470 H     1 <1>   0.0800 
 39 H       -0.0810     1.8720     0.5800 H     1 <1>   0.0800 
 40 H        1.0480     1.7950     1.8830 H     1 <1>   0.0800 
 41 H        1.6210     1.6690     0.2380 H     1 <1>   0.0800 
 42 H        1.4820     7.5160     0.6650 H     1 <1>   0.1500 
 43 H       -6.1380     1.9260     1.6000 H     1 <1>   0.1500 
 44 H        2.8180     6.2070     2.2330 H     1 <1>   0.1500 
 45 H        3.3560     2.7370     2.1560 H     1 <1>   0.0800 
 46 H        2.2660     3.1950     3.4500 H     1 <1>   0.0800 
 47 H        3.6300     4.2020     3.0480 H     1 <1>   0.0800 
 48 H       -5.7310     4.0220     2.9120 H     1 <1>   0.1500 
 49 H       -3.9920     3.6620     3.0140 H     1 <1>   0.1500 
@<TRIPOS>BOND
  1   1   2  2   
  2   2   3  am  
  3   2   4  1   
  4   3   5  1   
  5   3   6  1   
  6   4   7  1   
  7   4   8  1   
  8   4  23  1   
  9   5   9  1   
 10   5  24  1   
 11   5  25  1   
 12   6  10  1   
 13   6  26  1   
 14   6  27  1   
 15   7  11  1   
 16   8  28  1   
 17   8  29  1   
 18   8  30  1   
 19   9  12  1   
 20   9  31  1   
 21   9  32  1   
 22  10  12  1   
 23  10  33  1   
 24  10  34  1   
 25  11  13  ar  
 26  11  14  ar  
 27  12  15  1   
 28  12  35  1   
 29  13  16  ar  
 30  13  17  1   
 31  14  18  ar  
 32  14  36  1   
 33  15  19  1   
 34  15  37  1   
 35  15  38  1   
 36  16  20  ar  
 37  16  21  1   
 38  17  39  1   
 39  17  40  1   
 40  17  41  1   
 41  18  20  ar  
 42  18  42  1   
 43  19  22  2   
 44  19  43  1   
 45  20  44  1   
 46  21  45  1   
 47  21  46  1   
 48  21  47  1   
 49  22  48  1   
 50  22  49  1   
@<TRIPOS>SUBSTRUCTURE
  1 ****   7 GROUP 4 **** **** 0

# MOE 2024.06 (io_trps.svl 2023.06)
