@<TRIPOS>MOLECULE
NONAME
46 48 1 0 0 
SMALL
USER_CHARGES


@<TRIPOS>ATOM
  1 CL      -0.3910    -0.2750     0.7570 Cl    1 <1>  -0.1770 
  2 C       -1.8630     0.6510     0.9580 C.ar  1 <1>   0.1770 
  3 C       -3.0750     0.1950     0.4520 C.ar  1 <1>  -0.1440 
  4 C       -1.7560     1.8510     1.6330 C.ar  1 <1>  -0.1500 
  5 C       -4.2120     0.9920     0.6250 C.ar  1 <1>   0.1170 
  6 C       -3.1700    -1.1480    -0.2760 C.3   1 <1>  -0.0970 
  7 C       -2.8820     2.6320     1.8110 C.ar  1 <1>  -0.1500 
  8 N       -5.4440     0.5820     0.0880 N.am  1 <1>  -0.5470 
  9 C       -4.0950     2.2020     1.3060 C.ar  1 <1>  -0.1500 
 10 C       -6.7260     0.8190     0.5040 C.2   1 <1>   0.5690 
 11 O       -6.9930     1.4620     1.4900 O.2   1 <1>  -0.5700 
 12 C       -7.8540     0.2140    -0.3360 C.3   1 <1>  -0.0190 
 13 C       -9.2110     0.9160    -0.1160 C.3   1 <1>  -0.1600 
 14 C       -7.9990    -1.2950    -0.0630 C.3   1 <1>  -0.1600 
 15 C      -10.3290     0.2780    -0.9440 C.3   1 <1>   0.1400 
 16 C       -9.1200    -1.9150    -0.9020 C.3   1 <1>   0.1400 
 17 N      -10.3920    -1.1820    -0.6540 N.am  1 <1>  -0.6600 
 18 C      -11.4700    -1.7950    -0.0430 C.2   1 <1>   0.5440 
 19 O      -11.3320    -2.9110     0.4200 O.2   1 <1>  -0.5700 
 20 C      -12.7620    -1.1470     0.0710 C.ar  1 <1>   0.0860 
 21 C      -13.3450    -0.9400     1.3250 C.ar  1 <1>  -0.1500 
 22 C      -13.4640    -0.7200    -1.0600 C.ar  1 <1>  -0.1500 
 23 C      -14.5740    -0.3170     1.4540 C.ar  1 <1>  -0.1500 
 24 C      -14.6940    -0.0940    -0.9510 C.ar  1 <1>  -0.1500 
 25 C      -15.2270     0.0980     0.3090 C.ar  1 <1>   0.1900 
 26 F      -16.3840     0.6890     0.4210 F     1 <1>  -0.1900 
 27 H       -0.8020     2.1680     2.0140 H     1 <1>   0.1500 
 28 H       -2.3410    -1.7900    -0.0410 H     1 <1>   0.0800 
 29 H       -3.1830    -0.9880    -1.3390 H     1 <1>   0.0800 
 30 H       -4.0610    -1.6750     0.0150 H     1 <1>   0.0800 
 31 H       -2.8170     3.5690     2.3370 H     1 <1>   0.1500 
 32 H       -5.3580    -0.0490    -0.7040 H     1 <1>   0.3700 
 33 H       -4.9610     2.8230     1.4440 H     1 <1>   0.1500 
 34 H       -7.5880     0.3460    -1.3700 H     1 <1>   0.0800 
 35 H       -9.1250     1.9560    -0.3740 H     1 <1>   0.0800 
 36 H       -9.4830     0.8620     0.9250 H     1 <1>   0.0800 
 37 H       -8.2190    -1.4560     0.9790 H     1 <1>   0.0800 
 38 H       -7.0770    -1.8040    -0.2830 H     1 <1>   0.0800 
 39 H      -10.1370     0.4190    -1.9940 H     1 <1>   0.0800 
 40 H      -11.2590     0.7630    -0.7060 H     1 <1>   0.0800 
 41 H       -9.2230    -2.9580    -0.6520 H     1 <1>   0.0800 
 42 H       -8.8790    -1.8510    -1.9490 H     1 <1>   0.0800 
 43 H      -12.8190    -1.2800     2.2010 H     1 <1>   0.1500 
 44 H      -13.0340    -0.8880    -2.0320 H     1 <1>   0.1500 
 45 H      -15.0210    -0.1570     2.4180 H     1 <1>   0.1500 
 46 H      -15.2350     0.2360    -1.8190 H     1 <1>   0.1500 
@<TRIPOS>BOND
  1   1   2  1   
  2   2   3  ar  
  3   2   4  ar  
  4   3   5  ar  
  5   3   6  1   
  6   4   7  ar  
  7   4  27  1   
  8   5   8  1   
  9   5   9  ar  
 10   6  28  1   
 11   6  29  1   
 12   6  30  1   
 13   7   9  ar  
 14   7  31  1   
 15   8  10  am  
 16   8  32  1   
 17   9  33  1   
 18  10  11  2   
 19  10  12  1   
 20  12  13  1   
 21  12  14  1   
 22  12  34  1   
 23  13  15  1   
 24  13  35  1   
 25  13  36  1   
 26  14  16  1   
 27  14  37  1   
 28  14  38  1   
 29  15  17  1   
 30  15  39  1   
 31  15  40  1   
 32  16  17  1   
 33  16  41  1   
 34  16  42  1   
 35  17  18  am  
 36  18  19  2   
 37  18  20  1   
 38  20  21  ar  
 39  20  22  ar  
 40  21  23  ar  
 41  21  43  1   
 42  22  24  ar  
 43  22  44  1   
 44  23  25  ar  
 45  23  45  1   
 46  24  25  ar  
 47  24  46  1   
 48  25  26  1   
@<TRIPOS>SUBSTRUCTURE
  1 ****  12 GROUP 4 **** **** 0

# MOE 2024.06 (io_trps.svl 2023.06)
