@<TRIPOS>MOLECULE
NONAME
34 35 1 0 0 
SMALL
USER_CHARGES


@<TRIPOS>ATOM
  1 BR      -0.0920     0.2790     0.7900 Br    1 <1>  -0.1110 
  2 C        1.5270    -0.7110     0.4370 C.ar  1 <1>   0.1110 
  3 C        1.5210    -2.0990     0.4940 C.ar  1 <1>   0.0820 
  4 C        2.6690     0.0040     0.1410 C.ar  1 <1>  -0.1500 
  5 O        0.4120    -2.8040     0.7910 O.3   1 <1>  -0.3630 
  6 C        2.7080    -2.7700     0.2550 C.ar  1 <1>  -0.1500 
  7 C        3.8730    -0.6610    -0.1020 C.ar  1 <1>   0.0860 
  8 C       -0.4840    -3.0560    -0.2670 C.3   1 <1>   0.0400 
  9 C        3.8600    -2.0610    -0.0430 C.ar  1 <1>  -0.1500 
 10 C        5.0790     0.0870    -0.4020 C.2   1 <1>   0.5440 
 11 O        5.0040     1.1510    -0.9820 O.2   1 <1>  -0.5700 
 12 N        6.2930    -0.3980    -0.0050 N.am  1 <1>  -0.4930 
 13 C        7.5780     0.0730    -0.2250 C.2   1 <1>   0.5790 
 14 N        7.9270     1.0460    -1.0640 N.2   1 <1>  -0.2270 
 15 N        8.5530    -0.4650     0.4030 N.2   1 <1>  -0.7070 
 16 N        9.1950     1.1470    -0.9700 N.2   1 <1>  -0.4180 
 17 N        9.5620     0.2370    -0.0850 N.pl3 1 <1>   0.5800 
 18 C       10.9640     0.0230     0.3230 C.3   1 <1>   0.0960 
 19 C       11.6190    -1.1040    -0.4920 C.3   1 <1>  -0.1600 
 20 C       13.0770    -1.3230    -0.0700 C.3   1 <1>  -0.2400 
 21 H        2.6330     1.0790     0.0990 H     1 <1>   0.1500 
 22 H        2.7200    -3.8450     0.3020 H     1 <1>   0.1500 
 23 H       -1.3100    -3.6250     0.1210 H     1 <1>   0.0800 
 24 H        0.0250    -3.6190    -1.0290 H     1 <1>   0.0800 
 25 H       -0.8370    -2.1210    -0.6630 H     1 <1>   0.0800 
 26 H        4.7640    -2.6110    -0.2420 H     1 <1>   0.1500 
 27 H        6.3000    -1.1890     0.6280 H     1 <1>   0.3700 
 28 H       10.9730    -0.2220     1.3690 H     1 <1>   0.0800 
 29 H       11.4990     0.9430     0.1800 H     1 <1>   0.0800 
 30 H       11.5890    -0.8510    -1.5390 H     1 <1>   0.0800 
 31 H       11.0680    -2.0180    -0.3450 H     1 <1>   0.0800 
 32 H       13.6550    -0.4290    -0.2260 H     1 <1>   0.0800 
 33 H       13.5130    -2.1150    -0.6540 H     1 <1>   0.0800 
 34 H       13.1340    -1.5970     0.9690 H     1 <1>   0.0800 
@<TRIPOS>BOND
  1   1   2  1   
  2   2   3  ar  
  3   2   4  ar  
  4   3   5  1   
  5   3   6  ar  
  6   4   7  ar  
  7   4  21  1   
  8   5   8  1   
  9   6   9  ar  
 10   6  22  1   
 11   7   9  ar  
 12   7  10  1   
 13   8  23  1   
 14   8  24  1   
 15   8  25  1   
 16   9  26  1   
 17  10  11  2   
 18  10  12  am  
 19  12  13  1   
 20  12  27  1   
 21  13  14  1   
 22  13  15  2   
 23  14  16  2   
 24  15  17  1   
 25  16  17  1   
 26  17  18  1   
 27  18  19  1   
 28  18  28  1   
 29  18  29  1   
 30  19  20  1   
 31  19  30  1   
 32  19  31  1   
 33  20  32  1   
 34  20  33  1   
 35  20  34  1   
@<TRIPOS>SUBSTRUCTURE
  1 ****  12 GROUP 4 **** **** 0

# MOE 2024.06 (io_trps.svl 2023.06)
