@<TRIPOS>MOLECULE
NONAME
41 41 1 0 0 
SMALL
USER_CHARGES


@<TRIPOS>ATOM
  1 O       -0.0270     0.0720    -0.7030 O.2   1 <1>  -0.5700 
  2 C        0.0980     1.0880    -0.0520 C.2   1 <1>   0.6900 
  3 N        1.3010     1.7190     0.0630 N.am  1 <1>  -0.5470 
  4 N       -0.9480     1.6700     0.5770 N.am  1 <1>  -0.7300 
  5 C        2.5910     1.4210    -0.3980 C.ar  1 <1>   0.1170 
  6 C       -2.3550     1.2670     0.6820 C.3   1 <1>   0.5000 
  7 C        3.5420     2.4510    -0.5630 C.ar  1 <1>   0.0860 
  8 C        2.9550     0.1060    -0.6860 C.ar  1 <1>  -0.1500 
  9 C       -2.8400     2.0250     1.8760 C.1   1 <1>  -0.2000 
 10 C       -3.1440     1.7770    -0.5470 C.3   1 <1>  -0.1600 
 11 C       -2.5020    -0.2520     0.9550 C.3   1 <1>  -0.1600 
 12 C        3.2460     3.8410    -0.2620 C.2   1 <1>   0.6340 
 13 C        4.8130     2.0960    -1.0330 C.ar  1 <1>  -0.1500 
 14 C        4.2160    -0.2110    -1.1450 C.ar  1 <1>  -0.1500 
 15 C       -3.2210     2.6330     2.8260 C.1   1 <1>  -0.1770 
 16 C       -2.7820     1.1600    -1.9100 C.3   1 <1>  -0.2400 
 17 C       -3.9300    -0.7430     1.2610 C.3   1 <1>  -0.2400 
 18 O        2.2990     4.2120     0.4080 O.2   1 <1>  -0.5700 
 19 O        4.0720     4.7750    -0.7490 O.3   1 <1>  -0.4300 
 20 C        5.1500     0.7910    -1.3220 C.ar  1 <1>  -0.1500 
 21 C        3.8690     6.1560    -0.5150 C.3   1 <1>   0.0400 
 22 H        1.2190     2.6680     0.4400 H     1 <1>   0.3700 
 23 H       -0.7640     2.4840     1.1550 H     1 <1>   0.3700 
 24 H        2.2450    -0.6890    -0.5470 H     1 <1>   0.1500 
 25 H       -3.0160     2.8430    -0.6140 H     1 <1>   0.0800 
 26 H       -4.1900     1.6060    -0.3720 H     1 <1>   0.0800 
 27 H       -1.8710    -0.5070     1.7890 H     1 <1>   0.0800 
 28 H       -2.1510    -0.8070     0.1060 H     1 <1>   0.0800 
 29 H        5.5590     2.8590    -1.1750 H     1 <1>   0.1500 
 30 H        4.4700    -1.2350    -1.3640 H     1 <1>   0.1500 
 31 H       -3.5680     3.1800     3.6860 H     1 <1>   0.1770 
 32 H       -1.7660     1.3930    -2.1750 H     1 <1>   0.0800 
 33 H       -3.4250     1.5580    -2.6740 H     1 <1>   0.0800 
 34 H       -2.8960     0.0910    -1.8940 H     1 <1>   0.0800 
 35 H       -4.3310    -0.2560     2.1320 H     1 <1>   0.0800 
 36 H       -3.9140    -1.8020     1.4490 H     1 <1>   0.0800 
 37 H       -4.5840    -0.5620     0.4270 H     1 <1>   0.0800 
 38 H        6.1360     0.5480    -1.6830 H     1 <1>   0.1500 
 39 H        4.6570     6.7030    -1.0010 H     1 <1>   0.0800 
 40 H        3.8910     6.3360     0.5450 H     1 <1>   0.0800 
 41 H        2.9150     6.4410    -0.9220 H     1 <1>   0.0800 
@<TRIPOS>BOND
  1   1   2  2   
  2   2   3  am  
  3   2   4  am  
  4   3   5  1   
  5   3  22  1   
  6   4   6  1   
  7   4  23  1   
  8   5   7  ar  
  9   5   8  ar  
 10   6   9  1   
 11   6  10  1   
 12   6  11  1   
 13   7  12  1   
 14   7  13  ar  
 15   8  14  ar  
 16   8  24  1   
 17   9  15  3   
 18  10  16  1   
 19  10  25  1   
 20  10  26  1   
 21  11  17  1   
 22  11  27  1   
 23  11  28  1   
 24  12  18  2   
 25  12  19  1   
 26  13  20  ar  
 27  13  29  1   
 28  14  20  ar  
 29  14  30  1   
 30  15  31  1   
 31  16  32  1   
 32  16  33  1   
 33  16  34  1   
 34  17  35  1   
 35  17  36  1   
 36  17  37  1   
 37  19  21  1   
 38  20  38  1   
 39  21  39  1   
 40  21  40  1   
 41  21  41  1   
@<TRIPOS>SUBSTRUCTURE
  1 ****   3 GROUP 4 **** **** 0

# MOE 2024.06 (io_trps.svl 2023.06)
