@<TRIPOS>MOLECULE
NONAME
53 56 1 0 0 
SMALL
USER_CHARGES


@<TRIPOS>ATOM
  1 O        1.5090    -2.0900     0.2570 O.3   1 <1>  -0.3630 
  2 C        2.7150    -1.7010     0.6790 C.ar  1 <1>   0.0830 
  3 C        1.1030    -3.1580     1.1110 C.3   1 <1>   0.4000 
  4 C        3.1080    -2.4590     1.7430 C.ar  1 <1>   0.0830 
  5 C        3.5150    -0.6980     0.1710 C.ar  1 <1>  -0.1500 
  6 O        2.1660    -3.3590     2.0400 O.3   1 <1>  -0.3630 
  7 C        4.3250    -2.2560     2.3610 C.ar  1 <1>  -0.1500 
  8 C        4.7520    -0.4780     0.7700 C.ar  1 <1>  -0.1440 
  9 C        5.1470    -1.2540     1.8600 C.ar  1 <1>  -0.1500 
 10 C        5.6840     0.5950     0.2310 C.3   1 <1>   0.2540 
 11 N        6.8660    -0.0340    -0.3890 N.3   1 <1>  -0.8100 
 12 C        6.5080    -0.8840    -1.5560 C.3   1 <1>   0.1100 
 13 C        7.8980     0.9600    -0.7620 C.3   1 <1>   0.1100 
 14 C        7.7460    -1.5560    -2.1980 C.3   1 <1>   0.3430 
 15 C        9.1630     0.2890    -1.3560 C.3   1 <1>   0.3430 
 16 N        8.9890    -1.2000    -1.4460 N.4   1 <1>  -0.9590 
 17 C       10.2050    -1.9360    -1.8710 C.3   1 <1>   0.4860 
 18 C       11.3290    -1.6020    -0.9100 C.ar  1 <1>  -0.1430 
 19 C       11.2820    -2.0510     0.4020 C.ar  1 <1>  -0.1500 
 20 C       12.4040    -0.8340    -1.3310 C.ar  1 <1>  -0.1500 
 21 C       12.2890    -1.7260     1.2960 C.ar  1 <1>  -0.1430 
 22 C       13.4140    -0.5070    -0.4450 C.ar  1 <1>  -0.1500 
 23 C       13.3620    -0.9470     0.8740 C.ar  1 <1>   0.0830 
 24 C       12.2190    -2.2260     2.7330 C.3   1 <1>  -0.0970 
 25 O       14.3220    -0.6500     1.7890 O.3   1 <1>  -0.3630 
 26 C       15.4820     0.0750     1.4470 C.3   1 <1>   0.0400 
 27 H        0.9580    -4.0510     0.5290 H     1 <1>   0.0800 
 28 H        0.2100    -2.8770     1.6410 H     1 <1>   0.0800 
 29 H        3.1720    -0.1180    -0.6660 H     1 <1>   0.1500 
 30 H        4.6140    -2.8610     3.2010 H     1 <1>   0.1500 
 31 H        6.1040    -1.0790     2.3200 H     1 <1>   0.1500 
 32 H        5.9970     1.2210     1.0500 H     1 <1>   0.0800 
 33 H        5.1700     1.2120    -0.4870 H     1 <1>   0.0800 
 34 H        5.9970    -0.2940    -2.2990 H     1 <1>   0.0800 
 35 H        5.8310    -1.6620    -1.2440 H     1 <1>   0.0800 
 36 H        8.1860     1.5220     0.1110 H     1 <1>   0.0800 
 37 H        7.4960     1.6570    -1.4780 H     1 <1>   0.0800 
 38 H        7.8300    -1.2400    -3.2240 H     1 <1>   0.0800 
 39 H        7.6020    -2.6240    -2.1910 H     1 <1>   0.0800 
 40 H       10.0050     0.5220    -0.7230 H     1 <1>   0.0800 
 41 H        9.3620     0.7010    -2.3310 H     1 <1>   0.0800 
 42 H        8.7760    -1.4600    -0.4700 H     1 <1>   0.4500 
 43 H       10.4810    -1.6530    -2.8730 H     1 <1>   0.0800 
 44 H       10.0230    -2.9980    -1.8500 H     1 <1>   0.0800 
 45 H       10.4620    -2.6600     0.7400 H     1 <1>   0.1500 
 46 H       12.4700    -0.4820    -2.3460 H     1 <1>   0.1500 
 47 H       14.2350     0.0890    -0.7970 H     1 <1>   0.1500 
 48 H       11.3350    -2.8130     2.9050 H     1 <1>   0.0800 
 49 H       12.2140    -1.3900     3.4090 H     1 <1>   0.0800 
 50 H       13.0800    -2.8340     2.9470 H     1 <1>   0.0800 
 51 H       16.0950     0.1580     2.3270 H     1 <1>   0.0800 
 52 H       15.1950     1.0550     1.1100 H     1 <1>   0.0800 
 53 H       16.0150    -0.4590     0.6800 H     1 <1>   0.0800 
@<TRIPOS>BOND
  1   1   2  1   
  2   1   3  1   
  3   2   4  ar  
  4   2   5  ar  
  5   3   6  1   
  6   3  27  1   
  7   3  28  1   
  8   4   6  1   
  9   4   7  ar  
 10   5   8  ar  
 11   5  29  1   
 12   7   9  ar  
 13   7  30  1   
 14   8   9  ar  
 15   8  10  1   
 16   9  31  1   
 17  10  11  1   
 18  10  32  1   
 19  10  33  1   
 20  11  12  1   
 21  11  13  1   
 22  12  14  1   
 23  12  34  1   
 24  12  35  1   
 25  13  15  1   
 26  13  36  1   
 27  13  37  1   
 28  14  16  1   
 29  14  38  1   
 30  14  39  1   
 31  15  16  1   
 32  15  40  1   
 33  15  41  1   
 34  16  17  1   
 35  16  42  1   
 36  17  18  1   
 37  17  43  1   
 38  17  44  1   
 39  18  19  ar  
 40  18  20  ar  
 41  19  21  ar  
 42  19  45  1   
 43  20  22  ar  
 44  20  46  1   
 45  21  23  ar  
 46  21  24  1   
 47  22  23  ar  
 48  22  47  1   
 49  23  25  1   
 50  24  48  1   
 51  24  49  1   
 52  24  50  1   
 53  25  26  1   
 54  26  51  1   
 55  26  52  1   
 56  26  53  1   
@<TRIPOS>SUBSTRUCTURE
  1 ****  11 GROUP 4 **** **** 0

# MOE 2024.06 (io_trps.svl 2023.06)
