@<TRIPOS>MOLECULE
NONAME
38 39 1 0 0 
SMALL
USER_CHARGES


@<TRIPOS>ATOM
  1 O        0.4910     0.9720     0.0880 O.2   1 <1>  -0.5700 
  2 C        0.1100     1.8430    -0.6710 C.2   1 <1>   0.6900 
  3 N        1.0270     2.7180    -1.1720 N.am  1 <1>  -0.6600 
  4 N       -1.1930     2.0210    -1.0150 N.am  1 <1>  -0.5470 
  5 C        1.1250     4.0390    -0.4920 C.3   1 <1>   0.1400 
  6 C        2.3560     2.1640    -1.5650 C.3   1 <1>   0.1400 
  7 C       -2.3690     1.3790    -0.5950 C.ar  1 <1>   0.1170 
  8 C        2.0490     3.9340     0.7410 C.3   1 <1>   0.3430 
  9 C        3.2860     2.0630    -0.3370 C.3   1 <1>   0.3430 
 10 C       -3.5040     1.4840    -1.3910 C.ar  1 <1>  -0.1500 
 11 C       -2.4600     0.6560     0.5910 C.ar  1 <1>  -0.1500 
 12 N        3.4090     3.3780     0.3940 N.4   1 <1>  -0.9590 
 13 C       -4.6920     0.8830    -1.0170 C.ar  1 <1>  -0.1500 
 14 C       -3.6460     0.0520     0.9700 C.ar  1 <1>  -0.1500 
 15 C        4.2380     3.2110     1.6250 C.3   1 <1>   0.2630 
 16 C       -4.7740     0.1630     0.1630 C.ar  1 <1>   0.0830 
 17 O       -5.9770    -0.3970     0.4570 O.3   1 <1>  -0.3630 
 18 C       -6.1460    -1.1760     1.6190 C.3   1 <1>   0.0400 
 19 H       -1.3080     2.6570    -1.8000 H     1 <1>   0.3700 
 20 H        0.1460     4.3570    -0.1730 H     1 <1>   0.0800 
 21 H        1.5030     4.7750    -1.1800 H     1 <1>   0.0800 
 22 H        2.8010     2.7880    -2.3200 H     1 <1>   0.0800 
 23 H        2.2220     1.1810    -1.9860 H     1 <1>   0.0800 
 24 H        1.5720     3.2890     1.4620 H     1 <1>   0.0800 
 25 H        2.1550     4.9090     1.1890 H     1 <1>   0.0800 
 26 H        4.2580     1.7240    -0.6550 H     1 <1>   0.0800 
 27 H        2.8790     1.3170     0.3270 H     1 <1>   0.0800 
 28 H       -3.4640     2.0350    -2.3120 H     1 <1>   0.1500 
 29 H       -1.6050     0.5590     1.2320 H     1 <1>   0.1500 
 30 H        3.8750     4.0460    -0.2360 H     1 <1>   0.4500 
 31 H       -5.5660     0.9660    -1.6370 H     1 <1>   0.1500 
 32 H       -3.6700    -0.4980     1.8910 H     1 <1>   0.1500 
 33 H        3.7700     2.5100     2.2980 H     1 <1>   0.0800 
 34 H        4.3500     4.1550     2.1350 H     1 <1>   0.0800 
 35 H        5.2180     2.8410     1.3710 H     1 <1>   0.0800 
 36 H       -7.1630    -1.5260     1.6420 H     1 <1>   0.0800 
 37 H       -5.9510    -0.5640     2.4820 H     1 <1>   0.0800 
 38 H       -5.4720    -2.0140     1.5790 H     1 <1>   0.0800 
@<TRIPOS>BOND
  1   1   2  2   
  2   2   3  am  
  3   2   4  am  
  4   3   5  1   
  5   3   6  1   
  6   4   7  1   
  7   4  19  1   
  8   5   8  1   
  9   5  20  1   
 10   5  21  1   
 11   6   9  1   
 12   6  22  1   
 13   6  23  1   
 14   7  10  ar  
 15   7  11  ar  
 16   8  12  1   
 17   8  24  1   
 18   8  25  1   
 19   9  12  1   
 20   9  26  1   
 21   9  27  1   
 22  10  13  ar  
 23  10  28  1   
 24  11  14  ar  
 25  11  29  1   
 26  12  15  1   
 27  12  30  1   
 28  13  16  ar  
 29  13  31  1   
 30  14  16  ar  
 31  14  32  1   
 32  15  33  1   
 33  15  34  1   
 34  15  35  1   
 35  16  17  1   
 36  17  18  1   
 37  18  36  1   
 38  18  37  1   
 39  18  38  1   
@<TRIPOS>SUBSTRUCTURE
  1 ****   4 GROUP 4 **** **** 0

# MOE 2024.06 (io_trps.svl 2023.06)
