@<TRIPOS>MOLECULE
NONAME
50 52 1 0 0 
SMALL
USER_CHARGES


@<TRIPOS>ATOM
  1 S      -10.6370    -2.3110    -2.5670 S.3   1 <1>  -0.2860 
  2 C      -11.5340    -1.5860    -1.1980 C.2   1 <1>   0.2420 
  3 C       -9.2810    -1.1090    -2.9460 C.3   1 <1>   0.0700 
  4 N      -11.2380    -0.4330    -0.7130 N.2   1 <1>  -0.5650 
  5 N      -12.5620    -2.2440    -0.6040 N.pl3 1 <1>   0.0480 
  6 C       -8.0950    -1.3940    -2.0160 C.3   1 <1>   0.3430 
  7 C      -12.1590    -0.2790     0.2820 C.ar  1 <1>   0.2270 
  8 C      -12.9770    -1.3950     0.3770 C.ar  1 <1>  -0.1520 
  9 C      -13.0230    -3.6250    -0.8510 C.3   1 <1>   0.2390 
 10 N       -8.3620    -0.9510    -0.6110 N.4   1 <1>  -0.9590 
 11 C      -12.3470     0.7960     1.1480 C.ar  1 <1>  -0.1500 
 12 C      -13.9810    -1.4710     1.3450 C.ar  1 <1>  -0.1500 
 13 C      -12.0640    -4.6180    -0.2070 C.ar  1 <1>  -0.1440 
 14 C       -7.9150     0.4540    -0.4110 C.3   1 <1>   0.3430 
 15 C       -7.8070    -1.9030     0.3900 C.3   1 <1>   0.3430 
 16 C      -13.3370     0.7270     2.1040 C.ar  1 <1>  -0.1500 
 17 C      -14.1500    -0.4080     2.2030 C.ar  1 <1>  -0.1500 
 18 C      -11.9700    -4.7060     1.1750 C.ar  1 <1>  -0.1500 
 19 C      -11.2730    -5.4420    -0.9950 C.ar  1 <1>  -0.1500 
 20 C       -8.3700     0.9860     0.9440 C.3   1 <1>  -0.2400 
 21 C       -8.6830    -3.1470     0.4520 C.3   1 <1>  -0.2400 
 22 C      -11.0960    -5.6050     1.7610 C.ar  1 <1>  -0.1500 
 23 C      -10.3990    -6.3410    -0.4090 C.ar  1 <1>  -0.1500 
 24 C      -10.3100    -6.4230     0.9690 C.ar  1 <1>  -0.1500 
 25 H       -9.6660    -0.1110    -2.8410 H     1 <1>   0.0800 
 26 H       -9.0060    -1.2830    -3.9710 H     1 <1>   0.0800 
 27 H       -7.2170    -0.8930    -2.3900 H     1 <1>   0.0800 
 28 H       -7.9010    -2.4530    -2.0380 H     1 <1>   0.0800 
 29 H      -13.0810    -3.7890    -1.9120 H     1 <1>   0.0800 
 30 H      -14.0070    -3.7480    -0.4380 H     1 <1>   0.0800 
 31 H       -9.3970    -0.9440    -0.4890 H     1 <1>   0.4500 
 32 H      -11.7220     1.6640     1.0530 H     1 <1>   0.1500 
 33 H      -14.6120    -2.3400     1.4180 H     1 <1>   0.1500 
 34 H       -8.3450     1.0730    -1.1820 H     1 <1>   0.0800 
 35 H       -6.8410     0.5180    -0.4860 H     1 <1>   0.0800 
 36 H       -7.7990    -1.4500     1.3670 H     1 <1>   0.0800 
 37 H       -6.7940    -2.1690     0.1330 H     1 <1>   0.0800 
 38 H      -13.4960     1.5470     2.7830 H     1 <1>   0.1500 
 39 H      -14.9170    -0.4370     2.9590 H     1 <1>   0.1500 
 40 H      -12.5750    -4.0770     1.8050 H     1 <1>   0.1500 
 41 H      -11.3320    -5.3930    -2.0690 H     1 <1>   0.1500 
 42 H       -9.4220     0.8190     1.0860 H     1 <1>   0.0800 
 43 H       -8.1940     2.0460     0.9810 H     1 <1>   0.0800 
 44 H       -7.8190     0.5390     1.7500 H     1 <1>   0.0800 
 45 H       -9.6880    -2.8850     0.7310 H     1 <1>   0.0800 
 46 H       -8.3000    -3.8160     1.2020 H     1 <1>   0.0800 
 47 H       -8.6970    -3.6760    -0.4820 H     1 <1>   0.0800 
 48 H      -11.0300    -5.6710     2.8330 H     1 <1>   0.1500 
 49 H       -9.7920    -6.9820    -1.0250 H     1 <1>   0.1500 
 50 H       -9.6330    -7.1250     1.4250 H     1 <1>   0.1500 
@<TRIPOS>BOND
  1   1   2  1   
  2   1   3  1   
  3   2   4  2   
  4   2   5  1   
  5   3   6  1   
  6   3  25  1   
  7   3  26  1   
  8   4   7  1   
  9   5   8  1   
 10   5   9  1   
 11   6  10  1   
 12   6  27  1   
 13   6  28  1   
 14   7   8  ar  
 15   7  11  ar  
 16   8  12  ar  
 17   9  13  1   
 18   9  29  1   
 19   9  30  1   
 20  10  14  1   
 21  10  15  1   
 22  10  31  1   
 23  11  16  ar  
 24  11  32  1   
 25  12  17  ar  
 26  12  33  1   
 27  13  18  ar  
 28  13  19  ar  
 29  14  20  1   
 30  14  34  1   
 31  14  35  1   
 32  15  21  1   
 33  15  36  1   
 34  15  37  1   
 35  16  17  ar  
 36  16  38  1   
 37  17  39  1   
 38  18  22  ar  
 39  18  40  1   
 40  19  23  ar  
 41  19  41  1   
 42  20  42  1   
 43  20  43  1   
 44  20  44  1   
 45  21  45  1   
 46  21  46  1   
 47  21  47  1   
 48  22  24  ar  
 49  22  48  1   
 50  23  24  ar  
 51  23  49  1   
 52  24  50  1   
@<TRIPOS>SUBSTRUCTURE
  1 ****   2 GROUP 4 **** **** 0

# MOE 2024.06 (io_trps.svl 2023.06)
