@<TRIPOS>MOLECULE
NONAME
50 51 1 0 0 
SMALL
USER_CHARGES


@<TRIPOS>ATOM
  1 O       -0.8710    -0.3860    -0.9610 O.3   1 <1>  -0.3630 
  2 C       -1.8830     0.4360    -0.5860 C.ar  1 <1>   0.0830 
  3 C       -0.4170    -1.4210    -0.1170 C.3   1 <1>   0.0400 
  4 C       -2.2330     1.4390    -1.4740 C.ar  1 <1>  -0.1500 
  5 C       -2.5690     0.3250     0.6190 C.ar  1 <1>  -0.1500 
  6 C       -3.2540     2.3220    -1.1720 C.ar  1 <1>  -0.1500 
  7 C       -3.5910     1.2090     0.9200 C.ar  1 <1>  -0.1500 
  8 C       -3.9420     2.2110     0.0270 C.ar  1 <1>  -0.1430 
  9 C       -5.0690     3.1740     0.3520 C.3   1 <1>  -0.0170 
 10 C       -6.3780     2.6570    -0.2660 C.3   1 <1>  -0.1600 
 11 C       -7.6060     3.4910     0.1120 C.3   1 <1>   0.4230 
 12 N       -8.7920     2.7930    -0.4120 N.4   1 <1>  -0.9060 
 13 C       -7.5620     4.8980    -0.4860 C.3   1 <1>  -0.2400 
 14 C      -10.0800     3.2490     0.1720 C.3   1 <1>   0.3430 
 15 C      -11.2460     2.4310    -0.3980 C.3   1 <1>  -0.0800 
 16 C      -12.5720     2.9850     0.1560 C.3   1 <1>  -0.1600 
 17 C      -11.1210     0.9250    -0.0800 C.3   1 <1>  -0.1600 
 18 C      -13.7770     2.1990    -0.3740 C.3   1 <1>  -0.1600 
 19 C      -12.3300     0.1390    -0.6050 C.3   1 <1>  -0.1600 
 20 C      -13.6450     0.7050    -0.0570 C.3   1 <1>  -0.1600 
 21 H        0.3900    -1.9270    -0.6160 H     1 <1>   0.0800 
 22 H       -1.2250    -2.1070     0.0600 H     1 <1>   0.0800 
 23 H       -0.0650    -0.9910     0.8040 H     1 <1>   0.0800 
 24 H       -1.6970     1.5220    -2.4030 H     1 <1>   0.1500 
 25 H       -2.3210    -0.4390     1.3310 H     1 <1>   0.1500 
 26 H       -3.5040     3.0940    -1.8780 H     1 <1>   0.1500 
 27 H       -4.1090     1.1090     1.8580 H     1 <1>   0.1500 
 28 H       -4.8160     4.1450    -0.0360 H     1 <1>   0.0800 
 29 H       -5.1670     3.2620     1.4210 H     1 <1>   0.0800 
 30 H       -6.5180     1.6480     0.0810 H     1 <1>   0.0800 
 31 H       -6.2630     2.6290    -1.3360 H     1 <1>   0.0800 
 32 H       -7.6690     3.5550     1.1880 H     1 <1>   0.0800 
 33 H       -8.6920     1.7890    -0.2270 H     1 <1>   0.4500 
 34 H       -8.8180     2.9000    -1.4320 H     1 <1>   0.4500 
 35 H       -7.4610     4.8620    -1.5570 H     1 <1>   0.0800 
 36 H       -6.7220     5.4410    -0.0920 H     1 <1>   0.0800 
 37 H       -8.4420     5.4600    -0.2310 H     1 <1>   0.0800 
 38 H      -10.2390     4.2910    -0.0530 H     1 <1>   0.0800 
 39 H      -10.0590     3.1350     1.2440 H     1 <1>   0.0800 
 40 H      -11.2650     2.5600    -1.4680 H     1 <1>   0.0800 
 41 H      -12.6860     4.0200    -0.1200 H     1 <1>   0.0800 
 42 H      -12.5720     2.9300     1.2330 H     1 <1>   0.0800 
 43 H      -11.0560     0.7810     0.9860 H     1 <1>   0.0800 
 44 H      -10.2370     0.5080    -0.5280 H     1 <1>   0.0800 
 45 H      -13.8570     2.3320    -1.4400 H     1 <1>   0.0800 
 46 H      -14.6820     2.5790     0.0700 H     1 <1>   0.0800 
 47 H      -12.2430    -0.8960    -0.3190 H     1 <1>   0.0800 
 48 H      -12.3490     0.1790    -1.6810 H     1 <1>   0.0800 
 49 H      -14.4750     0.1710    -0.4890 H     1 <1>   0.0800 
 50 H      -13.6830     0.5590     1.0090 H     1 <1>   0.0800 
@<TRIPOS>BOND
  1   1   2  1   
  2   1   3  1   
  3   2   4  ar  
  4   2   5  ar  
  5   3  21  1   
  6   3  22  1   
  7   3  23  1   
  8   4   6  ar  
  9   4  24  1   
 10   5   7  ar  
 11   5  25  1   
 12   6   8  ar  
 13   6  26  1   
 14   7   8  ar  
 15   7  27  1   
 16   8   9  1   
 17   9  10  1   
 18   9  28  1   
 19   9  29  1   
 20  10  11  1   
 21  10  30  1   
 22  10  31  1   
 23  11  12  1   
 24  11  13  1   
 25  11  32  1   
 26  12  14  1   
 27  12  33  1   
 28  12  34  1   
 29  13  35  1   
 30  13  36  1   
 31  13  37  1   
 32  14  15  1   
 33  14  38  1   
 34  14  39  1   
 35  15  16  1   
 36  15  17  1   
 37  15  40  1   
 38  16  18  1   
 39  16  41  1   
 40  16  42  1   
 41  17  19  1   
 42  17  43  1   
 43  17  44  1   
 44  18  20  1   
 45  18  45  1   
 46  18  46  1   
 47  19  20  1   
 48  19  47  1   
 49  19  48  1   
 50  20  49  1   
 51  20  50  1   
@<TRIPOS>SUBSTRUCTURE
  1 ****  10 GROUP 4 **** **** 0

# MOE 2024.06 (io_trps.svl 2023.06)
