@<TRIPOS>MOLECULE
NONAME
35 36 1 0 0 
SMALL
USER_CHARGES


@<TRIPOS>ATOM
  1 O       -0.3710     0.4160     1.2790 O.2   1 <1>  -0.5700 
  2 C       -1.2520     1.1370     0.8300 C.2   1 <1>   0.6160 
  3 N       -2.5080     0.6790     0.6040 N.am  1 <1>  -0.5470 
  4 C       -1.1680     2.5140     0.4570 C.2   1 <1>  -0.0140 
  5 C       -3.2760     1.7050     0.0880 C.ar  1 <1>   0.1170 
  6 C       -2.4850     2.8430    -0.0140 C.ar  1 <1>   0.0280 
  7 C       -0.0720     3.3270     0.5280 C.2   1 <1>  -0.0500 
  8 C       -4.6080     1.7100    -0.2960 C.ar  1 <1>  -0.1500 
  9 C       -3.0430     4.0170    -0.5110 C.ar  1 <1>  -0.1500 
 10 N        1.1330     2.9110     1.0080 N.pl3 1 <1>  -0.8690 
 11 C       -5.1530     2.8820    -0.7890 C.ar  1 <1>  -0.1500 
 12 C       -4.3730     4.0300    -0.8960 C.ar  1 <1>  -0.1500 
 13 C        2.3830     3.6920     1.0790 C.3   1 <1>   0.2090 
 14 C        3.3990     3.1000     0.0860 C.3   1 <1>   0.3430 
 15 N        4.7430     3.7780     0.1120 N.4   1 <1>  -0.9590 
 16 C        4.6710     5.1940    -0.3740 C.3   1 <1>   0.2630 
 17 C        5.7190     2.9980    -0.7120 C.3   1 <1>   0.2630 
 18 H       -2.7840    -0.2820     0.7990 H     1 <1>   0.3700 
 19 H       -0.1500     4.3490     0.1920 H     1 <1>   0.1500 
 20 H       -5.2000     0.8170    -0.2080 H     1 <1>   0.1500 
 21 H       -2.4450     4.9060    -0.5930 H     1 <1>   0.1500 
 22 H        1.1660     1.9450     1.3960 H     1 <1>   0.4000 
 23 H       -6.1850     2.9090    -1.0940 H     1 <1>   0.1500 
 24 H       -4.8120     4.9340    -1.2810 H     1 <1>   0.1500 
 25 H        2.1690     4.7170     0.8330 H     1 <1>   0.0800 
 26 H        2.7660     3.6410     2.0840 H     1 <1>   0.0800 
 27 H        2.9810     3.1630    -0.9060 H     1 <1>   0.0800 
 28 H        3.5230     2.0580     0.3270 H     1 <1>   0.0800 
 29 H        5.0840     3.7790     1.0870 H     1 <1>   0.4500 
 30 H        4.2990     5.2240    -1.3850 H     1 <1>   0.0800 
 31 H        5.6500     5.6450    -0.3550 H     1 <1>   0.0800 
 32 H        4.0160     5.7770     0.2520 H     1 <1>   0.0800 
 33 H        5.3980     2.9630    -1.7400 H     1 <1>   0.0800 
 34 H        5.7990     1.9880    -0.3420 H     1 <1>   0.0800 
 35 H        6.6940     3.4560    -0.6710 H     1 <1>   0.0800 
@<TRIPOS>BOND
  1   1   2  2   
  2   2   3  am  
  3   2   4  1   
  4   3   5  1   
  5   3  18  1   
  6   4   6  1   
  7   4   7  2   
  8   5   6  ar  
  9   5   8  ar  
 10   6   9  ar  
 11   7  10  1   
 12   7  19  1   
 13   8  11  ar  
 14   8  20  1   
 15   9  12  ar  
 16   9  21  1   
 17  10  13  1   
 18  10  22  1   
 19  11  12  ar  
 20  11  23  1   
 21  12  24  1   
 22  13  14  1   
 23  13  25  1   
 24  13  26  1   
 25  14  15  1   
 26  14  27  1   
 27  14  28  1   
 28  15  16  1   
 29  15  17  1   
 30  15  29  1   
 31  16  30  1   
 32  16  31  1   
 33  16  32  1   
 34  17  33  1   
 35  17  34  1   
 36  17  35  1   
@<TRIPOS>SUBSTRUCTURE
  1 ****   7 GROUP 4 **** **** 0

# MOE 2024.06 (io_trps.svl 2023.06)
