@<TRIPOS>MOLECULE
NONAME
44 47 1 0 0 
SMALL
USER_CHARGES


@<TRIPOS>ATOM
  1 F       -2.8760    -1.8180     3.3340 F     1 <1>  -0.1900 
  2 C       -2.7600    -1.9670     2.0420 C.ar  1 <1>   0.1900 
  3 C       -3.8040    -1.5670     1.2300 C.ar  1 <1>  -0.1500 
  4 C       -1.6000    -2.5210     1.5370 C.ar  1 <1>  -0.1500 
  5 C       -3.6910    -1.7290    -0.1470 C.ar  1 <1>  -0.1440 
  6 C       -1.4870    -2.6770     0.1670 C.ar  1 <1>  -0.1500 
  7 C       -2.5250    -2.2820    -0.6650 C.ar  1 <1>  -0.1500 
  8 C       -4.8190    -1.3150    -1.1000 C.3   1 <1>   0.3640 
  9 N       -5.4440    -0.0450    -0.6740 N.am  1 <1>  -0.2980 
 10 C       -6.0200    -2.2700    -1.0990 C.3   1 <1>  -0.0190 
 11 N       -6.7110    -0.2470    -0.1720 N.2   1 <1>  -0.5120 
 12 C       -4.7880     1.1560    -0.8360 C.2   1 <1>   0.5690 
 13 C       -7.0510    -1.4630    -0.3440 C.2   1 <1>   0.3030 
 14 C       -5.8690    -3.6660    -0.4690 C.3   1 <1>  -0.1600 
 15 O       -3.7340     1.2490    -1.4200 O.2   1 <1>  -0.5700 
 16 C       -5.4200     2.4120    -0.2820 C.3   1 <1>  -0.1790 
 17 C       -8.2520    -2.1300     0.0910 C.ar  1 <1>   0.0860 
 18 C       -7.2220    -4.3910    -0.5050 C.3   1 <1>  -0.0170 
 19 C       -8.3640    -3.5280     0.0330 C.ar  1 <1>  -0.1430 
 20 C       -9.3330    -1.4070     0.5970 C.ar  1 <1>  -0.1500 
 21 C       -9.5220    -4.1570     0.4620 C.ar  1 <1>  -0.1500 
 22 C      -10.4840    -2.0390     1.0230 C.ar  1 <1>  -0.1500 
 23 C      -10.5900    -3.4170     0.9600 C.ar  1 <1>   0.0830 
 24 O      -11.7510    -3.9610     1.3960 O.3   1 <1>  -0.3620 
 25 C      -11.9640    -5.3550     1.3860 C.3   1 <1>   0.0400 
 26 H       -4.6850    -1.1380     1.6740 H     1 <1>   0.1500 
 27 H       -0.8100    -2.8180     2.2020 H     1 <1>   0.1500 
 28 H       -0.5910    -3.1010    -0.2540 H     1 <1>   0.1500 
 29 H       -2.4130    -2.4050    -1.7290 H     1 <1>   0.1500 
 30 H       -4.4370    -1.1990    -2.0990 H     1 <1>   0.0800 
 31 H       -6.3600    -2.3770    -2.1130 H     1 <1>   0.0800 
 32 H       -5.5580    -3.5770     0.5570 H     1 <1>   0.0800 
 33 H       -5.1270    -4.2390    -0.9980 H     1 <1>   0.0800 
 34 H       -6.3530     2.5930    -0.7800 H     1 <1>   0.0800 
 35 H       -4.7670     3.2510    -0.4360 H     1 <1>   0.0800 
 36 H       -5.5960     2.2900     0.7690 H     1 <1>   0.0800 
 37 H       -7.1470    -5.2980     0.0700 H     1 <1>   0.0800 
 38 H       -7.4520    -4.6650    -1.5210 H     1 <1>   0.0800 
 39 H       -9.2630    -0.3350     0.6550 H     1 <1>   0.1500 
 40 H       -9.5840    -5.2270     0.4050 H     1 <1>   0.1500 
 41 H      -11.3090    -1.4680     1.4100 H     1 <1>   0.1500 
 42 H      -12.9460    -5.5450     1.7790 H     1 <1>   0.0800 
 43 H      -11.2240    -5.8260     2.0080 H     1 <1>   0.0800 
 44 H      -11.9020    -5.7100     0.3730 H     1 <1>   0.0800 
@<TRIPOS>BOND
  1   1   2  1   
  2   2   3  ar  
  3   2   4  ar  
  4   3   5  ar  
  5   3  26  1   
  6   4   6  ar  
  7   4  27  1   
  8   5   7  ar  
  9   5   8  1   
 10   6   7  ar  
 11   6  28  1   
 12   7  29  1   
 13   8   9  1   
 14   8  10  1   
 15   8  30  1   
 16   9  11  1   
 17   9  12  am  
 18  10  13  1   
 19  10  14  1   
 20  10  31  1   
 21  11  13  2   
 22  12  15  2   
 23  12  16  1   
 24  13  17  1   
 25  14  18  1   
 26  14  32  1   
 27  14  33  1   
 28  16  34  1   
 29  16  35  1   
 30  16  36  1   
 31  17  19  ar  
 32  17  20  ar  
 33  18  19  1   
 34  18  37  1   
 35  18  38  1   
 36  19  21  ar  
 37  20  22  ar  
 38  20  39  1   
 39  21  23  ar  
 40  21  40  1   
 41  22  23  ar  
 42  22  41  1   
 43  23  24  1   
 44  24  25  1   
 45  25  42  1   
 46  25  43  1   
 47  25  44  1   
@<TRIPOS>SUBSTRUCTURE
  1 ****  13 GROUP 4 **** **** 0

# MOE 2024.06 (io_trps.svl 2023.06)
