@<TRIPOS>MOLECULE
NONAME
37 37 1 0 0 
SMALL
USER_CHARGES


@<TRIPOS>ATOM
  1 O       -0.7600     1.2490    -0.3570 O.2   1 <1>  -0.5700 
  2 C       -0.3340     2.2220     0.2350 C.2   1 <1>   0.5440 
  3 N       -1.2290     2.9370     0.9840 N.am  1 <1>  -0.7300 
  4 C        1.0570     2.6290     0.1200 C.ar  1 <1>   0.0860 
  5 C       -2.5460     2.4480     1.4960 C.3   1 <1>   0.1400 
  6 C        1.8320     2.2340    -0.9730 C.ar  1 <1>  -0.1500 
  7 C        1.6800     3.4260     1.0850 C.ar  1 <1>  -0.1500 
  8 C       -3.6800     2.5920     0.4590 C.3   1 <1>   0.3430 
  9 C        3.1530     2.6190    -1.1100 C.ar  1 <1>  -0.1500 
 10 C        2.9990     3.8170     0.9540 C.ar  1 <1>  -0.1500 
 11 N       -3.4430     1.7320    -0.7390 N.4   1 <1>  -0.9590 
 12 C        3.7480     3.4220    -0.1410 C.ar  1 <1>   0.0830 
 13 C       -4.0020     2.3200    -1.9890 C.3   1 <1>   0.2630 
 14 C       -3.8890     0.3220    -0.5380 C.3   1 <1>   0.2630 
 15 O        5.0290     3.8490    -0.1910 O.3   1 <1>  -0.3630 
 16 C        5.8920     3.4910    -1.2460 C.3   1 <1>   0.3200 
 17 C        7.2240     4.1140    -1.0030 C.1   1 <1>  -0.2000 
 18 C        8.2870     4.6110    -0.8090 C.1   1 <1>  -0.1770 
 19 H       -0.8870     3.8000     1.4200 H     1 <1>   0.3700 
 20 H       -2.8040     3.0140     2.3750 H     1 <1>   0.0800 
 21 H       -2.4540     1.4160     1.7920 H     1 <1>   0.0800 
 22 H        1.3880     1.6090    -1.7290 H     1 <1>   0.1500 
 23 H        1.1390     3.7410     1.9580 H     1 <1>   0.1500 
 24 H       -3.7310     3.6260     0.1620 H     1 <1>   0.0800 
 25 H       -4.6220     2.3310     0.9120 H     1 <1>   0.0800 
 26 H        3.6990     2.2850    -1.9730 H     1 <1>   0.1500 
 27 H        3.4660     4.4310     1.7050 H     1 <1>   0.1500 
 28 H       -2.4000     1.6840    -0.8320 H     1 <1>   0.4500 
 29 H       -5.0750     2.3880    -1.9250 H     1 <1>   0.0800 
 30 H       -3.7430     1.7050    -2.8360 H     1 <1>   0.0800 
 31 H       -3.5980     3.3070    -2.1490 H     1 <1>   0.0800 
 32 H       -4.9560     0.2810    -0.3880 H     1 <1>   0.0800 
 33 H       -3.3970    -0.1040     0.3220 H     1 <1>   0.0800 
 34 H       -3.6350    -0.2730    -1.4000 H     1 <1>   0.0800 
 35 H        5.4740     3.8530    -2.1680 H     1 <1>   0.0800 
 36 H        5.9800     2.4190    -1.2670 H     1 <1>   0.0800 
 37 H        9.2460     5.0650    -0.6260 H     1 <1>   0.1770 
@<TRIPOS>BOND
  1   1   2  2   
  2   2   3  am  
  3   2   4  1   
  4   3   5  1   
  5   3  19  1   
  6   4   6  ar  
  7   4   7  ar  
  8   5   8  1   
  9   5  20  1   
 10   5  21  1   
 11   6   9  ar  
 12   6  22  1   
 13   7  10  ar  
 14   7  23  1   
 15   8  11  1   
 16   8  24  1   
 17   8  25  1   
 18   9  12  ar  
 19   9  26  1   
 20  10  12  ar  
 21  10  27  1   
 22  11  13  1   
 23  11  14  1   
 24  11  28  1   
 25  12  15  1   
 26  13  29  1   
 27  13  30  1   
 28  13  31  1   
 29  14  32  1   
 30  14  33  1   
 31  14  34  1   
 32  15  16  1   
 33  16  17  1   
 34  16  35  1   
 35  16  36  1   
 36  17  18  3   
 37  18  37  1   
@<TRIPOS>SUBSTRUCTURE
  1 ****   4 GROUP 4 **** **** 0

# MOE 2024.06 (io_trps.svl 2023.06)
