@<TRIPOS>MOLECULE
NONAME
48 49 1 0 0 
SMALL
USER_CHARGES


@<TRIPOS>ATOM
  1 O       -0.9060     1.1030     1.0610 O.3   1 <1>  -0.3630 
  2 C       -0.7420     1.9570     0.0240 C.ar  1 <1>   0.0830 
  3 C       -0.1940    -0.1180     0.9930 C.3   1 <1>   0.0400 
  4 C       -1.7920     2.0840    -0.8770 C.ar  1 <1>  -0.1440 
  5 C        0.4210     2.7110    -0.1260 C.ar  1 <1>  -0.1440 
  6 C       -1.6570     2.9140    -1.9770 C.ar  1 <1>  -0.1500 
  7 C       -3.0840     1.3320    -0.6390 C.3   1 <1>   0.4870 
  8 C        0.5500     3.5380    -1.2390 C.ar  1 <1>   0.0830 
  9 C        1.5460     2.6680     0.9090 C.3   1 <1>  -0.0960 
 10 C       -0.4900     3.6300    -2.1620 C.ar  1 <1>  -0.1500 
 11 N       -4.0670     2.2720    -0.0310 N.4   1 <1>  -0.9590 
 12 O        1.7090     4.2350    -1.3790 O.3   1 <1>  -0.3630 
 13 C       -3.6580     2.6380     1.3510 C.3   1 <1>   0.4380 
 14 C       -5.4660     1.7740    -0.0810 C.3   1 <1>   0.3430 
 15 C        1.9590     5.0670    -2.4900 C.3   1 <1>   0.0400 
 16 C       -4.2940     3.9850     1.6830 C.3   1 <1>  -0.1950 
 17 C       -6.0030     1.8370    -1.5120 C.3   1 <1>  -0.1600 
 18 C       -3.8130     5.2440     1.0270 C.3   1 <1>  -0.2000 
 19 C       -3.5310     4.9960     2.4800 C.3   1 <1>  -0.2000 
 20 C       -7.4810     1.4330    -1.5580 C.3   1 <1>  -0.2400 
 21 H        0.8620     0.0810     0.9700 H     1 <1>   0.0800 
 22 H       -0.4860    -0.6460     0.1020 H     1 <1>   0.0800 
 23 H       -0.4340    -0.7000     1.8640 H     1 <1>   0.0800 
 24 H       -2.4480     3.0130    -2.7010 H     1 <1>   0.1500 
 25 H       -2.9150     0.4910     0.0140 H     1 <1>   0.0800 
 26 H       -3.4500     0.9620    -1.5820 H     1 <1>   0.0800 
 27 H        1.2030     2.2890     1.8530 H     1 <1>   0.0800 
 28 H        1.9310     3.6570     1.0820 H     1 <1>   0.0800 
 29 H        2.3480     2.0490     0.5500 H     1 <1>   0.0800 
 30 H       -0.4070     4.2600    -3.0280 H     1 <1>   0.1500 
 31 H       -4.0040     3.1490    -0.5610 H     1 <1>   0.4500 
 32 H       -2.5880     2.7530     1.4030 H     1 <1>   0.0800 
 33 H       -3.9530     1.8820     2.0600 H     1 <1>   0.0800 
 34 H       -6.0910     2.3910     0.5440 H     1 <1>   0.0800 
 35 H       -5.5170     0.7630     0.2910 H     1 <1>   0.0800 
 36 H        2.9420     5.4870    -2.3760 H     1 <1>   0.0800 
 37 H        1.2270     5.8540    -2.5110 H     1 <1>   0.0800 
 38 H        1.9180     4.4750    -3.3870 H     1 <1>   0.0800 
 39 H       -5.3400     3.9040     1.9250 H     1 <1>   0.1000 
 40 H       -5.4530     1.1730    -2.1540 H     1 <1>   0.0800 
 41 H       -5.9130     2.8410    -1.8900 H     1 <1>   0.0800 
 42 H       -4.5230     6.0150     0.7750 H     1 <1>   0.1000 
 43 H       -2.9700     5.2290     0.3550 H     1 <1>   0.1000 
 44 H       -2.5120     4.7980     2.7710 H     1 <1>   0.1000 
 45 H       -4.0530     5.5930     3.2100 H     1 <1>   0.1000 
 46 H       -7.6150     0.4240    -1.2070 H     1 <1>   0.0800 
 47 H       -7.8460     1.4870    -2.5700 H     1 <1>   0.0800 
 48 H       -8.0780     2.0930    -0.9520 H     1 <1>   0.0800 
@<TRIPOS>BOND
  1   1   2  1   
  2   1   3  1   
  3   2   4  ar  
  4   2   5  ar  
  5   3  21  1   
  6   3  22  1   
  7   3  23  1   
  8   4   6  ar  
  9   4   7  1   
 10   5   8  ar  
 11   5   9  1   
 12   6  10  ar  
 13   6  24  1   
 14   7  11  1   
 15   7  25  1   
 16   7  26  1   
 17   8  10  ar  
 18   8  12  1   
 19   9  27  1   
 20   9  28  1   
 21   9  29  1   
 22  10  30  1   
 23  11  13  1   
 24  11  14  1   
 25  11  31  1   
 26  12  15  1   
 27  13  16  1   
 28  13  32  1   
 29  13  33  1   
 30  14  17  1   
 31  14  34  1   
 32  14  35  1   
 33  15  36  1   
 34  15  37  1   
 35  15  38  1   
 36  16  18  1   
 37  16  19  1   
 38  16  39  1   
 39  17  20  1   
 40  17  40  1   
 41  17  41  1   
 42  18  19  1   
 43  18  42  1   
 44  18  43  1   
 45  19  44  1   
 46  19  45  1   
 47  20  46  1   
 48  20  47  1   
 49  20  48  1   
@<TRIPOS>SUBSTRUCTURE
  1 ****   4 GROUP 4 **** **** 0

# MOE 2024.06 (io_trps.svl 2023.06)
