@<TRIPOS>MOLECULE
NONAME
25 26 1 0 0 
SMALL
USER_CHARGES


@<TRIPOS>ATOM
  1 O        0.7330     0.1300     0.1720 O.2   1 <1>  -0.5700 
  2 C        1.5170    -0.7920     0.1940 C.2   1 <1>   0.5690 
  3 N        1.3600    -1.9500     0.8420 N.am  1 <1>  -0.4100 
  4 C        2.8690    -0.7650    -0.4650 C.3   1 <1>  -0.0990 
  5 N        2.5180    -2.8100     0.7630 N.pl3 1 <1>  -0.4890 
  6 C        3.5890    -1.9890     0.1350 C.3   1 <1>   0.2090 
  7 C        2.4260    -4.1750     0.4940 C.ar  1 <1>   0.1000 
  8 C        3.5170    -5.0070     0.7320 C.ar  1 <1>  -0.1500 
  9 C        1.2640    -4.7530    -0.0140 C.ar  1 <1>  -0.1500 
 10 C        3.4550    -6.3620     0.4650 C.ar  1 <1>  -0.1500 
 11 C        1.1990    -6.1080    -0.2800 C.ar  1 <1>  -0.1500 
 12 C        2.2950    -6.9230    -0.0450 C.ar  1 <1>  -0.1430 
 13 C        2.2230    -8.4100    -0.3370 C.3   1 <1>  -0.0970 
 14 H        0.6260    -2.0990     1.5400 H     1 <1>   0.3700 
 15 H        3.3900     0.1470    -0.2440 H     1 <1>   0.0800 
 16 H        2.7530    -0.8740    -1.5270 H     1 <1>   0.0800 
 17 H        4.2840    -1.6840     0.8980 H     1 <1>   0.0800 
 18 H        4.1040    -2.5510    -0.6250 H     1 <1>   0.0800 
 19 H        4.4180    -4.5860     1.1370 H     1 <1>   0.1500 
 20 H        0.4070    -4.1360    -0.2080 H     1 <1>   0.1500 
 21 H        4.3120    -6.9820     0.6600 H     1 <1>   0.1500 
 22 H        0.2900    -6.5280    -0.6730 H     1 <1>   0.1500 
 23 H        3.1940    -8.7900    -0.5990 H     1 <1>   0.0800 
 24 H        1.5530    -8.6010    -1.1550 H     1 <1>   0.0800 
 25 H        1.8680    -8.9340     0.5330 H     1 <1>   0.0800 
@<TRIPOS>BOND
  1   1   2  2   
  2   2   3  am  
  3   2   4  1   
  4   3   5  1   
  5   3  14  1   
  6   4   6  1   
  7   4  15  1   
  8   4  16  1   
  9   5   6  1   
 10   5   7  1   
 11   6  17  1   
 12   6  18  1   
 13   7   8  ar  
 14   7   9  ar  
 15   8  10  ar  
 16   8  19  1   
 17   9  11  ar  
 18   9  20  1   
 19  10  12  ar  
 20  10  21  1   
 21  11  12  ar  
 22  11  22  1   
 23  12  13  1   
 24  13  23  1   
 25  13  24  1   
 26  13  25  1   
@<TRIPOS>SUBSTRUCTURE
  1 ****   7 GROUP 4 **** **** 0

# MOE 2024.06 (io_trps.svl 2023.06)
