@<TRIPOS>MOLECULE
NONAME
40 41 1 0 0 
SMALL
USER_CHARGES


@<TRIPOS>ATOM
  1 O       -0.7230     0.9560     1.1140 O.2   1 <1>  -0.5700 
  2 C       -0.5000     1.7410     0.2220 C.2   1 <1>   0.5690 
  3 N       -1.4690     2.0850    -0.6870 N.am  1 <1>  -0.6600 
  4 C        0.8960     2.3420     0.1230 C.3   1 <1>  -0.0990 
  5 C       -2.8140     1.4410    -0.6180 C.3   1 <1>   0.2840 
  6 C       -1.2660     3.0360    -1.8150 C.3   1 <1>   0.1400 
  7 C        1.7980     2.0290     1.3260 C.3   1 <1>  -0.0170 
  8 C       -3.8280     2.3810     0.0160 C.ar  1 <1>  -0.1440 
  9 C       -1.5990     4.4630    -1.3810 C.3   1 <1>  -0.2400 
 10 C        3.1500     2.7020     1.1540 C.ar  1 <1>  -0.1440 
 11 C       -4.9210     2.8680    -0.6740 C.ar  1 <1>  -0.1500 
 12 C       -3.7000     2.7950     1.3260 C.ar  1 <1>  -0.1500 
 13 C        3.3570     3.9870     1.6310 C.ar  1 <1>  -0.1500 
 14 C        4.1840     2.0410     0.5120 C.ar  1 <1>  -0.1500 
 15 C       -5.8030     3.7260    -0.0370 C.ar  1 <1>   0.1600 
 16 C       -4.6390     3.6560     1.8680 C.ar  1 <1>   0.1600 
 17 C        4.5840     4.6050     1.4670 C.ar  1 <1>  -0.1500 
 18 C        5.4130     2.6570     0.3460 C.ar  1 <1>  -0.1500 
 19 N       -5.6870     4.1330     1.2160 N.ar  1 <1>  -0.6200 
 20 C        5.6130     3.9400     0.8230 C.ar  1 <1>  -0.1500 
 21 H        0.8130     3.4080     0.0370 H     1 <1>   0.0800 
 22 H        1.3650     1.9670    -0.7670 H     1 <1>   0.0800 
 23 H       -2.7680     0.5350    -0.0380 H     1 <1>   0.0800 
 24 H       -3.1310     1.1660    -1.6090 H     1 <1>   0.0800 
 25 H       -1.8940     2.7560    -2.6440 H     1 <1>   0.0800 
 26 H       -0.2470     2.9910    -2.1570 H     1 <1>   0.0800 
 27 H        1.9300     0.9640     1.4170 H     1 <1>   0.0800 
 28 H        1.3310     2.3760     2.2310 H     1 <1>   0.0800 
 29 H       -2.6400     4.5540    -1.1350 H     1 <1>   0.0800 
 30 H       -1.3850     5.1430    -2.1840 H     1 <1>   0.0800 
 31 H       -1.0130     4.7500    -0.5270 H     1 <1>   0.0800 
 32 H       -5.0950     2.5930    -1.6970 H     1 <1>   0.1500 
 33 H       -2.8740     2.4530     1.9250 H     1 <1>   0.1500 
 34 H        2.5620     4.5120     2.1330 H     1 <1>   0.1500 
 35 H        4.0380     1.0430     0.1370 H     1 <1>   0.1500 
 36 H       -6.6490     4.0980    -0.5890 H     1 <1>   0.1500 
 37 H       -4.5200     3.9670     2.8910 H     1 <1>   0.1500 
 38 H        4.7390     5.6030     1.8400 H     1 <1>   0.1500 
 39 H        6.2120     2.1380    -0.1530 H     1 <1>   0.1500 
 40 H        6.5670     4.4200     0.6950 H     1 <1>   0.1500 
@<TRIPOS>BOND
  1   1   2  2   
  2   2   3  am  
  3   2   4  1   
  4   3   5  1   
  5   3   6  1   
  6   4   7  1   
  7   4  21  1   
  8   4  22  1   
  9   5   8  1   
 10   5  23  1   
 11   5  24  1   
 12   6   9  1   
 13   6  25  1   
 14   6  26  1   
 15   7  10  1   
 16   7  27  1   
 17   7  28  1   
 18   8  11  ar  
 19   8  12  ar  
 20   9  29  1   
 21   9  30  1   
 22   9  31  1   
 23  10  13  ar  
 24  10  14  ar  
 25  11  15  ar  
 26  11  32  1   
 27  12  16  ar  
 28  12  33  1   
 29  13  17  ar  
 30  13  34  1   
 31  14  18  ar  
 32  14  35  1   
 33  15  19  ar  
 34  15  36  1   
 35  16  19  ar  
 36  16  37  1   
 37  17  20  ar  
 38  17  38  1   
 39  18  20  ar  
 40  18  39  1   
 41  20  40  1   
@<TRIPOS>SUBSTRUCTURE
  1 ****   2 GROUP 4 **** **** 0

# MOE 2024.06 (io_trps.svl 2023.06)
