@<TRIPOS>MOLECULE
NONAME
28 28 1 0 0 
SMALL
USER_CHARGES


@<TRIPOS>ATOM
  1 CL       0.2680     0.8830     1.3470 Cl    1 <1>  -0.1770 
  2 C       -1.2540     1.3810     0.6350 C.ar  1 <1>   0.1770 
  3 C       -1.4180     2.7020     0.2200 C.ar  1 <1>   0.1170 
  4 C       -2.2550     0.4380     0.5130 C.ar  1 <1>  -0.1500 
  5 N       -0.3440     3.5990     0.3760 N.am  1 <1>  -0.5470 
  6 C       -2.6590     3.0690    -0.3100 C.ar  1 <1>  -0.1430 
  7 C       -3.4730     0.8060    -0.0320 C.ar  1 <1>  -0.1430 
  8 C        0.3070     4.3310    -0.5730 C.2   1 <1>   0.5690 
  9 C       -3.6630     2.1180    -0.4350 C.ar  1 <1>  -0.1500 
 10 C       -2.9670     4.4940    -0.7550 C.3   1 <1>  -0.0960 
 11 C       -4.5920    -0.2090    -0.1840 C.3   1 <1>  -0.0960 
 12 O       -0.0410     4.3950    -1.7250 O.2   1 <1>  -0.5700 
 13 C        1.5480     5.0920    -0.1410 C.3   1 <1>  -0.0990 
 14 C        2.7180     4.1660     0.2280 C.3   1 <1>  -0.2400 
 15 H       -2.0770    -0.5690     0.8430 H     1 <1>   0.1500 
 16 H        0.1720     3.4830     1.2470 H     1 <1>   0.3700 
 17 H       -4.6120     2.4030    -0.8530 H     1 <1>   0.1500 
 18 H       -2.6440     4.6330    -1.7720 H     1 <1>   0.0800 
 19 H       -2.4610     5.2070    -0.1310 H     1 <1>   0.0800 
 20 H       -4.0210     4.6920    -0.7010 H     1 <1>   0.0800 
 21 H       -4.2060    -1.2110    -0.1400 H     1 <1>   0.0800 
 22 H       -5.0850    -0.0770    -1.1300 H     1 <1>   0.0800 
 23 H       -5.3110    -0.0790     0.6040 H     1 <1>   0.0800 
 24 H        1.2970     5.7170     0.6970 H     1 <1>   0.0800 
 25 H        1.8490     5.7360    -0.9490 H     1 <1>   0.0800 
 26 H        2.4630     3.5370     1.0620 H     1 <1>   0.0800 
 27 H        3.5830     4.7500     0.4890 H     1 <1>   0.0800 
 28 H        2.9690     3.5390    -0.6110 H     1 <1>   0.0800 
@<TRIPOS>BOND
  1   1   2  1   
  2   2   3  ar  
  3   2   4  ar  
  4   3   5  1   
  5   3   6  ar  
  6   4   7  ar  
  7   4  15  1   
  8   5   8  am  
  9   5  16  1   
 10   6   9  ar  
 11   6  10  1   
 12   7   9  ar  
 13   7  11  1   
 14   8  12  2   
 15   8  13  1   
 16   9  17  1   
 17  10  18  1   
 18  10  19  1   
 19  10  20  1   
 20  11  21  1   
 21  11  22  1   
 22  11  23  1   
 23  13  14  1   
 24  13  24  1   
 25  13  25  1   
 26  14  26  1   
 27  14  27  1   
 28  14  28  1   
@<TRIPOS>SUBSTRUCTURE
  1 ****   3 GROUP 4 **** **** 0

# MOE 2024.06 (io_trps.svl 2023.06)
