@<TRIPOS>MOLECULE
NONAME
48 49 1 0 0 
SMALL
USER_CHARGES


@<TRIPOS>ATOM
  1 O        0.0820     1.9460    -2.0370 O.2   1 <1>  -0.5700 
  2 C        0.7850     1.9730    -1.0570 C.2   1 <1>   0.5690 
  3 N        0.2920     2.1090     0.2050 N.am  1 <1>  -0.7300 
  4 C        2.2930     1.8410    -1.2420 C.3   1 <1>  -0.0190 
  5 C       -1.1240     2.2480     0.6150 C.3   1 <1>   0.2200 
  6 C        2.8200     0.5140    -0.6620 C.3   1 <1>  -0.1600 
  7 C        3.0590     3.0400    -0.6460 C.3   1 <1>  -0.1600 
  8 C       -1.8480     0.9270     0.3170 C.3   1 <1>  -0.1600 
  9 C       -1.7310     3.4940    -0.0500 C.3   1 <1>  -0.1600 
 10 C        4.3370     0.3930    -0.8230 C.3   1 <1>   0.1400 
 11 C        4.5720     2.8750    -0.8040 C.3   1 <1>   0.1400 
 12 C       -3.2560     0.8080     0.9210 C.3   1 <1>  -0.1600 
 13 C       -2.8360     4.1780     0.7800 C.3   1 <1>  -0.1600 
 14 N        4.9880     1.5780    -0.2020 N.am  1 <1>  -0.6600 
 15 C       -4.3690     1.4260     0.0540 C.3   1 <1>  -0.1600 
 16 C       -4.2500     4.0090     0.2070 C.3   1 <1>  -0.1600 
 17 C        5.8730     1.5380     0.8460 C.2   1 <1>   0.5690 
 18 C       -4.9700     2.7190     0.6240 C.3   1 <1>  -0.1600 
 19 O        6.3380     2.5380     1.3350 O.2   1 <1>  -0.5700 
 20 C        6.3040     0.2170     1.4420 C.3   1 <1>  -0.1790 
 21 H        0.9570     2.1290     0.9780 H     1 <1>   0.3700 
 22 H        2.4800     1.8320    -2.3030 H     1 <1>   0.0800 
 23 H       -1.1230     2.3970     1.6810 H     1 <1>   0.0800 
 24 H        2.3420    -0.3090    -1.1670 H     1 <1>   0.0800 
 25 H        2.5760     0.4420     0.3830 H     1 <1>   0.0800 
 26 H        2.8400     3.1460     0.4020 H     1 <1>   0.0800 
 27 H        2.7490     3.9450    -1.1380 H     1 <1>   0.0800 
 28 H       -1.2540     0.1350     0.7360 H     1 <1>   0.0800 
 29 H       -1.8920     0.7630    -0.7460 H     1 <1>   0.0800 
 30 H       -2.0840     3.2460    -1.0350 H     1 <1>   0.0800 
 31 H       -0.9440     4.2160    -0.1750 H     1 <1>   0.0800 
 32 H        4.5920     0.3630    -1.8690 H     1 <1>   0.0800 
 33 H        4.6740    -0.5240    -0.3750 H     1 <1>   0.0800 
 34 H        5.0770     3.6990    -0.3290 H     1 <1>   0.0800 
 35 H        4.8390     2.8800    -1.8470 H     1 <1>   0.0800 
 36 H       -3.2710     1.2040     1.9210 H     1 <1>   0.0800 
 37 H       -3.4710    -0.2440     1.0050 H     1 <1>   0.0800 
 38 H       -2.6230     5.2340     0.7780 H     1 <1>   0.0800 
 39 H       -2.8110     3.8630     1.8090 H     1 <1>   0.0800 
 40 H       -5.1670     0.7060     0.0050 H     1 <1>   0.0800 
 41 H       -4.0380     1.5820    -0.9590 H     1 <1>   0.0800 
 42 H       -4.2290     4.0880    -0.8660 H     1 <1>   0.0800 
 43 H       -4.8450     4.8320     0.5650 H     1 <1>   0.0800 
 44 H       -5.0370     2.6620     1.6970 H     1 <1>   0.0800 
 45 H       -5.9800     2.7930     0.2570 H     1 <1>   0.0800 
 46 H        5.4510    -0.2970     1.8430 H     1 <1>   0.0800 
 47 H        7.0060     0.3920     2.2360 H     1 <1>   0.0800 
 48 H        6.7780    -0.3850     0.6910 H     1 <1>   0.0800 
@<TRIPOS>BOND
  1   1   2  2   
  2   2   3  am  
  3   2   4  1   
  4   3   5  1   
  5   3  21  1   
  6   4   6  1   
  7   4   7  1   
  8   4  22  1   
  9   5   8  1   
 10   5   9  1   
 11   5  23  1   
 12   6  10  1   
 13   6  24  1   
 14   6  25  1   
 15   7  11  1   
 16   7  26  1   
 17   7  27  1   
 18   8  12  1   
 19   8  28  1   
 20   8  29  1   
 21   9  13  1   
 22   9  30  1   
 23   9  31  1   
 24  10  14  1   
 25  10  32  1   
 26  10  33  1   
 27  11  14  1   
 28  11  34  1   
 29  11  35  1   
 30  12  15  1   
 31  12  36  1   
 32  12  37  1   
 33  13  16  1   
 34  13  38  1   
 35  13  39  1   
 36  14  17  am  
 37  15  18  1   
 38  15  40  1   
 39  15  41  1   
 40  16  18  1   
 41  16  42  1   
 42  16  43  1   
 43  17  19  2   
 44  17  20  1   
 45  18  44  1   
 46  18  45  1   
 47  20  46  1   
 48  20  47  1   
 49  20  48  1   
@<TRIPOS>SUBSTRUCTURE
  1 ****   3 GROUP 4 **** **** 0

# MOE 2024.06 (io_trps.svl 2023.06)
