@<TRIPOS>MOLECULE
NONAME
47 50 1 0 0 
SMALL
USER_CHARGES


@<TRIPOS>ATOM
  1 F       -1.1560     0.0940     1.6680 F     1 <1>  -0.1980 
  2 C       -2.2380    -0.4540     1.1840 C.ar  1 <1>   0.1820 
  3 C       -3.1180    -1.0730     2.0520 C.ar  1 <1>  -0.1580 
  4 C       -2.4650    -0.3940    -0.1780 C.ar  1 <1>  -0.1580 
  5 C       -4.2660    -1.6490     1.5330 C.ar  1 <1>  -0.1580 
  6 C       -3.6160    -0.9740    -0.6840 C.ar  1 <1>  -0.1580 
  7 C       -4.5250    -1.6010     0.1660 C.ar  1 <1>   0.3040 
  8 N       -5.6910    -2.1720    -0.3490 N.pl3 1 <1>  -0.5800 
  9 C       -6.8740    -1.5280    -0.4020 C.cat 1 <1>   1.0680 
 10 C       -5.5800    -3.5420    -0.9230 C.3   1 <1>   0.1600 
 11 N       -7.1290    -0.2860     0.0060 N.pl3 1 <1>  -0.7040 
 12 N       -7.9780    -2.0770    -0.8930 N.pl3 1 <1>  -0.7680 
 13 C       -6.9250    -4.2800    -0.8350 C.3   1 <1>  -0.1680 
 14 C       -8.4480    -0.0310    -0.2320 C.2   1 <1>   0.4200 
 15 C       -9.0050    -1.1280    -0.7920 C.2   1 <1>   0.2700 
 16 C       -8.0810    -3.4550    -1.4120 C.3   1 <1>   0.3470 
 17 N       -9.1530     1.1280     0.0300 N.am  1 <1>  -0.4420 
 18 C      -10.3950    -1.1050    -1.1310 C.2   1 <1>   0.6990 
 19 C      -10.5170     1.1370    -0.2350 C.2   1 <1>   0.6860 
 20 C       -8.4920     2.3110     0.6570 C.3   1 <1>   0.0510 
 21 O      -10.9300    -2.0480    -1.6900 O.2   1 <1>  -0.5750 
 22 N      -11.1230     0.0290    -0.8110 N.am  1 <1>  -0.4260 
 23 O      -11.1840     2.1120     0.0410 O.2   1 <1>  -0.5750 
 24 C      -12.6140    -0.1070    -0.6980 C.3   1 <1>   0.1930 
 25 C      -13.0130    -0.7730     0.6160 C.2   1 <1>   0.6550 
 26 O      -12.1890    -1.2200     1.3780 O.2   1 <1>  -0.5750 
 27 O      -14.3160    -0.8350     0.8620 O.3   1 <1>  -0.4360 
 28 C      -14.8260    -1.4240     2.0410 C.3   1 <1>   0.0310 
 29 H       -2.8980    -1.1020     3.1060 H     1 <1>   0.1420 
 30 H       -1.7490     0.0930    -0.8190 H     1 <1>   0.1420 
 31 H       -4.9570    -2.1420     2.1940 H     1 <1>   0.1420 
 32 H       -3.8050    -0.9410    -1.7430 H     1 <1>   0.1420 
 33 H       -4.8290    -4.1010    -0.3880 H     1 <1>   0.0710 
 34 H       -5.2710    -3.4660    -1.9530 H     1 <1>   0.0710 
 35 H       -6.4440     0.3340     0.4300 H     1 <1>   0.4440 
 36 H       -7.1360    -4.5150     0.1940 H     1 <1>   0.0710 
 37 H       -6.8590    -5.2140    -1.3640 H     1 <1>   0.0710 
 38 H       -8.0260    -3.4340    -2.4880 H     1 <1>   0.0710 
 39 H       -9.0250    -3.8910    -1.1260 H     1 <1>   0.0710 
 40 H       -8.4620     2.1840     1.7250 H     1 <1>   0.0710 
 41 H       -9.0400     3.2110     0.4330 H     1 <1>   0.0710 
 42 H       -7.4920     2.4270     0.2790 H     1 <1>   0.0710 
 43 H      -12.9930    -0.6960    -1.5130 H     1 <1>   0.0710 
 44 H      -13.0840     0.8590    -0.7530 H     1 <1>   0.0710 
 45 H      -15.8990    -1.3630     2.0160 H     1 <1>   0.0710 
 46 H      -14.4440    -0.8870     2.8920 H     1 <1>   0.0710 
 47 H      -14.5130    -2.4530     2.0790 H     1 <1>   0.0710 
@<TRIPOS>BOND
  1   1   2  1   
  2   2   3  ar  
  3   2   4  ar  
  4   3   5  ar  
  5   3  29  1   
  6   4   6  ar  
  7   4  30  1   
  8   5   7  ar  
  9   5  31  1   
 10   6   7  ar  
 11   6  32  1   
 12   7   8  1   
 13   8   9  ar  
 14   8  10  1   
 15   9  11  ar  
 16   9  12  ar  
 17  10  13  1   
 18  10  33  1   
 19  10  34  1   
 20  11  14  1   
 21  11  35  1   
 22  12  15  1   
 23  12  16  1   
 24  13  16  1   
 25  13  36  1   
 26  13  37  1   
 27  14  15  2   
 28  14  17  1   
 29  15  18  1   
 30  16  38  1   
 31  16  39  1   
 32  17  19  am  
 33  17  20  1   
 34  18  21  2   
 35  18  22  am  
 36  19  22  am  
 37  19  23  2   
 38  20  40  1   
 39  20  41  1   
 40  20  42  1   
 41  22  24  1   
 42  24  25  1   
 43  24  43  1   
 44  24  44  1   
 45  25  26  2   
 46  25  27  1   
 47  27  28  1   
 48  28  45  1   
 49  28  46  1   
 50  28  47  1   
@<TRIPOS>SUBSTRUCTURE
  1 ****  14 GROUP 4 **** **** 0

# MOE 2024.06 (io_trps.svl 2023.06)
