@<TRIPOS>MOLECULE
NONAME
39 39 1 0 0 
SMALL
USER_CHARGES


@<TRIPOS>ATOM
  1 P       -0.0310    -0.1890     0.6960 P.3   1 <1>   1.2420 
  2 O       -0.5030     0.6070     1.8310 O.2   1 <1>  -0.7000 
  3 O       -0.4260    -1.7370     0.8720 O.3   1 <1>  -0.5510 
  4 O       -0.8040     0.1960    -0.6670 O.3   1 <1>  -0.5510 
  5 C        1.7430    -0.1590     0.2960 C.3   1 <1>   0.4000 
  6 C       -1.7430    -2.0760     1.1170 C.3   1 <1>   0.1200 
  7 C       -1.2060     1.4980    -0.9140 C.3   1 <1>   0.1200 
  8 N        2.3140     1.1940    -0.1080 N.am  1 <1>  -0.6600 
  9 C        2.1670    -1.1990    -0.7480 C.2   1 <1>  -0.0400 
 10 C       -1.8190    -3.5940     1.2210 C.3   1 <1>  -0.2400 
 11 C       -2.6390     1.6720    -0.4180 C.3   1 <1>  -0.2400 
 12 C        2.8140     2.0080     0.8680 C.2   1 <1>   0.5690 
 13 C        2.3210     1.5220    -1.5670 C.3   1 <1>   0.0600 
 14 O        3.4540    -1.4760    -0.8690 O.3   1 <1>  -0.2800 
 15 C        1.4530    -1.9330    -1.6340 C.2   1 <1>  -0.1500 
 16 O        2.7660     1.7040     2.0340 O.2   1 <1>  -0.5700 
 17 C        3.4570     3.3290     0.5170 C.3   1 <1>  -0.1790 
 18 C        3.5880    -2.3800    -1.8180 C.2   1 <1>  -0.0100 
 19 C        2.3850    -2.7070    -2.3340 C.2   1 <1>  -0.1500 
 20 H        2.2570    -0.4630     1.1890 H     1 <1>   0.0800 
 21 H       -2.3520    -1.7150     0.3040 H     1 <1>   0.0800 
 22 H       -2.0520    -1.6090     2.0380 H     1 <1>   0.0800 
 23 H       -1.1660     1.6550    -1.9790 H     1 <1>   0.0800 
 24 H       -0.5330     2.1850    -0.4270 H     1 <1>   0.0800 
 25 H       -1.4950    -4.0450     0.3010 H     1 <1>   0.0800 
 26 H       -2.8340    -3.8940     1.4130 H     1 <1>   0.0800 
 27 H       -1.2010    -3.9400     2.0300 H     1 <1>   0.0800 
 28 H       -3.2880     0.9620    -0.9000 H     1 <1>   0.0800 
 29 H       -2.9840     2.6630    -0.6500 H     1 <1>   0.0800 
 30 H       -2.6900     1.5400     0.6480 H     1 <1>   0.0800 
 31 H        1.4450     1.1190    -2.0440 H     1 <1>   0.0800 
 32 H        3.1940     1.0910    -2.0270 H     1 <1>   0.0800 
 33 H        2.3310     2.5860    -1.7250 H     1 <1>   0.0800 
 34 H        0.3890    -1.9550    -1.8030 H     1 <1>   0.1500 
 35 H        2.7160     4.0050     0.1360 H     1 <1>   0.0800 
 36 H        4.2300     3.1800    -0.2130 H     1 <1>   0.0800 
 37 H        3.8960     3.7610     1.3980 H     1 <1>   0.0800 
 38 H        4.5740    -2.7370    -2.0600 H     1 <1>   0.1500 
 39 H        2.1550    -3.4100    -3.1150 H     1 <1>   0.1500 
@<TRIPOS>BOND
  1   1   2  2   
  2   1   3  1   
  3   1   4  1   
  4   1   5  1   
  5   3   6  1   
  6   4   7  1   
  7   5   8  1   
  8   5   9  1   
  9   5  20  1   
 10   6  10  1   
 11   6  21  1   
 12   6  22  1   
 13   7  11  1   
 14   7  23  1   
 15   7  24  1   
 16   8  12  am  
 17   8  13  1   
 18   9  14  1   
 19   9  15  2   
 20  10  25  1   
 21  10  26  1   
 22  10  27  1   
 23  11  28  1   
 24  11  29  1   
 25  11  30  1   
 26  12  16  2   
 27  12  17  1   
 28  13  31  1   
 29  13  32  1   
 30  13  33  1   
 31  14  18  1   
 32  15  19  1   
 33  15  34  1   
 34  17  35  1   
 35  17  36  1   
 36  17  37  1   
 37  18  19  2   
 38  18  38  1   
 39  19  39  1   
@<TRIPOS>SUBSTRUCTURE
  1 ****   5 GROUP 4 **** **** 0

# MOE 2024.06 (io_trps.svl 2023.06)
