@<TRIPOS>MOLECULE
NONAME
37 38 1 0 0 
SMALL
USER_CHARGES


@<TRIPOS>ATOM
  1 O        3.0290     1.3040    -2.3660 O.2   1 <1>  -0.5700 
  2 C        3.1850     1.5720    -1.2020 C.2   1 <1>   0.4230 
  3 C        3.0180     2.9100    -0.6680 C.ar  1 <1>   0.0860 
  4 C        3.5740     0.4150    -0.2920 C.3   1 <1>  -0.0990 
  5 C        2.6020     3.9490    -1.5080 C.ar  1 <1>  -0.1500 
  6 C        3.2550     3.2390     0.6740 C.ar  1 <1>  -0.1500 
  7 C        3.5730    -0.8990    -1.0820 C.3   1 <1>   0.3430 
  8 C        2.4280     5.2380    -1.0430 C.ar  1 <1>  -0.1500 
  9 C        3.0840     4.5270     1.1480 C.ar  1 <1>  -0.1500 
 10 N        3.8870    -2.0780    -0.2190 N.4   1 <1>  -0.9590 
 11 C        2.6690     5.5280     0.2860 C.ar  1 <1>   0.0830 
 12 C        5.3190    -2.1060     0.2080 C.3   1 <1>   0.3430 
 13 C        3.5190    -3.3330    -0.9390 C.3   1 <1>   0.3430 
 14 O        2.4970     6.7780     0.7250 O.3   1 <1>  -0.5330 
 15 C        5.5500    -3.2790     1.1630 C.3   1 <1>  -0.1600 
 16 C        3.7060    -4.5350    -0.0100 C.3   1 <1>  -0.1600 
 17 C        5.1390    -4.6150     0.5320 C.3   1 <1>  -0.1600 
 18 H        2.8610     0.3530     0.5090 H     1 <1>   0.0800 
 19 H        4.5530     0.6130     0.1010 H     1 <1>   0.0800 
 20 H        2.4100     3.7410    -2.5480 H     1 <1>   0.1500 
 21 H        3.5800     2.4910     1.3730 H     1 <1>   0.1500 
 22 H        4.2830    -0.8310    -1.8910 H     1 <1>   0.0800 
 23 H        2.5960    -1.0240    -1.5220 H     1 <1>   0.0800 
 24 H        2.1070     6.0230    -1.7040 H     1 <1>   0.1500 
 25 H        3.2730     4.7520     2.1830 H     1 <1>   0.1500 
 26 H        3.3050    -2.0400     0.6270 H     1 <1>   0.4500 
 27 H        5.5810    -1.1870     0.7060 H     1 <1>   0.0800 
 28 H        5.9550    -2.2160    -0.6570 H     1 <1>   0.0800 
 29 H        4.1430    -3.4510    -1.8100 H     1 <1>   0.0800 
 30 H        2.4910    -3.2880    -1.2620 H     1 <1>   0.0800 
 31 H        2.6880     6.9050     1.6710 H     1 <1>   0.4500 
 32 H        4.9960    -3.1150     2.0710 H     1 <1>   0.0800 
 33 H        6.5930    -3.3170     1.4260 H     1 <1>   0.0800 
 34 H        3.4820    -5.4370    -0.5540 H     1 <1>   0.0800 
 35 H        3.0070    -4.4710     0.8050 H     1 <1>   0.0800 
 36 H        5.2110    -5.4040     1.2620 H     1 <1>   0.0800 
 37 H        5.8140    -4.8540    -0.2740 H     1 <1>   0.0800 
@<TRIPOS>BOND
  1   1   2  2   
  2   2   3  1   
  3   2   4  1   
  4   3   5  ar  
  5   3   6  ar  
  6   4   7  1   
  7   4  18  1   
  8   4  19  1   
  9   5   8  ar  
 10   5  20  1   
 11   6   9  ar  
 12   6  21  1   
 13   7  10  1   
 14   7  22  1   
 15   7  23  1   
 16   8  11  ar  
 17   8  24  1   
 18   9  11  ar  
 19   9  25  1   
 20  10  12  1   
 21  10  13  1   
 22  10  26  1   
 23  11  14  1   
 24  12  15  1   
 25  12  27  1   
 26  12  28  1   
 27  13  16  1   
 28  13  29  1   
 29  13  30  1   
 30  14  31  1   
 31  15  17  1   
 32  15  32  1   
 33  15  33  1   
 34  16  17  1   
 35  16  34  1   
 36  16  35  1   
 37  17  36  1   
 38  17  37  1   
@<TRIPOS>SUBSTRUCTURE
  1 ****   4 GROUP 4 **** **** 0

# MOE 2024.06 (io_trps.svl 2023.06)
