@<TRIPOS>MOLECULE
NONAME
38 38 1 0 0 
SMALL
USER_CHARGES


@<TRIPOS>ATOM
  1 O        5.3320     0.6270    -0.2780 O.2   1 <1>  -0.5700 
  2 C        4.5810    -0.1790    -0.7710 C.2   1 <1>   0.6590 
  3 O        4.0250    -1.1790    -0.1000 O.3   1 <1>  -0.4300 
  4 C        4.2180    -0.1120    -2.2320 C.3   1 <1>  -0.1790 
  5 C        4.0990    -1.3610     1.3010 C.3   1 <1>   0.4000 
  6 C        5.5300    -1.4100     1.7280 C.1   1 <1>  -0.2000 
  7 C        3.3650    -2.6570     1.6660 C.3   1 <1>  -0.1600 
  8 C        6.6800    -1.1790     1.9110 C.1   1 <1>  -0.2000 
  9 C        1.8820    -2.6530     1.2620 C.3   1 <1>  -0.2400 
 10 C        8.0320    -0.5760     1.8960 C.3   1 <1>   0.5430 
 11 N        8.0940     0.1840     0.6280 N.4   1 <1>  -0.9590 
 12 C        8.5170    -0.6840    -0.5060 C.3   1 <1>   0.3430 
 13 C        8.8950     1.4300     0.7470 C.3   1 <1>   0.3430 
 14 C        8.4290     0.0920    -1.8220 C.3   1 <1>  -0.1600 
 15 C        8.7870     2.2340    -0.5500 C.3   1 <1>  -0.1600 
 16 C        9.2170     1.4060    -1.7680 C.3   1 <1>  -0.1600 
 17 H        4.5360    -1.0110    -2.7250 H     1 <1>   0.0800 
 18 H        4.6940     0.7340    -2.6920 H     1 <1>   0.0800 
 19 H        3.1540    -0.0120    -2.3320 H     1 <1>   0.0800 
 20 H        3.6120    -0.5190     1.7640 H     1 <1>   0.0800 
 21 H        3.4300    -2.7980     2.7310 H     1 <1>   0.0800 
 22 H        3.8640    -3.4900     1.2000 H     1 <1>   0.0800 
 23 H        1.3650    -1.8310     1.7260 H     1 <1>   0.0800 
 24 H        1.4140    -3.5700     1.5750 H     1 <1>   0.0800 
 25 H        1.7780    -2.5690     0.1940 H     1 <1>   0.0800 
 26 H        8.7980    -1.3320     1.9380 H     1 <1>   0.0800 
 27 H        8.1330     0.0860     2.7400 H     1 <1>   0.0800 
 28 H        7.1100     0.4610     0.4270 H     1 <1>   0.4500 
 29 H        7.8800    -1.5530    -0.5600 H     1 <1>   0.0800 
 30 H        9.5320    -1.0140    -0.3530 H     1 <1>   0.0800 
 31 H        9.9280     1.1850     0.9320 H     1 <1>   0.0800 
 32 H        8.5300     2.0270     1.5670 H     1 <1>   0.0800 
 33 H        7.3970     0.2970    -2.0440 H     1 <1>   0.0800 
 34 H        8.8110    -0.5220    -2.6190 H     1 <1>   0.0800 
 35 H        9.4070     3.1100    -0.4750 H     1 <1>   0.0800 
 36 H        7.7700     2.5680    -0.6750 H     1 <1>   0.0800 
 37 H        9.0490     1.9710    -2.6710 H     1 <1>   0.0800 
 38 H       10.2720     1.1940    -1.7060 H     1 <1>   0.0800 
@<TRIPOS>BOND
  1   1   2  2   
  2   2   3  1   
  3   2   4  1   
  4   3   5  1   
  5   4  17  1   
  6   4  18  1   
  7   4  19  1   
  8   5   6  1   
  9   5   7  1   
 10   5  20  1   
 11   6   8  3   
 12   7   9  1   
 13   7  21  1   
 14   7  22  1   
 15   8  10  1   
 16   9  23  1   
 17   9  24  1   
 18   9  25  1   
 19  10  11  1   
 20  10  26  1   
 21  10  27  1   
 22  11  12  1   
 23  11  13  1   
 24  11  28  1   
 25  12  14  1   
 26  12  29  1   
 27  12  30  1   
 28  13  15  1   
 29  13  31  1   
 30  13  32  1   
 31  14  16  1   
 32  14  33  1   
 33  14  34  1   
 34  15  16  1   
 35  15  35  1   
 36  15  36  1   
 37  16  37  1   
 38  16  38  1   
@<TRIPOS>SUBSTRUCTURE
  1 ****   1 GROUP 4 **** **** 0

# MOE 2024.06 (io_trps.svl 2023.06)
