@<TRIPOS>MOLECULE
NONAME
39 41 1 0 0 
SMALL
USER_CHARGES


@<TRIPOS>ATOM
  1 O        0.3680    -2.2560     0.5870 O.3   1 <1>  -0.5600 
  2 C        1.5320    -2.3310     1.3610 C.3   1 <1>   0.1200 
  3 C        0.2300    -1.0790    -0.1560 C.3   1 <1>   0.1200 
  4 C        2.7800    -2.2250     0.4650 C.3   1 <1>   0.3430 
  5 C        1.4120    -0.9220    -1.1320 C.3   1 <1>   0.3430 
  6 N        2.7260    -1.0040    -0.4130 N.4   1 <1>  -0.9590 
  7 C        3.8840    -0.9800    -1.3470 C.3   1 <1>   0.4860 
  8 C        5.1410    -0.7550    -0.5330 C.ar  1 <1>  -0.1430 
  9 C        5.9460    -1.8330    -0.2550 C.ar  1 <1>   0.0820 
 10 C        5.4570     0.5430    -0.0610 C.ar  1 <1>   0.0000 
 11 O        5.5770    -3.0480    -0.7350 O.3   1 <1>  -0.3630 
 12 C        7.1030    -1.6600     0.5260 C.ar  1 <1>  -0.1500 
 13 C        6.6100     0.6990     0.7420 C.ar  1 <1>   0.0000 
 14 C        4.6900     1.7010    -0.3410 C.ar  1 <1>  -0.1500 
 15 C        6.4790    -4.1370    -0.7610 C.3   1 <1>   0.0400 
 16 C        7.4170    -0.4240     1.0100 C.ar  1 <1>  -0.1500 
 17 C        6.9280     1.9720     1.2540 C.ar  1 <1>  -0.1500 
 18 C        5.0250     2.9250     0.1670 C.ar  1 <1>  -0.1500 
 19 C        6.1540     3.0630     0.9780 C.ar  1 <1>  -0.1500 
 20 H        1.5230    -3.2780     1.8730 H     1 <1>   0.0800 
 21 H        1.5130    -1.5450     2.0960 H     1 <1>   0.0800 
 22 H        0.1680    -0.2450     0.5220 H     1 <1>   0.0800 
 23 H       -0.6960    -1.1450    -0.7010 H     1 <1>   0.0800 
 24 H        2.8390    -3.1110    -0.1460 H     1 <1>   0.0800 
 25 H        3.6620    -2.1970     1.0840 H     1 <1>   0.0800 
 26 H        1.3270     0.0210    -1.6450 H     1 <1>   0.0800 
 27 H        1.3480    -1.7080    -1.8660 H     1 <1>   0.0800 
 28 H        2.8310    -0.1880     0.2040 H     1 <1>   0.4500 
 29 H        3.7770    -0.1850    -2.0660 H     1 <1>   0.0800 
 30 H        3.9480    -1.9130    -1.8840 H     1 <1>   0.0800 
 31 H        7.7440    -2.4910     0.7540 H     1 <1>   0.1500 
 32 H        3.8270     1.6400    -0.9740 H     1 <1>   0.1500 
 33 H        6.0180    -4.9460    -1.3010 H     1 <1>   0.0800 
 34 H        6.6870    -4.4480     0.2470 H     1 <1>   0.0800 
 35 H        7.3820    -3.8350    -1.2630 H     1 <1>   0.0800 
 36 H        8.2980    -0.2860     1.6120 H     1 <1>   0.1500 
 37 H        7.8020     2.0740     1.8720 H     1 <1>   0.1500 
 38 H        4.4370     3.8010    -0.0500 H     1 <1>   0.1500 
 39 H        6.4040     4.0330     1.3730 H     1 <1>   0.1500 
@<TRIPOS>BOND
  1   1   2  1   
  2   1   3  1   
  3   2   4  1   
  4   2  20  1   
  5   2  21  1   
  6   3   5  1   
  7   3  22  1   
  8   3  23  1   
  9   4   6  1   
 10   4  24  1   
 11   4  25  1   
 12   5   6  1   
 13   5  26  1   
 14   5  27  1   
 15   6   7  1   
 16   6  28  1   
 17   7   8  1   
 18   7  29  1   
 19   7  30  1   
 20   8   9  ar  
 21   8  10  ar  
 22   9  11  1   
 23   9  12  ar  
 24  10  13  ar  
 25  10  14  ar  
 26  11  15  1   
 27  12  16  ar  
 28  12  31  1   
 29  13  16  ar  
 30  13  17  ar  
 31  14  18  ar  
 32  14  32  1   
 33  15  33  1   
 34  15  34  1   
 35  15  35  1   
 36  16  36  1   
 37  17  19  ar  
 38  17  37  1   
 39  18  19  ar  
 40  18  38  1   
 41  19  39  1   
@<TRIPOS>SUBSTRUCTURE
  1 ****   8 GROUP 4 **** **** 0

# MOE 2024.06 (io_trps.svl 2023.06)
