@<TRIPOS>MOLECULE
NONAME
47 48 1 0 0 
SMALL
USER_CHARGES


@<TRIPOS>ATOM
  1 O        0.9280    -0.2700     0.3560 O.3   1 <1>  -0.3630 
  2 C        0.5540    -1.5680     0.1800 C.ar  1 <1>   0.0830 
  3 C       -0.0370     0.7660     0.3290 C.3   1 <1>   0.0400 
  4 C        1.4800    -2.5560     0.5030 C.ar  1 <1>  -0.1440 
  5 C       -0.6960    -1.9340    -0.3130 C.ar  1 <1>  -0.1500 
  6 C        1.1540    -3.8940     0.3330 C.ar  1 <1>  -0.1500 
  7 C        2.8380    -2.1710     1.0400 C.3   1 <1>   0.4870 
  8 C       -1.0120    -3.2690    -0.4810 C.ar  1 <1>  -0.1500 
  9 C       -0.0890    -4.2480    -0.1580 C.ar  1 <1>  -0.1500 
 10 N        3.4880    -1.3660    -0.0170 N.4   1 <1>  -0.9060 
 11 C        4.7420    -0.6850     0.3570 C.3   1 <1>   0.4230 
 12 C        5.0680     0.3570    -0.7120 C.3   1 <1>  -0.1600 
 13 C        5.8850    -1.6960     0.4830 C.3   1 <1>  -0.1600 
 14 C        6.4020     1.0460    -0.4210 C.3   1 <1>   0.3430 
 15 C        7.2160    -0.9910     0.7550 C.3   1 <1>   0.3430 
 16 N        7.4860     0.0280    -0.3040 N.4   1 <1>  -0.9590 
 17 C        8.7950     0.7170    -0.0770 C.3   1 <1>   0.3430 
 18 C        9.9600    -0.2320    -0.3680 C.3   1 <1>  -0.1600 
 19 C       11.2990     0.5030    -0.2540 C.3   1 <1>  -0.2400 
 20 H       -0.8200     0.5360     1.0320 H     1 <1>   0.0800 
 21 H       -0.4350     0.8540    -0.6670 H     1 <1>   0.0800 
 22 H        0.4410     1.6870     0.6100 H     1 <1>   0.0800 
 23 H       -1.4370    -1.2020    -0.5770 H     1 <1>   0.1500 
 24 H        1.8510    -4.6780     0.5810 H     1 <1>   0.1500 
 25 H        3.4160    -3.0510     1.2670 H     1 <1>   0.0800 
 26 H        2.7100    -1.5860     1.9370 H     1 <1>   0.0800 
 27 H       -1.9790    -3.5510    -0.8620 H     1 <1>   0.1500 
 28 H       -0.3450    -5.2870    -0.2900 H     1 <1>   0.1500 
 29 H        2.7540    -0.6710    -0.2460 H     1 <1>   0.4500 
 30 H        3.5730    -1.9490    -0.8570 H     1 <1>   0.4500 
 31 H        4.6050    -0.1810     1.3030 H     1 <1>   0.0800 
 32 H        4.2990     1.1100    -0.7290 H     1 <1>   0.0800 
 33 H        5.1160    -0.0960    -1.6870 H     1 <1>   0.0800 
 34 H        5.9800    -2.2780    -0.4180 H     1 <1>   0.0800 
 35 H        5.6950    -2.3690     1.2990 H     1 <1>   0.0800 
 36 H        6.3310     1.6090     0.4970 H     1 <1>   0.0800 
 37 H        6.6320     1.7370    -1.2180 H     1 <1>   0.0800 
 38 H        8.0090    -1.7230     0.7750 H     1 <1>   0.0800 
 39 H        7.1850    -0.5100     1.7200 H     1 <1>   0.0800 
 40 H        7.5810    -0.4530    -1.2120 H     1 <1>   0.4500 
 41 H        8.8610     1.0780     0.9370 H     1 <1>   0.0800 
 42 H        8.8770     1.5660    -0.7390 H     1 <1>   0.0800 
 43 H        9.8740    -0.6260    -1.3660 H     1 <1>   0.0800 
 44 H        9.9680    -1.0500     0.3300 H     1 <1>   0.0800 
 45 H       11.3550     1.3150    -0.9590 H     1 <1>   0.0800 
 46 H       12.1100    -0.1750    -0.4640 H     1 <1>   0.0800 
 47 H       11.4410     0.8950     0.7390 H     1 <1>   0.0800 
@<TRIPOS>BOND
  1   1   2  1   
  2   1   3  1   
  3   2   4  ar  
  4   2   5  ar  
  5   3  20  1   
  6   3  21  1   
  7   3  22  1   
  8   4   6  ar  
  9   4   7  1   
 10   5   8  ar  
 11   5  23  1   
 12   6   9  ar  
 13   6  24  1   
 14   7  10  1   
 15   7  25  1   
 16   7  26  1   
 17   8   9  ar  
 18   8  27  1   
 19   9  28  1   
 20  10  11  1   
 21  10  29  1   
 22  10  30  1   
 23  11  12  1   
 24  11  13  1   
 25  11  31  1   
 26  12  14  1   
 27  12  32  1   
 28  12  33  1   
 29  13  15  1   
 30  13  34  1   
 31  13  35  1   
 32  14  16  1   
 33  14  36  1   
 34  14  37  1   
 35  15  16  1   
 36  15  38  1   
 37  15  39  1   
 38  16  17  1   
 39  16  40  1   
 40  17  18  1   
 41  17  41  1   
 42  17  42  1   
 43  18  19  1   
 44  18  43  1   
 45  18  44  1   
 46  19  45  1   
 47  19  46  1   
 48  19  47  1   
@<TRIPOS>SUBSTRUCTURE
  1 ****  10 GROUP 4 **** **** 0

# MOE 2024.06 (io_trps.svl 2023.06)
