@<TRIPOS>MOLECULE
NONAME
37 40 1 0 0 
SMALL
USER_CHARGES


@<TRIPOS>ATOM
  1 O       -0.7230    -0.6520    -1.9100 O.2   1 <1>  -0.5700 
  2 C       -1.0490    -1.4320    -1.0500 C.2   1 <1>   0.6300 
  3 N       -0.1760    -2.1650    -0.2980 N.am  1 <1>  -0.5470 
  4 C       -2.5280    -1.6510    -0.7800 C.3   1 <1>  -0.1000 
  5 C        1.2260    -2.2240    -0.2640 C.ar  1 <1>   0.1170 
  6 C       -3.3690    -0.5400    -0.2230 C.3   1 <1>  -0.1950 
  7 C       -3.0530    -1.7480     0.6260 C.3   1 <1>  -0.1950 
  8 C        2.0490    -1.2880    -0.8830 C.ar  1 <1>  -0.1500 
  9 C        1.8280    -3.2650     0.4330 C.ar  1 <1>  -0.1500 
 10 C       -4.9030    -0.4290    -0.1460 C.3   1 <1>   0.0150 
 11 C       -4.4380    -2.2230     1.1090 C.3   1 <1>   0.0150 
 12 C        3.4260    -1.3930    -0.8090 C.ar  1 <1>  -0.1500 
 13 C        3.2050    -3.3730     0.5090 C.ar  1 <1>  -0.1500 
 14 C       -5.1440    -0.8870     1.2830 C.3   1 <1>  -0.1600 
 15 C       -5.5520    -1.5810    -0.9340 C.3   1 <1>  -0.1600 
 16 C       -5.2290    -2.8190    -0.0690 C.3   1 <1>  -0.1600 
 17 C        4.0140    -2.4350    -0.1120 C.ar  1 <1>  -0.1430 
 18 C        5.5260    -2.5500    -0.0340 C.3   1 <1>  -0.0970 
 19 H       -0.6420    -2.7940     0.3500 H     1 <1>   0.3700 
 20 H       -2.9530    -2.2680    -1.5490 H     1 <1>   0.1000 
 21 H       -2.8710     0.3810     0.0320 H     1 <1>   0.1000 
 22 H       -2.3790    -1.5660     1.4470 H     1 <1>   0.1000 
 23 H        1.6210    -0.4670    -1.4270 H     1 <1>   0.1500 
 24 H        1.2180    -4.0030     0.9190 H     1 <1>   0.1500 
 25 H       -5.2870     0.5480    -0.3850 H     1 <1>   0.0800 
 26 H       -4.4120    -2.8420     1.9890 H     1 <1>   0.0800 
 27 H        4.0380    -0.6570    -1.3000 H     1 <1>   0.1500 
 28 H        3.6470    -4.1900     1.0520 H     1 <1>   0.1500 
 29 H       -6.1890    -0.9920     1.5190 H     1 <1>   0.0800 
 30 H       -4.6610    -0.2530     2.0080 H     1 <1>   0.0800 
 31 H       -5.1550    -1.6560    -1.9310 H     1 <1>   0.0800 
 32 H       -6.6170    -1.4370    -0.9920 H     1 <1>   0.0800 
 33 H       -6.1400    -3.2700     0.2860 H     1 <1>   0.0800 
 34 H       -4.6580    -3.5580    -0.6030 H     1 <1>   0.0800 
 35 H        5.9780    -1.5750    -0.0580 H     1 <1>   0.0800 
 36 H        5.8900    -3.1230    -0.8680 H     1 <1>   0.0800 
 37 H        5.8210    -3.0370     0.8780 H     1 <1>   0.0800 
@<TRIPOS>BOND
  1   1   2  2   
  2   2   3  am  
  3   2   4  1   
  4   3   5  1   
  5   3  19  1   
  6   4   6  1   
  7   4   7  1   
  8   4  20  1   
  9   5   8  ar  
 10   5   9  ar  
 11   6   7  1   
 12   6  10  1   
 13   6  21  1   
 14   7  11  1   
 15   7  22  1   
 16   8  12  ar  
 17   8  23  1   
 18   9  13  ar  
 19   9  24  1   
 20  10  14  1   
 21  10  15  1   
 22  10  25  1   
 23  11  14  1   
 24  11  16  1   
 25  11  26  1   
 26  12  17  ar  
 27  12  27  1   
 28  13  17  ar  
 29  13  28  1   
 30  14  29  1   
 31  14  30  1   
 32  15  16  1   
 33  15  31  1   
 34  15  32  1   
 35  16  33  1   
 36  16  34  1   
 37  17  18  1   
 38  18  35  1   
 39  18  36  1   
 40  18  37  1   
@<TRIPOS>SUBSTRUCTURE
  1 ****   3 GROUP 4 **** **** 0

# MOE 2024.06 (io_trps.svl 2023.06)
