@<TRIPOS>MOLECULE
NONAME
41 43 1 0 0 
SMALL
USER_CHARGES


@<TRIPOS>ATOM
  1 O        0.6020    -0.5600     2.1760 O.2   1 <1>  -0.5700 
  2 C        1.3280    -0.3870     1.2250 C.2   1 <1>   0.6900 
  3 N        1.7450     0.8870     1.0070 N.am  1 <1>  -0.4900 
  4 N        1.6790    -1.4650     0.4960 N.am  1 <1>  -0.7300 
  5 C        2.2410     1.5550    -0.0760 C.2   1 <1>   0.5690 
  6 C        2.9330    -1.6960    -0.2350 C.3   1 <1>   0.2780 
  7 O        2.4570     1.0120    -1.1320 O.2   1 <1>  -0.5700 
  8 C        2.5330     3.0670     0.0540 C.3   1 <1>   0.0610 
  9 C        3.5040    -3.0540     0.1410 C.2   1 <1>  -0.2880 
 10 C        1.7200     3.8510    -1.0080 C.3   1 <1>  -0.1600 
 11 C        4.0400     3.3300    -0.1960 C.3   1 <1>  -0.1600 
 12 C        2.1720     3.6460     1.4520 C.3   1 <1>  -0.1600 
 13 C        3.1320    -3.8590     1.1450 C.2   1 <1>  -0.3000 
 14 C        2.0300     5.3580    -0.9440 C.3   1 <1>  -0.0800 
 15 C        4.3600     4.8350    -0.1280 C.3   1 <1>  -0.0800 
 16 C        2.4850     5.1520     1.5270 C.3   1 <1>  -0.0800 
 17 C        3.5330     5.5750    -1.1950 C.3   1 <1>  -0.1600 
 18 C        1.6670     5.8910     0.4530 C.3   1 <1>  -0.1600 
 19 C        3.9860     5.3710     1.2650 C.3   1 <1>  -0.1600 
 20 H        1.4880     1.4680     1.7950 H     1 <1>   0.3700 
 21 H        1.2220    -2.3320     0.7720 H     1 <1>   0.3700 
 22 H        3.6500    -0.9270    -0.0040 H     1 <1>   0.0800 
 23 H        2.7260    -1.6650    -1.2920 H     1 <1>   0.0800 
 24 H        4.3050    -3.3290    -0.5250 H     1 <1>   0.1500 
 25 H        0.6680     3.6900    -0.8530 H     1 <1>   0.0800 
 26 H        1.9590     3.4830    -1.9920 H     1 <1>   0.0800 
 27 H        4.3170     2.9530    -1.1660 H     1 <1>   0.0800 
 28 H        4.6280     2.8020     0.5340 H     1 <1>   0.0800 
 29 H        2.7350     3.1400     2.2190 H     1 <1>   0.0800 
 30 H        1.1250     3.5020     1.6530 H     1 <1>   0.0800 
 31 H        3.5910    -4.8130     1.3440 H     1 <1>   0.1500 
 32 H        2.3530    -3.6450     1.8570 H     1 <1>   0.1500 
 33 H        1.4580     5.8790    -1.6930 H     1 <1>   0.0800 
 34 H        5.4100     4.9920    -0.3080 H     1 <1>   0.0800 
 35 H        2.2280     5.5310     2.5020 H     1 <1>   0.0800 
 36 H        3.7590     6.6270    -1.1650 H     1 <1>   0.0800 
 37 H        3.7950     5.2140    -2.1750 H     1 <1>   0.0800 
 38 H        0.6150     5.7560     0.6340 H     1 <1>   0.0800 
 39 H        1.8720     6.9470     0.5030 H     1 <1>   0.0800 
 40 H        4.5670     4.8680     2.0190 H     1 <1>   0.0800 
 41 H        4.2160     6.4210     1.3240 H     1 <1>   0.0800 
@<TRIPOS>BOND
  1   1   2  2   
  2   2   3  am  
  3   2   4  am  
  4   3   5  am  
  5   3  20  1   
  6   4   6  1   
  7   4  21  1   
  8   5   7  2   
  9   5   8  1   
 10   6   9  1   
 11   6  22  1   
 12   6  23  1   
 13   8  10  1   
 14   8  11  1   
 15   8  12  1   
 16   9  13  2   
 17   9  24  1   
 18  10  14  1   
 19  10  25  1   
 20  10  26  1   
 21  11  15  1   
 22  11  27  1   
 23  11  28  1   
 24  12  16  1   
 25  12  29  1   
 26  12  30  1   
 27  13  31  1   
 28  13  32  1   
 29  14  17  1   
 30  14  18  1   
 31  14  33  1   
 32  15  17  1   
 33  15  19  1   
 34  15  34  1   
 35  16  18  1   
 36  16  19  1   
 37  16  35  1   
 38  17  36  1   
 39  17  37  1   
 40  18  38  1   
 41  18  39  1   
 42  19  40  1   
 43  19  41  1   
@<TRIPOS>SUBSTRUCTURE
  1 ****   5 GROUP 4 **** **** 0

# MOE 2024.06 (io_trps.svl 2023.06)
