@<TRIPOS>MOLECULE
NONAME
44 45 1 0 0 
SMALL
USER_CHARGES


@<TRIPOS>ATOM
  1 CL      -0.2810    -0.2960    -1.3440 Cl    1 <1>  -0.1770 
  2 C        0.7430    -1.6030    -0.8030 C.ar  1 <1>   0.1770 
  3 C        2.0930    -1.3770    -0.6210 C.ar  1 <1>  -0.1500 
  4 C        0.1800    -2.8420    -0.5650 C.ar  1 <1>  -0.1500 
  5 C        2.9170    -2.4110    -0.1910 C.ar  1 <1>   0.1170 
  6 C        0.9880    -3.8810    -0.1350 C.ar  1 <1>  -0.1500 
  7 N        4.3010    -2.2630     0.0170 N.am  1 <1>  -0.5470 
  8 C        2.3520    -3.6710     0.0530 C.ar  1 <1>   0.0830 
  9 C        5.1730    -1.2280    -0.1660 C.2   1 <1>   0.5690 
 10 O        3.2000    -4.6590     0.4770 O.3   1 <1>  -0.3620 
 11 O        4.8440    -0.1460    -0.5890 O.2   1 <1>  -0.5700 
 12 C        6.6410    -1.4860     0.1760 C.3   1 <1>  -0.0190 
 13 C        2.7290    -5.9620     0.7470 C.3   1 <1>   0.0400 
 14 C        7.3490    -0.2480     0.7530 C.3   1 <1>  -0.1600 
 15 C        7.4170    -1.9820    -1.0540 C.3   1 <1>  -0.1600 
 16 C        8.8250    -0.5410     1.0300 C.3   1 <1>   0.1960 
 17 C        8.8980    -2.2030    -0.7360 C.3   1 <1>   0.1960 
 18 N        9.4970    -0.9760    -0.2000 N.am  1 <1>  -0.8490 
 19 S       11.1740    -1.1290     0.0050 S.o2  1 <1>   1.3330 
 20 O       11.4110    -1.5150     1.3780 O.2   1 <1>  -0.6500 
 21 O       11.6880    -1.9520    -1.0670 O.2   1 <1>  -0.6500 
 22 C       11.7550     0.5530    -0.2570 C.3   1 <1>  -0.0550 
 23 C       13.2800     0.7270    -0.1350 C.3   1 <1>  -0.2400 
 24 H        2.4810    -0.3960    -0.8180 H     1 <1>   0.1500 
 25 H       -0.8750    -2.9850    -0.7160 H     1 <1>   0.1500 
 26 H        0.5330    -4.8370     0.0450 H     1 <1>   0.1500 
 27 H        4.7130    -3.1340     0.3550 H     1 <1>   0.3700 
 28 H        6.6730    -2.2570     0.9260 H     1 <1>   0.0800 
 29 H        3.5650    -6.5620     1.0620 H     1 <1>   0.0800 
 30 H        2.3040    -6.3750    -0.1510 H     1 <1>   0.0800 
 31 H        1.9980    -5.9150     1.5350 H     1 <1>   0.0800 
 32 H        6.8650     0.0540     1.6640 H     1 <1>   0.0800 
 33 H        7.2840     0.5730     0.0590 H     1 <1>   0.0800 
 34 H        7.3380    -1.2570    -1.8470 H     1 <1>   0.0800 
 35 H        6.9910    -2.9020    -1.4110 H     1 <1>   0.0800 
 36 H        8.9110    -1.3050     1.7860 H     1 <1>   0.0800 
 37 H        9.2940     0.3530     1.4050 H     1 <1>   0.0800 
 38 H        9.3990    -2.4860    -1.6470 H     1 <1>   0.0800 
 39 H        9.0160    -3.0060    -0.0260 H     1 <1>   0.0800 
 40 H       11.2810     1.2020     0.4530 H     1 <1>   0.0800 
 41 H       11.4520     0.8710    -1.2370 H     1 <1>   0.0800 
 42 H       13.6080     0.4370     0.8480 H     1 <1>   0.0800 
 43 H       13.5540     1.7520    -0.3060 H     1 <1>   0.0800 
 44 H       13.7810     0.1080    -0.8600 H     1 <1>   0.0800 
@<TRIPOS>BOND
  1   1   2  1   
  2   2   3  ar  
  3   2   4  ar  
  4   3   5  ar  
  5   3  24  1   
  6   4   6  ar  
  7   4  25  1   
  8   5   7  1   
  9   5   8  ar  
 10   6   8  ar  
 11   6  26  1   
 12   7   9  am  
 13   7  27  1   
 14   8  10  1   
 15   9  11  2   
 16   9  12  1   
 17  10  13  1   
 18  12  14  1   
 19  12  15  1   
 20  12  28  1   
 21  13  29  1   
 22  13  30  1   
 23  13  31  1   
 24  14  16  1   
 25  14  32  1   
 26  14  33  1   
 27  15  17  1   
 28  15  34  1   
 29  15  35  1   
 30  16  18  1   
 31  16  36  1   
 32  16  37  1   
 33  17  18  1   
 34  17  38  1   
 35  17  39  1   
 36  18  19  am  
 37  19  20  2   
 38  19  21  2   
 39  19  22  1   
 40  22  23  1   
 41  22  40  1   
 42  22  41  1   
 43  23  42  1   
 44  23  43  1   
 45  23  44  1   
@<TRIPOS>SUBSTRUCTURE
  1 ****  12 GROUP 4 **** **** 0

# MOE 2024.06 (io_trps.svl 2023.06)
