@<TRIPOS>MOLECULE
NONAME
47 49 1 0 0 
SMALL
USER_CHARGES


@<TRIPOS>ATOM
  1 O       -0.6700     0.4950     0.3130 O.3   1 <1>  -0.3630 
  2 C       -1.4530     1.2530     1.1200 C.ar  1 <1>   0.0830 
  3 C        0.6860     0.8170     0.0950 C.3   1 <1>   0.2640 
  4 C       -2.7610     0.8310     1.2850 C.ar  1 <1>  -0.1500 
  5 C       -1.0200     2.4060     1.7670 C.ar  1 <1>  -0.1500 
  6 C        1.3020    -0.2140    -0.8390 C.ar  1 <1>  -0.1440 
  7 C       -3.6490     1.5460     2.0750 C.ar  1 <1>  -0.1440 
  8 C       -1.8990     3.1200     2.5630 C.ar  1 <1>  -0.1500 
  9 C        1.9150     0.1800    -2.0200 C.ar  1 <1>  -0.1500 
 10 C        1.2640    -1.5620    -0.5130 C.ar  1 <1>  -0.1500 
 11 C       -3.2070     2.6940     2.7170 C.ar  1 <1>  -0.1500 
 12 C       -5.0900     1.0780     2.2230 C.3   1 <1>   0.2530 
 13 C        2.4840    -0.7600    -2.8610 C.ar  1 <1>  -0.1500 
 14 C        1.8330    -2.5030    -1.3530 C.ar  1 <1>  -0.1500 
 15 N       -5.7070     0.8530     0.9000 N.3   1 <1>  -0.8100 
 16 C        2.4450    -2.1030    -2.5280 C.ar  1 <1>  -0.1500 
 17 C       -5.7190     2.0720     0.0630 C.3   1 <1>   0.1100 
 18 C       -7.0460     0.2490     1.0050 C.3   1 <1>   0.1100 
 19 C       -6.2700     1.7700    -1.3430 C.3   1 <1>   0.3430 
 20 C       -7.6180    -0.0720    -0.3920 C.3   1 <1>   0.3430 
 21 N       -7.6370     1.1410    -1.2850 N.4   1 <1>  -0.9590 
 22 C       -8.1260     0.7980    -2.6520 C.3   1 <1>   0.2630 
 23 H        1.1930     0.8050     1.0440 H     1 <1>   0.0800 
 24 H        0.7330     1.8000    -0.3380 H     1 <1>   0.0800 
 25 H       -3.0840    -0.0630     0.7830 H     1 <1>   0.1500 
 26 H       -0.0130     2.7630     1.6670 H     1 <1>   0.1500 
 27 H       -1.5630     4.0110     3.0660 H     1 <1>   0.1500 
 28 H        1.9510     1.2200    -2.2920 H     1 <1>   0.1500 
 29 H        0.7850    -1.8800     0.3970 H     1 <1>   0.1500 
 30 H       -3.8750     3.2630     3.3390 H     1 <1>   0.1500 
 31 H       -5.6610     1.8040     2.7760 H     1 <1>   0.0800 
 32 H       -5.0890     0.1560     2.7800 H     1 <1>   0.0800 
 33 H        2.9580    -0.4480    -3.7750 H     1 <1>   0.1500 
 34 H        1.7970    -3.5460    -1.0920 H     1 <1>   0.1500 
 35 H        2.8870    -2.8340    -3.1810 H     1 <1>   0.1500 
 36 H       -4.7170     2.4490    -0.0480 H     1 <1>   0.0800 
 37 H       -6.3090     2.8400     0.5340 H     1 <1>   0.0800 
 38 H       -7.7120     0.9130     1.5310 H     1 <1>   0.0800 
 39 H       -6.9770    -0.6670     1.5680 H     1 <1>   0.0800 
 40 H       -5.5820     1.1000    -1.8340 H     1 <1>   0.0800 
 41 H       -6.3070     2.6840    -1.9120 H     1 <1>   0.0800 
 42 H       -8.6150    -0.4660    -0.2840 H     1 <1>   0.0800 
 43 H       -7.0040    -0.8380    -0.8370 H     1 <1>   0.0800 
 44 H       -8.2710     1.8290    -0.8570 H     1 <1>   0.4500 
 45 H       -7.4700     0.0780    -3.1140 H     1 <1>   0.0800 
 46 H       -8.1590     1.6810    -3.2700 H     1 <1>   0.0800 
 47 H       -9.1180     0.3780    -2.6010 H     1 <1>   0.0800 
@<TRIPOS>BOND
  1   1   2  1   
  2   1   3  1   
  3   2   4  ar  
  4   2   5  ar  
  5   3   6  1   
  6   3  23  1   
  7   3  24  1   
  8   4   7  ar  
  9   4  25  1   
 10   5   8  ar  
 11   5  26  1   
 12   6   9  ar  
 13   6  10  ar  
 14   7  11  ar  
 15   7  12  1   
 16   8  11  ar  
 17   8  27  1   
 18   9  13  ar  
 19   9  28  1   
 20  10  14  ar  
 21  10  29  1   
 22  11  30  1   
 23  12  15  1   
 24  12  31  1   
 25  12  32  1   
 26  13  16  ar  
 27  13  33  1   
 28  14  16  ar  
 29  14  34  1   
 30  15  17  1   
 31  15  18  1   
 32  16  35  1   
 33  17  19  1   
 34  17  36  1   
 35  17  37  1   
 36  18  20  1   
 37  18  38  1   
 38  18  39  1   
 39  19  21  1   
 40  19  40  1   
 41  19  41  1   
 42  20  21  1   
 43  20  42  1   
 44  20  43  1   
 45  21  22  1   
 46  21  44  1   
 47  22  45  1   
 48  22  46  1   
 49  22  47  1   
@<TRIPOS>SUBSTRUCTURE
  1 ****   4 GROUP 4 **** **** 0

# MOE 2024.06 (io_trps.svl 2023.06)
