@<TRIPOS>MOLECULE
NONAME
46 47 1 0 0 
SMALL
USER_CHARGES


@<TRIPOS>ATOM
  1 O       -7.3810     6.0060    -0.2410 O.3   1 <1>  -0.3630 
  2 C       -8.1270     4.8690    -0.1940 C.ar  1 <1>   0.0830 
  3 C       -5.9810     5.9840    -0.1490 C.3   1 <1>   0.1200 
  4 C       -9.5160     4.9880    -0.2700 C.ar  1 <1>  -0.1440 
  5 C       -7.5430     3.6070    -0.0720 C.ar  1 <1>  -0.1500 
  6 C       -5.5090     7.4360    -0.2280 C.3   1 <1>   0.3430 
  7 C      -10.2860     3.8340    -0.2200 C.ar  1 <1>  -0.1500 
  8 C      -10.2150     6.3470    -0.4050 C.3   1 <1>   0.0640 
  9 C       -8.3250     2.4670    -0.0270 C.ar  1 <1>  -0.1440 
 10 N       -4.0220     7.5410    -0.1320 N.4   1 <1>  -0.9060 
 11 C       -9.7000     2.5870    -0.1000 C.ar  1 <1>  -0.1500 
 12 C      -11.1270     6.6170     0.7970 C.3   1 <1>  -0.2400 
 13 C      -11.0080     6.4280    -1.7140 C.3   1 <1>  -0.2400 
 14 C       -7.6880     1.0950     0.1070 C.3   1 <1>  -0.0970 
 15 C       -3.5350     8.9360    -0.2120 C.3   1 <1>   0.4860 
 16 C       -2.0330     8.8830    -0.0890 C.ar  1 <1>  -0.1430 
 17 C       -1.2440     8.8610    -1.2310 C.ar  1 <1>   0.1600 
 18 C       -1.4190     8.8450     1.1490 C.ar  1 <1>  -0.1500 
 19 N        0.0720     8.7840    -1.2310 N.ar  1 <1>  -0.6200 
 20 C       -0.0420     8.7750     1.1600 C.ar  1 <1>  -0.1500 
 21 C        0.6470     8.7460    -0.0400 C.ar  1 <1>   0.1600 
 22 H       -5.6030     5.4050    -0.9730 H     1 <1>   0.0800 
 23 H       -5.7170     5.5390     0.7950 H     1 <1>   0.0800 
 24 H       -6.4810     3.4840    -0.0110 H     1 <1>   0.1500 
 25 H       -5.9660     7.9890     0.5770 H     1 <1>   0.0800 
 26 H       -5.8440     7.8530    -1.1640 H     1 <1>   0.0800 
 27 H      -11.3580     3.8950    -0.2760 H     1 <1>   0.1500 
 28 H       -9.4860     7.1360    -0.4300 H     1 <1>   0.0800 
 29 H       -3.5680     7.0010    -0.8800 H     1 <1>   0.4500 
 30 H       -3.6830     7.1420     0.7530 H     1 <1>   0.4500 
 31 H      -10.3240     1.7110    -0.0620 H     1 <1>   0.1500 
 32 H      -11.9310     5.9040     0.8400 H     1 <1>   0.0800 
 33 H      -11.5490     7.6030     0.7310 H     1 <1>   0.0800 
 34 H      -10.5600     6.5460     1.7080 H     1 <1>   0.0800 
 35 H      -11.8100     5.7120    -1.7250 H     1 <1>   0.0800 
 36 H      -10.3590     6.2260    -2.5470 H     1 <1>   0.0800 
 37 H      -11.4270     7.4110    -1.8360 H     1 <1>   0.0800 
 38 H       -6.7120     1.0830    -0.3420 H     1 <1>   0.0800 
 39 H       -8.2930     0.3520    -0.3820 H     1 <1>   0.0800 
 40 H       -7.5980     0.8360     1.1470 H     1 <1>   0.0800 
 41 H       -3.9480     9.5290     0.5900 H     1 <1>   0.0800 
 42 H       -3.8150     9.3830    -1.1540 H     1 <1>   0.0800 
 43 H       -1.7070     8.9070    -2.2030 H     1 <1>   0.1500 
 44 H       -1.9660     8.8740     2.0770 H     1 <1>   0.1500 
 45 H        0.5020     8.7460     2.0880 H     1 <1>   0.1500 
 46 H        1.7240     8.6900    -0.0210 H     1 <1>   0.1500 
@<TRIPOS>BOND
  1   1   2  1   
  2   1   3  1   
  3   2   4  ar  
  4   2   5  ar  
  5   3   6  1   
  6   3  22  1   
  7   3  23  1   
  8   4   7  ar  
  9   4   8  1   
 10   5   9  ar  
 11   5  24  1   
 12   6  10  1   
 13   6  25  1   
 14   6  26  1   
 15   7  11  ar  
 16   7  27  1   
 17   8  12  1   
 18   8  13  1   
 19   8  28  1   
 20   9  11  ar  
 21   9  14  1   
 22  10  15  1   
 23  10  29  1   
 24  10  30  1   
 25  11  31  1   
 26  12  32  1   
 27  12  33  1   
 28  12  34  1   
 29  13  35  1   
 30  13  36  1   
 31  13  37  1   
 32  14  38  1   
 33  14  39  1   
 34  14  40  1   
 35  15  16  1   
 36  15  41  1   
 37  15  42  1   
 38  16  17  ar  
 39  16  18  ar  
 40  17  19  ar  
 41  17  43  1   
 42  18  20  ar  
 43  18  44  1   
 44  19  21  ar  
 45  20  21  ar  
 46  20  45  1   
 47  21  46  1   
@<TRIPOS>SUBSTRUCTURE
  1 ****   3 GROUP 4 **** **** 0

# MOE 2024.06 (io_trps.svl 2023.06)
