@<TRIPOS>MOLECULE
NONAME
43 44 1 0 0 
SMALL
USER_CHARGES


@<TRIPOS>ATOM
  1 BR       1.6930     0.8930    -1.5300 Br    1 <1>  -0.1110 
  2 C        0.9300     2.2680    -0.4100 C.ar  1 <1>   0.1110 
  3 C        1.6600     2.7650     0.6580 C.ar  1 <1>   0.0820 
  4 C       -0.3340     2.7270    -0.7210 C.ar  1 <1>  -0.1500 
  5 O        2.9010     2.2670     0.8930 O.3   1 <1>  -0.3630 
  6 C        1.0770     3.7590     1.4330 C.ar  1 <1>  -0.1500 
  7 C       -0.9230     3.7270     0.0490 C.ar  1 <1>  -0.1430 
  8 C        3.8730     3.0590     1.5600 C.3   1 <1>   0.1810 
  9 C       -0.1920     4.2280     1.1270 C.ar  1 <1>  -0.1500 
 10 C       -2.3360     4.2280    -0.3190 C.3   1 <1>   0.1440 
 11 C        5.2670     2.4410     1.4720 C.2   1 <1>   0.5690 
 12 C       -3.3290     3.0580    -0.2470 C.3   1 <1>  -0.2400 
 13 C       -2.8520     5.3330     0.6190 C.3   1 <1>  -0.2400 
 14 C       -2.3230     4.7990    -1.7450 C.3   1 <1>  -0.2400 
 15 O        5.8630     2.2970     2.5160 O.2   1 <1>  -0.5700 
 16 N        5.8400     2.0930     0.2710 N.am  1 <1>  -0.6600 
 17 C        7.1690     1.4150     0.2090 C.3   1 <1>   0.1400 
 18 C        5.1950     2.2380    -1.0710 C.3   1 <1>   0.1400 
 19 C        8.0480     2.0300    -0.8910 C.3   1 <1>   0.1200 
 20 C        6.1910     2.7900    -2.1060 C.3   1 <1>   0.1200 
 21 O        7.3720     2.0400    -2.1170 O.3   1 <1>  -0.5600 
 22 H       -0.8440     2.2980    -1.5630 H     1 <1>   0.1500 
 23 H        1.5880     4.1720     2.2820 H     1 <1>   0.1500 
 24 H        3.5880     3.1380     2.5930 H     1 <1>   0.0800 
 25 H        3.8880     4.0340     1.1110 H     1 <1>   0.0800 
 26 H       -0.5960     4.9970     1.7600 H     1 <1>   0.1500 
 27 H       -3.0760     2.2880    -0.9520 H     1 <1>   0.0800 
 28 H       -3.3220     2.6290     0.7390 H     1 <1>   0.0800 
 29 H       -4.3270     3.3930    -0.4660 H     1 <1>   0.0800 
 30 H       -2.2030     6.1900     0.5860 H     1 <1>   0.0800 
 31 H       -2.9090     4.9740     1.6310 H     1 <1>   0.0800 
 32 H       -3.8360     5.6500     0.3240 H     1 <1>   0.0800 
 33 H       -1.6050     5.5960    -1.8150 H     1 <1>   0.0800 
 34 H       -3.2910     5.1870    -2.0070 H     1 <1>   0.0800 
 35 H       -2.0620     4.0450    -2.4640 H     1 <1>   0.0800 
 36 H        7.0210     0.3700     0.0010 H     1 <1>   0.0800 
 37 H        7.6800     1.4940     1.1530 H     1 <1>   0.0800 
 38 H        4.3500     2.8990    -1.0250 H     1 <1>   0.0800 
 39 H        4.8440     1.2740    -1.3980 H     1 <1>   0.0800 
 40 H        8.9450     1.4500    -1.0160 H     1 <1>   0.0800 
 41 H        8.3200     3.0390    -0.6370 H     1 <1>   0.0800 
 42 H        6.4370     3.8140    -1.8850 H     1 <1>   0.0800 
 43 H        5.7640     2.7430    -3.0920 H     1 <1>   0.0800 
@<TRIPOS>BOND
  1   1   2  1   
  2   2   3  ar  
  3   2   4  ar  
  4   3   5  1   
  5   3   6  ar  
  6   4   7  ar  
  7   4  22  1   
  8   5   8  1   
  9   6   9  ar  
 10   6  23  1   
 11   7   9  ar  
 12   7  10  1   
 13   8  11  1   
 14   8  24  1   
 15   8  25  1   
 16   9  26  1   
 17  10  12  1   
 18  10  13  1   
 19  10  14  1   
 20  11  15  2   
 21  11  16  am  
 22  12  27  1   
 23  12  28  1   
 24  12  29  1   
 25  13  30  1   
 26  13  31  1   
 27  13  32  1   
 28  14  33  1   
 29  14  34  1   
 30  14  35  1   
 31  16  17  1   
 32  16  18  1   
 33  17  19  1   
 34  17  36  1   
 35  17  37  1   
 36  18  20  1   
 37  18  38  1   
 38  18  39  1   
 39  19  21  1   
 40  19  40  1   
 41  19  41  1   
 42  20  21  1   
 43  20  42  1   
 44  20  43  1   
@<TRIPOS>SUBSTRUCTURE
  1 ****   3 GROUP 4 **** **** 0

# MOE 2024.06 (io_trps.svl 2023.06)
