@<TRIPOS>MOLECULE
NONAME
49 52 1 0 0 
SMALL
USER_CHARGES


@<TRIPOS>ATOM
  1 O        0.6490     0.7160    -2.1620 O.2   1 <1>  -0.5700 
  2 C        0.9200     1.5450    -1.2990 C.2   1 <1>   0.7160 
  3 N        2.1500     1.5240    -0.6520 N.am  1 <1>  -0.2290 
  4 C        0.0020     2.5490    -0.9150 C.2   1 <1>  -0.0860 
  5 C        2.4020     2.4800     0.3470 C.2   1 <1>   0.4960 
  6 C        3.1320     0.5810    -0.9640 C.2   1 <1>  -0.0410 
  7 C        0.3550     3.4330     0.0720 C.2   1 <1>  -0.0260 
  8 C       -1.2880     2.9050    -1.3210 C.2   1 <1>  -0.1500 
  9 N        1.5480     3.4050     0.7120 N.2   1 <1>  -0.5760 
 10 C        3.6690     2.4250     0.9930 C.2   1 <1>  -0.1360 
 11 C        4.3310     0.5540    -0.3310 C.2   1 <1>  -0.1500 
 12 N       -0.6670     4.3080     0.2800 N.pl3 1 <1>   0.0480 
 13 C       -1.7020     3.9810    -0.5790 C.2   1 <1>  -0.2370 
 14 C        4.6130     1.5010     0.6790 C.2   1 <1>  -0.1500 
 15 C       -0.6440     5.4180     1.2560 C.3   1 <1>   0.0160 
 16 C       -2.9530     4.6920    -0.6460 C.2   1 <1>   0.7150 
 17 O       -2.9900     5.8930    -0.4420 O.2   1 <1>  -0.5700 
 18 N       -4.1320     4.0420    -0.9380 N.am  1 <1>  -0.6600 
 19 C       -4.3930     2.6140    -0.5770 C.3   1 <1>   0.1400 
 20 C       -5.3490     4.7880    -1.3890 C.3   1 <1>   0.1400 
 21 C       -5.5390     2.4990     0.4430 C.3   1 <1>   0.1400 
 22 C       -6.4760     4.6820    -0.3530 C.3   1 <1>   0.1400 
 23 N       -6.7440     3.2530    -0.0160 N.am  1 <1>  -0.6600 
 24 C       -7.9700     2.6790    -0.2140 C.2   1 <1>   0.7800 
 25 O       -8.9220     3.2990    -0.6490 O.2   1 <1>  -0.5700 
 26 O       -8.1040     1.3850     0.0790 O.3   1 <1>  -0.4300 
 27 C       -9.3360     0.7270    -0.1010 C.3   1 <1>   0.1200 
 28 C       -9.1590    -0.7310     0.3130 C.3   1 <1>  -0.2400 
 29 H        2.8940    -0.1320    -1.7380 H     1 <1>   0.1500 
 30 H       -1.8340     2.4000    -2.1000 H     1 <1>   0.1500 
 31 H        3.8440     3.1630     1.7550 H     1 <1>   0.1500 
 32 H        5.0830    -0.1760    -0.5770 H     1 <1>   0.1500 
 33 H        5.5700     1.4660     1.1730 H     1 <1>   0.1500 
 34 H        0.2170     5.3300     1.8920 H     1 <1>   0.0800 
 35 H       -1.5360     5.3880     1.8530 H     1 <1>   0.0800 
 36 H       -0.6000     6.3520     0.7240 H     1 <1>   0.0800 
 37 H       -3.5160     2.1610    -0.1530 H     1 <1>   0.0800 
 38 H       -4.6530     2.0670    -1.4670 H     1 <1>   0.0800 
 39 H       -5.6890     4.3730    -2.3220 H     1 <1>   0.0800 
 40 H       -5.1180     5.8250    -1.5600 H     1 <1>   0.0800 
 41 H       -5.2140     2.9030     1.3850 H     1 <1>   0.0800 
 42 H       -5.7710     1.4600     0.5960 H     1 <1>   0.0800 
 43 H       -7.3620     5.1540    -0.7420 H     1 <1>   0.0800 
 44 H       -6.1870     5.2090     0.5400 H     1 <1>   0.0800 
 45 H       -9.6160     0.8030    -1.1380 H     1 <1>   0.0800 
 46 H      -10.0760     1.2160     0.5110 H     1 <1>   0.0800 
 47 H       -8.4090    -1.2010    -0.2970 H     1 <1>   0.0800 
 48 H      -10.0860    -1.2590     0.1840 H     1 <1>   0.0800 
 49 H       -8.8730    -0.7890     1.3480 H     1 <1>   0.0800 
@<TRIPOS>BOND
  1   1   2  2   
  2   2   3  am  
  3   2   4  1   
  4   3   5  1   
  5   3   6  1   
  6   4   7  2   
  7   4   8  1   
  8   5   9  2   
  9   5  10  1   
 10   6  11  2   
 11   6  29  1   
 12   7   9  1   
 13   7  12  1   
 14   8  13  2   
 15   8  30  1   
 16  10  14  2   
 17  10  31  1   
 18  11  14  1   
 19  11  32  1   
 20  12  13  1   
 21  12  15  1   
 22  13  16  1   
 23  14  33  1   
 24  15  34  1   
 25  15  35  1   
 26  15  36  1   
 27  16  17  2   
 28  16  18  am  
 29  18  19  1   
 30  18  20  1   
 31  19  21  1   
 32  19  37  1   
 33  19  38  1   
 34  20  22  1   
 35  20  39  1   
 36  20  40  1   
 37  21  23  1   
 38  21  41  1   
 39  21  42  1   
 40  22  23  1   
 41  22  43  1   
 42  22  44  1   
 43  23  24  am  
 44  24  25  2   
 45  24  26  1   
 46  26  27  1   
 47  27  28  1   
 48  27  45  1   
 49  27  46  1   
 50  28  47  1   
 51  28  48  1   
 52  28  49  1   
@<TRIPOS>SUBSTRUCTURE
  1 ****  13 GROUP 4 **** **** 0

# MOE 2024.06 (io_trps.svl 2023.06)
