@<TRIPOS>MOLECULE
NONAME
34 34 1 0 0 
SMALL
USER_CHARGES


@<TRIPOS>ATOM
  1 CL      -2.7070    -0.6410    -1.3440 Cl    1 <1>  -0.1770 
  2 C       -1.6040    -1.9210    -0.8710 C.ar  1 <1>   0.1770 
  3 C       -2.1230    -3.1330    -0.4240 C.ar  1 <1>   0.0820 
  4 C       -0.2370    -1.7030    -0.9440 C.ar  1 <1>  -0.1440 
  5 O       -3.4670    -3.3070    -0.3510 O.3   1 <1>  -0.3630 
  6 C       -1.2580    -4.1650    -0.0680 C.ar  1 <1>  -0.1440 
  7 C        0.6150    -2.7290    -0.5660 C.ar  1 <1>  -0.1500 
  8 C        0.3350    -0.3770    -1.4280 C.3   1 <1>  -0.0960 
  9 C       -4.0590    -3.2170     0.9330 C.3   1 <1>   0.1200 
 10 C        0.1080    -3.9440    -0.1360 C.ar  1 <1>  -0.1500 
 11 C       -1.7640    -5.5310     0.3780 C.3   1 <1>  -0.0970 
 12 C       -4.7820    -1.8690     1.0580 C.3   1 <1>   0.3430 
 13 N       -5.4930    -1.5450    -0.2120 N.4   1 <1>  -0.9060 
 14 C       -5.9940    -0.1590    -0.2790 C.3   1 <1>   0.3430 
 15 C       -6.6100     0.0510    -1.6530 C.3   1 <1>  -0.2400 
 16 H        1.6830    -2.5920    -0.6090 H     1 <1>   0.1500 
 17 H        0.0080     0.4230    -0.7890 H     1 <1>   0.0800 
 18 H        0.0040    -0.1780    -2.4320 H     1 <1>   0.0800 
 19 H        1.4100    -0.3960    -1.4250 H     1 <1>   0.0800 
 20 H       -3.3030    -3.3200     1.6930 H     1 <1>   0.0800 
 21 H       -4.7580    -4.0290     1.0270 H     1 <1>   0.0800 
 22 H        0.7960    -4.7260     0.1410 H     1 <1>   0.1500 
 23 H       -2.6320    -5.8150    -0.1900 H     1 <1>   0.0800 
 24 H       -2.0170    -5.5110     1.4220 H     1 <1>   0.0800 
 25 H       -1.0100    -6.2830     0.2240 H     1 <1>   0.0800 
 26 H       -4.0440    -1.1080     1.2600 H     1 <1>   0.0800 
 27 H       -5.4710    -1.8950     1.8860 H     1 <1>   0.0800 
 28 H       -6.2460    -2.2160    -0.3950 H     1 <1>   0.4500 
 29 H       -4.8000    -1.6890    -0.9670 H     1 <1>   0.4500 
 30 H       -5.1820     0.5370    -0.1340 H     1 <1>   0.0800 
 31 H       -6.7360     0.0090     0.4870 H     1 <1>   0.0800 
 32 H       -5.8760    -0.0870    -2.4270 H     1 <1>   0.0800 
 33 H       -6.9800     1.0590    -1.7250 H     1 <1>   0.0800 
 34 H       -7.4370    -0.6180    -1.8120 H     1 <1>   0.0800 
@<TRIPOS>BOND
  1   1   2  1   
  2   2   3  ar  
  3   2   4  ar  
  4   3   5  1   
  5   3   6  ar  
  6   4   7  ar  
  7   4   8  1   
  8   5   9  1   
  9   6  10  ar  
 10   6  11  1   
 11   7  10  ar  
 12   7  16  1   
 13   8  17  1   
 14   8  18  1   
 15   8  19  1   
 16   9  12  1   
 17   9  20  1   
 18   9  21  1   
 19  10  22  1   
 20  11  23  1   
 21  11  24  1   
 22  11  25  1   
 23  12  13  1   
 24  12  26  1   
 25  12  27  1   
 26  13  14  1   
 27  13  28  1   
 28  13  29  1   
 29  14  15  1   
 30  14  30  1   
 31  14  31  1   
 32  15  32  1   
 33  15  33  1   
 34  15  34  1   
@<TRIPOS>SUBSTRUCTURE
  1 ****   3 GROUP 4 **** **** 0

# MOE 2024.06 (io_trps.svl 2023.06)
