@<TRIPOS>MOLECULE
NONAME
55 57 1 0 0 
SMALL
USER_CHARGES


@<TRIPOS>ATOM
  1 O       -0.4360     0.5050     0.4940 O.3   1 <1>  -0.3630 
  2 C       -0.3450     1.8340     0.2200 C.ar  1 <1>   0.0830 
  3 C       -1.6450    -0.1170     0.1190 C.3   1 <1>   0.0400 
  4 C       -1.0020     2.7480     1.0470 C.ar  1 <1>   0.0830 
  5 C        0.3900     2.3030    -0.8790 C.ar  1 <1>   0.0830 
  6 O       -1.7050     2.2850     2.1180 O.3   1 <1>  -0.3630 
  7 C       -0.9280     4.1090     0.7760 C.ar  1 <1>  -0.1500 
  8 O        1.1050     1.5420    -1.7540 O.3   1 <1>  -0.3630 
  9 C        0.4260     3.6610    -1.1430 C.ar  1 <1>  -0.1500 
 10 C       -2.8770     2.9480     2.5460 C.3   1 <1>   0.0400 
 11 C       -0.2150     4.5750    -0.3210 C.ar  1 <1>  -0.1430 
 12 C        1.6390     0.2880    -1.3850 C.3   1 <1>   0.0400 
 13 C       -0.1100     6.0660    -0.6260 C.3   1 <1>   0.7100 
 14 N        0.8800     6.6380     0.3320 N.4   1 <1>  -0.9590 
 15 C       -1.4660     6.7710    -0.5100 C.ar  1 <1>  -0.1430 
 16 C        0.8990     8.1260     0.2760 C.3   1 <1>   0.3430 
 17 C        2.2470     6.0570     0.1530 C.3   1 <1>   0.2630 
 18 C       -1.6180     7.9850     0.1500 C.ar  1 <1>  -0.1430 
 19 C       -2.5830     6.1870    -1.0900 C.ar  1 <1>  -0.1500 
 20 C       -0.4290     8.6830     0.7900 C.3   1 <1>  -0.0170 
 21 C       -2.8680     8.5770     0.2370 C.ar  1 <1>  -0.1500 
 22 C       -3.8370     6.7670    -1.0160 C.ar  1 <1>   0.0830 
 23 C       -3.9930     7.9830    -0.3310 C.ar  1 <1>   0.0830 
 24 O       -4.8140     6.0500    -1.6420 O.3   1 <1>  -0.3630 
 25 O       -5.2260     8.5550    -0.2190 O.3   1 <1>  -0.3620 
 26 C       -6.0530     6.6090    -2.0210 C.3   1 <1>   0.0400 
 27 C       -5.4530     9.7600     0.4800 C.3   1 <1>   0.0400 
 28 H       -1.5660    -1.1660     0.3390 H     1 <1>   0.0800 
 29 H       -1.7990     0.0300    -0.9350 H     1 <1>   0.0800 
 30 H       -2.4540     0.3140     0.6810 H     1 <1>   0.0800 
 31 H       -1.4310     4.8050     1.4220 H     1 <1>   0.1500 
 32 H        0.9770     3.9830    -2.0100 H     1 <1>   0.1500 
 33 H       -3.4090     2.2880     3.2070 H     1 <1>   0.0800 
 34 H       -3.4860     3.1760     1.6880 H     1 <1>   0.0800 
 35 H       -2.6030     3.8430     3.0740 H     1 <1>   0.0800 
 36 H        2.4040     0.0270    -2.0920 H     1 <1>   0.0800 
 37 H        0.8550    -0.4470    -1.4120 H     1 <1>   0.0800 
 38 H        2.0590     0.3600    -0.3970 H     1 <1>   0.0800 
 39 H        0.2500     6.1950    -1.6330 H     1 <1>   0.0800 
 40 H        0.5220     6.3510     1.2510 H     1 <1>   0.4500 
 41 H        1.0530     8.4500    -0.7410 H     1 <1>   0.0800 
 42 H        1.7030     8.5130     0.8820 H     1 <1>   0.0800 
 43 H        2.6260     6.2790    -0.8320 H     1 <1>   0.0800 
 44 H        2.2200     4.9850     0.2770 H     1 <1>   0.0800 
 45 H        2.9260     6.4630     0.8850 H     1 <1>   0.0800 
 46 H       -2.5050     5.2520    -1.6200 H     1 <1>   0.1500 
 47 H       -0.4670     9.7370     0.5760 H     1 <1>   0.0800 
 48 H       -0.4790     8.5660     1.8580 H     1 <1>   0.0800 
 49 H       -2.9540     9.5110     0.7590 H     1 <1>   0.1500 
 50 H       -6.5430     5.9200    -2.6830 H     1 <1>   0.0800 
 51 H       -5.8770     7.5430    -2.5260 H     1 <1>   0.0800 
 52 H       -6.6520     6.7560    -1.1410 H     1 <1>   0.0800 
 53 H       -6.5030     9.9840     0.4260 H     1 <1>   0.0800 
 54 H       -4.8900    10.5490     0.0130 H     1 <1>   0.0800 
 55 H       -5.1620     9.6300     1.5070 H     1 <1>   0.0800 
@<TRIPOS>BOND
  1   1   2  1   
  2   1   3  1   
  3   2   4  ar  
  4   2   5  ar  
  5   3  28  1   
  6   3  29  1   
  7   3  30  1   
  8   4   6  1   
  9   4   7  ar  
 10   5   8  1   
 11   5   9  ar  
 12   6  10  1   
 13   7  11  ar  
 14   7  31  1   
 15   8  12  1   
 16   9  11  ar  
 17   9  32  1   
 18  10  33  1   
 19  10  34  1   
 20  10  35  1   
 21  11  13  1   
 22  12  36  1   
 23  12  37  1   
 24  12  38  1   
 25  13  14  1   
 26  13  15  1   
 27  13  39  1   
 28  14  16  1   
 29  14  17  1   
 30  14  40  1   
 31  15  18  ar  
 32  15  19  ar  
 33  16  20  1   
 34  16  41  1   
 35  16  42  1   
 36  17  43  1   
 37  17  44  1   
 38  17  45  1   
 39  18  20  1   
 40  18  21  ar  
 41  19  22  ar  
 42  19  46  1   
 43  20  47  1   
 44  20  48  1   
 45  21  23  ar  
 46  21  49  1   
 47  22  23  ar  
 48  22  24  1   
 49  23  25  1   
 50  24  26  1   
 51  25  27  1   
 52  26  50  1   
 53  26  51  1   
 54  26  52  1   
 55  27  53  1   
 56  27  54  1   
 57  27  55  1   
@<TRIPOS>SUBSTRUCTURE
  1 ****  11 GROUP 4 **** **** 0

# MOE 2024.06 (io_trps.svl 2023.06)
