@<TRIPOS>MOLECULE
NONAME
41 42 1 0 0 
SMALL
USER_CHARGES


@<TRIPOS>ATOM
  1 O        1.4880     1.1740    -2.0060 O.2   1 <1>  -0.5700 
  2 C        1.0230     1.9600    -1.2090 C.2   1 <1>   0.5690 
  3 N       -0.0150     1.6090    -0.3740 N.am  1 <1>  -0.6600 
  4 C        1.5880     3.3810    -1.2340 C.3   1 <1>   0.1810 
  5 C       -0.6590     0.2690    -0.4570 C.3   1 <1>   0.1400 
  6 C       -0.5460     2.4630     0.7260 C.3   1 <1>   0.1400 
  7 O        2.2300     3.7560    -0.0220 O.3   1 <1>  -0.3620 
  8 C       -2.1710     0.4320    -0.6420 C.3   1 <1>  -0.1600 
  9 C       -2.0570     2.6480     0.5550 C.3   1 <1>  -0.1600 
 10 C        3.5720     3.6050     0.0230 C.ar  1 <1>   0.0820 
 11 C       -2.7860     1.3000     0.4640 C.3   1 <1>  -0.1600 
 12 C        4.1580     2.4070     0.4330 C.ar  1 <1>   0.0820 
 13 C        4.3660     4.6800    -0.3380 C.ar  1 <1>  -0.1500 
 14 O        3.3440     1.3790     0.7950 O.3   1 <1>  -0.3630 
 15 C        5.5450     2.3060     0.4600 C.ar  1 <1>  -0.1500 
 16 C        5.7440     4.5640    -0.3080 C.ar  1 <1>  -0.1500 
 17 C        3.8080     0.0490     0.7740 C.3   1 <1>   0.1200 
 18 C        6.3510     3.3770     0.0890 C.ar  1 <1>   0.0730 
 19 C        2.6060    -0.8770     0.9200 C.3   1 <1>  -0.2400 
 20 C        7.7810     3.2610     0.1180 C.1   1 <1>   0.4840 
 21 N        8.9170     3.1650     0.1400 N.1   1 <1>  -0.5570 
 22 H        0.7840     4.0710    -1.4000 H     1 <1>   0.0800 
 23 H        2.2910     3.4750    -2.0420 H     1 <1>   0.0800 
 24 H       -0.4580    -0.2710     0.4520 H     1 <1>   0.0800 
 25 H       -0.2560    -0.2980    -1.2790 H     1 <1>   0.0800 
 26 H       -0.0710     3.4260     0.7440 H     1 <1>   0.0800 
 27 H       -0.3410     1.9800     1.6660 H     1 <1>   0.0800 
 28 H       -2.6350    -0.5390    -0.6400 H     1 <1>   0.0800 
 29 H       -2.3540     0.8800    -1.6030 H     1 <1>   0.0800 
 30 H       -2.2380     3.2200    -0.3380 H     1 <1>   0.0800 
 31 H       -2.4420     3.2110     1.3870 H     1 <1>   0.0800 
 32 H       -2.7050     0.7870     1.4070 H     1 <1>   0.0800 
 33 H       -3.8310     1.4630     0.2620 H     1 <1>   0.0800 
 34 H        3.9010     5.6020    -0.6390 H     1 <1>   0.1500 
 35 H        6.0200     1.3970     0.7780 H     1 <1>   0.1500 
 36 H        6.3530     5.4060    -0.5940 H     1 <1>   0.1500 
 37 H        4.4920    -0.0850     1.5930 H     1 <1>   0.0800 
 38 H        4.3040    -0.1260    -0.1660 H     1 <1>   0.0800 
 39 H        2.0610    -0.6410     1.8160 H     1 <1>   0.0800 
 40 H        2.9350    -1.8980     0.9700 H     1 <1>   0.0800 
 41 H        1.9640    -0.7680     0.0650 H     1 <1>   0.0800 
@<TRIPOS>BOND
  1   1   2  2   
  2   2   3  am  
  3   2   4  1   
  4   3   5  1   
  5   3   6  1   
  6   4   7  1   
  7   4  22  1   
  8   4  23  1   
  9   5   8  1   
 10   5  24  1   
 11   5  25  1   
 12   6   9  1   
 13   6  26  1   
 14   6  27  1   
 15   7  10  1   
 16   8  11  1   
 17   8  28  1   
 18   8  29  1   
 19   9  11  1   
 20   9  30  1   
 21   9  31  1   
 22  10  12  ar  
 23  10  13  ar  
 24  11  32  1   
 25  11  33  1   
 26  12  14  1   
 27  12  15  ar  
 28  13  16  ar  
 29  13  34  1   
 30  14  17  1   
 31  15  18  ar  
 32  15  35  1   
 33  16  18  ar  
 34  16  36  1   
 35  17  19  1   
 36  17  37  1   
 37  17  38  1   
 38  18  20  1   
 39  19  39  1   
 40  19  40  1   
 41  19  41  1   
 42  20  21  3   
@<TRIPOS>SUBSTRUCTURE
  1 ****  14 GROUP 4 **** **** 0

# MOE 2024.06 (io_trps.svl 2023.06)
