@<TRIPOS>MOLECULE
NONAME
30 30 1 0 0 
SMALL
USER_CHARGES


@<TRIPOS>ATOM
  1 BR       0.3960    -0.5700    -0.4590 Br    1 <1>  -0.1110 
  2 C       -1.4170    -1.1790    -0.1980 C.ar  1 <1>   0.1110 
  3 C       -1.6800    -2.5320    -0.0430 C.ar  1 <1>  -0.1440 
  4 C       -2.4160    -0.2250    -0.1730 C.ar  1 <1>  -0.1500 
  5 C       -2.9990    -2.9170     0.1410 C.ar  1 <1>  -0.1500 
  6 C       -0.5660    -3.5680    -0.0750 C.3   1 <1>  -0.0960 
  7 C       -3.7240    -0.6340     0.0140 C.ar  1 <1>  -0.1500 
  8 C       -4.0330    -1.9840     0.1700 C.ar  1 <1>   0.1170 
  9 N       -5.3430    -2.4390     0.3770 N.am  1 <1>  -0.5470 
 10 C       -6.5430    -1.8930     0.0270 C.2   1 <1>   0.6900 
 11 O       -6.6260    -0.9000    -0.6670 O.2   1 <1>  -0.5700 
 12 N       -7.6620    -2.5110     0.4790 N.am  1 <1>  -0.7300 
 13 C       -9.0400    -2.0770     0.1700 C.3   1 <1>   0.1400 
 14 C       -9.9230    -3.3110    -0.0150 C.3   1 <1>  -0.1600 
 15 C      -11.3680    -2.9170    -0.3380 C.3   1 <1>  -0.2400 
 16 H       -2.1750     0.8150    -0.2970 H     1 <1>   0.1500 
 17 H       -3.2350    -3.9580     0.2610 H     1 <1>   0.1500 
 18 H        0.1410    -3.3710     0.7100 H     1 <1>   0.0800 
 19 H       -0.0560    -3.5290    -1.0210 H     1 <1>   0.0800 
 20 H       -0.9570    -4.5600     0.0600 H     1 <1>   0.0800 
 21 H       -4.5060     0.1030     0.0390 H     1 <1>   0.1500 
 22 H       -5.4190    -3.3790     0.7450 H     1 <1>   0.3700 
 23 H       -7.5800    -3.2150     1.2070 H     1 <1>   0.3700 
 24 H       -9.0440    -1.4850    -0.7310 H     1 <1>   0.0800 
 25 H       -9.4100    -1.4690     0.9780 H     1 <1>   0.0800 
 26 H       -9.9140    -3.9000     0.8860 H     1 <1>   0.0800 
 27 H       -9.5330    -3.9070    -0.8220 H     1 <1>   0.0800 
 28 H      -11.7880    -2.3310     0.4610 H     1 <1>   0.0800 
 29 H      -11.9700    -3.7990    -0.4680 H     1 <1>   0.0800 
 30 H      -11.4060    -2.3410    -1.2470 H     1 <1>   0.0800 
@<TRIPOS>BOND
  1   1   2  1   
  2   2   3  ar  
  3   2   4  ar  
  4   3   5  ar  
  5   3   6  1   
  6   4   7  ar  
  7   4  16  1   
  8   5   8  ar  
  9   5  17  1   
 10   6  18  1   
 11   6  19  1   
 12   6  20  1   
 13   7   8  ar  
 14   7  21  1   
 15   8   9  1   
 16   9  10  am  
 17   9  22  1   
 18  10  11  2   
 19  10  12  am  
 20  12  13  1   
 21  12  23  1   
 22  13  14  1   
 23  13  24  1   
 24  13  25  1   
 25  14  15  1   
 26  14  26  1   
 27  14  27  1   
 28  15  28  1   
 29  15  29  1   
 30  15  30  1   
@<TRIPOS>SUBSTRUCTURE
  1 ****   9 GROUP 4 **** **** 0

# MOE 2024.06 (io_trps.svl 2023.06)
