@<TRIPOS>MOLECULE
NONAME
32 33 1 0 0 
SMALL
USER_CHARGES


@<TRIPOS>ATOM
  1 CL      -0.0190     0.3860     0.9790 Cl    1 <1>  -0.1770 
  2 C       -1.7280     0.1100     0.7340 C.ar  1 <1>   0.1770 
  3 C       -2.1650    -1.1440     0.3540 C.ar  1 <1>  -0.1500 
  4 C       -2.6110     1.1540     0.9250 C.ar  1 <1>  -0.1500 
  5 C       -3.5210    -1.3670     0.1580 C.ar  1 <1>   0.1170 
  6 C       -3.9640     0.9360     0.7310 C.ar  1 <1>  -0.1500 
  7 N       -4.0630    -2.6030    -0.2280 N.am  1 <1>  -0.5470 
  8 C       -4.4340    -0.3160     0.3480 C.ar  1 <1>   0.1000 
  9 C       -3.5230    -3.8220    -0.5010 C.2   1 <1>   0.5690 
 10 N       -5.8090    -0.5380     0.1500 N.pl3 1 <1>  -0.8380 
 11 O       -2.3450    -4.0710    -0.4490 O.2   1 <1>  -0.5700 
 12 C       -4.4750    -4.9240    -0.8920 C.3   1 <1>  -0.1790 
 13 C       -6.6570    -0.4260     1.3770 C.3   1 <1>   0.2090 
 14 C       -6.4180     0.2100    -0.9930 C.3   1 <1>   0.2090 
 15 C       -8.1210    -0.7880     1.0710 C.3   1 <1>   0.1200 
 16 C       -7.8950    -0.1830    -1.1850 C.3   1 <1>   0.1200 
 17 O       -8.6150    -0.0220     0.0060 O.3   1 <1>  -0.5600 
 18 H       -1.4460    -1.9280     0.2150 H     1 <1>   0.1500 
 19 H       -2.2420     2.1200     1.2210 H     1 <1>   0.1500 
 20 H       -4.6590     1.7420     0.8770 H     1 <1>   0.1500 
 21 H       -5.0790    -2.5140    -0.3070 H     1 <1>   0.3700 
 22 H       -5.1740    -5.1000    -0.0960 H     1 <1>   0.0800 
 23 H       -3.9260    -5.8280    -1.0790 H     1 <1>   0.0800 
 24 H       -5.0040    -4.6470    -1.7840 H     1 <1>   0.0800 
 25 H       -6.6170     0.5790     1.7600 H     1 <1>   0.0800 
 26 H       -6.2740    -1.0880     2.1350 H     1 <1>   0.0800 
 27 H       -5.8690    -0.0080    -1.8930 H     1 <1>   0.0800 
 28 H       -6.3580     1.2690    -0.8130 H     1 <1>   0.0800 
 29 H       -8.7390    -0.5930     1.9290 H     1 <1>   0.0800 
 30 H       -8.2050    -1.8290     0.8140 H     1 <1>   0.0800 
 31 H       -7.9730    -1.2090    -1.4980 H     1 <1>   0.0800 
 32 H       -8.3510     0.4430    -1.9310 H     1 <1>   0.0800 
@<TRIPOS>BOND
  1   1   2  1   
  2   2   3  ar  
  3   2   4  ar  
  4   3   5  ar  
  5   3  18  1   
  6   4   6  ar  
  7   4  19  1   
  8   5   7  1   
  9   5   8  ar  
 10   6   8  ar  
 11   6  20  1   
 12   7   9  am  
 13   7  21  1   
 14   8  10  1   
 15   9  11  2   
 16   9  12  1   
 17  10  13  1   
 18  10  14  1   
 19  12  22  1   
 20  12  23  1   
 21  12  24  1   
 22  13  15  1   
 23  13  25  1   
 24  13  26  1   
 25  14  16  1   
 26  14  27  1   
 27  14  28  1   
 28  15  17  1   
 29  15  29  1   
 30  15  30  1   
 31  16  17  1   
 32  16  31  1   
 33  16  32  1   
@<TRIPOS>SUBSTRUCTURE
  1 ****   8 GROUP 4 **** **** 0

# MOE 2024.06 (io_trps.svl 2023.06)
