@<TRIPOS>MOLECULE
NONAME
38 39 1 0 0 
SMALL
USER_CHARGES


@<TRIPOS>ATOM
  1 CL      -3.1520    -0.5630    -2.7430 Cl    1 <1>  -0.1770 
  2 C       -2.5690    -1.6940    -1.5490 C.ar  1 <1>   0.1770 
  3 C       -1.7440    -2.7300    -1.9440 C.ar  1 <1>  -0.1500 
  4 C       -2.9410    -1.5340    -0.2290 C.ar  1 <1>  -0.1500 
  5 C       -1.2630    -3.6460    -1.0140 C.ar  1 <1>  -0.0090 
  6 C       -2.4730    -2.4350     0.7090 C.ar  1 <1>  -0.1500 
  7 S       -0.1870    -5.0090    -1.5280 S.o2  1 <1>   1.4470 
  8 C       -1.6480    -3.4810     0.3160 C.ar  1 <1>   0.0830 
  9 O       -0.7880    -6.2750    -1.1640 O.2   1 <1>  -0.6500 
 10 O        0.2050    -4.8100    -2.9080 O.2   1 <1>  -0.6500 
 11 N        1.2310    -4.8280    -0.6170 N.am  1 <1>  -0.8490 
 12 O       -1.2010    -4.3300     1.2610 O.3   1 <1>  -0.3630 
 13 C        1.9830    -6.0860    -0.5340 C.3   1 <1>   0.1960 
 14 C        2.0600    -3.7080    -1.0500 C.3   1 <1>   0.1960 
 15 C       -2.1030    -5.3170     1.7080 C.3   1 <1>   0.0400 
 16 C        3.4010    -5.8920     0.0310 C.3   1 <1>  -0.1600 
 17 C        3.1040    -3.3840     0.0300 C.3   1 <1>  -0.1600 
 18 C        3.5110    -4.6110     0.8760 C.3   1 <1>  -0.0190 
 19 C        4.8850    -4.4400     1.5190 C.2   1 <1>   0.5690 
 20 O        4.9780    -4.2950     2.7090 O.2   1 <1>  -0.5700 
 21 N        5.9970    -4.4490     0.7600 N.am  1 <1>  -0.8000 
 22 H       -1.4780    -2.8200    -2.9830 H     1 <1>   0.1500 
 23 H       -3.5820    -0.7180     0.0550 H     1 <1>   0.1500 
 24 H       -2.7390    -2.3300     1.7470 H     1 <1>   0.1500 
 25 H        2.0480    -6.5430    -1.5080 H     1 <1>   0.0800 
 26 H        1.4370    -6.7590     0.1080 H     1 <1>   0.0800 
 27 H        1.4510    -2.8360    -1.2230 H     1 <1>   0.0800 
 28 H        2.5490    -3.9640    -1.9760 H     1 <1>   0.0800 
 29 H       -1.5900    -5.9430     2.4160 H     1 <1>   0.0800 
 30 H       -2.4230    -5.9060     0.8660 H     1 <1>   0.0800 
 31 H       -2.9450    -4.8410     2.1770 H     1 <1>   0.0800 
 32 H        4.0930    -5.8460    -0.7910 H     1 <1>   0.0800 
 33 H        3.6630    -6.7500     0.6250 H     1 <1>   0.0800 
 34 H        2.7050    -2.6330     0.6890 H     1 <1>   0.0800 
 35 H        3.9620    -2.9550    -0.4540 H     1 <1>   0.0800 
 36 H        2.7980    -4.7020     1.6780 H     1 <1>   0.0800 
 37 H        6.9040    -4.3350     1.2140 H     1 <1>   0.3700 
 38 H        5.9990    -4.5710    -0.2510 H     1 <1>   0.3700 
@<TRIPOS>BOND
  1   1   2  1   
  2   2   3  ar  
  3   2   4  ar  
  4   3   5  ar  
  5   3  22  1   
  6   4   6  ar  
  7   4  23  1   
  8   5   7  1   
  9   5   8  ar  
 10   6   8  ar  
 11   6  24  1   
 12   7   9  2   
 13   7  10  2   
 14   7  11  am  
 15   8  12  1   
 16  11  13  1   
 17  11  14  1   
 18  12  15  1   
 19  13  16  1   
 20  13  25  1   
 21  13  26  1   
 22  14  17  1   
 23  14  27  1   
 24  14  28  1   
 25  15  29  1   
 26  15  30  1   
 27  15  31  1   
 28  16  18  1   
 29  16  32  1   
 30  16  33  1   
 31  17  18  1   
 32  17  34  1   
 33  17  35  1   
 34  18  19  1   
 35  18  36  1   
 36  19  20  2   
 37  19  21  am  
 38  21  37  1   
 39  21  38  1   
@<TRIPOS>SUBSTRUCTURE
  1 ****  11 GROUP 4 **** **** 0

# MOE 2024.06 (io_trps.svl 2023.06)
