@<TRIPOS>MOLECULE
NONAME
34 34 1 0 0 
SMALL
USER_CHARGES


@<TRIPOS>ATOM
  1 O       -1.2770    -3.2540    -1.8390 O.2   1 <1>  -0.5700 
  2 C       -0.4980    -2.8500    -1.0000 C.2   1 <1>   0.5690 
  3 N       -0.8860    -2.0350     0.0180 N.am  1 <1>  -0.4300 
  4 C        0.9620    -3.2650    -1.1040 C.3   1 <1>   0.1810 
  5 N       -2.2730    -1.6800     0.3420 N.am  1 <1>  -0.4300 
  6 O        1.7570    -2.5730    -0.1490 O.3   1 <1>  -0.3630 
  7 C       -3.0690    -2.3720     1.2080 C.2   1 <1>   0.5690 
  8 C        3.0960    -2.7840    -0.0530 C.ar  1 <1>   0.0820 
  9 O       -2.6210    -3.2190     1.9510 O.2   1 <1>  -0.5700 
 10 C       -4.5590    -2.1180     1.2690 C.3   1 <1>   0.1010 
 11 C        3.7870    -2.0960     0.9400 C.ar  1 <1>  -0.1430 
 12 C        3.7880    -3.6490    -0.8980 C.ar  1 <1>  -0.1500 
 13 C       -4.8740    -0.7070     0.9450 C.1   1 <1>   0.3570 
 14 C        5.1550    -2.2780     1.0740 C.ar  1 <1>  -0.1500 
 15 C        3.0600    -1.1470     1.8820 C.3   1 <1>  -0.0970 
 16 C        5.1530    -3.8200    -0.7520 C.ar  1 <1>  -0.1500 
 17 N       -5.0620     0.3760     0.6570 N.1   1 <1>  -0.5570 
 18 C        5.8440    -3.1350     0.2320 C.ar  1 <1>  -0.1430 
 19 C        7.3420    -3.3230     0.3940 C.3   1 <1>  -0.0970 
 20 H       -0.1610    -1.7520     0.6900 H     1 <1>   0.3700 
 21 H        1.3280    -3.0300    -2.0870 H     1 <1>   0.0800 
 22 H        1.0470    -4.3200    -0.9180 H     1 <1>   0.0800 
 23 H       -2.6790    -0.9340    -0.2390 H     1 <1>   0.3700 
 24 H       -4.9180    -2.3400     2.2560 H     1 <1>   0.0800 
 25 H       -5.0520    -2.7650     0.5690 H     1 <1>   0.0800 
 26 H        3.2920    -4.1980    -1.6730 H     1 <1>   0.1500 
 27 H        5.6920    -1.7490     1.8410 H     1 <1>   0.1500 
 28 H        2.5840    -0.3660     1.3170 H     1 <1>   0.0800 
 29 H        3.7410    -0.6960     2.5810 H     1 <1>   0.0800 
 30 H        2.3110    -1.6860     2.4340 H     1 <1>   0.0800 
 31 H        5.6760    -4.4920    -1.4100 H     1 <1>   0.1500 
 32 H        7.8030    -2.4020     0.7020 H     1 <1>   0.0800 
 33 H        7.7870    -3.6310    -0.5340 H     1 <1>   0.0800 
 34 H        7.5350    -4.0740     1.1390 H     1 <1>   0.0800 
@<TRIPOS>BOND
  1   1   2  2   
  2   2   3  am  
  3   2   4  1   
  4   3   5  1   
  5   3  20  1   
  6   4   6  1   
  7   4  21  1   
  8   4  22  1   
  9   5   7  am  
 10   5  23  1   
 11   6   8  1   
 12   7   9  2   
 13   7  10  1   
 14   8  11  ar  
 15   8  12  ar  
 16  10  13  1   
 17  10  24  1   
 18  10  25  1   
 19  11  14  ar  
 20  11  15  1   
 21  12  16  ar  
 22  12  26  1   
 23  13  17  3   
 24  14  18  ar  
 25  14  27  1   
 26  15  28  1   
 27  15  29  1   
 28  15  30  1   
 29  16  18  ar  
 30  16  31  1   
 31  18  19  1   
 32  19  32  1   
 33  19  33  1   
 34  19  34  1   
@<TRIPOS>SUBSTRUCTURE
  1 ****   6 GROUP 4 **** **** 0

# MOE 2024.06 (io_trps.svl 2023.06)
