@<TRIPOS>MOLECULE
NONAME
50 52 1 0 0 
SMALL
USER_CHARGES


@<TRIPOS>ATOM
  1 S       -0.1930    -0.4640     0.7350 S.o2  1 <1>   1.4470 
  2 O        0.0200    -0.4300     2.1660 O.2   1 <1>  -0.6500 
  3 O        0.1710     0.6860    -0.0650 O.2   1 <1>  -0.6500 
  4 N        0.7010    -1.7730     0.1390 N.am  1 <1>  -0.8490 
  5 C       -1.9060    -0.9270     0.3620 C.ar  1 <1>  -0.0090 
  6 C        2.1370    -1.4380     0.0520 C.3   1 <1>   0.1960 
  7 C        0.5340    -2.9910     0.9610 C.3   1 <1>   0.1960 
  8 C       -2.3690    -0.9580    -0.9480 C.ar  1 <1>  -0.1500 
  9 C       -2.7990    -1.2810     1.3670 C.ar  1 <1>  -0.1500 
 10 C        2.9770    -2.5940    -0.5260 C.3   1 <1>   0.2090 
 11 C        1.3240    -4.1880     0.3970 C.3   1 <1>   0.2090 
 12 C       -3.6700    -1.3260    -1.2440 C.ar  1 <1>  -0.1500 
 13 C       -4.1000    -1.6500     1.0760 C.ar  1 <1>  -0.1500 
 14 N        2.7710    -3.8550     0.2460 N.pl3 1 <1>  -0.8380 
 15 C       -4.5570    -1.6810    -0.2370 C.ar  1 <1>   0.1170 
 16 C        3.6130    -4.9140    -0.0700 C.ar  1 <1>   0.1000 
 17 N       -5.8670    -2.0390    -0.5790 N.am  1 <1>  -0.5470 
 18 C        3.5550    -5.5530    -1.3050 C.ar  1 <1>  -0.1500 
 19 C        4.5390    -5.3530     0.8650 C.ar  1 <1>  -0.1500 
 20 C       -6.8010    -2.7760     0.0800 C.2   1 <1>   0.7800 
 21 C        4.4040    -6.6060    -1.5950 C.ar  1 <1>  -0.1500 
 22 C        5.3900    -6.4060     0.5800 C.ar  1 <1>  -0.1500 
 23 O       -6.6220    -3.3160     1.1520 O.2   1 <1>  -0.5700 
 24 O       -7.9680    -2.8920    -0.5470 O.3   1 <1>  -0.4300 
 25 C        5.3230    -7.0340    -0.6520 C.ar  1 <1>  -0.1500 
 26 C       -9.0210    -3.6370     0.0230 C.3   1 <1>   0.1200 
 27 C      -10.2120    -3.5770    -0.9290 C.3   1 <1>  -0.2400 
 28 H        2.5140    -1.1910     1.0310 H     1 <1>   0.0800 
 29 H        2.2700    -0.5760    -0.5790 H     1 <1>   0.0800 
 30 H       -0.5070    -3.2580     1.0040 H     1 <1>   0.0800 
 31 H        0.8720    -2.8070     1.9670 H     1 <1>   0.0800 
 32 H       -1.6960    -0.6880    -1.7460 H     1 <1>   0.1500 
 33 H       -2.4740    -1.2640     2.3950 H     1 <1>   0.1500 
 34 H        4.0190    -2.3290    -0.4960 H     1 <1>   0.0800 
 35 H        2.7000    -2.7510    -1.5540 H     1 <1>   0.0800 
 36 H        0.9150    -4.4650    -0.5590 H     1 <1>   0.0800 
 37 H        1.2250    -5.0290     1.0620 H     1 <1>   0.0800 
 38 H       -3.9950    -1.3380    -2.2690 H     1 <1>   0.1500 
 39 H       -4.7620    -1.9100     1.8830 H     1 <1>   0.1500 
 40 H       -6.1950    -1.7380    -1.4930 H     1 <1>   0.3700 
 41 H        2.8420    -5.2210    -2.0350 H     1 <1>   0.1500 
 42 H        4.5830    -4.8580     1.8180 H     1 <1>   0.1500 
 43 H        4.3510    -7.0940    -2.5530 H     1 <1>   0.1500 
 44 H        6.1030    -6.7360     1.3150 H     1 <1>   0.1500 
 45 H        5.9840    -7.8530    -0.8760 H     1 <1>   0.1500 
 46 H       -9.2680    -3.2050     0.9780 H     1 <1>   0.0800 
 47 H       -8.6860    -4.6520     0.1600 H     1 <1>   0.0800 
 48 H      -10.5280    -2.5590    -1.0640 H     1 <1>   0.0800 
 49 H      -11.0320    -4.1390    -0.5180 H     1 <1>   0.0800 
 50 H       -9.9490    -4.0030    -1.8800 H     1 <1>   0.0800 
@<TRIPOS>BOND
  1   1   2  2   
  2   1   3  2   
  3   1   4  am  
  4   1   5  1   
  5   4   6  1   
  6   4   7  1   
  7   5   8  ar  
  8   5   9  ar  
  9   6  10  1   
 10   6  28  1   
 11   6  29  1   
 12   7  11  1   
 13   7  30  1   
 14   7  31  1   
 15   8  12  ar  
 16   8  32  1   
 17   9  13  ar  
 18   9  33  1   
 19  10  14  1   
 20  10  34  1   
 21  10  35  1   
 22  11  14  1   
 23  11  36  1   
 24  11  37  1   
 25  12  15  ar  
 26  12  38  1   
 27  13  15  ar  
 28  13  39  1   
 29  14  16  1   
 30  15  17  1   
 31  16  18  ar  
 32  16  19  ar  
 33  17  20  am  
 34  17  40  1   
 35  18  21  ar  
 36  18  41  1   
 37  19  22  ar  
 38  19  42  1   
 39  20  23  2   
 40  20  24  1   
 41  21  25  ar  
 42  21  43  1   
 43  22  25  ar  
 44  22  44  1   
 45  24  26  1   
 46  25  45  1   
 47  26  27  1   
 48  26  46  1   
 49  26  47  1   
 50  27  48  1   
 51  27  49  1   
 52  27  50  1   
@<TRIPOS>SUBSTRUCTURE
  1 ****   7 GROUP 4 **** **** 0

# MOE 2024.06 (io_trps.svl 2023.06)
