@<TRIPOS>MOLECULE
NONAME
44 46 1 0 0 
SMALL
USER_CHARGES


@<TRIPOS>ATOM
  1 O        0.5170    -0.8230     0.8690 O.3   1 <1>  -0.5600 
  2 C        0.9960    -0.3220    -0.3510 C.3   1 <1>   0.5600 
  3 C       -0.8720    -0.9360     0.9580 C.3   1 <1>   0.1200 
  4 O        0.1520    -0.6900    -1.4050 O.3   1 <1>  -0.5600 
  5 C        1.1380     1.1920    -0.2790 C.3   1 <1>  -0.1600 
  6 C        2.4180    -0.8210    -0.5720 C.3   1 <1>  -0.1600 
  7 C       -1.3930    -1.9800    -0.0680 C.3   1 <1>   0.0000 
  8 C       -0.4150    -1.9590    -1.2750 C.3   1 <1>   0.1200 
  9 C        2.4860     1.4350     0.4100 C.3   1 <1>  -0.1600 
 10 C        3.3310     0.1800     0.1520 C.3   1 <1>  -0.1600 
 11 C       -2.8480    -1.5220    -0.4660 C.3   1 <1>   0.0580 
 12 C       -1.3580    -3.4480     0.5010 C.3   1 <1>  -0.0800 
 13 C       -3.8330    -2.6680    -0.6320 C.2   1 <1>  -0.2880 
 14 C       -2.9570    -0.5600    -1.6620 C.3   1 <1>  -0.2400 
 15 C       -2.6700    -3.8980     1.1610 C.3   1 <1>  -0.0220 
 16 C       -0.1690    -3.7720     1.4280 C.3   1 <1>  -0.2400 
 17 C       -3.7790    -3.7550     0.1360 C.2   1 <1>  -0.2760 
 18 C       -4.7700    -4.9030     0.0680 C.3   1 <1>  -0.1020 
 19 H       -1.2830     0.0390     0.7580 H     1 <1>   0.0800 
 20 H       -1.1320    -1.2090     1.9640 H     1 <1>   0.0800 
 21 H        0.3240     1.6540     0.2460 H     1 <1>   0.0800 
 22 H        1.1860     1.5780    -1.2820 H     1 <1>   0.0800 
 23 H        2.6330    -0.7890    -1.6250 H     1 <1>   0.0800 
 24 H        2.5470    -1.8220    -0.2050 H     1 <1>   0.0800 
 25 H        0.3920    -2.6570    -1.1350 H     1 <1>   0.0800 
 26 H       -0.9100    -2.2150    -2.1940 H     1 <1>   0.0800 
 27 H        2.3280     1.5430     1.4700 H     1 <1>   0.0800 
 28 H        2.9630     2.3240     0.0340 H     1 <1>   0.0800 
 29 H        4.1950     0.4070    -0.4480 H     1 <1>   0.0800 
 30 H        3.6560    -0.2340     1.0910 H     1 <1>   0.0800 
 31 H       -3.2470    -0.9740     0.3710 H     1 <1>   0.0800 
 32 H       -1.2540    -4.1020    -0.3490 H     1 <1>   0.0800 
 33 H       -4.5900    -2.5070    -1.3810 H     1 <1>   0.1500 
 34 H       -2.7280    -1.0610    -2.5850 H     1 <1>   0.0800 
 35 H       -2.2880     0.2720    -1.5400 H     1 <1>   0.0800 
 36 H       -3.9580    -0.1750    -1.7310 H     1 <1>   0.0800 
 37 H       -2.8910    -3.3050     2.0300 H     1 <1>   0.0800 
 38 H       -2.5800    -4.9270     1.4640 H     1 <1>   0.0800 
 39 H       -0.2520    -3.2520     2.3650 H     1 <1>   0.0800 
 40 H        0.7620    -3.4960     0.9680 H     1 <1>   0.0800 
 41 H       -0.1360    -4.8270     1.6340 H     1 <1>   0.0800 
 42 H       -4.2640    -5.8150    -0.1920 H     1 <1>   0.0800 
 43 H       -5.5230    -4.7070    -0.6740 H     1 <1>   0.0800 
 44 H       -5.2540    -5.0310     1.0200 H     1 <1>   0.0800 
@<TRIPOS>BOND
  1   1   2  1   
  2   1   3  1   
  3   2   4  1   
  4   2   5  1   
  5   2   6  1   
  6   3   7  1   
  7   3  19  1   
  8   3  20  1   
  9   4   8  1   
 10   5   9  1   
 11   5  21  1   
 12   5  22  1   
 13   6  10  1   
 14   6  23  1   
 15   6  24  1   
 16   7   8  1   
 17   7  11  1   
 18   7  12  1   
 19   8  25  1   
 20   8  26  1   
 21   9  10  1   
 22   9  27  1   
 23   9  28  1   
 24  10  29  1   
 25  10  30  1   
 26  11  13  1   
 27  11  14  1   
 28  11  31  1   
 29  12  15  1   
 30  12  16  1   
 31  12  32  1   
 32  13  17  2   
 33  13  33  1   
 34  14  34  1   
 35  14  35  1   
 36  14  36  1   
 37  15  17  1   
 38  15  37  1   
 39  15  38  1   
 40  16  39  1   
 41  16  40  1   
 42  16  41  1   
 43  17  18  1   
 44  18  42  1   
 45  18  43  1   
 46  18  44  1   
@<TRIPOS>SUBSTRUCTURE
  1 ****   7 GROUP 4 **** **** 0

# MOE 2024.06 (io_trps.svl 2023.06)
