@<TRIPOS>MOLECULE
NONAME
37 38 1 0 0 
SMALL
USER_CHARGES


@<TRIPOS>ATOM
  1 O       -0.8850    -3.3090    -1.4450 O.2   1 <1>  -0.5700 
  2 C       -1.1890    -2.3670    -0.7330 C.2   1 <1>   0.5440 
  3 N       -0.1740    -1.6500    -0.1660 N.am  1 <1>  -0.5790 
  4 C       -2.5920    -2.0380    -0.5030 C.ar  1 <1>   0.0860 
  5 C        1.2710    -1.8650    -0.3210 C.3   1 <1>   0.0490 
  6 C       -3.0470    -0.9080     0.2100 C.ar  1 <1>   0.0820 
  7 C       -3.5760    -2.8930    -1.0170 C.ar  1 <1>  -0.1500 
  8 C        2.1520    -1.5430     0.8390 C.3   1 <1>  -0.2000 
  9 C        2.1520    -0.6620    -0.3740 C.3   1 <1>  -0.2000 
 10 O       -2.1360    -0.0420     0.7280 O.3   1 <1>  -0.3630 
 11 C       -4.4110    -0.6810     0.3780 C.ar  1 <1>  -0.1500 
 12 C       -4.9260    -2.6630    -0.8480 C.ar  1 <1>  -0.1500 
 13 C       -2.4840     1.1310     1.4270 C.3   1 <1>   0.1200 
 14 C       -5.3530    -1.5460    -0.1420 C.ar  1 <1>   0.0820 
 15 C       -1.1910     1.8340     1.8280 C.3   1 <1>  -0.2400 
 16 O       -6.6530    -1.2410     0.0740 O.3   1 <1>  -0.3630 
 17 C       -7.6970    -2.0510    -0.4140 C.3   1 <1>   0.1200 
 18 C       -9.0200    -1.4190     0.0060 C.3   1 <1>  -0.2400 
 19 H       -0.4480    -0.8390     0.3960 H     1 <1>   0.3700 
 20 H        1.5130    -2.7160    -0.9390 H     1 <1>   0.1000 
 21 H       -3.2700    -3.7660    -1.5680 H     1 <1>   0.1500 
 22 H        3.0110    -2.1640     1.0180 H     1 <1>   0.1000 
 23 H        1.6980    -1.1890     1.7480 H     1 <1>   0.1000 
 24 H        1.6980     0.3120    -0.3200 H     1 <1>   0.1000 
 25 H        3.0110    -0.6840    -1.0210 H     1 <1>   0.1000 
 26 H       -4.7830     0.1690     0.9160 H     1 <1>   0.1500 
 27 H       -5.6260    -3.3600    -1.2690 H     1 <1>   0.1500 
 28 H       -3.0540     0.8560     2.2990 H     1 <1>   0.0800 
 29 H       -3.0720     1.7560     0.7770 H     1 <1>   0.0800 
 30 H       -0.6040     1.1980     2.4670 H     1 <1>   0.0800 
 31 H       -1.4200     2.7370     2.3630 H     1 <1>   0.0800 
 32 H       -0.6220     2.0910     0.9530 H     1 <1>   0.0800 
 33 H       -7.5930    -3.0340     0.0120 H     1 <1>   0.0800 
 34 H       -7.6210    -2.0970    -1.4870 H     1 <1>   0.0800 
 35 H       -9.0790    -1.3630     1.0780 H     1 <1>   0.0800 
 36 H       -9.8390    -2.0150    -0.3520 H     1 <1>   0.0800 
 37 H       -9.1070    -0.4310    -0.4110 H     1 <1>   0.0800 
@<TRIPOS>BOND
  1   1   2  2   
  2   2   3  am  
  3   2   4  1   
  4   3   5  1   
  5   3  19  1   
  6   4   6  ar  
  7   4   7  ar  
  8   5   8  1   
  9   5   9  1   
 10   5  20  1   
 11   6  10  1   
 12   6  11  ar  
 13   7  12  ar  
 14   7  21  1   
 15   8   9  1   
 16   8  22  1   
 17   8  23  1   
 18   9  24  1   
 19   9  25  1   
 20  10  13  1   
 21  11  14  ar  
 22  11  26  1   
 23  12  14  ar  
 24  12  27  1   
 25  13  15  1   
 26  13  28  1   
 27  13  29  1   
 28  14  16  1   
 29  15  30  1   
 30  15  31  1   
 31  15  32  1   
 32  16  17  1   
 33  17  18  1   
 34  17  33  1   
 35  17  34  1   
 36  18  35  1   
 37  18  36  1   
 38  18  37  1   
@<TRIPOS>SUBSTRUCTURE
  1 ****   6 GROUP 4 **** **** 0

# MOE 2024.06 (io_trps.svl 2023.06)
