@<TRIPOS>MOLECULE
NONAME
48 49 1 0 0 
SMALL
USER_CHARGES


@<TRIPOS>ATOM
  1 BR      -1.7590     0.9000    -1.9690 Br    1 <1>  -0.1110 
  2 C       -0.8480     2.2460    -0.9300 C.ar  1 <1>   0.1110 
  3 C       -1.2750     2.5130     0.3620 C.ar  1 <1>  -0.1440 
  4 C        0.2110     2.9090    -1.5170 C.ar  1 <1>  -0.1500 
  5 C       -0.6060     3.4960     1.0780 C.ar  1 <1>  -0.1500 
  6 C       -2.4390     1.7640     0.9770 C.3   1 <1>   0.4870 
  7 C        0.8760     3.8810    -0.7900 C.ar  1 <1>   0.0830 
  8 C        0.4490     4.1950     0.5090 C.ar  1 <1>   0.0830 
  9 N       -3.7080     2.2520     0.3690 N.4   1 <1>  -0.9590 
 10 O        1.9330     4.4820    -1.3800 O.3   1 <1>  -0.3620 
 11 O        1.0020     5.1660     1.2820 O.3   1 <1>  -0.3620 
 12 C       -3.9500     3.6960     0.6570 C.3   1 <1>   0.3430 
 13 C       -4.8610     1.3940     0.7540 C.3   1 <1>   0.3430 
 14 C        3.2030     4.0540    -0.9420 C.3   1 <1>   0.0400 
 15 C        1.2430     6.4370     0.7130 C.3   1 <1>   0.0400 
 16 C       -5.1690     4.1730    -0.1280 C.3   1 <1>  -0.1600 
 17 C       -6.0990     1.8240    -0.0300 C.3   1 <1>  -0.1600 
 18 C       -6.4180     3.3190     0.1650 C.3   1 <1>  -0.0190 
 19 C       -7.5900     3.7440    -0.7140 C.2   1 <1>   0.6590 
 20 O       -7.5110     3.7170    -1.9140 O.2   1 <1>  -0.5700 
 21 O       -8.6830     4.1340    -0.0760 O.3   1 <1>  -0.4300 
 22 C       -9.8330     4.5490    -0.7760 C.3   1 <1>   0.1200 
 23 C      -10.8990     4.9280     0.2470 C.3   1 <1>  -0.2400 
 24 H        0.5240     2.6760    -2.5190 H     1 <1>   0.1500 
 25 H       -0.8870     3.7450     2.0870 H     1 <1>   0.1500 
 26 H       -2.4530     1.9180     2.0440 H     1 <1>   0.0800 
 27 H       -2.3190     0.7090     0.7880 H     1 <1>   0.0800 
 28 H       -3.5840     2.1670    -0.6510 H     1 <1>   0.4500 
 29 H       -3.0920     4.2830     0.3680 H     1 <1>   0.0800 
 30 H       -4.1180     3.8380     1.7120 H     1 <1>   0.0800 
 31 H       -5.0520     1.4880     1.8120 H     1 <1>   0.0800 
 32 H       -4.6430     0.3600     0.5370 H     1 <1>   0.0800 
 33 H        3.9500     4.6160    -1.4720 H     1 <1>   0.0800 
 34 H        3.3100     3.0050    -1.1550 H     1 <1>   0.0800 
 35 H        3.2910     4.2310     0.1160 H     1 <1>   0.0800 
 36 H        1.2970     7.1570     1.5100 H     1 <1>   0.0800 
 37 H        0.4390     6.6870     0.0440 H     1 <1>   0.0800 
 38 H        2.1780     6.4170     0.1840 H     1 <1>   0.0800 
 39 H       -4.9420     4.1470    -1.1810 H     1 <1>   0.0800 
 40 H       -5.3710     5.2000     0.1270 H     1 <1>   0.0800 
 41 H       -6.9410     1.2360     0.2920 H     1 <1>   0.0800 
 42 H       -5.9450     1.6150    -1.0750 H     1 <1>   0.0800 
 43 H       -6.7050     3.4770     1.1900 H     1 <1>   0.0800 
 44 H      -10.1670     3.7360    -1.3990 H     1 <1>   0.0800 
 45 H       -9.5730     5.3920    -1.3940 H     1 <1>   0.0800 
 46 H      -11.1440     4.0800     0.8610 H     1 <1>   0.0800 
 47 H      -11.7900     5.2490    -0.2620 H     1 <1>   0.0800 
 48 H      -10.5500     5.7350     0.8660 H     1 <1>   0.0800 
@<TRIPOS>BOND
  1   1   2  1   
  2   2   3  ar  
  3   2   4  ar  
  4   3   5  ar  
  5   3   6  1   
  6   4   7  ar  
  7   4  24  1   
  8   5   8  ar  
  9   5  25  1   
 10   6   9  1   
 11   6  26  1   
 12   6  27  1   
 13   7   8  ar  
 14   7  10  1   
 15   8  11  1   
 16   9  12  1   
 17   9  13  1   
 18   9  28  1   
 19  10  14  1   
 20  11  15  1   
 21  12  16  1   
 22  12  29  1   
 23  12  30  1   
 24  13  17  1   
 25  13  31  1   
 26  13  32  1   
 27  14  33  1   
 28  14  34  1   
 29  14  35  1   
 30  15  36  1   
 31  15  37  1   
 32  15  38  1   
 33  16  18  1   
 34  16  39  1   
 35  16  40  1   
 36  17  18  1   
 37  17  41  1   
 38  17  42  1   
 39  18  19  1   
 40  18  43  1   
 41  19  20  2   
 42  19  21  1   
 43  21  22  1   
 44  22  23  1   
 45  22  44  1   
 46  22  45  1   
 47  23  46  1   
 48  23  47  1   
 49  23  48  1   
@<TRIPOS>SUBSTRUCTURE
  1 ****  12 GROUP 4 **** **** 0

# MOE 2024.06 (io_trps.svl 2023.06)
