@<TRIPOS>MOLECULE
NONAME
38 38 1 0 0 
SMALL
USER_CHARGES


@<TRIPOS>ATOM
  1 CL       1.4000     0.9850    -2.4160 Cl    1 <1>  -0.1770 
  2 C        2.4180     1.5420    -1.1060 C.ar  1 <1>   0.1770 
  3 C        2.2110     2.7880    -0.5260 C.ar  1 <1>   0.0820 
  4 C        3.4270     0.6980    -0.6750 C.ar  1 <1>  -0.1500 
  5 O        1.1940     3.5660    -0.9730 O.3   1 <1>  -0.3630 
  6 C        3.0680     3.1970     0.5060 C.ar  1 <1>   0.0830 
  7 C        4.2620     1.0960     0.3580 C.ar  1 <1>  -0.1440 
  8 C       -0.0650     3.3300    -0.3810 C.3   1 <1>   0.0400 
  9 O        3.0170     4.3940     1.1490 O.3   1 <1>  -0.3630 
 10 C        4.0680     2.3410     0.9420 C.ar  1 <1>  -0.1500 
 11 C        5.3790     0.1980     0.8400 C.3   1 <1>   0.4860 
 12 C        2.5990     5.5660     0.4790 C.3   1 <1>   0.0400 
 13 N        6.5980     0.6140     0.1170 N.4   1 <1>  -0.9060 
 14 C        7.8040    -0.1550     0.4940 C.3   1 <1>   0.3430 
 15 C        8.9910     0.3650    -0.3120 C.3   1 <1>  -0.1600 
 16 C       10.2710    -0.4020     0.0460 C.3   1 <1>  -0.1600 
 17 C       11.4630     0.1180    -0.7620 C.3   1 <1>  -0.2400 
 18 H        3.5340    -0.2580    -1.1590 H     1 <1>   0.1500 
 19 H       -0.7690     4.0260    -0.8010 H     1 <1>   0.0800 
 20 H        0.0150     3.4810     0.6810 H     1 <1>   0.0800 
 21 H       -0.3730     2.3230    -0.5960 H     1 <1>   0.0800 
 22 H        4.6910     2.6790     1.7520 H     1 <1>   0.1500 
 23 H        5.1450    -0.8330     0.6270 H     1 <1>   0.0800 
 24 H        5.5110     0.3140     1.9040 H     1 <1>   0.0800 
 25 H        2.9710     6.4150     1.0230 H     1 <1>   0.0800 
 26 H        1.5250     5.5940     0.4590 H     1 <1>   0.0800 
 27 H        2.9980     5.5650    -0.5200 H     1 <1>   0.0800 
 28 H        6.7450     1.6160     0.2900 H     1 <1>   0.4500 
 29 H        6.4210     0.5300    -0.8910 H     1 <1>   0.4500 
 30 H        7.6590    -1.2030     0.2860 H     1 <1>   0.0800 
 31 H        8.0060    -0.0390     1.5480 H     1 <1>   0.0800 
 32 H        9.1450     1.4100    -0.1030 H     1 <1>   0.0800 
 33 H        8.7990     0.2440    -1.3640 H     1 <1>   0.0800 
 34 H       10.1450    -1.4520    -0.1600 H     1 <1>   0.0800 
 35 H       10.4890    -0.2910     1.0960 H     1 <1>   0.0800 
 36 H       11.2930    -0.0050    -1.8180 H     1 <1>   0.0800 
 37 H       12.3520    -0.4290    -0.4990 H     1 <1>   0.0800 
 38 H       11.6380     1.1600    -0.5580 H     1 <1>   0.0800 
@<TRIPOS>BOND
  1   1   2  1   
  2   2   3  ar  
  3   2   4  ar  
  4   3   5  1   
  5   3   6  ar  
  6   4   7  ar  
  7   4  18  1   
  8   5   8  1   
  9   6   9  1   
 10   6  10  ar  
 11   7  10  ar  
 12   7  11  1   
 13   8  19  1   
 14   8  20  1   
 15   8  21  1   
 16   9  12  1   
 17  10  22  1   
 18  11  13  1   
 19  11  23  1   
 20  11  24  1   
 21  12  25  1   
 22  12  26  1   
 23  12  27  1   
 24  13  14  1   
 25  13  28  1   
 26  13  29  1   
 27  14  15  1   
 28  14  30  1   
 29  14  31  1   
 30  15  16  1   
 31  15  32  1   
 32  15  33  1   
 33  16  17  1   
 34  16  34  1   
 35  16  35  1   
 36  17  36  1   
 37  17  37  1   
 38  17  38  1   
@<TRIPOS>SUBSTRUCTURE
  1 ****   7 GROUP 4 **** **** 0

# MOE 2024.06 (io_trps.svl 2023.06)
