@<TRIPOS>MOLECULE
NONAME
52 54 1 0 0 
SMALL
USER_CHARGES


@<TRIPOS>ATOM
  1 O        0.9680     1.1940     2.0020 O.2   1 <1>  -0.5700 
  2 C        0.9300     1.6210     0.8710 C.2   1 <1>   0.5690 
  3 N        1.7810     1.1720    -0.0940 N.am  1 <1>  -0.7300 
  4 C       -0.0910     2.7130     0.4840 C.3   1 <1>   0.0610 
  5 C        2.8760     0.1950    -0.0180 C.3   1 <1>   0.3000 
  6 C       -1.0190     2.2020    -0.6460 C.3   1 <1>  -0.1600 
  7 C        0.6430     3.9810    -0.0180 C.3   1 <1>  -0.1600 
  8 C       -0.9820     3.1200     1.6870 C.3   1 <1>  -0.1600 
  9 C        3.4530     0.0340    -1.4460 C.3   1 <1>   0.1200 
 10 C        2.3390    -1.1540     0.4680 C.3   1 <1>  -0.2400 
 11 C        3.9490     0.7300     0.9380 C.3   1 <1>  -0.2400 
 12 C       -2.0350     3.2830    -1.0670 C.3   1 <1>   0.0000 
 13 C       -0.3560     5.0790    -0.4330 C.3   1 <1>   0.0000 
 14 C       -1.9980     4.2090     1.2930 C.3   1 <1>   0.0000 
 15 O        3.6750     1.2720    -2.0580 O.3   1 <1>  -0.6800 
 16 C       -1.2640     4.5280    -1.5510 C.3   1 <1>  -0.1600 
 17 C       -2.8880     3.6690     0.1570 C.3   1 <1>  -0.1600 
 18 C       -2.9340     2.7510    -2.1900 C.3   1 <1>  -0.2400 
 19 C       -1.2300     5.4440     0.7840 C.3   1 <1>  -0.1600 
 20 C        0.3990     6.3180    -0.9290 C.3   1 <1>  -0.2400 
 21 C       -2.8610     4.5870     2.5040 C.3   1 <1>  -0.2400 
 22 H        1.7550     1.6220    -1.0120 H     1 <1>   0.3700 
 23 H       -1.5410     1.3250    -0.3050 H     1 <1>   0.0800 
 24 H       -0.4330     1.9160    -1.5010 H     1 <1>   0.0800 
 25 H        1.2660     3.7360    -0.8590 H     1 <1>   0.0800 
 26 H        1.2850     4.3490     0.7640 H     1 <1>   0.0800 
 27 H       -0.3580     3.4790     2.4870 H     1 <1>   0.0800 
 28 H       -1.5040     2.2530     2.0530 H     1 <1>   0.0800 
 29 H        2.7610    -0.5110    -2.0630 H     1 <1>   0.0800 
 30 H        4.3840    -0.5060    -1.4220 H     1 <1>   0.0800 
 31 H        1.9820    -1.0810     1.4790 H     1 <1>   0.0800 
 32 H        3.1180    -1.8940     0.4460 H     1 <1>   0.0800 
 33 H        1.5320    -1.4850    -0.1610 H     1 <1>   0.0800 
 34 H        3.5590     0.7950     1.9380 H     1 <1>   0.0800 
 35 H        4.2800     1.7050     0.6340 H     1 <1>   0.0800 
 36 H        4.7950     0.0680     0.9560 H     1 <1>   0.0800 
 37 H        4.3000     1.8030    -1.5260 H     1 <1>   0.4000 
 38 H       -0.6680     4.2740    -2.4100 H     1 <1>   0.0800 
 39 H       -1.9630     5.2880    -1.8540 H     1 <1>   0.0800 
 40 H       -3.4340     2.8090     0.5030 H     1 <1>   0.0800 
 41 H       -3.6070     4.4190    -0.1260 H     1 <1>   0.0800 
 42 H       -2.3460     2.4800    -3.0490 H     1 <1>   0.0800 
 43 H       -3.6460     3.5000    -2.4880 H     1 <1>   0.0800 
 44 H       -3.4740     1.8810    -1.8590 H     1 <1>   0.0800 
 45 H       -1.9280     6.2150     0.5090 H     1 <1>   0.0800 
 46 H       -0.6080     5.8330     1.5720 H     1 <1>   0.0800 
 47 H        1.0100     6.0710    -1.7790 H     1 <1>   0.0800 
 48 H        1.0360     6.7060    -0.1540 H     1 <1>   0.0800 
 49 H       -0.2920     7.0890    -1.2190 H     1 <1>   0.0800 
 50 H       -3.3970     3.7280     2.8660 H     1 <1>   0.0800 
 51 H       -3.5730     5.3470     2.2370 H     1 <1>   0.0800 
 52 H       -2.2440     4.9620     3.3020 H     1 <1>   0.0800 
@<TRIPOS>BOND
  1   1   2  2   
  2   2   3  am  
  3   2   4  1   
  4   3   5  1   
  5   3  22  1   
  6   4   6  1   
  7   4   7  1   
  8   4   8  1   
  9   5   9  1   
 10   5  10  1   
 11   5  11  1   
 12   6  12  1   
 13   6  23  1   
 14   6  24  1   
 15   7  13  1   
 16   7  25  1   
 17   7  26  1   
 18   8  14  1   
 19   8  27  1   
 20   8  28  1   
 21   9  15  1   
 22   9  29  1   
 23   9  30  1   
 24  10  31  1   
 25  10  32  1   
 26  10  33  1   
 27  11  34  1   
 28  11  35  1   
 29  11  36  1   
 30  12  16  1   
 31  12  17  1   
 32  12  18  1   
 33  13  16  1   
 34  13  19  1   
 35  13  20  1   
 36  14  17  1   
 37  14  19  1   
 38  14  21  1   
 39  15  37  1   
 40  16  38  1   
 41  16  39  1   
 42  17  40  1   
 43  17  41  1   
 44  18  42  1   
 45  18  43  1   
 46  18  44  1   
 47  19  45  1   
 48  19  46  1   
 49  20  47  1   
 50  20  48  1   
 51  20  49  1   
 52  21  50  1   
 53  21  51  1   
 54  21  52  1   
@<TRIPOS>SUBSTRUCTURE
  1 ****   4 GROUP 4 **** **** 0

# MOE 2024.06 (io_trps.svl 2023.06)
