@<TRIPOS>MOLECULE
NONAME
44 47 1 0 0 
SMALL
USER_CHARGES


@<TRIPOS>ATOM
  1 F        0.7020    -0.5730     0.5040 F     1 <1>  -0.3400 
  2 C        1.5590    -0.5640    -0.5090 C.3   1 <1>   0.7380 
  3 F        0.8250    -0.8790    -1.5670 F     1 <1>  -0.3400 
  4 C        2.5970    -1.6390    -0.2930 C.2   1 <1>  -0.1690 
  5 N        3.8520    -1.3440    -0.7550 N.pl3 1 <1>   0.6010 
  6 C        2.4110    -2.8520     0.3000 C.2   1 <1>  -0.1360 
  7 N        4.2890    -0.2080    -1.3350 N.2   1 <1>  -0.7070 
  8 C        4.8640    -2.2600    -0.6090 C.2   1 <1>  -0.0260 
  9 C        3.4970    -3.7620     0.4200 C.2   1 <1>   0.4360 
 10 C        5.5520    -0.4270    -1.5590 C.2   1 <1>   0.1390 
 11 N        4.6880    -3.4920    -0.0190 N.2   1 <1>  -0.5760 
 12 C        5.9880    -1.6810    -1.1380 C.2   1 <1>  -0.0860 
 13 C        3.2400    -5.1060     1.0840 C.3   1 <1>  -0.1000 
 14 C        7.3170    -2.1980    -1.2490 C.2   1 <1>   0.7160 
 15 C        2.7360    -5.1820     2.4960 C.3   1 <1>  -0.2000 
 16 C        4.1360    -5.6060     2.1800 C.3   1 <1>  -0.2000 
 17 O        8.2140    -1.5300    -1.7290 O.2   1 <1>  -0.5700 
 18 N        7.5850    -3.4560    -0.8020 N.am  1 <1>  -0.7300 
 19 C        8.8900    -4.1540    -0.8550 C.3   1 <1>   0.1400 
 20 C        9.5510    -4.1260     0.5220 C.3   1 <1>  -0.0170 
 21 C       10.8750    -4.8720     0.4850 C.ar  1 <1>  -0.1430 
 22 C       12.0240    -4.2280     0.0530 C.ar  1 <1>  -0.1500 
 23 C       10.9460    -6.2000     0.8760 C.ar  1 <1>  -0.1500 
 24 C       13.2310    -4.9040     0.0130 C.ar  1 <1>  -0.1500 
 25 C       12.1530    -6.8770     0.8360 C.ar  1 <1>  -0.1500 
 26 C       13.2970    -6.2290     0.4050 C.ar  1 <1>  -0.1500 
 27 H        1.9360     0.4370    -0.6290 H     1 <1>   0.0800 
 28 H        1.4540    -3.1560     0.6860 H     1 <1>   0.1500 
 29 H        6.2050     0.2950    -2.0260 H     1 <1>   0.1500 
 30 H        2.8770    -5.8360     0.3820 H     1 <1>   0.1000 
 31 H        2.0130    -5.9380     2.7490 H     1 <1>   0.1000 
 32 H        2.5990    -4.2760     3.0620 H     1 <1>   0.1000 
 33 H        4.9530    -4.9840     2.5030 H     1 <1>   0.1000 
 34 H        4.3810    -6.6540     2.2060 H     1 <1>   0.1000 
 35 H        6.7880    -3.9590    -0.3920 H     1 <1>   0.3700 
 36 H        9.5330    -3.6730    -1.5740 H     1 <1>   0.0800 
 37 H        8.7370    -5.1720    -1.1700 H     1 <1>   0.0800 
 38 H        8.8990    -4.5790     1.2470 H     1 <1>   0.0800 
 39 H        9.7250    -3.1050     0.8130 H     1 <1>   0.0800 
 40 H       11.9830    -3.1970    -0.2550 H     1 <1>   0.1500 
 41 H       10.0630    -6.7150     1.2130 H     1 <1>   0.1500 
 42 H       14.1190    -4.3970    -0.3230 H     1 <1>   0.1500 
 43 H       12.2010    -7.9080     1.1420 H     1 <1>   0.1500 
 44 H       14.2350    -6.7540     0.3740 H     1 <1>   0.1500 
@<TRIPOS>BOND
  1   1   2  1   
  2   2   3  1   
  3   2   4  1   
  4   2  27  1   
  5   4   5  1   
  6   4   6  2   
  7   5   7  1   
  8   5   8  1   
  9   6   9  1   
 10   6  28  1   
 11   7  10  2   
 12   8  11  1   
 13   8  12  2   
 14   9  11  2   
 15   9  13  1   
 16  10  12  1   
 17  10  29  1   
 18  12  14  1   
 19  13  15  1   
 20  13  16  1   
 21  13  30  1   
 22  14  17  2   
 23  14  18  am  
 24  15  16  1   
 25  15  31  1   
 26  15  32  1   
 27  16  33  1   
 28  16  34  1   
 29  18  19  1   
 30  18  35  1   
 31  19  20  1   
 32  19  36  1   
 33  19  37  1   
 34  20  21  1   
 35  20  38  1   
 36  20  39  1   
 37  21  22  ar  
 38  21  23  ar  
 39  22  24  ar  
 40  22  40  1   
 41  23  25  ar  
 42  23  41  1   
 43  24  26  ar  
 44  24  42  1   
 45  25  26  ar  
 46  25  43  1   
 47  26  44  1   
@<TRIPOS>SUBSTRUCTURE
  1 ****  18 GROUP 4 **** **** 0

# MOE 2024.06 (io_trps.svl 2023.06)
