@<TRIPOS>MOLECULE
NONAME
38 39 1 0 0 
SMALL
USER_CHARGES


@<TRIPOS>ATOM
  1 O        0.1210     0.6220    -0.8810 O.2   1 <1>  -0.5700 
  2 C       -0.8420     1.1930    -0.4340 C.2   1 <1>   0.5690 
  3 N       -1.6980     0.5030     0.3590 N.am  1 <1>  -0.7300 
  4 C       -1.1160     2.6530    -0.7910 C.3   1 <1>   0.0420 
  5 C       -2.9400     1.0110     0.9800 C.3   1 <1>   0.1400 
  6 C        0.1260     3.5420    -0.7520 C.2   1 <1>   0.5690 
  7 C       -2.2370     3.2670     0.0830 C.3   1 <1>  -0.1600 
  8 C       -3.4020     2.2860     0.2690 C.3   1 <1>  -0.1600 
  9 O       -0.0190     4.6920    -1.0940 O.2   1 <1>  -0.5700 
 10 N        1.3330     3.0460    -0.3420 N.am  1 <1>  -0.5470 
 11 C        2.5990     3.6230    -0.1170 C.ar  1 <1>   0.1170 
 12 C        3.6810     2.7660     0.1140 C.ar  1 <1>   0.0820 
 13 C        2.8220     4.9950    -0.1060 C.ar  1 <1>  -0.1500 
 14 O        3.4250     1.4220     0.1080 O.3   1 <1>  -0.3630 
 15 C        4.9510     3.2860     0.3420 C.ar  1 <1>  -0.1500 
 16 C        4.0850     5.5170     0.1190 C.ar  1 <1>   0.0820 
 17 C        4.4730     0.4800     0.0580 C.3   1 <1>   0.0400 
 18 C        5.1540     4.6550     0.3430 C.ar  1 <1>  -0.1500 
 19 O        4.2000     6.8710     0.1070 O.3   1 <1>  -0.3620 
 20 C        5.4470     7.5010     0.2950 C.3   1 <1>   0.0400 
 21 H       -1.4430    -0.4680     0.5580 H     1 <1>   0.3700 
 22 H       -1.4580     2.6490    -1.8080 H     1 <1>   0.0800 
 23 H       -2.7480     1.2200     2.0190 H     1 <1>   0.0800 
 24 H       -3.7090     0.2590     0.9180 H     1 <1>   0.0800 
 25 H       -2.5920     4.1750    -0.3740 H     1 <1>   0.0800 
 26 H       -1.8340     3.5230     1.0490 H     1 <1>   0.0800 
 27 H       -4.1810     2.7500     0.8490 H     1 <1>   0.0800 
 28 H       -3.8200     2.0280    -0.6890 H     1 <1>   0.0800 
 29 H        1.3700     2.0170    -0.2900 H     1 <1>   0.3700 
 30 H        2.0140     5.6810    -0.2730 H     1 <1>   0.1500 
 31 H        5.7910     2.6450     0.5240 H     1 <1>   0.1500 
 32 H        4.0360    -0.4960    -0.0530 H     1 <1>   0.0800 
 33 H        5.0310     0.5270     0.9760 H     1 <1>   0.0800 
 34 H        5.0990     0.6990    -0.7890 H     1 <1>   0.0800 
 35 H        6.1440     5.0290     0.5220 H     1 <1>   0.1500 
 36 H        5.2960     8.5640     0.2330 H     1 <1>   0.0800 
 37 H        6.1190     7.1820    -0.4820 H     1 <1>   0.0800 
 38 H        5.8260     7.2420     1.2670 H     1 <1>   0.0800 
@<TRIPOS>BOND
  1   1   2  2   
  2   2   3  am  
  3   2   4  1   
  4   3   5  1   
  5   3  21  1   
  6   4   6  1   
  7   4   7  1   
  8   4  22  1   
  9   5   8  1   
 10   5  23  1   
 11   5  24  1   
 12   6   9  2   
 13   6  10  am  
 14   7   8  1   
 15   7  25  1   
 16   7  26  1   
 17   8  27  1   
 18   8  28  1   
 19  10  11  1   
 20  10  29  1   
 21  11  12  ar  
 22  11  13  ar  
 23  12  14  1   
 24  12  15  ar  
 25  13  16  ar  
 26  13  30  1   
 27  14  17  1   
 28  15  18  ar  
 29  15  31  1   
 30  16  18  ar  
 31  16  19  1   
 32  17  32  1   
 33  17  33  1   
 34  17  34  1   
 35  18  35  1   
 36  19  20  1   
 37  20  36  1   
 38  20  37  1   
 39  20  38  1   
@<TRIPOS>SUBSTRUCTURE
  1 ****  10 GROUP 4 **** **** 0

# MOE 2024.06 (io_trps.svl 2023.06)
