@<TRIPOS>MOLECULE
NONAME
35 35 1 0 0 
SMALL
USER_CHARGES


@<TRIPOS>ATOM
  1 O        0.2970    -2.5510    -2.3440 O.2   1 <1>  -0.5700 
  2 C       -0.1420    -2.7240    -1.2340 C.2   1 <1>   0.5690 
  3 N        0.5390    -2.3750    -0.1150 N.am  1 <1>  -0.7300 
  4 C       -1.5080    -3.3590    -1.0770 C.3   1 <1>  -0.0990 
  5 C        1.8590    -1.7380    -0.0920 C.3   1 <1>   0.2200 
  6 C       -2.5600    -2.3550    -0.5770 C.3   1 <1>  -0.1600 
  7 C        2.8060    -2.6310     0.7020 C.3   1 <1>  -0.2400 
  8 C        1.7140    -0.3660     0.5560 C.3   1 <1>  -0.2400 
  9 C       -3.9410    -3.0020    -0.4710 C.3   1 <1>   0.1200 
 10 O       -4.8290    -2.0470     0.0570 O.3   1 <1>  -0.3630 
 11 C       -6.1350    -2.3410     0.2750 C.ar  1 <1>   0.0820 
 12 C       -6.7110    -3.5770    -0.0120 C.ar  1 <1>  -0.1500 
 13 C       -6.9180    -1.3350     0.8170 C.ar  1 <1>  -0.1500 
 14 C       -8.0550    -3.7910     0.2450 C.ar  1 <1>  -0.1500 
 15 C       -8.2610    -1.5500     1.0740 C.ar  1 <1>  -0.1500 
 16 C       -8.8290    -2.7790     0.7880 C.ar  1 <1>  -0.1500 
 17 H        0.1150    -2.5200     0.8000 H     1 <1>   0.3700 
 18 H       -1.4270    -4.1840    -0.3930 H     1 <1>   0.0800 
 19 H       -1.8100    -3.7500    -2.0330 H     1 <1>   0.0800 
 20 H        2.2300    -1.6250    -1.0990 H     1 <1>   0.0800 
 21 H       -2.6120    -1.5270    -1.2630 H     1 <1>   0.0800 
 22 H       -2.2720    -1.9820     0.3900 H     1 <1>   0.0800 
 23 H        2.4600    -2.7560     1.7120 H     1 <1>   0.0800 
 24 H        3.7860    -2.1910     0.7270 H     1 <1>   0.0800 
 25 H        2.8830    -3.5930     0.2280 H     1 <1>   0.0800 
 26 H        1.3490    -0.4520     1.5630 H     1 <1>   0.0800 
 27 H        1.0360     0.2390    -0.0200 H     1 <1>   0.0800 
 28 H        2.6680     0.1290     0.5780 H     1 <1>   0.0800 
 29 H       -3.9190    -3.8460     0.1960 H     1 <1>   0.0800 
 30 H       -4.2990    -3.3000    -1.4420 H     1 <1>   0.0800 
 31 H       -6.1360    -4.3780    -0.4340 H     1 <1>   0.1500 
 32 H       -6.4680    -0.3830     1.0360 H     1 <1>   0.1500 
 33 H       -8.5010    -4.7440     0.0230 H     1 <1>   0.1500 
 34 H       -8.8610    -0.7630     1.4950 H     1 <1>   0.1500 
 35 H       -9.8730    -2.9480     0.9870 H     1 <1>   0.1500 
@<TRIPOS>BOND
  1   1   2  2   
  2   2   3  am  
  3   2   4  1   
  4   3   5  1   
  5   3  17  1   
  6   4   6  1   
  7   4  18  1   
  8   4  19  1   
  9   5   7  1   
 10   5   8  1   
 11   5  20  1   
 12   6   9  1   
 13   6  21  1   
 14   6  22  1   
 15   7  23  1   
 16   7  24  1   
 17   7  25  1   
 18   8  26  1   
 19   8  27  1   
 20   8  28  1   
 21   9  10  1   
 22   9  29  1   
 23   9  30  1   
 24  10  11  1   
 25  11  12  ar  
 26  11  13  ar  
 27  12  14  ar  
 28  12  31  1   
 29  13  15  ar  
 30  13  32  1   
 31  14  16  ar  
 32  14  33  1   
 33  15  16  ar  
 34  15  34  1   
 35  16  35  1   
@<TRIPOS>SUBSTRUCTURE
  1 ****   6 GROUP 4 **** **** 0

# MOE 2024.06 (io_trps.svl 2023.06)
