@<TRIPOS>MOLECULE
NONAME
44 46 1 0 0 
SMALL
USER_CHARGES


@<TRIPOS>ATOM
  1 O       -1.5020     0.5090    -1.0950 O.2   1 <1>  -0.5700 
  2 C       -2.2740    -0.4140    -0.9240 C.2   1 <1>   0.7060 
  3 O       -3.5490    -0.1050    -0.6930 O.3   1 <1>  -0.2320 
  4 C       -1.8970    -1.8020    -0.9720 C.2   1 <1>  -0.1240 
  5 C       -4.5120    -1.0330    -0.5310 C.ar  1 <1>   0.0820 
  6 C       -2.8270    -2.7800    -0.7930 C.2   1 <1>  -0.1670 
  7 C       -0.4090    -2.0820    -1.2180 C.3   1 <1>   0.0390 
  8 C       -4.2000    -2.3990    -0.5790 C.ar  1 <1>   0.0280 
  9 C       -5.8080    -0.5920    -0.3220 C.ar  1 <1>  -0.1500 
 10 C       -2.5030    -4.2760    -0.7860 C.3   1 <1>  -0.1020 
 11 C        0.3220    -2.3520     0.0810 C.2   1 <1>   0.6590 
 12 C       -5.2630    -3.2970    -0.4130 C.ar  1 <1>  -0.1500 
 13 C       -6.8390    -1.4960    -0.1570 C.ar  1 <1>   0.0830 
 14 O        0.8180    -3.4260     0.3080 O.2   1 <1>  -0.5700 
 15 O        0.3800    -1.3490     0.9470 O.3   1 <1>  -0.4300 
 16 C       -6.5560    -2.8610    -0.2060 C.ar  1 <1>  -0.1500 
 17 O       -8.0770    -0.9910     0.0420 O.3   1 <1>  -0.3630 
 18 C        1.0250    -1.4770     2.1970 C.3   1 <1>   0.0400 
 19 C       -9.2080    -1.8360     0.2240 C.3   1 <1>   0.1810 
 20 C      -10.4850    -1.0300     0.4320 C.2   1 <1>   0.5690 
 21 O      -11.5190    -1.6330     0.5990 O.2   1 <1>  -0.5700 
 22 N      -10.4220     0.3290     0.4230 N.am  1 <1>  -0.5790 
 23 C      -11.5500     1.2510     0.6070 C.3   1 <1>   0.0490 
 24 C      -11.5390     2.5350    -0.1530 C.3   1 <1>  -0.2000 
 25 C      -11.2980     2.5340     1.3270 C.3   1 <1>  -0.2000 
 26 H        0.0720    -1.2570    -1.7090 H     1 <1>   0.0800 
 27 H       -0.2900    -2.9260    -1.8690 H     1 <1>   0.0800 
 28 H       -6.0120     0.4620    -0.2890 H     1 <1>   0.1500 
 29 H       -2.9950    -4.7630    -1.6090 H     1 <1>   0.0800 
 30 H       -2.8420    -4.7190     0.1330 H     1 <1>   0.0800 
 31 H       -1.4530    -4.4860    -0.8610 H     1 <1>   0.0800 
 32 H       -5.0840    -4.3560    -0.4460 H     1 <1>   0.1500 
 33 H       -7.3310    -3.5940    -0.0840 H     1 <1>   0.1500 
 34 H        0.9430    -0.5410     2.7190 H     1 <1>   0.0800 
 35 H        2.0600    -1.7220     2.0310 H     1 <1>   0.0800 
 36 H        0.5430    -2.2590     2.7580 H     1 <1>   0.0800 
 37 H       -9.0370    -2.4520     1.0870 H     1 <1>   0.0800 
 38 H       -9.3190    -2.4490    -0.6510 H     1 <1>   0.0800 
 39 H       -9.5070     0.7610     0.2750 H     1 <1>   0.3700 
 40 H      -12.4930     0.7480     0.7590 H     1 <1>   0.1000 
 41 H      -12.4730     2.9260    -0.5160 H     1 <1>   0.1000 
 42 H      -10.7180     2.7390    -0.8180 H     1 <1>   0.1000 
 43 H      -10.3100     2.7360     1.6990 H     1 <1>   0.1000 
 44 H      -12.0700     2.9230     1.9680 H     1 <1>   0.1000 
@<TRIPOS>BOND
  1   1   2  2   
  2   2   3  1   
  3   2   4  1   
  4   3   5  1   
  5   4   6  2   
  6   4   7  1   
  7   5   8  ar  
  8   5   9  ar  
  9   6   8  1   
 10   6  10  1   
 11   7  11  1   
 12   7  26  1   
 13   7  27  1   
 14   8  12  ar  
 15   9  13  ar  
 16   9  28  1   
 17  10  29  1   
 18  10  30  1   
 19  10  31  1   
 20  11  14  2   
 21  11  15  1   
 22  12  16  ar  
 23  12  32  1   
 24  13  16  ar  
 25  13  17  1   
 26  15  18  1   
 27  16  33  1   
 28  17  19  1   
 29  18  34  1   
 30  18  35  1   
 31  18  36  1   
 32  19  20  1   
 33  19  37  1   
 34  19  38  1   
 35  20  21  2   
 36  20  22  am  
 37  22  23  1   
 38  22  39  1   
 39  23  24  1   
 40  23  25  1   
 41  23  40  1   
 42  24  25  1   
 43  24  41  1   
 44  24  42  1   
 45  25  43  1   
 46  25  44  1   
@<TRIPOS>SUBSTRUCTURE
  1 ****   5 GROUP 4 **** **** 0

# MOE 2024.06 (io_trps.svl 2023.06)
