@<TRIPOS>MOLECULE
NONAME
47 49 1 0 0 
SMALL
USER_CHARGES


@<TRIPOS>ATOM
  1 F        1.0110    -2.8870    -2.8600 F     1 <1>  -0.1900 
  2 C       -0.0440    -2.3440    -2.2990 C.ar  1 <1>   0.1900 
  3 C       -0.1920    -2.3840    -0.9060 C.ar  1 <1>   0.1000 
  4 C       -0.9710    -1.7500    -3.1330 C.ar  1 <1>  -0.1500 
  5 N        0.7170    -2.9710    -0.0170 N.pl3 1 <1>  -0.8380 
  6 C       -1.3320    -1.7890    -0.3810 C.ar  1 <1>  -0.1500 
  7 C       -2.0970    -1.1660    -2.5770 C.ar  1 <1>  -0.1500 
  8 C        0.8570    -4.4540    -0.1130 C.3   1 <1>   0.2090 
  9 C        2.0510    -2.3090     0.0790 C.3   1 <1>   0.2090 
 10 C       -2.2740    -1.1880    -1.2020 C.ar  1 <1>  -0.1500 
 11 C        1.6980    -5.0030     1.0560 C.3   1 <1>   0.1100 
 12 C        2.8740    -2.8960     1.2420 C.3   1 <1>   0.1100 
 13 N        3.0350    -4.3700     1.1300 N.3   1 <1>  -0.8100 
 14 C        3.8140    -4.9090     2.2840 C.3   1 <1>   0.1710 
 15 C        5.3120    -4.6100     2.2070 C.2   1 <1>   0.5690 
 16 O        5.9600    -4.5920     3.2260 O.2   1 <1>  -0.5700 
 17 N        5.8170    -4.3760     0.9590 N.am  1 <1>  -0.5470 
 18 C        7.1000    -4.0780     0.4770 C.ar  1 <1>   0.1170 
 19 C        7.2340    -3.6990    -0.8520 C.ar  1 <1>  -0.1500 
 20 C        8.2470    -4.1510     1.2620 C.ar  1 <1>  -0.1500 
 21 C        8.4710    -3.3950    -1.3930 C.ar  1 <1>   0.0830 
 22 C        9.4890    -3.8490     0.7320 C.ar  1 <1>  -0.1500 
 23 O        8.4920    -3.0340    -2.7010 O.3   1 <1>  -0.3630 
 24 C        9.6070    -3.4710    -0.5930 C.ar  1 <1>  -0.1500 
 25 C        9.7020    -2.7240    -3.3550 C.3   1 <1>   0.0400 
 26 H       -0.8130    -1.7450    -4.1960 H     1 <1>   0.1500 
 27 H       -1.4720    -1.8050     0.6840 H     1 <1>   0.1500 
 28 H       -2.8320    -0.6980    -3.2090 H     1 <1>   0.1500 
 29 H        1.3320    -4.7150    -1.0420 H     1 <1>   0.0800 
 30 H       -0.1200    -4.9030    -0.0950 H     1 <1>   0.0800 
 31 H        1.9120    -1.2530     0.2360 H     1 <1>   0.0800 
 32 H        2.5920    -2.4430    -0.8410 H     1 <1>   0.0800 
 33 H       -3.1480    -0.7350    -0.7670 H     1 <1>   0.1500 
 34 H        1.8120    -6.0650     0.9260 H     1 <1>   0.0800 
 35 H        1.1600    -4.8330     1.9740 H     1 <1>   0.0800 
 36 H        2.3770    -2.6520     2.1650 H     1 <1>   0.0800 
 37 H        3.8410    -2.4230     1.2500 H     1 <1>   0.0800 
 38 H        3.7120    -5.9790     2.3120 H     1 <1>   0.0800 
 39 H        3.4260    -4.5170     3.2080 H     1 <1>   0.0800 
 40 H        5.0650    -4.3730     0.2620 H     1 <1>   0.3700 
 41 H        6.3680    -3.6350    -1.4830 H     1 <1>   0.1500 
 42 H        8.1770    -4.4460     2.2920 H     1 <1>   0.1500 
 43 H       10.3640    -3.9110     1.3560 H     1 <1>   0.1500 
 44 H       10.5820    -3.2420    -0.9790 H     1 <1>   0.1500 
 45 H        9.4760    -2.4770    -4.3760 H     1 <1>   0.0800 
 46 H       10.3470    -3.5840    -3.3200 H     1 <1>   0.0800 
 47 H       10.1560    -1.8800    -2.8660 H     1 <1>   0.0800 
@<TRIPOS>BOND
  1   1   2  1   
  2   2   3  ar  
  3   2   4  ar  
  4   3   5  1   
  5   3   6  ar  
  6   4   7  ar  
  7   4  26  1   
  8   5   8  1   
  9   5   9  1   
 10   6  10  ar  
 11   6  27  1   
 12   7  10  ar  
 13   7  28  1   
 14   8  11  1   
 15   8  29  1   
 16   8  30  1   
 17   9  12  1   
 18   9  31  1   
 19   9  32  1   
 20  10  33  1   
 21  11  13  1   
 22  11  34  1   
 23  11  35  1   
 24  12  13  1   
 25  12  36  1   
 26  12  37  1   
 27  13  14  1   
 28  14  15  1   
 29  14  38  1   
 30  14  39  1   
 31  15  16  2   
 32  15  17  am  
 33  17  18  1   
 34  17  40  1   
 35  18  19  ar  
 36  18  20  ar  
 37  19  21  ar  
 38  19  41  1   
 39  20  22  ar  
 40  20  42  1   
 41  21  23  1   
 42  21  24  ar  
 43  22  24  ar  
 44  22  43  1   
 45  23  25  1   
 46  24  44  1   
 47  25  45  1   
 48  25  46  1   
 49  25  47  1   
@<TRIPOS>SUBSTRUCTURE
  1 ****  12 GROUP 4 **** **** 0

# MOE 2024.06 (io_trps.svl 2023.06)
