@<TRIPOS>MOLECULE
NONAME
40 41 1 0 0 
SMALL
USER_CHARGES


@<TRIPOS>ATOM
  1 F       -0.2120     1.2290    -2.3990 F     1 <1>  -0.3400 
  2 C        1.0430     0.8230    -2.5480 C.3   1 <1>   1.1640 
  3 F        0.9780    -0.4460    -2.9350 F     1 <1>  -0.3400 
  4 F        1.5340     1.4970    -3.5800 F     1 <1>  -0.3400 
  5 C        1.8650     1.0150    -1.2650 C.ar  1 <1>  -0.1440 
  6 C        2.4280     2.2520    -0.9750 C.ar  1 <1>  -0.1500 
  7 C        2.0520    -0.0280    -0.3600 C.ar  1 <1>  -0.1500 
  8 C        3.1520     2.4610     0.1900 C.ar  1 <1>   0.1170 
  9 C        2.7830     0.1670     0.7990 C.ar  1 <1>  -0.1500 
 10 N        3.6790     3.7220     0.4710 N.am  1 <1>  -0.5470 
 11 C        3.3300     1.4060     1.0730 C.ar  1 <1>  -0.1500 
 12 C        3.1950     4.6850     1.3000 C.2   1 <1>   0.5690 
 13 O        3.7680     5.7400     1.3940 O.2   1 <1>  -0.5700 
 14 C        1.9480     4.4620     2.1290 C.3   1 <1>  -0.0990 
 15 C        0.7980     5.3610     1.6700 C.3   1 <1>   0.2610 
 16 O       -0.1950     5.2330     2.6700 O.3   1 <1>  -0.5600 
 17 C        0.2840     5.0260     0.2440 C.2   1 <1>   0.5690 
 18 C       -1.4640     5.6790     2.3030 C.3   1 <1>   0.1200 
 19 O        1.0530     5.0800    -0.6890 O.2   1 <1>  -0.5700 
 20 N       -1.0390     4.7100     0.0510 N.am  1 <1>  -0.6600 
 21 C       -2.0130     4.7980     1.1720 C.3   1 <1>   0.1400 
 22 C       -1.5590     4.2450    -1.2590 C.3   1 <1>   0.1400 
 23 C       -2.1910     5.4170    -2.0050 C.3   1 <1>  -0.2400 
 24 H        2.2980     3.0810    -1.6510 H     1 <1>   0.1500 
 25 H        1.6290    -1.0010    -0.5500 H     1 <1>   0.1500 
 26 H        2.9240    -0.6470     1.4900 H     1 <1>   0.1500 
 27 H        4.4310     4.0580    -0.1300 H     1 <1>   0.3700 
 28 H        3.8970     1.5610     1.9740 H     1 <1>   0.1500 
 29 H        2.1910     4.6990     3.1480 H     1 <1>   0.0800 
 30 H        1.6330     3.4380     2.0850 H     1 <1>   0.0800 
 31 H        1.1230     6.3860     1.6740 H     1 <1>   0.0800 
 32 H       -1.3980     6.7090     1.9940 H     1 <1>   0.0800 
 33 H       -2.1000     5.6150     3.1680 H     1 <1>   0.0800 
 34 H       -2.9390     5.2150     0.8190 H     1 <1>   0.0800 
 35 H       -2.2090     3.8100     1.5500 H     1 <1>   0.0800 
 36 H       -2.2810     3.4620    -1.1060 H     1 <1>   0.0800 
 37 H       -0.7510     3.8420    -1.8470 H     1 <1>   0.0800 
 38 H       -3.0280     5.8140    -1.4600 H     1 <1>   0.0800 
 39 H       -2.5360     5.0860    -2.9670 H     1 <1>   0.0800 
 40 H       -1.4590     6.1910    -2.1550 H     1 <1>   0.0800 
@<TRIPOS>BOND
  1   1   2  1   
  2   2   3  1   
  3   2   4  1   
  4   2   5  1   
  5   5   6  ar  
  6   5   7  ar  
  7   6   8  ar  
  8   6  24  1   
  9   7   9  ar  
 10   7  25  1   
 11   8  10  1   
 12   8  11  ar  
 13   9  11  ar  
 14   9  26  1   
 15  10  12  am  
 16  10  27  1   
 17  11  28  1   
 18  12  13  2   
 19  12  14  1   
 20  14  15  1   
 21  14  29  1   
 22  14  30  1   
 23  15  16  1   
 24  15  17  1   
 25  15  31  1   
 26  16  18  1   
 27  17  19  2   
 28  17  20  am  
 29  18  21  1   
 30  18  32  1   
 31  18  33  1   
 32  20  21  1   
 33  20  22  1   
 34  21  34  1   
 35  21  35  1   
 36  22  23  1   
 37  22  36  1   
 38  22  37  1   
 39  23  38  1   
 40  23  39  1   
 41  23  40  1   
@<TRIPOS>SUBSTRUCTURE
  1 ****   6 GROUP 4 **** **** 0

# MOE 2024.06 (io_trps.svl 2023.06)
