@<TRIPOS>MOLECULE
NONAME
47 48 1 0 0 
SMALL
USER_CHARGES


@<TRIPOS>ATOM
  1 BR       3.0550     3.1370    -2.5220 Br    1 <1>  -0.1110 
  2 C        1.6840     3.1090    -1.1640 C.ar  1 <1>   0.1110 
  3 C        1.9280     2.4720     0.0450 C.ar  1 <1>   0.0830 
  4 C        0.4880     3.7450    -1.4370 C.ar  1 <1>  -0.1500 
  5 O        3.1320     1.8760     0.2390 O.3   1 <1>  -0.3630 
  6 C        0.9210     2.4770     1.0040 C.ar  1 <1>  -0.1500 
  7 C       -0.5080     3.7500    -0.4730 C.ar  1 <1>  -0.1430 
  8 C        3.6620     1.7480     1.5500 C.3   1 <1>   0.1810 
  9 C       -0.2840     3.1130     0.7410 C.ar  1 <1>  -0.1500 
 10 C       -1.8350     4.4390    -0.7460 C.3   1 <1>  -0.0160 
 11 C        5.1340     1.3380     1.5260 C.2   1 <1>   0.5690 
 12 C       -2.8250     3.4610    -1.3820 C.3   1 <1>  -0.2400 
 13 O        5.4370     0.3670     2.1820 O.2   1 <1>  -0.5700 
 14 N        6.0830     2.0480     0.8250 N.am  1 <1>  -0.6600 
 15 C        7.4970     1.5670     0.7290 C.3   1 <1>   0.1400 
 16 C        5.8170     3.2870     0.0220 C.3   1 <1>   0.1400 
 17 C        8.4900     2.6820     1.0890 C.3   1 <1>   0.1400 
 18 C        6.8190     4.4020     0.3620 C.3   1 <1>   0.1400 
 19 N        8.2230     3.9080     0.2790 N.am  1 <1>  -0.6600 
 20 C        9.1470     4.4870    -0.5490 C.2   1 <1>   0.7800 
 21 O        8.8940     5.4630    -1.2300 O.2   1 <1>  -0.5700 
 22 O       10.3640     3.9440    -0.5990 O.3   1 <1>  -0.4300 
 23 C       11.3620     4.4860    -1.4320 C.3   1 <1>   0.1200 
 24 C       12.6230     3.6440    -1.2690 C.3   1 <1>  -0.2400 
 25 H        0.3440     4.2250    -2.3880 H     1 <1>   0.1500 
 26 H        1.0500     1.9860     1.9500 H     1 <1>   0.1500 
 27 H        3.0960     0.9960     2.0670 H     1 <1>   0.0800 
 28 H        3.5630     2.6900     2.0540 H     1 <1>   0.0800 
 29 H       -1.0570     3.1070     1.4900 H     1 <1>   0.1500 
 30 H       -1.6820     5.2760    -1.4050 H     1 <1>   0.0800 
 31 H       -2.2450     4.8200     0.1730 H     1 <1>   0.0800 
 32 H       -2.4340     3.0890    -2.3130 H     1 <1>   0.0800 
 33 H       -3.7620     3.9540    -1.5730 H     1 <1>   0.0800 
 34 H       -3.0000     2.6280    -0.7250 H     1 <1>   0.0800 
 35 H        7.6870     1.2370    -0.2770 H     1 <1>   0.0800 
 36 H        7.6600     0.7290     1.3840 H     1 <1>   0.0800 
 37 H        4.8260     3.6590     0.1970 H     1 <1>   0.0800 
 38 H        5.8970     3.0490    -1.0250 H     1 <1>   0.0800 
 39 H        9.4920     2.3250     0.9290 H     1 <1>   0.0800 
 40 H        8.3890     2.9200     2.1330 H     1 <1>   0.0800 
 41 H        6.6310     4.7550     1.3610 H     1 <1>   0.0800 
 42 H        6.6680     5.2280    -0.3110 H     1 <1>   0.0800 
 43 H       11.5360     5.5060    -1.1350 H     1 <1>   0.0800 
 44 H       11.0080     4.4600    -2.4500 H     1 <1>   0.0800 
 45 H       12.9570     3.6710    -0.2470 H     1 <1>   0.0800 
 46 H       13.4040     4.0360    -1.8950 H     1 <1>   0.0800 
 47 H       12.4300     2.6260    -1.5590 H     1 <1>   0.0800 
@<TRIPOS>BOND
  1   1   2  1   
  2   2   3  ar  
  3   2   4  ar  
  4   3   5  1   
  5   3   6  ar  
  6   4   7  ar  
  7   4  25  1   
  8   5   8  1   
  9   6   9  ar  
 10   6  26  1   
 11   7   9  ar  
 12   7  10  1   
 13   8  11  1   
 14   8  27  1   
 15   8  28  1   
 16   9  29  1   
 17  10  12  1   
 18  10  30  1   
 19  10  31  1   
 20  11  13  2   
 21  11  14  am  
 22  12  32  1   
 23  12  33  1   
 24  12  34  1   
 25  14  15  1   
 26  14  16  1   
 27  15  17  1   
 28  15  35  1   
 29  15  36  1   
 30  16  18  1   
 31  16  37  1   
 32  16  38  1   
 33  17  19  1   
 34  17  39  1   
 35  17  40  1   
 36  18  19  1   
 37  18  41  1   
 38  18  42  1   
 39  19  20  am  
 40  20  21  2   
 41  20  22  1   
 42  22  23  1   
 43  23  24  1   
 44  23  43  1   
 45  23  44  1   
 46  24  45  1   
 47  24  46  1   
 48  24  47  1   
@<TRIPOS>SUBSTRUCTURE
  1 ****  16 GROUP 4 **** **** 0

# MOE 2024.06 (io_trps.svl 2023.06)
