@<TRIPOS>MOLECULE
NONAME
35 36 1 0 0 
SMALL
USER_CHARGES


@<TRIPOS>ATOM
  1 O       -1.2370    -0.2700    -2.1840 O.2   1 <1>  -0.5700 
  2 C       -1.8220    -0.7080    -1.2190 C.2   1 <1>   0.6340 
  3 O       -1.2280    -1.7050    -0.5550 O.3   1 <1>  -0.4300 
  4 C       -3.0880    -0.1680    -0.7700 C.ar  1 <1>   0.0860 
  5 C       -1.3840    -1.9090     0.8340 C.3   1 <1>   0.0400 
  6 C       -4.1680    -0.9850    -0.4310 C.ar  1 <1>  -0.1500 
  7 C       -3.2810     1.2100    -0.6710 C.ar  1 <1>  -0.1500 
  8 C       -5.3640    -0.4540     0.0130 C.ar  1 <1>  -0.1500 
  9 C       -4.4760     1.7430    -0.2290 C.ar  1 <1>  -0.1500 
 10 C       -5.5380     0.9220     0.1310 C.ar  1 <1>   0.1170 
 11 N       -6.7280     1.5070     0.5740 N.am  1 <1>  -0.5470 
 12 C       -7.7500     0.9970     1.3290 C.2   1 <1>   0.5690 
 13 O       -7.7490    -0.1130     1.7970 O.2   1 <1>  -0.5700 
 14 C       -8.9380     1.8950     1.6060 C.3   1 <1>  -0.0990 
 15 C       -9.6570     2.3080     0.3140 C.3   1 <1>   0.0000 
 16 C      -11.0560     2.9480     0.5160 C.3   1 <1>   0.0000 
 17 C      -10.3730     1.1570    -0.4410 C.3   1 <1>   0.0000 
 18 C      -11.5040     2.1720    -0.7510 C.3   1 <1>   0.0000 
 19 H       -0.6020    -2.5700     1.1640 H     1 <1>   0.0800 
 20 H       -2.3410    -2.3600     1.0260 H     1 <1>   0.0800 
 21 H       -1.3000    -0.9640     1.3430 H     1 <1>   0.0800 
 22 H       -4.0690    -2.0530    -0.5240 H     1 <1>   0.1500 
 23 H       -2.4720     1.8650    -0.9500 H     1 <1>   0.1500 
 24 H       -6.1710    -1.1190     0.2620 H     1 <1>   0.1500 
 25 H       -4.5840     2.8110    -0.1610 H     1 <1>   0.1500 
 26 H       -6.8520     2.4790     0.3000 H     1 <1>   0.3700 
 27 H       -8.6020     2.7690     2.1310 H     1 <1>   0.0800 
 28 H       -9.6210     1.3680     2.2500 H     1 <1>   0.0800 
 29 H       -9.0420     2.8990    -0.3450 H     1 <1>   0.0000 
 30 H      -11.0670     4.0170     0.3980 H     1 <1>   0.0000 
 31 H      -11.5590     2.6060     1.4050 H     1 <1>   0.0000 
 32 H      -10.7000     0.3610     0.2060 H     1 <1>   0.0000 
 33 H       -9.8440     0.8140    -1.3130 H     1 <1>   0.0000 
 34 H      -11.3290     2.7240    -1.6590 H     1 <1>   0.0000 
 35 H      -12.4930     1.7570    -0.6810 H     1 <1>   0.0000 
@<TRIPOS>BOND
  1   1   2  2   
  2   2   3  1   
  3   2   4  1   
  4   3   5  1   
  5   4   6  ar  
  6   4   7  ar  
  7   5  19  1   
  8   5  20  1   
  9   5  21  1   
 10   6   8  ar  
 11   6  22  1   
 12   7   9  ar  
 13   7  23  1   
 14   8  10  ar  
 15   8  24  1   
 16   9  10  ar  
 17   9  25  1   
 18  10  11  1   
 19  11  12  am  
 20  11  26  1   
 21  12  13  2   
 22  12  14  1   
 23  14  15  1   
 24  14  27  1   
 25  14  28  1   
 26  15  16  1   
 27  15  17  1   
 28  15  29  1   
 29  16  18  1   
 30  16  30  1   
 31  16  31  1   
 32  17  18  1   
 33  17  32  1   
 34  17  33  1   
 35  18  34  1   
 36  18  35  1   
@<TRIPOS>SUBSTRUCTURE
  1 ****  10 GROUP 4 **** **** 0

# MOE 2024.06 (io_trps.svl 2023.06)
