@<TRIPOS>MOLECULE
NONAME
41 42 1 0 0 
SMALL
USER_CHARGES


@<TRIPOS>ATOM
  1 S       -0.2840    -0.1740     0.0320 S.3   1 <1>  -0.0800 
  2 C       -1.6450     0.8570    -0.2640 C.2   1 <1>   0.4420 
  3 C        0.7240     1.2210    -0.1510 C.2   1 <1>   0.1980 
  4 N       -1.2960     2.0750    -0.4600 N.2   1 <1>  -0.3380 
  5 N       -2.8900     0.2600    -0.2360 N.am  1 <1>  -0.4940 
  6 N        0.0560     2.2750    -0.3940 N.2   1 <1>  -0.3380 
  7 C        2.2240     1.0220    -0.0030 C.3   1 <1>   0.0200 
  8 C       -4.1090     0.8060    -0.5350 C.2   1 <1>   0.5690 
  9 C        3.0210     2.3220    -0.1800 C.3   1 <1>  -0.2400 
 10 O       -4.2340     1.9130    -0.9980 O.2   1 <1>  -0.5700 
 11 C       -5.3610    -0.0530    -0.2610 C.3   1 <1>   0.1710 
 12 N       -6.6470     0.6920    -0.1250 N.3   1 <1>  -0.8100 
 13 C       -7.8440    -0.1750    -0.0620 C.3   1 <1>   0.1100 
 14 C       -6.6480     1.6830     0.9810 C.3   1 <1>   0.1100 
 15 C       -9.1540     0.6560    -0.0080 C.3   1 <1>   0.3430 
 16 C       -7.9230     2.5610     0.9650 C.3   1 <1>   0.3430 
 17 N       -8.8690     2.1250    -0.1190 N.4   1 <1>  -0.9590 
 18 C      -10.0910     2.9530    -0.2560 C.3   1 <1>   0.3430 
 19 C       -9.7160     4.3450    -0.7530 C.3   1 <1>  -0.2400 
 20 H       -2.8750    -0.7160     0.0400 H     1 <1>   0.3700 
 21 H        2.5510     0.3060    -0.7350 H     1 <1>   0.0800 
 22 H        2.4240     0.6170     0.9730 H     1 <1>   0.0800 
 23 H        2.8450     2.7340    -1.1590 H     1 <1>   0.0800 
 24 H        4.0730     2.1330    -0.0680 H     1 <1>   0.0800 
 25 H        2.7180     3.0470     0.5550 H     1 <1>   0.0800 
 26 H       -5.1960    -0.6250     0.6340 H     1 <1>   0.0800 
 27 H       -5.4540    -0.7410    -1.0820 H     1 <1>   0.0800 
 28 H       -7.7920    -0.8150     0.8030 H     1 <1>   0.0800 
 29 H       -7.8720    -0.8060    -0.9340 H     1 <1>   0.0800 
 30 H       -5.7960     2.3360     0.8970 H     1 <1>   0.0800 
 31 H       -6.5730     1.1770     1.9290 H     1 <1>   0.0800 
 32 H       -9.6660     0.4500     0.9180 H     1 <1>   0.0800 
 33 H       -9.7970     0.3430    -0.8150 H     1 <1>   0.0800 
 34 H       -7.6280     3.5840     0.8030 H     1 <1>   0.0800 
 35 H       -8.4070     2.5060     1.9260 H     1 <1>   0.0800 
 36 H       -8.2930     2.2010    -0.9750 H     1 <1>   0.4500 
 37 H      -10.6030     3.0220     0.6910 H     1 <1>   0.0800 
 38 H      -10.7580     2.4970    -0.9700 H     1 <1>   0.0800 
 39 H       -9.1360     4.8800    -0.0240 H     1 <1>   0.0800 
 40 H      -10.6150     4.9080    -0.9320 H     1 <1>   0.0800 
 41 H       -9.1710     4.2860    -1.6780 H     1 <1>   0.0800 
@<TRIPOS>BOND
  1   1   2  1   
  2   1   3  1   
  3   2   4  2   
  4   2   5  1   
  5   3   6  2   
  6   3   7  1   
  7   4   6  1   
  8   5   8  am  
  9   5  20  1   
 10   7   9  1   
 11   7  21  1   
 12   7  22  1   
 13   8  10  2   
 14   8  11  1   
 15   9  23  1   
 16   9  24  1   
 17   9  25  1   
 18  11  12  1   
 19  11  26  1   
 20  11  27  1   
 21  12  13  1   
 22  12  14  1   
 23  13  15  1   
 24  13  28  1   
 25  13  29  1   
 26  14  16  1   
 27  14  30  1   
 28  14  31  1   
 29  15  17  1   
 30  15  32  1   
 31  15  33  1   
 32  16  17  1   
 33  16  34  1   
 34  16  35  1   
 35  17  18  1   
 36  17  36  1   
 37  18  19  1   
 38  18  37  1   
 39  18  38  1   
 40  19  39  1   
 41  19  40  1   
 42  19  41  1   
@<TRIPOS>SUBSTRUCTURE
  1 ****   8 GROUP 4 **** **** 0

# MOE 2024.06 (io_trps.svl 2023.06)
