@<TRIPOS>MOLECULE
NONAME
48 50 1 0 0 
SMALL
USER_CHARGES


@<TRIPOS>ATOM
  1 BR       1.7320    -1.9520    -2.3420 Br    1 <1>  -0.1110 
  2 C        0.4510    -2.7770    -1.1580 C.ar  1 <1>   0.1110 
  3 C        0.5850    -2.6480     0.2150 C.ar  1 <1>   0.0820 
  4 C       -0.5890    -3.4860    -1.7280 C.ar  1 <1>  -0.1500 
  5 O        1.6000    -1.9490     0.7620 O.3   1 <1>  -0.5330 
  6 C       -0.3500    -3.2550     1.0480 C.ar  1 <1>   0.0820 
  7 C       -1.5320    -4.0820    -0.9010 C.ar  1 <1>  -0.1430 
  8 O       -0.1740    -3.1060     2.3920 O.3   1 <1>  -0.3630 
  9 C       -1.4050    -3.9700     0.4820 C.ar  1 <1>  -0.1500 
 10 C       -2.6990    -4.8380    -1.5090 C.3   1 <1>   0.4860 
 11 C       -0.9900    -3.7780     3.3270 C.3   1 <1>   0.0400 
 12 N       -3.9260    -4.0170    -1.3580 N.4   1 <1>  -0.9590 
 13 C       -5.1940    -4.7180    -1.7420 C.3   1 <1>   0.3430 
 14 C       -3.8550    -2.6570    -1.9930 C.3   1 <1>   0.3430 
 15 C       -6.4270    -3.8610    -1.3670 C.3   1 <1>   0.1100 
 16 C       -5.1160    -1.8220    -1.6540 C.3   1 <1>   0.1100 
 17 N       -6.0450    -2.5560    -0.7650 N.3   1 <1>  -0.8100 
 18 C       -7.2250    -1.7400    -0.4100 C.3   1 <1>   0.2530 
 19 C       -8.0840    -2.4650     0.6150 C.ar  1 <1>  -0.1430 
 20 C       -7.5850    -2.7200     1.8840 C.ar  1 <1>  -0.1500 
 21 C       -9.3680    -2.8810     0.2940 C.ar  1 <1>  -0.1500 
 22 C       -8.3580    -3.3850     2.8200 C.ar  1 <1>  -0.1500 
 23 C      -10.1410    -3.5480     1.2290 C.ar  1 <1>  -0.1500 
 24 C       -9.6360    -3.8000     2.4920 C.ar  1 <1>  -0.1500 
 25 H       -0.6410    -3.5570    -2.8000 H     1 <1>   0.1500 
 26 H        1.5420    -1.9790     1.7380 H     1 <1>   0.4500 
 27 H       -2.1320    -4.4420     1.1160 H     1 <1>   0.1500 
 28 H       -2.8190    -5.7810    -1.0000 H     1 <1>   0.0800 
 29 H       -2.5080    -5.0340    -2.5520 H     1 <1>   0.0800 
 30 H       -0.6290    -3.5460     4.3130 H     1 <1>   0.0800 
 31 H       -0.9210    -4.8380     3.1570 H     1 <1>   0.0800 
 32 H       -2.0030    -3.4320     3.2230 H     1 <1>   0.0800 
 33 H       -4.0630    -3.7940    -0.3610 H     1 <1>   0.4500 
 34 H       -5.2630    -5.6650    -1.2330 H     1 <1>   0.0800 
 35 H       -5.2050    -4.9110    -2.8020 H     1 <1>   0.0800 
 36 H       -3.7640    -2.7490    -3.0630 H     1 <1>   0.0800 
 37 H       -2.9860    -2.1290    -1.6340 H     1 <1>   0.0800 
 38 H       -7.0240    -4.4220    -0.6660 H     1 <1>   0.0800 
 39 H       -7.0300    -3.7000    -2.2440 H     1 <1>   0.0800 
 40 H       -5.6180    -1.5510    -2.5680 H     1 <1>   0.0800 
 41 H       -4.8050    -0.9090    -1.1730 H     1 <1>   0.0800 
 42 H       -7.8030    -1.5220    -1.2920 H     1 <1>   0.0800 
 43 H       -6.9010    -0.8060     0.0170 H     1 <1>   0.0800 
 44 H       -6.5920    -2.3990     2.1430 H     1 <1>   0.1500 
 45 H       -9.7760    -2.6890    -0.6830 H     1 <1>   0.1500 
 46 H       -7.9660    -3.5780     3.8040 H     1 <1>   0.1500 
 47 H      -11.1370    -3.8680     0.9760 H     1 <1>   0.1500 
 48 H      -10.2380    -4.3170     3.2200 H     1 <1>   0.1500 
@<TRIPOS>BOND
  1   1   2  1   
  2   2   3  ar  
  3   2   4  ar  
  4   3   5  1   
  5   3   6  ar  
  6   4   7  ar  
  7   4  25  1   
  8   5  26  1   
  9   6   8  1   
 10   6   9  ar  
 11   7   9  ar  
 12   7  10  1   
 13   8  11  1   
 14   9  27  1   
 15  10  12  1   
 16  10  28  1   
 17  10  29  1   
 18  11  30  1   
 19  11  31  1   
 20  11  32  1   
 21  12  13  1   
 22  12  14  1   
 23  12  33  1   
 24  13  15  1   
 25  13  34  1   
 26  13  35  1   
 27  14  16  1   
 28  14  36  1   
 29  14  37  1   
 30  15  17  1   
 31  15  38  1   
 32  15  39  1   
 33  16  17  1   
 34  16  40  1   
 35  16  41  1   
 36  17  18  1   
 37  18  19  1   
 38  18  42  1   
 39  18  43  1   
 40  19  20  ar  
 41  19  21  ar  
 42  20  22  ar  
 43  20  44  1   
 44  21  23  ar  
 45  21  45  1   
 46  22  24  ar  
 47  22  46  1   
 48  23  24  ar  
 49  23  47  1   
 50  24  48  1   
@<TRIPOS>SUBSTRUCTURE
  1 ****  12 GROUP 4 **** **** 0

# MOE 2024.06 (io_trps.svl 2023.06)
