@<TRIPOS>MOLECULE
NONAME
39 41 1 0 0 
SMALL
USER_CHARGES


@<TRIPOS>ATOM
  1 CL       0.5550     1.1870     0.9800 Cl    1 <1>  -0.1770 
  2 C        0.6090     2.9090     0.7010 C.ar  1 <1>   0.1770 
  3 C       -0.0740     3.4420    -0.3760 C.ar  1 <1>  -0.1500 
  4 C        1.3330     3.7120     1.5610 C.ar  1 <1>  -0.1500 
  5 C       -0.0290     4.8090    -0.5940 C.ar  1 <1>  -0.1500 
  6 C        1.3730     5.0780     1.3370 C.ar  1 <1>  -0.1500 
  7 C        0.6930     5.6300     0.2610 C.ar  1 <1>  -0.1440 
  8 C        0.7330     7.1320     0.0210 C.3   1 <1>  -0.0160 
  9 C       -0.5320     7.7920     0.5700 C.3   1 <1>   0.1400 
 10 N       -0.4400     9.2460     0.3570 N.am  1 <1>  -0.7300 
 11 C       -0.9700     9.9120    -0.6960 C.2   1 <1>   0.5690 
 12 O       -1.8330     9.4170    -1.3850 O.2   1 <1>  -0.5700 
 13 C       -0.5100    11.3360    -1.0250 C.3   1 <1>  -0.0190 
 14 C        1.1450    11.7220    -0.8920 C.3   1 <1>  -0.1860 
 15 C       -1.3340    12.4640    -0.1470 C.3   1 <1>   0.0580 
 16 C        2.0410    10.5870    -0.4220 C.2   1 <1>   0.9060 
 17 C        1.2460    13.0760     0.0520 C.3   1 <1>   0.0580 
 18 C       -1.0780    13.8710     0.6230 C.2   1 <1>  -0.2880 
 19 C       -0.0330    12.7280    -0.0530 C.3   1 <1>  -0.1600 
 20 O        2.0560    10.2890     0.7790 O.co2 1 <1>  -0.9000 
 21 O        2.6820     9.9490    -1.2580 O.co2 1 <1>  -0.9000 
 22 C        0.2770    14.1930     0.7280 C.2   1 <1>  -0.2880 
 23 H       -0.6290     2.7980    -1.0320 H     1 <1>   0.1500 
 24 H        1.8570     3.2750     2.3910 H     1 <1>   0.1500 
 25 H       -0.5550     5.2380    -1.4310 H     1 <1>   0.1500 
 26 H        1.9360     5.7150     1.9990 H     1 <1>   0.1500 
 27 H        0.8140     7.3310    -1.0330 H     1 <1>   0.0800 
 28 H        1.5990     7.5600     0.4980 H     1 <1>   0.0800 
 29 H       -0.6220     7.5950     1.6230 H     1 <1>   0.0800 
 30 H       -1.4010     7.4010     0.0680 H     1 <1>   0.0800 
 31 H        0.4240     9.6550     0.7740 H     1 <1>   0.3700 
 32 H       -0.7740    11.4730    -2.0630 H     1 <1>   0.0800 
 33 H        1.5090    11.9710    -1.8750 H     1 <1>   0.0800 
 34 H       -1.8290    11.8780     0.6160 H     1 <1>   0.0800 
 35 H        1.8420    12.7620     0.8990 H     1 <1>   0.0800 
 36 H       -1.9320    14.4220     0.9820 H     1 <1>   0.1500 
 37 H        0.0510    12.0750     0.9110 H     1 <1>   0.0800 
 38 H       -0.0960    13.3530    -1.0960 H     1 <1>   0.0800 
 39 H        0.7350    15.0520     1.1880 H     1 <1>   0.1500 
@<TRIPOS>BOND
  1   1   2  1   
  2   2   3  ar  
  3   2   4  ar  
  4   3   5  ar  
  5   3  23  1   
  6   4   6  ar  
  7   4  24  1   
  8   5   7  ar  
  9   5  25  1   
 10   6   7  ar  
 11   6  26  1   
 12   7   8  1   
 13   8   9  1   
 14   8  27  1   
 15   8  28  1   
 16   9  10  1   
 17   9  29  1   
 18   9  30  1   
 19  10  11  am  
 20  10  31  1   
 21  11  12  2   
 22  11  13  1   
 23  13  14  1   
 24  13  15  1   
 25  13  32  1   
 26  14  16  1   
 27  14  17  1   
 28  14  33  1   
 29  15  18  1   
 30  15  19  1   
 31  15  34  1   
 32  16  20  ar  
 33  16  21  ar  
 34  17  19  1   
 35  17  22  1   
 36  17  35  1   
 37  18  22  2   
 38  18  36  1   
 39  19  37  1   
 40  19  38  1   
 41  22  39  1   
@<TRIPOS>SUBSTRUCTURE
  1 ****  10 GROUP 4 **** **** 0

# MOE 2024.06 (io_trps.svl 2023.06)
