@<TRIPOS>MOLECULE
NONAME
55 57 1 0 0 
SMALL
USER_CHARGES


@<TRIPOS>ATOM
  1 O       -1.3330     0.6500    -0.4120 O.2   1 <1>  -0.5700 
  2 C       -2.3520     1.0770     0.0880 C.2   1 <1>   0.5690 
  3 N       -3.5420     0.4040    -0.0780 N.am  1 <1>  -0.6600 
  4 C       -2.2790     2.3790     0.9320 C.3   1 <1>   0.2610 
  5 C       -4.8640     0.8520     0.4590 C.3   1 <1>   0.1400 
  6 C       -3.6370    -0.8250    -0.9210 C.3   1 <1>   0.1400 
  7 O       -3.1120     3.3790     0.4050 O.3   1 <1>  -0.5600 
  8 C       -0.9140     3.0680     0.9770 C.3   1 <1>  -0.1600 
  9 C       -5.6070    -0.3110     1.1410 C.3   1 <1>   0.1100 
 10 C       -4.4090    -1.9380    -0.1920 C.3   1 <1>   0.1100 
 11 C       -2.4320     4.0870    -0.5830 C.3   1 <1>   0.1200 
 12 C       -0.9500     3.9990    -0.2250 C.3   1 <1>  -0.1600 
 13 N       -5.7470    -1.4810     0.2420 N.3   1 <1>  -0.8100 
 14 C       -6.4890    -2.5890     0.9200 C.3   1 <1>   0.1710 
 15 C       -7.9930    -2.3390     1.0420 C.2   1 <1>   0.5690 
 16 O       -8.6160    -2.9110     1.9040 O.2   1 <1>  -0.5700 
 17 N       -8.5300    -1.4590     0.1450 N.am  1 <1>  -0.5470 
 18 C       -9.8250    -0.9640    -0.0660 C.ar  1 <1>   0.1170 
 19 C       -9.9950     0.0810    -0.9650 C.ar  1 <1>  -0.1500 
 20 C      -10.9510    -1.4660     0.5750 C.ar  1 <1>  -0.1500 
 21 C      -11.2480     0.6110    -1.2150 C.ar  1 <1>  -0.1500 
 22 C      -12.2050    -0.9380     0.3270 C.ar  1 <1>  -0.1500 
 23 C      -12.3690     0.1070    -0.5700 C.ar  1 <1>  -0.1440 
 24 C      -13.7610     0.6770    -0.8320 C.3   1 <1>   0.0630 
 25 C      -14.1610     0.4930    -2.2990 C.3   1 <1>  -0.2400 
 26 C      -13.8320     2.1540    -0.4290 C.3   1 <1>  -0.2400 
 27 H       -2.6130     2.1570     1.9280 H     1 <1>   0.0800 
 28 H       -5.4620     1.2280    -0.3520 H     1 <1>   0.0800 
 29 H       -4.7440     1.6470     1.1720 H     1 <1>   0.0800 
 30 H       -2.6570    -1.1880    -1.1750 H     1 <1>   0.0800 
 31 H       -4.1460    -0.5840    -1.8380 H     1 <1>   0.0800 
 32 H       -0.0910     2.3750     0.9440 H     1 <1>   0.0800 
 33 H       -0.8460     3.6420     1.8840 H     1 <1>   0.0800 
 34 H       -6.5800     0.0360     1.4440 H     1 <1>   0.0800 
 35 H       -5.0670    -0.5930     2.0290 H     1 <1>   0.0800 
 36 H       -3.8340    -2.2610     0.6590 H     1 <1>   0.0800 
 37 H       -4.5150    -2.7750    -0.8610 H     1 <1>   0.0800 
 38 H       -2.7920     5.1010    -0.5890 H     1 <1>   0.0800 
 39 H       -2.6310     3.6170    -1.5310 H     1 <1>   0.0800 
 40 H       -0.4050     3.5790    -1.0530 H     1 <1>   0.0800 
 41 H       -0.5450     4.9680     0.0090 H     1 <1>   0.0800 
 42 H       -6.0830    -2.7610     1.9010 H     1 <1>   0.0800 
 43 H       -6.3700    -3.4950     0.3520 H     1 <1>   0.0800 
 44 H       -7.7960    -1.0580    -0.4460 H     1 <1>   0.3700 
 45 H       -9.1420     0.4860    -1.4760 H     1 <1>   0.1500 
 46 H      -10.8570    -2.2770     1.2740 H     1 <1>   0.1500 
 47 H      -11.3470     1.4200    -1.9160 H     1 <1>   0.1500 
 48 H      -13.0550    -1.3500     0.8410 H     1 <1>   0.1500 
 49 H      -14.4730     0.1390    -0.2280 H     1 <1>   0.0800 
 50 H      -13.5100     1.0520    -2.9470 H     1 <1>   0.0800 
 51 H      -15.1710     0.8270    -2.4550 H     1 <1>   0.0800 
 52 H      -14.0980    -0.5470    -2.5650 H     1 <1>   0.0800 
 53 H      -13.1740     2.7490    -1.0360 H     1 <1>   0.0800 
 54 H      -13.5410     2.2640     0.6010 H     1 <1>   0.0800 
 55 H      -14.8350     2.5240    -0.5440 H     1 <1>   0.0800 
@<TRIPOS>BOND
  1   1   2  2   
  2   2   3  am  
  3   2   4  1   
  4   3   5  1   
  5   3   6  1   
  6   4   7  1   
  7   4   8  1   
  8   4  27  1   
  9   5   9  1   
 10   5  28  1   
 11   5  29  1   
 12   6  10  1   
 13   6  30  1   
 14   6  31  1   
 15   7  11  1   
 16   8  12  1   
 17   8  32  1   
 18   8  33  1   
 19   9  13  1   
 20   9  34  1   
 21   9  35  1   
 22  10  13  1   
 23  10  36  1   
 24  10  37  1   
 25  11  12  1   
 26  11  38  1   
 27  11  39  1   
 28  12  40  1   
 29  12  41  1   
 30  13  14  1   
 31  14  15  1   
 32  14  42  1   
 33  14  43  1   
 34  15  16  2   
 35  15  17  am  
 36  17  18  1   
 37  17  44  1   
 38  18  19  ar  
 39  18  20  ar  
 40  19  21  ar  
 41  19  45  1   
 42  20  22  ar  
 43  20  46  1   
 44  21  23  ar  
 45  21  47  1   
 46  22  23  ar  
 47  22  48  1   
 48  23  24  1   
 49  24  25  1   
 50  24  26  1   
 51  24  49  1   
 52  25  50  1   
 53  25  51  1   
 54  25  52  1   
 55  26  53  1   
 56  26  54  1   
 57  26  55  1   
@<TRIPOS>SUBSTRUCTURE
  1 ****   9 GROUP 4 **** **** 0

# MOE 2024.06 (io_trps.svl 2023.06)
