@<TRIPOS>MOLECULE
NONAME
60 63 1 0 0 
SMALL
USER_CHARGES


@<TRIPOS>ATOM
  1 O       -9.1310     2.8060     1.4670 O.2   1 <1>  -0.5700 
  2 C       -9.3610     2.0890     0.5260 C.2   1 <1>   0.5690 
  3 N       -8.4170     1.2250     0.0130 N.am  1 <1>  -0.4200 
  4 C      -10.7340     2.1750    -0.1170 C.3   1 <1>  -0.0990 
  5 C       -8.6280     0.4620    -1.1160 C.2   1 <1>   0.5690 
  6 C       -7.1130     1.1030     0.7190 C.3   1 <1>   0.1400 
  7 C      -11.1170     0.8830    -0.8690 C.3   1 <1>   0.0000 
  8 O       -7.7690    -0.2420    -1.5860 O.2   1 <1>  -0.5700 
  9 C       -9.9680     0.5220    -1.8250 C.3   1 <1>  -0.0990 
 10 C       -6.1290     2.1390     0.1630 C.3   1 <1>  -0.1600 
 11 C      -12.4450     1.0600    -1.6120 C.3   1 <1>  -0.1600 
 12 C      -11.4370    -0.2530     0.1150 C.3   1 <1>  -0.1600 
 13 C       -4.7650     2.0460     0.8580 C.3   1 <1>  -0.1600 
 14 C      -13.5380     0.8110    -0.5700 C.3   1 <1>  -0.1600 
 15 C      -12.8990    -0.0520     0.5230 C.3   1 <1>  -0.1600 
 16 C       -3.8130     3.1070     0.3040 C.3   1 <1>   0.3430 
 17 N       -2.5180     3.0770     1.0340 N.4   1 <1>  -0.9590 
 18 C       -1.7340     4.3420     0.7570 C.3   1 <1>   0.3430 
 19 C       -1.6980     1.8490     0.6880 C.3   1 <1>   0.3430 
 20 C       -0.3530     4.3420     1.4430 C.3   1 <1>   0.2090 
 21 C       -0.3040     1.8470     1.3510 C.3   1 <1>   0.2090 
 22 N        0.4050     3.1210     1.0420 N.pl3 1 <1>  -0.8380 
 23 C        1.2510     3.1540    -0.0420 C.ar  1 <1>   0.7200 
 24 N        2.1470     2.1780    -0.1220 N.ar  1 <1>  -0.6200 
 25 N        1.0600     4.1340    -0.9230 N.ar  1 <1>  -0.6200 
 26 C        2.9550     2.2220    -1.1530 C.ar  1 <1>   0.1600 
 27 C        1.8830     4.1510    -1.9450 C.ar  1 <1>   0.1600 
 28 C        2.8660     3.2050    -2.1080 C.ar  1 <1>  -0.1500 
 29 H      -10.7190     3.0040    -0.8000 H     1 <1>   0.0800 
 30 H      -11.4570     2.3980     0.6460 H     1 <1>   0.0800 
 31 H       -6.7210     0.1080     0.5870 H     1 <1>   0.0800 
 32 H       -7.2580     1.2550     1.7750 H     1 <1>   0.0800 
 33 H      -10.1570    -0.4280    -2.2920 H     1 <1>   0.0800 
 34 H       -9.8970     1.2590    -2.6030 H     1 <1>   0.0800 
 35 H       -6.5440     3.1230     0.3110 H     1 <1>   0.0800 
 36 H       -6.0080     1.9700    -0.8940 H     1 <1>   0.0800 
 37 H      -12.5310     0.3080    -2.3790 H     1 <1>   0.0800 
 38 H      -12.5430     2.0280    -2.0720 H     1 <1>   0.0800 
 39 H      -10.7860    -0.2720     0.9720 H     1 <1>   0.0800 
 40 H      -11.3560    -1.2020    -0.3890 H     1 <1>   0.0800 
 41 H       -4.3650     1.0610     0.6950 H     1 <1>   0.0800 
 42 H       -4.9020     2.2000     1.9150 H     1 <1>   0.0800 
 43 H      -14.3880     0.3200    -1.0130 H     1 <1>   0.0800 
 44 H      -13.8620     1.7470    -0.1470 H     1 <1>   0.0800 
 45 H      -12.9520     0.4620     1.4680 H     1 <1>   0.0800 
 46 H      -13.4020    -0.9990     0.6190 H     1 <1>   0.0800 
 47 H       -4.2720     4.0760     0.4220 H     1 <1>   0.0800 
 48 H       -3.6490     2.9410    -0.7500 H     1 <1>   0.0800 
 49 H       -2.7130     3.0520     2.0430 H     1 <1>   0.4500 
 50 H       -2.2910     5.2020     1.0910 H     1 <1>   0.0800 
 51 H       -1.5730     4.4440    -0.3040 H     1 <1>   0.0800 
 52 H       -1.5530     1.8060    -0.3790 H     1 <1>   0.0800 
 53 H       -2.2240     0.9580     0.9850 H     1 <1>   0.0800 
 54 H       -0.4690     4.3570     2.5120 H     1 <1>   0.0800 
 55 H        0.1930     5.2290     1.1670 H     1 <1>   0.0800 
 56 H        0.2580     1.0010     0.9930 H     1 <1>   0.0800 
 57 H       -0.3990     1.7410     2.4180 H     1 <1>   0.0800 
 58 H        3.7070     1.4550    -1.2400 H     1 <1>   0.1500 
 59 H        1.7750     4.9390    -2.6720 H     1 <1>   0.1500 
 60 H        3.5360     3.2320    -2.9470 H     1 <1>   0.1500 
@<TRIPOS>BOND
  1   1   2  2   
  2   2   3  am  
  3   2   4  1   
  4   3   5  am  
  5   3   6  1   
  6   4   7  1   
  7   4  29  1   
  8   4  30  1   
  9   5   8  2   
 10   5   9  1   
 11   6  10  1   
 12   6  31  1   
 13   6  32  1   
 14   7   9  1   
 15   7  11  1   
 16   7  12  1   
 17   9  33  1   
 18   9  34  1   
 19  10  13  1   
 20  10  35  1   
 21  10  36  1   
 22  11  14  1   
 23  11  37  1   
 24  11  38  1   
 25  12  15  1   
 26  12  39  1   
 27  12  40  1   
 28  13  16  1   
 29  13  41  1   
 30  13  42  1   
 31  14  15  1   
 32  14  43  1   
 33  14  44  1   
 34  15  45  1   
 35  15  46  1   
 36  16  17  1   
 37  16  47  1   
 38  16  48  1   
 39  17  18  1   
 40  17  19  1   
 41  17  49  1   
 42  18  20  1   
 43  18  50  1   
 44  18  51  1   
 45  19  21  1   
 46  19  52  1   
 47  19  53  1   
 48  20  22  1   
 49  20  54  1   
 50  20  55  1   
 51  21  22  1   
 52  21  56  1   
 53  21  57  1   
 54  22  23  1   
 55  23  24  ar  
 56  23  25  ar  
 57  24  26  ar  
 58  25  27  ar  
 59  26  28  ar  
 60  26  58  1   
 61  27  28  ar  
 62  27  59  1   
 63  28  60  1   
@<TRIPOS>SUBSTRUCTURE
  1 ****  13 GROUP 4 **** **** 0

# MOE 2024.06 (io_trps.svl 2023.06)
