@<TRIPOS>MOLECULE
NONAME
40 41 1 0 0 
SMALL
USER_CHARGES


@<TRIPOS>ATOM
  1 O        0.8450    -0.5800    -0.3220 O.2   1 <1>  -0.5700 
  2 C        0.9000    -1.3570     0.6120 C.2   1 <1>   0.6900 
  3 N        2.1060    -1.5740     1.2090 N.am  1 <1>  -0.6600 
  4 N       -0.1710    -2.0590     1.0700 N.am  1 <1>  -0.5470 
  5 C        2.8410    -2.8000     0.7940 C.3   1 <1>   0.1400 
  6 C        2.9980    -0.3920     1.3960 C.3   1 <1>   0.1400 
  7 C       -1.4920    -2.1620     0.6110 C.ar  1 <1>   0.1170 
  8 C        3.6460    -2.5240    -0.4960 C.3   1 <1>   0.3430 
  9 C        3.8080    -0.1170     0.1120 C.3   1 <1>   0.3430 
 10 C       -1.8840    -1.8090    -0.6770 C.ar  1 <1>  -0.1500 
 11 C       -2.4600    -2.6560     1.4780 C.ar  1 <1>  -0.1500 
 12 N        4.5660    -1.3360    -0.3560 N.4   1 <1>  -0.9590 
 13 C       -3.2000    -1.9430    -1.0810 C.ar  1 <1>  -0.1500 
 14 C       -3.7770    -2.7910     1.0760 C.ar  1 <1>  -0.1500 
 15 C        5.2580    -1.0520    -1.6490 C.3   1 <1>   0.2630 
 16 C       -4.1570    -2.4340    -0.2080 C.ar  1 <1>  -0.1430 
 17 C       -5.6030    -2.5780    -0.6520 C.3   1 <1>  -0.0170 
 18 C       -5.8460    -3.9650    -1.2520 C.3   1 <1>  -0.2400 
 19 H        0.0060    -2.5000     1.9670 H     1 <1>   0.3700 
 20 H        2.1410    -3.5980     0.6100 H     1 <1>   0.0800 
 21 H        3.5000    -3.1140     1.5850 H     1 <1>   0.0800 
 22 H        3.6610    -0.5640     2.2260 H     1 <1>   0.0800 
 23 H        2.3990     0.4740     1.6270 H     1 <1>   0.0800 
 24 H        2.9440    -2.3410    -1.2940 H     1 <1>   0.0800 
 25 H        4.2150    -3.4020    -0.7520 H     1 <1>   0.0800 
 26 H        4.4900     0.6970     0.2900 H     1 <1>   0.0800 
 27 H        3.1170     0.1950    -0.6560 H     1 <1>   0.0800 
 28 H       -1.1660    -1.4290    -1.3780 H     1 <1>   0.1500 
 29 H       -2.1890    -2.9370     2.4780 H     1 <1>   0.1500 
 30 H        5.2720    -1.5620     0.3590 H     1 <1>   0.4500 
 31 H       -3.4770    -1.6630    -2.0820 H     1 <1>   0.1500 
 32 H       -4.5080    -3.1760     1.7650 H     1 <1>   0.1500 
 33 H        4.5360    -0.8080    -2.4130 H     1 <1>   0.0800 
 34 H        5.8220    -1.9130    -1.9710 H     1 <1>   0.0800 
 35 H        5.9350    -0.2200    -1.5380 H     1 <1>   0.0800 
 36 H       -5.8350    -1.8230    -1.3830 H     1 <1>   0.0800 
 37 H       -6.2570    -2.4290     0.1890 H     1 <1>   0.0800 
 38 H       -5.2070    -4.1160    -2.1050 H     1 <1>   0.0800 
 39 H       -6.8700    -4.0600    -1.5650 H     1 <1>   0.0800 
 40 H       -5.6320    -4.7260    -0.5230 H     1 <1>   0.0800 
@<TRIPOS>BOND
  1   1   2  2   
  2   2   3  am  
  3   2   4  am  
  4   3   5  1   
  5   3   6  1   
  6   4   7  1   
  7   4  19  1   
  8   5   8  1   
  9   5  20  1   
 10   5  21  1   
 11   6   9  1   
 12   6  22  1   
 13   6  23  1   
 14   7  10  ar  
 15   7  11  ar  
 16   8  12  1   
 17   8  24  1   
 18   8  25  1   
 19   9  12  1   
 20   9  26  1   
 21   9  27  1   
 22  10  13  ar  
 23  10  28  1   
 24  11  14  ar  
 25  11  29  1   
 26  12  15  1   
 27  12  30  1   
 28  13  16  ar  
 29  13  31  1   
 30  14  16  ar  
 31  14  32  1   
 32  15  33  1   
 33  15  34  1   
 34  15  35  1   
 35  16  17  1   
 36  17  18  1   
 37  17  36  1   
 38  17  37  1   
 39  18  38  1   
 40  18  39  1   
 41  18  40  1   
@<TRIPOS>SUBSTRUCTURE
  1 ****   4 GROUP 4 **** **** 0

# MOE 2024.06 (io_trps.svl 2023.06)
