@<TRIPOS>MOLECULE
NONAME
33 34 1 0 0 
SMALL
USER_CHARGES


@<TRIPOS>ATOM
  1 S       -0.0160     0.3240    -0.3440 S.o2  1 <1>   1.4470 
  2 O        0.0790     1.4010     0.6120 O.2   1 <1>  -0.6500 
  3 O       -0.3570     0.5880    -1.7230 O.2   1 <1>  -0.6500 
  4 N       -1.2280    -0.6350     0.3090 N.am  1 <1>  -0.9140 
  5 C        1.4520    -0.7290    -0.2720 C.ar  1 <1>  -0.0090 
  6 C       -2.5430    -0.4560    -0.2710 C.3   1 <1>   0.2760 
  7 C        2.7090    -0.1810    -0.4860 C.ar  1 <1>   0.1900 
  8 C        1.3950    -2.1000    -0.0300 C.ar  1 <1>  -0.1500 
  9 C       -3.1380     0.9020     0.1350 C.3   1 <1>  -0.1600 
 10 C       -3.4250    -1.6040     0.2320 C.3   1 <1>  -0.1600 
 11 F        2.8130     1.0960    -0.7330 F     1 <1>  -0.1900 
 12 C        3.8830    -0.9180    -0.4560 C.ar  1 <1>  -0.1500 
 13 C        2.5640    -2.8390     0.0010 C.ar  1 <1>   0.1900 
 14 C       -4.5860     1.0490    -0.3550 C.3   1 <1>  -0.1600 
 15 C       -4.8710    -1.4640    -0.2640 C.3   1 <1>  -0.1600 
 16 C        3.8110    -2.2770    -0.2060 C.ar  1 <1>  -0.1500 
 17 F        2.4870    -4.1210     0.2340 F     1 <1>  -0.1900 
 18 C       -5.4630    -0.1080     0.1390 C.3   1 <1>  -0.1600 
 19 H       -1.2950    -0.3000     1.2670 H     1 <1>   0.4200 
 20 H       -2.4880    -0.5230    -1.3470 H     1 <1>   0.0800 
 21 H        0.4550    -2.5980     0.1310 H     1 <1>   0.1500 
 22 H       -2.5560     1.7020    -0.2880 H     1 <1>   0.0800 
 23 H       -3.1220     1.0010     1.2070 H     1 <1>   0.0800 
 24 H       -3.4260    -1.6130     1.3080 H     1 <1>   0.0800 
 25 H       -3.0220    -2.5390    -0.1150 H     1 <1>   0.0800 
 26 H        4.8290    -0.4330    -0.6270 H     1 <1>   0.1500 
 27 H       -4.5950     1.0690    -1.4320 H     1 <1>   0.0800 
 28 H       -4.9910     1.9840    -0.0070 H     1 <1>   0.0800 
 29 H       -5.4730    -2.2570     0.1470 H     1 <1>   0.0800 
 30 H       -4.8920    -1.5580    -1.3370 H     1 <1>   0.0800 
 31 H        4.6950    -2.8900    -0.1720 H     1 <1>   0.1500 
 32 H       -6.4540    -0.0100    -0.2730 H     1 <1>   0.0800 
 33 H       -5.5480    -0.0590     1.2110 H     1 <1>   0.0800 
@<TRIPOS>BOND
  1   1   2  2   
  2   1   3  2   
  3   1   4  am  
  4   1   5  1   
  5   4   6  1   
  6   4  19  1   
  7   5   7  ar  
  8   5   8  ar  
  9   6   9  1   
 10   6  10  1   
 11   6  20  1   
 12   7  11  1   
 13   7  12  ar  
 14   8  13  ar  
 15   8  21  1   
 16   9  14  1   
 17   9  22  1   
 18   9  23  1   
 19  10  15  1   
 20  10  24  1   
 21  10  25  1   
 22  12  16  ar  
 23  12  26  1   
 24  13  16  ar  
 25  13  17  1   
 26  14  18  1   
 27  14  27  1   
 28  14  28  1   
 29  15  18  1   
 30  15  29  1   
 31  15  30  1   
 32  16  31  1   
 33  18  32  1   
 34  18  33  1   
@<TRIPOS>SUBSTRUCTURE
  1 ****   1 GROUP 4 **** **** 0

# MOE 2024.06 (io_trps.svl 2023.06)
