@<TRIPOS>MOLECULE
NONAME
34 34 1 0 0 
SMALL
USER_CHARGES


@<TRIPOS>ATOM
  1 F       -1.7810     1.6470     1.6650 F     1 <1>  -0.1900 
  2 C       -1.0540     2.4300     0.9120 C.ar  1 <1>   0.1900 
  3 C       -1.4060     2.5890    -0.4230 C.ar  1 <1>  -0.1440 
  4 C        0.0230     3.0760     1.4860 C.ar  1 <1>  -0.1500 
  5 C       -0.6360     3.4340    -1.2160 C.ar  1 <1>  -0.1500 
  6 C       -2.6030     1.8490    -0.9930 C.3   1 <1>   0.4870 
  7 C        0.7590     3.9080     0.6680 C.ar  1 <1>   0.1900 
  8 C        0.4520     4.0990    -0.6680 C.ar  1 <1>  -0.1500 
  9 N       -3.8450     2.3280    -0.3240 N.4   1 <1>  -0.9590 
 10 F        1.7820     4.5400     1.1740 F     1 <1>  -0.1900 
 11 C       -4.9990     1.4370    -0.6730 C.3   1 <1>   0.3430 
 12 C       -4.1100     3.7660    -0.6140 C.3   1 <1>   0.3430 
 13 C       -6.2370     1.6810     0.2030 C.3   1 <1>   0.1200 
 14 C       -4.2110     4.5330     0.7040 C.3   1 <1>  -0.1600 
 15 O       -7.2080     0.7800    -0.1910 O.3   1 <1>  -0.6800 
 16 C       -4.4910     6.0180     0.4530 C.3   1 <1>  -0.2400 
 17 H        0.2800     2.9410     2.5210 H     1 <1>   0.1500 
 18 H       -0.8650     3.5830    -2.2590 H     1 <1>   0.1500 
 19 H       -2.4750     0.7930    -0.8170 H     1 <1>   0.0800 
 20 H       -2.6660     2.0110    -2.0570 H     1 <1>   0.0800 
 21 H        1.0620     4.7570    -1.2640 H     1 <1>   0.1500 
 22 H       -3.6540     2.2390     0.6860 H     1 <1>   0.4500 
 23 H       -4.7070     0.4070    -0.5460 H     1 <1>   0.0800 
 24 H       -5.2730     1.5840    -1.7050 H     1 <1>   0.0800 
 25 H       -5.0250     3.8750    -1.1730 H     1 <1>   0.0800 
 26 H       -3.3080     4.1850    -1.2000 H     1 <1>   0.0800 
 27 H       -6.6310     2.6730     0.0630 H     1 <1>   0.0800 
 28 H       -6.0170     1.5030     1.2420 H     1 <1>   0.0800 
 29 H       -3.2850     4.4480     1.2470 H     1 <1>   0.0800 
 30 H       -5.0050     4.1320     1.3090 H     1 <1>   0.0800 
 31 H       -8.0260     0.8660     0.3460 H     1 <1>   0.4000 
 32 H       -3.6990     6.4650    -0.1250 H     1 <1>   0.0800 
 33 H       -4.5560     6.5440     1.3910 H     1 <1>   0.0800 
 34 H       -5.4210     6.1520    -0.0710 H     1 <1>   0.0800 
@<TRIPOS>BOND
  1   1   2  1   
  2   2   3  ar  
  3   2   4  ar  
  4   3   5  ar  
  5   3   6  1   
  6   4   7  ar  
  7   4  17  1   
  8   5   8  ar  
  9   5  18  1   
 10   6   9  1   
 11   6  19  1   
 12   6  20  1   
 13   7   8  ar  
 14   7  10  1   
 15   8  21  1   
 16   9  11  1   
 17   9  12  1   
 18   9  22  1   
 19  11  13  1   
 20  11  23  1   
 21  11  24  1   
 22  12  14  1   
 23  12  25  1   
 24  12  26  1   
 25  13  15  1   
 26  13  27  1   
 27  13  28  1   
 28  14  16  1   
 29  14  29  1   
 30  14  30  1   
 31  15  31  1   
 32  16  32  1   
 33  16  33  1   
 34  16  34  1   
@<TRIPOS>SUBSTRUCTURE
  1 ****   3 GROUP 4 **** **** 0

# MOE 2024.06 (io_trps.svl 2023.06)
