@<TRIPOS>MOLECULE
NONAME
42 44 1 0 0 
SMALL
USER_CHARGES


@<TRIPOS>ATOM
  1 BR       0.8030    -0.1950    -2.1460 Br    1 <1>  -0.1110 
  2 C        2.4200     0.4690    -1.3340 C.ar  1 <1>   0.1110 
  3 C        3.5820     0.5340    -2.0800 C.ar  1 <1>   0.1600 
  4 C        2.3950     0.8710    -0.0180 C.ar  1 <1>  -0.1500 
  5 N        4.7380     0.9760    -1.6020 N.ar  1 <1>  -0.6200 
  6 C        3.5940     1.3310     0.4810 C.ar  1 <1>  -0.1500 
  7 C        4.7310     1.3650    -0.3320 C.ar  1 <1>   0.4270 
  8 N        5.9590     1.8140     0.0980 N.am  1 <1>  -0.5470 
  9 C        6.4820     2.1090     1.3190 C.2   1 <1>   0.5690 
 10 O        5.8620     2.0440     2.3530 O.2   1 <1>  -0.5700 
 11 C        7.9500     2.5410     1.3540 C.3   1 <1>   0.1710 
 12 N        8.7420     2.0880     0.1730 N.3   1 <1>  -0.8100 
 13 C        9.0260     0.6310     0.2460 C.3   1 <1>   0.1100 
 14 C       10.0220     2.8270     0.0830 C.3   1 <1>   0.1100 
 15 C        9.8200     0.1290    -0.9740 C.3   1 <1>   0.2090 
 16 C       10.8780     2.3880    -1.1240 C.3   1 <1>   0.2090 
 17 N       11.0780     0.9080    -1.1640 N.pl3 1 <1>  -0.8380 
 18 C       12.2810     0.3280    -0.7640 C.ar  1 <1>   0.1000 
 19 C       13.0020     0.7900     0.3330 C.ar  1 <1>  -0.1500 
 20 C       12.7840    -0.7550    -1.4740 C.ar  1 <1>  -0.1500 
 21 C       14.1890     0.1860     0.7090 C.ar  1 <1>  -0.1500 
 22 C       13.9690    -1.3640    -1.1040 C.ar  1 <1>  -0.1500 
 23 C       14.6750    -0.8930    -0.0090 C.ar  1 <1>  -0.1500 
 24 H        3.5570     0.2110    -3.1060 H     1 <1>   0.1500 
 25 H        1.4970     0.8260     0.5720 H     1 <1>   0.1500 
 26 H        3.6480     1.6660     1.4990 H     1 <1>   0.1500 
 27 H        6.6550     1.8500    -0.6510 H     1 <1>   0.3700 
 28 H        8.3990     2.1760     2.2610 H     1 <1>   0.0800 
 29 H        7.9570     3.6160     1.3930 H     1 <1>   0.0800 
 30 H        8.1040     0.0800     0.3000 H     1 <1>   0.0800 
 31 H        9.5950     0.4130     1.1340 H     1 <1>   0.0800 
 32 H       10.5900     2.6780     0.9840 H     1 <1>   0.0800 
 33 H        9.8190     3.8800    -0.0110 H     1 <1>   0.0800 
 34 H        9.2120     0.2210    -1.8570 H     1 <1>   0.0800 
 35 H       10.0560    -0.9120    -0.8400 H     1 <1>   0.0800 
 36 H       11.8340     2.8810    -1.0910 H     1 <1>   0.0800 
 37 H       10.3860     2.6930    -2.0310 H     1 <1>   0.0800 
 38 H       12.6310     1.6200     0.9000 H     1 <1>   0.1500 
 39 H       12.2360    -1.1100    -2.3270 H     1 <1>   0.1500 
 40 H       14.7360     0.5530     1.5590 H     1 <1>   0.1500 
 41 H       14.3440    -2.2010    -1.6670 H     1 <1>   0.1500 
 42 H       15.5970    -1.3640     0.2810 H     1 <1>   0.1500 
@<TRIPOS>BOND
  1   1   2  1   
  2   2   3  ar  
  3   2   4  ar  
  4   3   5  ar  
  5   3  24  1   
  6   4   6  ar  
  7   4  25  1   
  8   5   7  ar  
  9   6   7  ar  
 10   6  26  1   
 11   7   8  1   
 12   8   9  am  
 13   8  27  1   
 14   9  10  2   
 15   9  11  1   
 16  11  12  1   
 17  11  28  1   
 18  11  29  1   
 19  12  13  1   
 20  12  14  1   
 21  13  15  1   
 22  13  30  1   
 23  13  31  1   
 24  14  16  1   
 25  14  32  1   
 26  14  33  1   
 27  15  17  1   
 28  15  34  1   
 29  15  35  1   
 30  16  17  1   
 31  16  36  1   
 32  16  37  1   
 33  17  18  1   
 34  18  19  ar  
 35  18  20  ar  
 36  19  21  ar  
 37  19  38  1   
 38  20  22  ar  
 39  20  39  1   
 40  21  23  ar  
 41  21  40  1   
 42  22  23  ar  
 43  22  41  1   
 44  23  42  1   
@<TRIPOS>SUBSTRUCTURE
  1 ****  13 GROUP 4 **** **** 0

# MOE 2024.06 (io_trps.svl 2023.06)
