@<TRIPOS>MOLECULE
NONAME
34 35 1 0 0 
SMALL
USER_CHARGES


@<TRIPOS>ATOM
  1 N       -0.1960    -1.4580    -0.5010 N.4   1 <1>  -0.9060 
  2 C       -0.8310    -0.3790    -1.3110 C.3   1 <1>   0.3430 
  3 C       -1.1930    -2.3510     0.1480 C.3   1 <1>   0.3430 
  4 C       -1.7320     0.4970    -0.4280 C.3   1 <1>  -0.0800 
  5 C       -2.0880    -1.5230     1.0700 C.3   1 <1>  -0.1600 
  6 C       -2.7660    -0.3650     0.3230 C.3   1 <1>  -0.1600 
  7 C       -2.4030     1.5890    -1.2870 C.3   1 <1>  -0.0170 
  8 C       -3.2210     2.5640    -0.4450 C.ar  1 <1>  -0.1430 
  9 C       -2.6560     3.6720     0.1850 C.ar  1 <1>  -0.1430 
 10 C       -4.5830     2.3290    -0.3110 C.ar  1 <1>  -0.1500 
 11 C       -3.4620     4.5060     0.9470 C.ar  1 <1>  -0.1500 
 12 C       -1.1790     4.0240     0.0640 C.3   1 <1>  -0.0970 
 13 C       -5.3780     3.1670     0.4490 C.ar  1 <1>  -0.1500 
 14 C       -4.8140     4.2560     1.0820 C.ar  1 <1>  -0.1500 
 15 H        0.3780    -1.0250     0.2330 H     1 <1>   0.4500 
 16 H        0.4360    -2.0140    -1.0920 H     1 <1>   0.4500 
 17 H       -1.4250    -0.8180    -2.0970 H     1 <1>   0.0800 
 18 H       -0.0710     0.2350    -1.7670 H     1 <1>   0.0800 
 19 H       -0.6920    -3.1160     0.7210 H     1 <1>   0.0800 
 20 H       -1.7990    -2.8320    -0.6040 H     1 <1>   0.0800 
 21 H       -1.1100     0.9890     0.2990 H     1 <1>   0.0800 
 22 H       -1.5050    -1.1390     1.8890 H     1 <1>   0.0800 
 23 H       -2.8450    -2.1620     1.4920 H     1 <1>   0.0800 
 24 H       -3.4860    -0.7620    -0.3730 H     1 <1>   0.0800 
 25 H       -3.3010     0.2410     1.0360 H     1 <1>   0.0800 
 26 H       -3.0480     1.1310    -2.0180 H     1 <1>   0.0800 
 27 H       -1.6590     2.1370    -1.8360 H     1 <1>   0.0800 
 28 H       -5.0430     1.4870    -0.7980 H     1 <1>   0.1500 
 29 H       -3.0430     5.3650     1.4420 H     1 <1>   0.1500 
 30 H       -0.5690     3.2390     0.4670 H     1 <1>   0.0800 
 31 H       -0.9540     4.9260     0.6040 H     1 <1>   0.0800 
 32 H       -0.9200     4.1870    -0.9670 H     1 <1>   0.0800 
 33 H       -6.4320     2.9730     0.5470 H     1 <1>   0.1500 
 34 H       -5.4270     4.9120     1.6760 H     1 <1>   0.1500 
@<TRIPOS>BOND
  1   1   2  1   
  2   1   3  1   
  3   1  15  1   
  4   1  16  1   
  5   2   4  1   
  6   2  17  1   
  7   2  18  1   
  8   3   5  1   
  9   3  19  1   
 10   3  20  1   
 11   4   6  1   
 12   4   7  1   
 13   4  21  1   
 14   5   6  1   
 15   5  22  1   
 16   5  23  1   
 17   6  24  1   
 18   6  25  1   
 19   7   8  1   
 20   7  26  1   
 21   7  27  1   
 22   8   9  ar  
 23   8  10  ar  
 24   9  11  ar  
 25   9  12  1   
 26  10  13  ar  
 27  10  28  1   
 28  11  14  ar  
 29  11  29  1   
 30  12  30  1   
 31  12  31  1   
 32  12  32  1   
 33  13  14  ar  
 34  13  33  1   
 35  14  34  1   
@<TRIPOS>SUBSTRUCTURE
  1 ****   7 GROUP 4 **** **** 0

# MOE 2024.06 (io_trps.svl 2023.06)
