@<TRIPOS>MOLECULE
NONAME
33 34 1 0 0 
SMALL
USER_CHARGES


@<TRIPOS>ATOM
  1 O       -0.6560     0.0350     0.0670 O.2   1 <1>  -0.5700 
  2 C       -1.6290    -0.6920     0.0640 C.2   1 <1>   0.7060 
  3 O       -2.8400    -0.1380     0.0350 O.3   1 <1>  -0.2330 
  4 C       -1.5420    -2.1140     0.0880 C.2   1 <1>  -0.1360 
  5 C       -3.9910    -0.8550     0.0270 C.ar  1 <1>   0.0820 
  6 C       -2.6440    -2.8950     0.0850 C.2   1 <1>  -0.1670 
  7 C       -3.9340    -2.2600     0.0550 C.ar  1 <1>   0.0280 
  8 C       -5.2090    -0.1760    -0.0050 C.ar  1 <1>  -0.1440 
  9 C       -2.5300    -4.4130     0.1110 C.3   1 <1>  -0.1020 
 10 C       -5.1440    -2.9570     0.0530 C.ar  1 <1>  -0.1500 
 11 C       -6.3950    -0.9010     0.0010 C.ar  1 <1>   0.0830 
 12 C       -5.2650     1.3520    -0.0380 C.3   1 <1>  -0.0960 
 13 C       -6.3510    -2.2950     0.0270 C.ar  1 <1>  -0.1500 
 14 O       -7.5630    -0.2110    -0.0180 O.3   1 <1>  -0.3630 
 15 C       -8.8200    -0.8470    -0.0070 C.3   1 <1>   0.1200 
 16 C       -9.9010     0.2330    -0.0300 C.3   1 <1>  -0.1600 
 17 C      -11.3050    -0.3820    -0.0200 C.3   1 <1>  -0.2400 
 18 H       -0.5450    -2.5100     0.1100 H     1 <1>   0.1500 
 19 H       -3.0150    -4.8060     0.9880 H     1 <1>   0.0800 
 20 H       -1.5000    -4.7210     0.1300 H     1 <1>   0.0800 
 21 H       -2.9910    -4.8340    -0.7650 H     1 <1>   0.0800 
 22 H       -5.1460    -4.0310     0.0730 H     1 <1>   0.1500 
 23 H       -4.3140     1.7920    -0.2730 H     1 <1>   0.0800 
 24 H       -5.5860     1.7200     0.9200 H     1 <1>   0.0800 
 25 H       -5.9690     1.6780    -0.7830 H     1 <1>   0.0800 
 26 H       -7.2530    -2.8760     0.0290 H     1 <1>   0.1500 
 27 H       -8.8930    -1.4390     0.8880 H     1 <1>   0.0800 
 28 H       -8.8900    -1.4740    -0.8790 H     1 <1>   0.0800 
 29 H       -9.7830     0.8320    -0.9170 H     1 <1>   0.0800 
 30 H       -9.7850     0.8670     0.8320 H     1 <1>   0.0800 
 31 H      -11.4490    -1.0080    -0.8840 H     1 <1>   0.0800 
 32 H      -12.0470     0.3980    -0.0370 H     1 <1>   0.0800 
 33 H      -11.4520    -0.9730     0.8670 H     1 <1>   0.0800 
@<TRIPOS>BOND
  1   1   2  2   
  2   2   3  1   
  3   2   4  1   
  4   3   5  1   
  5   4   6  2   
  6   4  18  1   
  7   5   7  ar  
  8   5   8  ar  
  9   6   7  1   
 10   6   9  1   
 11   7  10  ar  
 12   8  11  ar  
 13   8  12  1   
 14   9  19  1   
 15   9  20  1   
 16   9  21  1   
 17  10  13  ar  
 18  10  22  1   
 19  11  13  ar  
 20  11  14  1   
 21  12  23  1   
 22  12  24  1   
 23  12  25  1   
 24  13  26  1   
 25  14  15  1   
 26  15  16  1   
 27  15  27  1   
 28  15  28  1   
 29  16  17  1   
 30  16  29  1   
 31  16  30  1   
 32  17  31  1   
 33  17  32  1   
 34  17  33  1   
@<TRIPOS>SUBSTRUCTURE
  1 ****   8 GROUP 4 **** **** 0

# MOE 2024.06 (io_trps.svl 2023.06)
