@<TRIPOS>MOLECULE
NONAME
32 33 1 0 0 
SMALL
USER_CHARGES


@<TRIPOS>ATOM
  1 S       -0.3240    -0.3190     2.1490 S.2   1 <1>  -0.3800 
  2 C       -0.7570    -1.4310     1.0710 C.2   1 <1>   0.5810 
  3 S        0.3410    -2.8040     0.8390 S.3   1 <1>  -0.3710 
  4 N       -1.8790    -1.3880     0.3340 N.am  1 <1>  -0.6600 
  5 C        1.7330    -2.5550     2.0460 C.3   1 <1>   0.1310 
  6 C       -2.2850    -2.4060    -0.6640 C.3   1 <1>   0.1400 
  7 C       -2.8960    -0.3170     0.4320 C.3   1 <1>   0.1400 
  8 C        2.7830    -3.6420     1.8700 C.2   1 <1>   0.4230 
  9 C       -3.4990    -1.8080    -1.3650 C.3   1 <1>  -0.1600 
 10 C       -4.0960    -0.8430    -0.3460 C.3   1 <1>  -0.1600 
 11 O        2.8810    -4.4460     2.7630 O.2   1 <1>  -0.5700 
 12 C        3.6290    -3.6660     0.6900 C.ar  1 <1>   0.0860 
 13 C        3.5660    -2.7070    -0.3280 C.ar  1 <1>  -0.1500 
 14 C        4.5750    -4.6840     0.5320 C.ar  1 <1>  -0.1500 
 15 C        4.3970    -2.7620    -1.4320 C.ar  1 <1>  -0.1500 
 16 C        5.4090    -4.7450    -0.5690 C.ar  1 <1>  -0.1500 
 17 C        5.3220    -3.7820    -1.5560 C.ar  1 <1>  -0.1500 
 18 H        1.3070    -2.6030     3.0320 H     1 <1>   0.0800 
 19 H        2.1540    -1.5820     1.8780 H     1 <1>   0.0800 
 20 H       -2.5560    -3.3130    -0.1500 H     1 <1>   0.0800 
 21 H       -1.4890    -2.6070    -1.3610 H     1 <1>   0.0800 
 22 H       -2.5100     0.5760    -0.0310 H     1 <1>   0.0800 
 23 H       -3.1490    -0.1130     1.4590 H     1 <1>   0.0800 
 24 H       -4.1980    -2.5670    -1.6700 H     1 <1>   0.0800 
 25 H       -3.1690    -1.2660    -2.2330 H     1 <1>   0.0800 
 26 H       -4.6530    -0.0470    -0.8090 H     1 <1>   0.0800 
 27 H       -4.7420    -1.3760     0.3290 H     1 <1>   0.0800 
 28 H        2.8600    -1.8990    -0.2740 H     1 <1>   0.1500 
 29 H        4.6550    -5.4430     1.2920 H     1 <1>   0.1500 
 30 H        4.3250    -2.0110    -2.2000 H     1 <1>   0.1500 
 31 H        6.1250    -5.5440    -0.6570 H     1 <1>   0.1500 
 32 H        5.9690    -3.8270    -2.4150 H     1 <1>   0.1500 
@<TRIPOS>BOND
  1   1   2  2   
  2   2   3  1   
  3   2   4  am  
  4   3   5  1   
  5   4   6  1   
  6   4   7  1   
  7   5   8  1   
  8   5  18  1   
  9   5  19  1   
 10   6   9  1   
 11   6  20  1   
 12   6  21  1   
 13   7  10  1   
 14   7  22  1   
 15   7  23  1   
 16   8  11  2   
 17   8  12  1   
 18   9  10  1   
 19   9  24  1   
 20   9  25  1   
 21  10  26  1   
 22  10  27  1   
 23  12  13  ar  
 24  12  14  ar  
 25  13  15  ar  
 26  13  28  1   
 27  14  16  ar  
 28  14  29  1   
 29  15  17  ar  
 30  15  30  1   
 31  16  17  ar  
 32  16  31  1   
 33  17  32  1   
@<TRIPOS>SUBSTRUCTURE
  1 ****   3 GROUP 4 **** **** 0

# MOE 2024.06 (io_trps.svl 2023.06)
