@<TRIPOS>MOLECULE
NONAME
35 35 1 0 0 
SMALL
USER_CHARGES


@<TRIPOS>ATOM
  1 O       -0.1880    -0.7810     1.3150 O.2   1 <1>  -0.5700 
  2 C        0.8320    -1.1560     0.7580 C.2   1 <1>   0.5440 
  3 N        1.7120    -0.1980     0.2880 N.am  1 <1>  -0.6600 
  4 C        1.0730    -2.5760     0.5830 C.ar  1 <1>   0.0860 
  5 C        1.6080     1.2280     0.7060 C.3   1 <1>   0.0600 
  6 C        2.6930    -0.4510    -0.8040 C.3   1 <1>   0.0600 
  7 C        0.0700    -3.4300     0.0930 C.ar  1 <1>   0.1170 
  8 C        2.3180    -3.1250     0.9000 C.ar  1 <1>  -0.1500 
  9 N       -1.2010    -2.9030    -0.1790 N.am  1 <1>  -0.5470 
 10 C        0.3560    -4.7810    -0.0880 C.ar  1 <1>  -0.1500 
 11 C        2.5850    -4.4670     0.7180 C.ar  1 <1>  -0.1500 
 12 C       -2.2500    -3.3380    -0.9380 C.2   1 <1>   0.5690 
 13 C        1.5990    -5.2980     0.2170 C.ar  1 <1>  -0.1500 
 14 O       -2.2330    -4.3470    -1.5970 O.2   1 <1>  -0.5700 
 15 C       -3.4990    -2.4760    -0.9540 C.3   1 <1>  -0.0990 
 16 C       -4.2190    -2.4600     0.4050 C.3   1 <1>  -0.1600 
 17 C       -5.4830    -1.5970     0.3540 C.3   1 <1>  -0.2400 
 18 H        1.0330     1.3160     1.6130 H     1 <1>   0.0800 
 19 H        1.1230     1.7980    -0.0670 H     1 <1>   0.0800 
 20 H        2.5890     1.6300     0.8850 H     1 <1>   0.0800 
 21 H        2.5060    -1.4000    -1.2770 H     1 <1>   0.0800 
 22 H        3.6910    -0.4480    -0.4030 H     1 <1>   0.0800 
 23 H        2.6110     0.3180    -1.5510 H     1 <1>   0.0800 
 24 H        3.0840    -2.4830     1.2980 H     1 <1>   0.1500 
 25 H       -1.3560    -1.9980     0.2870 H     1 <1>   0.3700 
 26 H       -0.4030    -5.4440    -0.4640 H     1 <1>   0.1500 
 27 H        3.5530    -4.8700     0.9640 H     1 <1>   0.1500 
 28 H        1.7980    -6.3460     0.0690 H     1 <1>   0.1500 
 29 H       -4.1650    -2.8570    -1.7070 H     1 <1>   0.0800 
 30 H       -3.2220    -1.4770    -1.2350 H     1 <1>   0.0800 
 31 H       -3.5590    -2.0750     1.1650 H     1 <1>   0.0800 
 32 H       -4.4850    -3.4680     0.6770 H     1 <1>   0.0800 
 33 H       -5.2360    -0.5800     0.1050 H     1 <1>   0.0800 
 34 H       -5.9710    -1.6040     1.3140 H     1 <1>   0.0800 
 35 H       -6.1700    -1.9780    -0.3800 H     1 <1>   0.0800 
@<TRIPOS>BOND
  1   1   2  2   
  2   2   3  am  
  3   2   4  1   
  4   3   5  1   
  5   3   6  1   
  6   4   7  ar  
  7   4   8  ar  
  8   5  18  1   
  9   5  19  1   
 10   5  20  1   
 11   6  21  1   
 12   6  22  1   
 13   6  23  1   
 14   7   9  1   
 15   7  10  ar  
 16   8  11  ar  
 17   8  24  1   
 18   9  12  am  
 19   9  25  1   
 20  10  13  ar  
 21  10  26  1   
 22  11  13  ar  
 23  11  27  1   
 24  12  14  2   
 25  12  15  1   
 26  13  28  1   
 27  15  16  1   
 28  15  29  1   
 29  15  30  1   
 30  16  17  1   
 31  16  31  1   
 32  16  32  1   
 33  17  33  1   
 34  17  34  1   
 35  17  35  1   
@<TRIPOS>SUBSTRUCTURE
  1 ****   7 GROUP 4 **** **** 0

# MOE 2024.06 (io_trps.svl 2023.06)
