@<TRIPOS>MOLECULE
NONAME
43 44 1 0 0 
SMALL
USER_CHARGES


@<TRIPOS>ATOM
  1 O       -0.1970     0.5390     1.3010 O.2   1 <1>  -0.5700 
  2 C       -1.1150     1.0830     0.7330 C.2   1 <1>   0.4950 
  3 C       -1.0710     2.4450     0.2900 C.2   1 <1>   0.0290 
  4 C       -2.3470     0.2160     0.5220 C.3   1 <1>  -0.0990 
  5 C       -2.2290     2.9930    -0.3650 C.2   1 <1>   0.4950 
  6 C        0.0750     3.1830     0.5090 C.2   1 <1>  -0.0500 
  7 C       -3.1700     0.6580    -0.6880 C.3   1 <1>  -0.1600 
  8 O       -2.3130     4.1260    -0.7860 O.2   1 <1>  -0.5700 
  9 C       -3.4790     2.1500    -0.5730 C.3   1 <1>  -0.0990 
 10 N        0.2780     4.4750     0.1570 N.pl3 1 <1>  -0.8690 
 11 C        1.5060     5.2670     0.3880 C.3   1 <1>   0.2090 
 12 C        2.1500     5.6120    -0.9540 C.3   1 <1>  -0.0170 
 13 C        3.4240     6.4130    -0.7380 C.ar  1 <1>  -0.1430 
 14 C        4.6360     5.7660    -0.5590 C.ar  1 <1>  -0.1500 
 15 C        3.3800     7.7960    -0.7140 C.ar  1 <1>  -0.1500 
 16 C        5.8150     6.4840    -0.3550 C.ar  1 <1>   0.0820 
 17 C        4.5380     8.5210    -0.5050 C.ar  1 <1>  -0.1500 
 18 O        7.0130     5.8440    -0.2120 O.3   1 <1>  -0.3620 
 19 C        5.7550     7.8880    -0.3150 C.ar  1 <1>   0.0820 
 20 C        7.1660     4.4680    -0.4840 C.3   1 <1>   0.0400 
 21 O        6.8070     8.7310    -0.1060 O.3   1 <1>  -0.3630 
 22 C        7.9270     8.3420     0.6570 C.3   1 <1>   0.0400 
 23 H       -2.0360    -0.8050     0.3860 H     1 <1>   0.0800 
 24 H       -2.9470     0.2590     1.4130 H     1 <1>   0.0800 
 25 H        0.9030     2.6990     1.0080 H     1 <1>   0.1500 
 26 H       -4.0840     0.0920    -0.7410 H     1 <1>   0.0800 
 27 H       -2.6100     0.4750    -1.5910 H     1 <1>   0.0800 
 28 H       -4.1460     2.3270     0.2520 H     1 <1>   0.0800 
 29 H       -3.9760     2.4780    -1.4690 H     1 <1>   0.0800 
 30 H       -0.4930     4.9800    -0.3200 H     1 <1>   0.4000 
 31 H        1.2560     6.1700     0.9190 H     1 <1>   0.0800 
 32 H        2.1970     4.7000     0.9880 H     1 <1>   0.0800 
 33 H        2.3770     4.7030    -1.4820 H     1 <1>   0.0800 
 34 H        1.4580     6.1810    -1.5480 H     1 <1>   0.0800 
 35 H        4.6420     4.6940    -0.5810 H     1 <1>   0.1500 
 36 H        2.4490     8.3160    -0.8560 H     1 <1>   0.1500 
 37 H        4.5040     9.5950    -0.4860 H     1 <1>   0.1500 
 38 H        8.2110     4.2270    -0.4050 H     1 <1>   0.0800 
 39 H        6.8200     4.2690    -1.4830 H     1 <1>   0.0800 
 40 H        6.6070     3.9030     0.2400 H     1 <1>   0.0800 
 41 H        8.4500     9.2310     0.9610 H     1 <1>   0.0800 
 42 H        8.5690     7.7350     0.0450 H     1 <1>   0.0800 
 43 H        7.5920     7.7960     1.5210 H     1 <1>   0.0800 
@<TRIPOS>BOND
  1   1   2  2   
  2   2   3  1   
  3   2   4  1   
  4   3   5  1   
  5   3   6  2   
  6   4   7  1   
  7   4  23  1   
  8   4  24  1   
  9   5   8  2   
 10   5   9  1   
 11   6  10  1   
 12   6  25  1   
 13   7   9  1   
 14   7  26  1   
 15   7  27  1   
 16   9  28  1   
 17   9  29  1   
 18  10  11  1   
 19  10  30  1   
 20  11  12  1   
 21  11  31  1   
 22  11  32  1   
 23  12  13  1   
 24  12  33  1   
 25  12  34  1   
 26  13  14  ar  
 27  13  15  ar  
 28  14  16  ar  
 29  14  35  1   
 30  15  17  ar  
 31  15  36  1   
 32  16  18  1   
 33  16  19  ar  
 34  17  19  ar  
 35  17  37  1   
 36  18  20  1   
 37  19  21  1   
 38  20  38  1   
 39  20  39  1   
 40  20  40  1   
 41  21  22  1   
 42  22  41  1   
 43  22  42  1   
 44  22  43  1   
@<TRIPOS>SUBSTRUCTURE
  1 ****  11 GROUP 4 **** **** 0

# MOE 2024.06 (io_trps.svl 2023.06)
