@<TRIPOS>MOLECULE
NONAME
35 35 1 0 0 
SMALL
USER_CHARGES


@<TRIPOS>ATOM
  1 CL       0.6480    -1.5610     0.7240 Cl    1 <1>  -0.1770 
  2 C        2.3540    -1.2990     0.4630 C.ar  1 <1>   0.1770 
  3 C        3.2120    -1.2880     1.5470 C.ar  1 <1>  -0.1500 
  4 C        2.8210    -1.1080    -0.8240 C.ar  1 <1>  -0.1500 
  5 C        4.5650    -1.0800     1.3340 C.ar  1 <1>  -0.1500 
  6 C        4.1740    -0.8990    -1.0350 C.ar  1 <1>  -0.1500 
  7 C        5.0530    -0.8840     0.0490 C.ar  1 <1>   0.0830 
  8 O        6.3900    -0.6860    -0.0690 O.3   1 <1>  -0.3630 
  9 C        6.9890    -0.4650    -1.3390 C.3   1 <1>   0.1810 
 10 C        8.4930    -0.2490    -1.2000 C.2   1 <1>   0.5690 
 11 O        9.1920    -0.3200    -2.1820 O.2   1 <1>  -0.5700 
 12 N        9.0320     0.0060     0.0250 N.am  1 <1>  -0.7300 
 13 C       10.3890     0.5740     0.2790 C.3   1 <1>   0.1400 
 14 C       11.5520    -0.1480    -0.4440 C.3   1 <1>   0.3430 
 15 N       11.7440    -1.5830    -0.0290 N.4   1 <1>  -0.9590 
 16 C       13.1560    -2.0110    -0.2670 C.3   1 <1>   0.2630 
 17 C       10.8110    -2.4880    -0.7690 C.3   1 <1>   0.2630 
 18 H        2.8240    -1.4400     2.5380 H     1 <1>   0.1500 
 19 H        2.1280    -1.1220    -1.6470 H     1 <1>   0.1500 
 20 H        5.2440    -1.0680     2.1670 H     1 <1>   0.1500 
 21 H        4.5140    -0.7530    -2.0430 H     1 <1>   0.1500 
 22 H        6.5440     0.4090    -1.7800 H     1 <1>   0.0800 
 23 H        6.8050    -1.3240    -1.9580 H     1 <1>   0.0800 
 24 H        8.3580     0.0810     0.7990 H     1 <1>   0.3700 
 25 H       10.5780     0.5740     1.3380 H     1 <1>   0.0800 
 26 H       10.3820     1.6010    -0.0440 H     1 <1>   0.0800 
 27 H       12.4530     0.4010    -0.2260 H     1 <1>   0.0800 
 28 H       11.3970    -0.0910    -1.5100 H     1 <1>   0.0800 
 29 H       11.5330    -1.6610     0.9770 H     1 <1>   0.4500 
 30 H       13.3950    -1.9410    -1.3160 H     1 <1>   0.0800 
 31 H       13.2950    -3.0330     0.0490 H     1 <1>   0.0800 
 32 H       13.8370    -1.3850     0.2860 H     1 <1>   0.0800 
 33 H       10.8990    -2.3310    -1.8320 H     1 <1>   0.0800 
 34 H        9.7920    -2.2910    -0.4810 H     1 <1>   0.0800 
 35 H       11.0310    -3.5200    -0.5490 H     1 <1>   0.0800 
@<TRIPOS>BOND
  1   1   2  1   
  2   2   3  ar  
  3   2   4  ar  
  4   3   5  ar  
  5   3  18  1   
  6   4   6  ar  
  7   4  19  1   
  8   5   7  ar  
  9   5  20  1   
 10   6   7  ar  
 11   6  21  1   
 12   7   8  1   
 13   8   9  1   
 14   9  10  1   
 15   9  22  1   
 16   9  23  1   
 17  10  11  2   
 18  10  12  am  
 19  12  13  1   
 20  12  24  1   
 21  13  14  1   
 22  13  25  1   
 23  13  26  1   
 24  14  15  1   
 25  14  27  1   
 26  14  28  1   
 27  15  16  1   
 28  15  17  1   
 29  15  29  1   
 30  16  30  1   
 31  16  31  1   
 32  16  32  1   
 33  17  33  1   
 34  17  34  1   
 35  17  35  1   
@<TRIPOS>SUBSTRUCTURE
  1 ****   8 GROUP 4 **** **** 0

# MOE 2024.06 (io_trps.svl 2023.06)
