@<TRIPOS>MOLECULE
NONAME
45 47 1 0 0 
SMALL
USER_CHARGES


@<TRIPOS>ATOM
  1 F        0.8680    -0.0890    -0.0400 F     1 <1>  -0.1900 
  2 C        1.9220    -0.8230     0.2090 C.ar  1 <1>   0.1900 
  3 C        2.6260    -0.6050     1.3780 C.ar  1 <1>  -0.1500 
  4 C        2.2940    -1.7880    -0.7070 C.ar  1 <1>  -0.1500 
  5 C        3.7400    -1.3860     1.6320 C.ar  1 <1>  -0.1500 
  6 C        3.4110    -2.5600    -0.4390 C.ar  1 <1>  -0.1500 
  7 C        4.1460    -2.3670     0.7310 C.ar  1 <1>   0.1000 
  8 N        5.2790    -3.1280     1.0150 N.pl3 1 <1>  -0.8380 
  9 C        5.2760    -4.6120     0.8420 C.3   1 <1>   0.2090 
 10 C        6.6100    -2.4520     1.0630 C.3   1 <1>   0.2090 
 11 C        6.2320    -5.0530    -0.2880 C.3   1 <1>   0.3430 
 12 C        7.5280    -2.9390    -0.0780 C.3   1 <1>   0.3430 
 13 N        7.6050    -4.4460    -0.1560 N.4   1 <1>  -0.9590 
 14 C        8.5260    -4.8970    -1.2340 C.3   1 <1>   0.4860 
 15 C        9.9200    -4.3960    -0.9110 C.ar  1 <1>  -0.1430 
 16 C       10.5950    -4.8900     0.1960 C.ar  1 <1>  -0.1500 
 17 C       10.5310    -3.4380    -1.7040 C.ar  1 <1>  -0.1500 
 18 C       11.8560    -4.4340     0.5380 C.ar  1 <1>   0.0830 
 19 C       11.7950    -2.9740    -1.3830 C.ar  1 <1>  -0.1500 
 20 O       12.3670    -5.0130     1.6620 O.3   1 <1>  -0.3630 
 21 C       12.4630    -3.4570    -0.2680 C.ar  1 <1>   0.0830 
 22 C       13.7060    -4.8440     2.0730 C.3   1 <1>   0.0400 
 23 O       13.6840    -2.9400    -0.0180 O.3   1 <1>  -0.5330 
 24 H        2.3030     0.1530     2.0680 H     1 <1>   0.1500 
 25 H        1.7170    -1.9250    -1.6040 H     1 <1>   0.1500 
 26 H        4.2980    -1.2430     2.5390 H     1 <1>   0.1500 
 27 H        3.7110    -3.3080    -1.1460 H     1 <1>   0.1500 
 28 H        4.2770    -4.9520     0.6260 H     1 <1>   0.0800 
 29 H        5.5760    -5.0700     1.7690 H     1 <1>   0.0800 
 30 H        7.0740    -2.6500     2.0140 H     1 <1>   0.0800 
 31 H        6.4800    -1.3860     0.9790 H     1 <1>   0.0800 
 32 H        5.7970    -4.7540    -1.2270 H     1 <1>   0.0800 
 33 H        6.3020    -6.1280    -0.2840 H     1 <1>   0.0800 
 34 H        8.5130    -2.5270     0.0710 H     1 <1>   0.0800 
 35 H        7.1440    -2.5480    -1.0050 H     1 <1>   0.0800 
 36 H        8.0130    -4.7600     0.7330 H     1 <1>   0.4500 
 37 H        8.2050    -4.5110    -2.1870 H     1 <1>   0.0800 
 38 H        8.5410    -5.9740    -1.2860 H     1 <1>   0.0800 
 39 H       10.1580    -5.6490     0.8220 H     1 <1>   0.1500 
 40 H       10.0390    -3.0430    -2.5780 H     1 <1>   0.1500 
 41 H       12.2580    -2.2310    -2.0090 H     1 <1>   0.1500 
 42 H       13.8840    -5.4890     2.9150 H     1 <1>   0.0800 
 43 H       13.8560    -3.8190     2.3620 H     1 <1>   0.0800 
 44 H       14.3580    -5.1140     1.2610 H     1 <1>   0.0800 
 45 H       13.9760    -2.2910    -0.6830 H     1 <1>   0.4500 
@<TRIPOS>BOND
  1   1   2  1   
  2   2   3  ar  
  3   2   4  ar  
  4   3   5  ar  
  5   3  24  1   
  6   4   6  ar  
  7   4  25  1   
  8   5   7  ar  
  9   5  26  1   
 10   6   7  ar  
 11   6  27  1   
 12   7   8  1   
 13   8   9  1   
 14   8  10  1   
 15   9  11  1   
 16   9  28  1   
 17   9  29  1   
 18  10  12  1   
 19  10  30  1   
 20  10  31  1   
 21  11  13  1   
 22  11  32  1   
 23  11  33  1   
 24  12  13  1   
 25  12  34  1   
 26  12  35  1   
 27  13  14  1   
 28  13  36  1   
 29  14  15  1   
 30  14  37  1   
 31  14  38  1   
 32  15  16  ar  
 33  15  17  ar  
 34  16  18  ar  
 35  16  39  1   
 36  17  19  ar  
 37  17  40  1   
 38  18  20  1   
 39  18  21  ar  
 40  19  21  ar  
 41  19  41  1   
 42  20  22  1   
 43  21  23  1   
 44  22  42  1   
 45  22  43  1   
 46  22  44  1   
 47  23  45  1   
@<TRIPOS>SUBSTRUCTURE
  1 ****  12 GROUP 4 **** **** 0

# MOE 2024.06 (io_trps.svl 2023.06)
