@<TRIPOS>MOLECULE
NONAME
44 46 1 0 0 
SMALL
USER_CHARGES


@<TRIPOS>ATOM
  1 F        2.9230     0.0300    -2.5470 F     1 <1>  -0.3400 
  2 C        2.4180    -1.0650    -1.9950 C.3   1 <1>   1.1640 
  3 F        1.1210    -0.8350    -1.8280 F     1 <1>  -0.3400 
  4 F        2.5090    -2.0210    -2.9130 F     1 <1>  -0.3400 
  5 C        3.1280    -1.4210    -0.6790 C.ar  1 <1>  -0.1440 
  6 C        4.1410    -2.3750    -0.6410 C.ar  1 <1>  -0.1500 
  7 C        2.7750    -0.7850     0.5070 C.ar  1 <1>  -0.1500 
  8 C        4.7820    -2.6950     0.5440 C.ar  1 <1>   0.0830 
  9 C        3.4110    -1.0980     1.6960 C.ar  1 <1>  -0.1500 
 10 O        5.7500    -3.6410     0.4740 O.3   1 <1>  -0.3630 
 11 C        4.4120    -2.0510     1.7210 C.ar  1 <1>  -0.1500 
 12 C        6.3960    -4.1230     1.6450 C.3   1 <1>   0.1810 
 13 C        7.3840    -5.2430     1.3260 C.2   1 <1>   0.5690 
 14 O        7.1940    -6.3080     1.8670 O.2   1 <1>  -0.5700 
 15 N        8.4610    -5.0460     0.4940 N.am  1 <1>  -0.6600 
 16 C        8.8030    -3.7610    -0.1990 C.3   1 <1>   0.1400 
 17 C        9.4290    -6.1480     0.1900 C.3   1 <1>   0.1400 
 18 C       10.2610    -3.3470     0.0700 C.3   1 <1>   0.2090 
 19 C       10.8780    -5.7170     0.4700 C.3   1 <1>   0.2090 
 20 N       11.2160    -4.4530    -0.2480 N.pl3 1 <1>  -0.8380 
 21 C       12.5580    -4.1370    -0.3270 C.ar  1 <1>   0.4100 
 22 N       13.0060    -3.1720     0.4690 N.ar  1 <1>  -0.6200 
 23 C       13.3740    -4.8350    -1.2140 C.ar  1 <1>  -0.1500 
 24 C       14.2980    -2.9040     0.3790 C.ar  1 <1>   0.1600 
 25 C       14.7150    -4.5450    -1.2980 C.ar  1 <1>  -0.1500 
 26 C       15.1830    -3.5450    -0.4690 C.ar  1 <1>  -0.1500 
 27 H        4.4480    -2.8890    -1.5360 H     1 <1>   0.1500 
 28 H        1.9970    -0.0380     0.5120 H     1 <1>   0.1500 
 29 H        3.1220    -0.5970     2.6050 H     1 <1>   0.1500 
 30 H        4.8860    -2.2720     2.6580 H     1 <1>   0.1500 
 31 H        5.6410    -4.5000     2.3110 H     1 <1>   0.0800 
 32 H        6.9160    -3.3070     2.1100 H     1 <1>   0.0800 
 33 H        8.1560    -2.9650     0.1160 H     1 <1>   0.0800 
 34 H        8.6710    -3.8920    -1.2590 H     1 <1>   0.0800 
 35 H        9.3380    -6.4170    -0.8470 H     1 <1>   0.0800 
 36 H        9.2050    -7.0220     0.7770 H     1 <1>   0.0800 
 37 H       10.3690    -3.0710     1.1050 H     1 <1>   0.0800 
 38 H       10.5060    -2.4860    -0.5280 H     1 <1>   0.0800 
 39 H       11.5480    -6.5000     0.1610 H     1 <1>   0.0800 
 40 H       11.0060    -5.5680     1.5290 H     1 <1>   0.0800 
 41 H       12.9330    -5.5940    -1.8300 H     1 <1>   0.1500 
 42 H       14.6740    -2.1250     1.0190 H     1 <1>   0.1500 
 43 H       15.3680    -5.0680    -1.9750 H     1 <1>   0.1500 
 44 H       16.2210    -3.2670    -0.4820 H     1 <1>   0.1500 
@<TRIPOS>BOND
  1   1   2  1   
  2   2   3  1   
  3   2   4  1   
  4   2   5  1   
  5   5   6  ar  
  6   5   7  ar  
  7   6   8  ar  
  8   6  27  1   
  9   7   9  ar  
 10   7  28  1   
 11   8  10  1   
 12   8  11  ar  
 13   9  11  ar  
 14   9  29  1   
 15  10  12  1   
 16  11  30  1   
 17  12  13  1   
 18  12  31  1   
 19  12  32  1   
 20  13  14  2   
 21  13  15  am  
 22  15  16  1   
 23  15  17  1   
 24  16  18  1   
 25  16  33  1   
 26  16  34  1   
 27  17  19  1   
 28  17  35  1   
 29  17  36  1   
 30  18  20  1   
 31  18  37  1   
 32  18  38  1   
 33  19  20  1   
 34  19  39  1   
 35  19  40  1   
 36  20  21  1   
 37  21  22  ar  
 38  21  23  ar  
 39  22  24  ar  
 40  23  25  ar  
 41  23  41  1   
 42  24  26  ar  
 43  24  42  1   
 44  25  26  ar  
 45  25  43  1   
 46  26  44  1   
@<TRIPOS>SUBSTRUCTURE
  1 ****  16 GROUP 4 **** **** 0

# MOE 2024.06 (io_trps.svl 2023.06)
