@<TRIPOS>MOLECULE
ka-07080
29 30 1 0 0 
SMALL
USER_CHARGES


@<TRIPOS>ATOM
  1 O        0.3340    -0.1470     0.5490 O.3   1 <1>  -0.6800 
  2 C        0.8750    -1.4090     0.6700 C.3   1 <1>   0.2000 
  3 C        2.3820    -1.3120     0.4250 C.3   1 <1>  -0.1600 
  4 C        0.1870    -2.3180    -0.3510 C.3   1 <1>  -0.1600 
  5 C        3.0230    -2.7100     0.4190 C.3   1 <1>   0.0640 
  6 C        0.8250    -3.7150    -0.3700 C.3   1 <1>  -0.1600 
  7 C        4.5280    -2.6250     0.1720 C.ar  1 <1>  -0.1440 
  8 C        2.3400    -3.6270    -0.6100 C.3   1 <1>  -0.1600 
  9 C        5.0360    -2.0960    -1.0070 C.ar  1 <1>  -0.1500 
 10 C        5.4140    -3.0810     1.1380 C.ar  1 <1>  -0.1500 
 11 C        6.4030    -2.0240    -1.2170 C.ar  1 <1>  -0.1500 
 12 C        6.7810    -3.0110     0.9310 C.ar  1 <1>  -0.1500 
 13 C        7.2770    -2.4820    -0.2470 C.ar  1 <1>  -0.1500 
 14 H        0.7850     0.4710     1.1540 H     1 <1>   0.4000 
 15 H        0.6790    -1.7620     1.6700 H     1 <1>   0.0800 
 16 H        2.8420    -0.7200     1.1950 H     1 <1>   0.0800 
 17 H        2.5530    -0.8370    -0.5250 H     1 <1>   0.0800 
 18 H        0.2730    -1.8790    -1.3300 H     1 <1>   0.0800 
 19 H       -0.8570    -2.4030    -0.1080 H     1 <1>   0.0800 
 20 H        2.8640    -3.1430     1.3920 H     1 <1>   0.0800 
 21 H        0.3710    -4.3080    -1.1460 H     1 <1>   0.0800 
 22 H        0.6390    -4.2050     0.5700 H     1 <1>   0.0800 
 23 H        2.7720    -4.6110    -0.5510 H     1 <1>   0.0800 
 24 H        2.5150    -3.2520    -1.6020 H     1 <1>   0.0800 
 25 H        4.3710    -1.7370    -1.7720 H     1 <1>   0.1500 
 26 H        5.0470    -3.4960     2.0590 H     1 <1>   0.1500 
 27 H        6.7850    -1.6130    -2.1340 H     1 <1>   0.1500 
 28 H        7.4590    -3.3680     1.6860 H     1 <1>   0.1500 
 29 H        8.3390    -2.4260    -0.4090 H     1 <1>   0.1500 
@<TRIPOS>BOND
  1   1   2  1   
  2   1  14  1   
  3   2   3  1   
  4   2   4  1   
  5   2  15  1   
  6   3   5  1   
  7   3  16  1   
  8   3  17  1   
  9   4   6  1   
 10   4  18  1   
 11   4  19  1   
 12   5   7  1   
 13   5   8  1   
 14   5  20  1   
 15   6   8  1   
 16   6  21  1   
 17   6  22  1   
 18   7   9  ar  
 19   7  10  ar  
 20   8  23  1   
 21   8  24  1   
 22   9  11  ar  
 23   9  25  1   
 24  10  12  ar  
 25  10  26  1   
 26  11  13  ar  
 27  11  27  1   
 28  12  13  ar  
 29  12  28  1   
 30  13  29  1   
@<TRIPOS>SUBSTRUCTURE
  1 ****   5 GROUP 4 **** **** 0

# MOE 2024.06 (io_trps.svl 2023.06)
