@<TRIPOS>MOLECULE
NONAME
42 43 1 0 0 
SMALL
USER_CHARGES


@<TRIPOS>ATOM
  1 N       -0.2240     0.5710    -0.8170 N.3   1 <1>  -0.3020 
  2 N        1.1650     0.3150    -1.3140 N.4   1 <1>  -0.6410 
  3 C       -0.5510     2.0030    -0.6430 C.3   1 <1>   0.1100 
  4 C       -0.5950    -0.2490     0.3570 C.3   1 <1>   0.1100 
  5 C        2.2780     0.7130    -0.4150 C.3   1 <1>   0.4230 
  6 C       -2.0470     2.1950    -0.3120 C.3   1 <1>   0.3430 
  7 C       -2.0910    -0.0820     0.7030 C.3   1 <1>   0.3430 
  8 C        2.9340     1.9960    -0.9390 C.3   1 <1>  -0.1600 
  9 C        3.2930    -0.4320    -0.3440 C.3   1 <1>  -0.1600 
 10 N       -2.4750     1.3640     0.8680 N.4   1 <1>  -0.9590 
 11 C        4.1290     2.3930    -0.0610 C.3   1 <1>  -0.1600 
 12 C        4.4910    -0.0450     0.5350 C.3   1 <1>  -0.1600 
 13 C       -3.9530     1.4910     1.0910 C.3   1 <1>   0.2630 
 14 C        5.1540     1.2520     0.0430 C.3   1 <1>  -0.0800 
 15 C        6.3000     1.6510     0.9780 C.3   1 <1>  -0.2400 
 16 H        1.3190     0.7790    -2.2230 H     1 <1>   0.4500 
 17 H        1.2860    -0.6880    -1.5270 H     1 <1>   0.4500 
 18 H       -0.3300     2.5330    -1.5540 H     1 <1>   0.0800 
 19 H        0.0450     2.4280     0.1450 H     1 <1>   0.0800 
 20 H        0.0010     0.0290     1.2090 H     1 <1>   0.0800 
 21 H       -0.4060    -1.2870     0.1420 H     1 <1>   0.0800 
 22 H        1.8990     0.8910     0.5780 H     1 <1>   0.0800 
 23 H       -2.6290     1.9200    -1.1770 H     1 <1>   0.0800 
 24 H       -2.2360     3.2380    -0.1120 H     1 <1>   0.0800 
 25 H       -2.3100    -0.6250     1.6090 H     1 <1>   0.0800 
 26 H       -2.6770    -0.5230    -0.0890 H     1 <1>   0.0800 
 27 H        2.2290     2.8080    -0.9400 H     1 <1>   0.0800 
 28 H        3.2890     1.8470    -1.9440 H     1 <1>   0.0800 
 29 H        3.6580    -0.6680    -1.3290 H     1 <1>   0.0800 
 30 H        2.8340    -1.3110     0.0750 H     1 <1>   0.0800 
 31 H       -2.0100     1.7320     1.7130 H     1 <1>   0.4500 
 32 H        3.7850     2.6570     0.9260 H     1 <1>   0.0800 
 33 H        4.6080     3.2640    -0.4790 H     1 <1>   0.0800 
 34 H        5.2160    -0.8420     0.5240 H     1 <1>   0.0800 
 35 H        4.1680     0.0820     1.5550 H     1 <1>   0.0800 
 36 H       -4.4980     1.1220     0.2370 H     1 <1>   0.0800 
 37 H       -4.2220     2.5240     1.2480 H     1 <1>   0.0800 
 38 H       -4.2530     0.9270     1.9590 H     1 <1>   0.0800 
 39 H        5.5720     1.0750    -0.9360 H     1 <1>   0.0800 
 40 H        5.9380     1.8410     1.9730 H     1 <1>   0.0800 
 41 H        6.7870     2.5390     0.6160 H     1 <1>   0.0800 
 42 H        7.0340     0.8650     1.0260 H     1 <1>   0.0800 
@<TRIPOS>BOND
  1   1   2  1   
  2   1   3  1   
  3   1   4  1   
  4   2   5  1   
  5   2  16  1   
  6   2  17  1   
  7   3   6  1   
  8   3  18  1   
  9   3  19  1   
 10   4   7  1   
 11   4  20  1   
 12   4  21  1   
 13   5   8  1   
 14   5   9  1   
 15   5  22  1   
 16   6  10  1   
 17   6  23  1   
 18   6  24  1   
 19   7  10  1   
 20   7  25  1   
 21   7  26  1   
 22   8  11  1   
 23   8  27  1   
 24   8  28  1   
 25   9  12  1   
 26   9  29  1   
 27   9  30  1   
 28  10  13  1   
 29  10  31  1   
 30  11  14  1   
 31  11  32  1   
 32  11  33  1   
 33  12  14  1   
 34  12  34  1   
 35  12  35  1   
 36  13  36  1   
 37  13  37  1   
 38  13  38  1   
 39  14  15  1   
 40  14  39  1   
 41  15  40  1   
 42  15  41  1   
 43  15  42  1   
@<TRIPOS>SUBSTRUCTURE
  1 ****   5 GROUP 4 **** **** 0

# MOE 2024.06 (io_trps.svl 2023.06)
