@<TRIPOS>MOLECULE
NONAME
38 39 1 0 0 
SMALL
USER_CHARGES


@<TRIPOS>ATOM
  1 O        2.8920     1.4810    -0.4180 O.2   1 <1>  -0.5700 
  2 C        2.7600     2.6690    -0.2290 C.2   1 <1>   0.7060 
  3 O        3.8050     3.4810    -0.3900 O.3   1 <1>  -0.4300 
  4 C        1.4940     3.2580     0.1680 C.2   1 <1>  -0.1240 
  5 C        5.0690     2.9880    -0.7780 C.3   1 <1>   0.1200 
  6 C        0.3440     2.5680     0.3130 C.2   1 <1>  -0.2880 
  7 C        1.4970     4.7630     0.4310 C.3   1 <1>  -0.0220 
  8 C        6.0300     4.1690    -0.8690 C.3   1 <1>  -0.2400 
  9 C       -1.0050     3.1320     0.6960 C.3   1 <1>   0.4810 
 10 C        0.2190     5.2340     1.1330 C.3   1 <1>   0.3430 
 11 N       -0.9820     4.6100     0.5050 N.4   1 <1>  -0.9590 
 12 C       -2.2490     5.2420     0.9600 C.3   1 <1>   0.4860 
 13 C       -3.4000     4.6530     0.1690 C.ar  1 <1>  -0.1440 
 14 C       -4.2780     3.7620     0.7720 C.ar  1 <1>  -0.1500 
 15 C       -3.5810     4.9930    -1.1650 C.ar  1 <1>  -0.1500 
 16 C       -5.3170     3.2090     0.0450 C.ar  1 <1>  -0.1500 
 17 C       -4.6210     4.4370    -1.8890 C.ar  1 <1>  -0.1500 
 18 C       -5.4870     3.5440    -1.2850 C.ar  1 <1>  -0.1500 
 19 H        4.9670     2.4970    -1.7320 H     1 <1>   0.0800 
 20 H        5.4000     2.2760    -0.0400 H     1 <1>   0.0800 
 21 H        0.3070     1.5000     0.1560 H     1 <1>   0.1500 
 22 H        1.6140     5.2890    -0.5010 H     1 <1>   0.0800 
 23 H        2.3330     5.0260     1.0560 H     1 <1>   0.0800 
 24 H        5.6850     4.8740    -1.6030 H     1 <1>   0.0800 
 25 H        7.0030     3.8190    -1.1640 H     1 <1>   0.0800 
 26 H        6.1170     4.6530     0.0870 H     1 <1>   0.0800 
 27 H       -1.2260     2.8830     1.7220 H     1 <1>   0.0800 
 28 H       -1.7690     2.6980     0.0680 H     1 <1>   0.0800 
 29 H        0.1580     6.3090     1.0750 H     1 <1>   0.0800 
 30 H        0.2650     4.9540     2.1730 H     1 <1>   0.0800 
 31 H       -0.9250     4.7470    -0.5110 H     1 <1>   0.4500 
 32 H       -2.2150     6.3060     0.7950 H     1 <1>   0.0800 
 33 H       -2.4000     5.0640     2.0130 H     1 <1>   0.0800 
 34 H       -4.1720     3.4900     1.8090 H     1 <1>   0.1500 
 35 H       -2.9280     5.6930    -1.6580 H     1 <1>   0.1500 
 36 H       -5.9990     2.5180     0.5130 H     1 <1>   0.1500 
 37 H       -4.7640     4.7000    -2.9250 H     1 <1>   0.1500 
 38 H       -6.2970     3.1130    -1.8500 H     1 <1>   0.1500 
@<TRIPOS>BOND
  1   1   2  2   
  2   2   3  1   
  3   2   4  1   
  4   3   5  1   
  5   4   6  2   
  6   4   7  1   
  7   5   8  1   
  8   5  19  1   
  9   5  20  1   
 10   6   9  1   
 11   6  21  1   
 12   7  10  1   
 13   7  22  1   
 14   7  23  1   
 15   8  24  1   
 16   8  25  1   
 17   8  26  1   
 18   9  11  1   
 19   9  27  1   
 20   9  28  1   
 21  10  11  1   
 22  10  29  1   
 23  10  30  1   
 24  11  12  1   
 25  11  31  1   
 26  12  13  1   
 27  12  32  1   
 28  12  33  1   
 29  13  14  ar  
 30  13  15  ar  
 31  14  16  ar  
 32  14  34  1   
 33  15  17  ar  
 34  15  35  1   
 35  16  18  ar  
 36  16  36  1   
 37  17  18  ar  
 38  17  37  1   
 39  18  38  1   
@<TRIPOS>SUBSTRUCTURE
  1 ****  11 GROUP 4 **** **** 0

# MOE 2024.06 (io_trps.svl 2023.06)
