@<TRIPOS>MOLECULE
NONAME
52 54 1 0 0 
SMALL
USER_CHARGES


@<TRIPOS>ATOM
  1 S        0.3020     0.0270     0.9850 S.o2  1 <1>   1.4470 
  2 O        0.8000     0.2890     2.3190 O.2   1 <1>  -0.6500 
  3 O       -0.5800     0.9870     0.3560 O.2   1 <1>  -0.6500 
  4 N        1.6620    -0.1250    -0.0180 N.am  1 <1>  -0.8490 
  5 C       -0.4560    -1.6190     0.9010 C.ar  1 <1>  -0.0090 
  6 C        2.6790    -1.0180     0.5640 C.3   1 <1>   0.1960 
  7 C        2.2420     1.1880    -0.3150 C.3   1 <1>   0.1960 
  8 C       -0.4340    -2.4840     1.9900 C.ar  1 <1>  -0.1500 
  9 C       -1.0590    -2.0650    -0.2700 C.ar  1 <1>  -0.1500 
 10 C        3.8170    -1.2620    -0.4380 C.3   1 <1>  -0.0190 
 11 C        3.3780     1.0500    -1.3360 C.3   1 <1>  -0.1600 
 12 C       -0.9940    -3.7470     1.9110 C.ar  1 <1>  -0.1500 
 13 C       -1.6230    -3.3260    -0.3580 C.ar  1 <1>  -0.1500 
 14 C        4.8500    -2.2130     0.1460 C.2   1 <1>   0.5690 
 15 C        4.4590     0.0730    -0.8540 C.3   1 <1>  -0.1600 
 16 C       -1.5910    -4.1790     0.7400 C.ar  1 <1>   0.0830 
 17 O        5.1090    -2.1610     1.3240 O.2   1 <1>  -0.5700 
 18 N        5.4710    -3.0890    -0.6860 N.am  1 <1>  -0.7300 
 19 O       -2.1160    -5.4280     0.7430 O.3   1 <1>  -0.3630 
 20 C        6.4970    -4.0850    -0.2630 C.3   1 <1>   0.1400 
 21 C       -2.7750    -5.9530    -0.3880 C.3   1 <1>   0.0400 
 22 C        7.9160    -3.6060    -0.5990 C.3   1 <1>   0.2000 
 23 O        8.8320    -4.6060    -0.2730 O.3   1 <1>  -0.5600 
 24 C        8.3660    -2.3700     0.1710 C.3   1 <1>  -0.1600 
 25 C       10.0030    -4.0830     0.2770 C.3   1 <1>   0.1200 
 26 C        9.8640    -2.5660     0.2480 C.3   1 <1>  -0.1600 
 27 H        2.2350    -1.9660     0.8170 H     1 <1>   0.0800 
 28 H        3.0750    -0.5850     1.4690 H     1 <1>   0.0800 
 29 H        2.6110     1.6390     0.5930 H     1 <1>   0.0800 
 30 H        1.4860     1.8370    -0.7270 H     1 <1>   0.0800 
 31 H        0.0260    -2.1670     2.9110 H     1 <1>   0.1500 
 32 H       -1.0860    -1.4090    -1.1240 H     1 <1>   0.1500 
 33 H        3.3870    -1.7300    -1.3050 H     1 <1>   0.0800 
 34 H        3.8160     2.0170    -1.5100 H     1 <1>   0.0800 
 35 H        2.9620     0.7060    -2.2670 H     1 <1>   0.0800 
 36 H       -0.9710    -4.4080     2.7600 H     1 <1>   0.1500 
 37 H       -2.0790    -3.6240    -1.2830 H     1 <1>   0.1500 
 38 H        5.1830    -0.0890    -1.6330 H     1 <1>   0.0800 
 39 H        4.9710     0.4980    -0.0060 H     1 <1>   0.0800 
 40 H        5.2450    -3.0890    -1.6820 H     1 <1>   0.3700 
 41 H        6.3090    -5.0170    -0.7660 H     1 <1>   0.0800 
 42 H        6.4230    -4.2500     0.7990 H     1 <1>   0.0800 
 43 H       -3.1120    -6.9450    -0.1470 H     1 <1>   0.0800 
 44 H       -2.0820    -5.9910    -1.2090 H     1 <1>   0.0800 
 45 H       -3.6180    -5.3270    -0.6220 H     1 <1>   0.0800 
 46 H        8.0110    -3.4380    -1.6580 H     1 <1>   0.0800 
 47 H        7.9360    -2.3780     1.1580 H     1 <1>   0.0800 
 48 H        8.0860    -1.4590    -0.3280 H     1 <1>   0.0800 
 49 H       10.8460    -4.4260    -0.2980 H     1 <1>   0.0800 
 50 H       10.0760    -4.4440     1.2890 H     1 <1>   0.0800 
 51 H       10.2990    -2.1040     1.1160 H     1 <1>   0.0800 
 52 H       10.3410    -2.1820    -0.6370 H     1 <1>   0.0800 
@<TRIPOS>BOND
  1   1   2  2   
  2   1   3  2   
  3   1   4  am  
  4   1   5  1   
  5   4   6  1   
  6   4   7  1   
  7   5   8  ar  
  8   5   9  ar  
  9   6  10  1   
 10   6  27  1   
 11   6  28  1   
 12   7  11  1   
 13   7  29  1   
 14   7  30  1   
 15   8  12  ar  
 16   8  31  1   
 17   9  13  ar  
 18   9  32  1   
 19  10  14  1   
 20  10  15  1   
 21  10  33  1   
 22  11  15  1   
 23  11  34  1   
 24  11  35  1   
 25  12  16  ar  
 26  12  36  1   
 27  13  16  ar  
 28  13  37  1   
 29  14  17  2   
 30  14  18  am  
 31  15  38  1   
 32  15  39  1   
 33  16  19  1   
 34  18  20  1   
 35  18  40  1   
 36  19  21  1   
 37  20  22  1   
 38  20  41  1   
 39  20  42  1   
 40  21  43  1   
 41  21  44  1   
 42  21  45  1   
 43  22  23  1   
 44  22  24  1   
 45  22  46  1   
 46  23  25  1   
 47  24  26  1   
 48  24  47  1   
 49  24  48  1   
 50  25  26  1   
 51  25  49  1   
 52  25  50  1   
 53  26  51  1   
 54  26  52  1   
@<TRIPOS>SUBSTRUCTURE
  1 ****   6 GROUP 4 **** **** 0

# MOE 2024.06 (io_trps.svl 2023.06)
