@<TRIPOS>MOLECULE
NONAME
48 50 1 0 0 
SMALL
USER_CHARGES


@<TRIPOS>ATOM
  1 O       -0.5040     0.9490    -2.0260 O.2   1 <1>  -0.5700 
  2 C       -0.9080     1.6760    -1.1500 C.2   1 <1>   0.4950 
  3 C       -0.0530     2.5220    -0.3710 C.2   1 <1>   0.0290 
  4 C       -2.4060     1.6290    -0.9170 C.3   1 <1>  -0.0990 
  5 C       -0.6420     3.3240     0.6680 C.2   1 <1>   0.4950 
  6 C        1.3000     2.5380    -0.6430 C.2   1 <1>  -0.0500 
  7 C       -2.9260     2.9390    -0.3300 C.3   1 <1>   0.0640 
  8 O       -0.0290     4.0680     1.4010 O.2   1 <1>  -0.5700 
  9 C       -2.1370     3.2820     0.9320 C.3   1 <1>  -0.0990 
 10 N        2.2380     3.2760    -0.0050 N.pl3 1 <1>  -0.8690 
 11 C       -4.4250     2.8690    -0.0500 C.ar  1 <1>  -0.1430 
 12 C        3.6810     3.3010    -0.2830 C.3   1 <1>   0.2890 
 13 C       -4.9540     1.9530     0.8510 C.ar  1 <1>  -0.1500 
 14 C       -5.2870     3.7370    -0.7050 C.ar  1 <1>  -0.1500 
 15 C        4.4300     2.8440     0.9710 C.3   1 <1>  -0.1600 
 16 C        4.0790     4.7240    -0.6800 C.3   1 <1>  -0.1600 
 17 C       -6.3160     1.9060     1.0900 C.ar  1 <1>  -0.1500 
 18 C       -6.6500     3.6910    -0.4670 C.ar  1 <1>  -0.1500 
 19 C        5.9510     2.9620     0.7860 C.3   1 <1>  -0.1600 
 20 C        5.5990     4.8460    -0.8690 C.3   1 <1>  -0.1600 
 21 C       -7.1660     2.7750     0.4310 C.ar  1 <1>  -0.1500 
 22 C        6.3570     4.3910     0.3890 C.3   1 <1>  -0.0800 
 23 C        7.8690     4.4740     0.1620 C.3   1 <1>  -0.2400 
 24 H       -2.6200     0.8050    -0.2630 H     1 <1>   0.0800 
 25 H       -2.9020     1.4420    -1.8530 H     1 <1>   0.0800 
 26 H        1.6670     1.9060    -1.4390 H     1 <1>   0.1500 
 27 H       -2.7480     3.7200    -1.0520 H     1 <1>   0.0800 
 28 H       -2.4570     4.2420     1.2950 H     1 <1>   0.0800 
 29 H       -2.3220     2.5610     1.7070 H     1 <1>   0.0800 
 30 H        1.9430     3.8980     0.7690 H     1 <1>   0.4000 
 31 H        3.9030     2.6290    -1.0960 H     1 <1>   0.0800 
 32 H       -4.3150     1.2660     1.3770 H     1 <1>   0.1500 
 33 H       -4.9080     4.4580    -1.4090 H     1 <1>   0.1500 
 34 H        4.1710     1.8220     1.1830 H     1 <1>   0.0800 
 35 H        4.1290     3.4510     1.8060 H     1 <1>   0.0800 
 36 H        3.7630     5.4090     0.0870 H     1 <1>   0.0800 
 37 H        3.5810     4.9870    -1.5960 H     1 <1>   0.0800 
 38 H       -6.7170     1.1920     1.7900 H     1 <1>   0.1500 
 39 H       -7.3100     4.3680    -0.9810 H     1 <1>   0.1500 
 40 H        6.2670     2.2720     0.0220 H     1 <1>   0.0800 
 41 H        6.4410     2.6870     1.7040 H     1 <1>   0.0800 
 42 H        5.8470     5.8700    -1.0910 H     1 <1>   0.0800 
 43 H        5.8990     4.2440    -1.7090 H     1 <1>   0.0800 
 44 H       -8.2250     2.7390     0.6170 H     1 <1>   0.1500 
 45 H        6.1010     5.0550     1.2000 H     1 <1>   0.0800 
 46 H        8.1690     3.8240    -0.6420 H     1 <1>   0.0800 
 47 H        8.3960     4.1830     1.0540 H     1 <1>   0.0800 
 48 H        8.1540     5.4810    -0.0860 H     1 <1>   0.0800 
@<TRIPOS>BOND
  1   1   2  2   
  2   2   3  1   
  3   2   4  1   
  4   3   5  1   
  5   3   6  2   
  6   4   7  1   
  7   4  24  1   
  8   4  25  1   
  9   5   8  2   
 10   5   9  1   
 11   6  10  1   
 12   6  26  1   
 13   7   9  1   
 14   7  11  1   
 15   7  27  1   
 16   9  28  1   
 17   9  29  1   
 18  10  12  1   
 19  10  30  1   
 20  11  13  ar  
 21  11  14  ar  
 22  12  15  1   
 23  12  16  1   
 24  12  31  1   
 25  13  17  ar  
 26  13  32  1   
 27  14  18  ar  
 28  14  33  1   
 29  15  19  1   
 30  15  34  1   
 31  15  35  1   
 32  16  20  1   
 33  16  36  1   
 34  16  37  1   
 35  17  21  ar  
 36  17  38  1   
 37  18  21  ar  
 38  18  39  1   
 39  19  22  1   
 40  19  40  1   
 41  19  41  1   
 42  20  22  1   
 43  20  42  1   
 44  20  43  1   
 45  21  44  1   
 46  22  23  1   
 47  22  45  1   
 48  23  46  1   
 49  23  47  1   
 50  23  48  1   
@<TRIPOS>SUBSTRUCTURE
  1 ****   3 GROUP 4 **** **** 0

# MOE 2024.06 (io_trps.svl 2023.06)
