@<TRIPOS>MOLECULE
NONAME
47 49 1 0 0 
SMALL
USER_CHARGES


@<TRIPOS>ATOM
  1 N       -1.3340    -1.4880     2.4370 N.2   1 <1>  -0.5650 
  2 C       -1.5060    -1.3970     1.1070 C.2   1 <1>   0.0460 
  3 C       -2.4130    -2.0650     2.8530 C.2   1 <1>   0.0360 
  4 C       -2.7010    -1.9130     0.7380 C.2   1 <1>  -0.3320 
  5 C       -0.4180    -0.7710     0.2640 C.3   1 <1>  -0.0590 
  6 N       -3.2860    -2.3510     1.8670 N.pl3 1 <1>   0.0330 
  7 C       -3.3630    -2.0300    -0.6170 C.3   1 <1>   0.2900 
  8 N       -4.6000    -1.2300    -0.6170 N.3   1 <1>  -0.8100 
  9 C       -4.3090     0.2140    -0.3970 C.3   1 <1>   0.1100 
 10 C       -5.3610    -1.4160    -1.8730 C.3   1 <1>   0.1100 
 11 C       -5.5680     1.1080    -0.5040 C.3   1 <1>   0.3430 
 12 C       -6.6840    -0.6090    -1.8890 C.3   1 <1>   0.3430 
 13 N       -6.8040     0.2820    -0.6860 N.4   1 <1>  -0.9590 
 14 C       -8.0550     1.0630    -0.6160 C.3   1 <1>   0.4810 
 15 C       -9.1800     0.0900    -0.3630 C.2   1 <1>  -0.2880 
 16 C       -9.7970    -0.0720     0.8210 C.2   1 <1>  -0.1780 
 17 C      -10.8740    -0.9820     1.1500 C.ar  1 <1>   0.0280 
 18 C      -11.2650    -1.1430     2.4770 C.ar  1 <1>  -0.1500 
 19 C      -11.5560    -1.7210     0.1840 C.ar  1 <1>  -0.1500 
 20 C      -12.2850    -2.0090     2.8300 C.ar  1 <1>  -0.1500 
 21 C      -12.5760    -2.5890     0.5300 C.ar  1 <1>  -0.1500 
 22 C      -12.9430    -2.7350     1.8550 C.ar  1 <1>  -0.1500 
 23 H       -2.6120    -2.3020     3.8840 H     1 <1>   0.1500 
 24 H       -0.6900    -0.7580    -0.7740 H     1 <1>   0.0800 
 25 H        0.4900    -1.3350     0.3810 H     1 <1>   0.0800 
 26 H       -0.2420     0.2360     0.5960 H     1 <1>   0.0800 
 27 H       -4.2020    -2.7980     1.9570 H     1 <1>   0.2700 
 28 H       -3.5960    -3.0650    -0.8060 H     1 <1>   0.0800 
 29 H       -2.6970    -1.6890    -1.3920 H     1 <1>   0.0800 
 30 H       -3.8840     0.3500     0.5830 H     1 <1>   0.0800 
 31 H       -3.5760     0.5550    -1.1090 H     1 <1>   0.0800 
 32 H       -4.7570    -1.1150    -2.7130 H     1 <1>   0.0800 
 33 H       -5.5940    -2.4600    -2.0020 H     1 <1>   0.0800 
 34 H       -5.4510     1.7830    -1.3350 H     1 <1>   0.0800 
 35 H       -5.6470     1.7020     0.3930 H     1 <1>   0.0800 
 36 H       -7.5080    -1.3030    -1.9090 H     1 <1>   0.0800 
 37 H       -6.7290    -0.0230    -2.7920 H     1 <1>   0.0800 
 38 H       -6.7960    -0.3740     0.1100 H     1 <1>   0.4500 
 39 H       -8.0020     1.7610     0.2040 H     1 <1>   0.0800 
 40 H       -8.2220     1.6140    -1.5280 H     1 <1>   0.0800 
 41 H       -9.4490    -0.4730    -1.2370 H     1 <1>   0.1500 
 42 H       -9.4870     0.5230     1.6640 H     1 <1>   0.1500 
 43 H      -10.7680    -0.5880     3.2520 H     1 <1>   0.1500 
 44 H      -11.3010    -1.6230    -0.8530 H     1 <1>   0.1500 
 45 H      -12.5690    -2.1180     3.8620 H     1 <1>   0.1500 
 46 H      -13.0890    -3.1510    -0.2310 H     1 <1>   0.1500 
 47 H      -13.7360    -3.4100     2.1260 H     1 <1>   0.1500 
@<TRIPOS>BOND
  1   1   2  1   
  2   1   3  2   
  3   2   4  2   
  4   2   5  1   
  5   3   6  1   
  6   3  23  1   
  7   4   6  1   
  8   4   7  1   
  9   5  24  1   
 10   5  25  1   
 11   5  26  1   
 12   6  27  1   
 13   7   8  1   
 14   7  28  1   
 15   7  29  1   
 16   8   9  1   
 17   8  10  1   
 18   9  11  1   
 19   9  30  1   
 20   9  31  1   
 21  10  12  1   
 22  10  32  1   
 23  10  33  1   
 24  11  13  1   
 25  11  34  1   
 26  11  35  1   
 27  12  13  1   
 28  12  36  1   
 29  12  37  1   
 30  13  14  1   
 31  13  38  1   
 32  14  15  1   
 33  14  39  1   
 34  14  40  1   
 35  15  16  2   
 36  15  41  1   
 37  16  17  1   
 38  16  42  1   
 39  17  18  ar  
 40  17  19  ar  
 41  18  20  ar  
 42  18  43  1   
 43  19  21  ar  
 44  19  44  1   
 45  20  22  ar  
 46  20  45  1   
 47  21  22  ar  
 48  21  46  1   
 49  22  47  1   
@<TRIPOS>SUBSTRUCTURE
  1 ****  13 GROUP 4 **** **** 0

# MOE 2024.06 (io_trps.svl 2023.06)
