@<TRIPOS>MOLECULE
NONAME
27 30 1 0 0 
SMALL
USER_CHARGES


@<TRIPOS>ATOM
  1 S        0.0200    -0.1130     0.2120 S.3   1 <1>  -0.0800 
  2 C        0.8610     1.4240     0.1280 C.2   1 <1>   0.1040 
  3 C       -1.5290     0.7200     0.1120 C.2   1 <1>  -0.1400 
  4 N        2.2360     1.5490     0.1510 N.am  1 <1>  -0.4940 
  5 C        0.0010     2.4750     0.0340 C.2   1 <1>  -0.0010 
  6 C       -1.3710     2.0520     0.0350 C.2   1 <1>  -0.1810 
  7 C       -2.8250    -0.0610     0.1200 C.3   1 <1>   0.0200 
  8 C        2.7950     2.7990     0.0730 C.2   1 <1>   0.6390 
  9 C        0.5760     3.7910    -0.0530 C.2   1 <1>   0.1870 
 10 C       -2.5610     2.9960    -0.0480 C.3   1 <1>   0.0210 
 11 C       -3.9740     0.8680    -0.3150 C.3   1 <1>  -0.1600 
 12 O        4.0030     2.9260     0.0930 O.2   1 <1>  -0.5700 
 13 N        1.9260     3.9040    -0.0280 N.pl3 1 <1>   0.2940 
 14 N        0.0160     4.9590    -0.1570 N.2   1 <1>  -0.3380 
 15 C       -3.8670     2.2660     0.3310 C.3   1 <1>  -0.1600 
 16 C        2.1100     5.2250    -0.1260 C.2   1 <1>   0.0370 
 17 N        0.9960     5.8660    -0.2030 N.2   1 <1>  -0.3380 
 18 H        2.8570     0.7410     0.2230 H     1 <1>   0.3700 
 19 H       -3.0020    -0.4300     1.1150 H     1 <1>   0.0800 
 20 H       -2.7580    -0.8990    -0.5510 H     1 <1>   0.0800 
 21 H       -2.6300     3.3760    -1.0510 H     1 <1>   0.0800 
 22 H       -2.4160     3.8300     0.6170 H     1 <1>   0.0800 
 23 H       -4.9160     0.4160    -0.0590 H     1 <1>   0.0800 
 24 H       -3.9420     0.9810    -1.3850 H     1 <1>   0.0800 
 25 H       -4.7070     2.8700     0.0370 H     1 <1>   0.0800 
 26 H       -3.9020     2.1550     1.4010 H     1 <1>   0.0800 
 27 H        3.0890     5.6690    -0.1360 H     1 <1>   0.1500 
@<TRIPOS>BOND
  1   1   2  1   
  2   1   3  1   
  3   2   4  1   
  4   2   5  2   
  5   3   6  2   
  6   3   7  1   
  7   4   8  am  
  8   4  18  1   
  9   5   6  1   
 10   5   9  1   
 11   6  10  1   
 12   7  11  1   
 13   7  19  1   
 14   7  20  1   
 15   8  12  2   
 16   8  13  1   
 17   9  13  1   
 18   9  14  2   
 19  10  15  1   
 20  10  21  1   
 21  10  22  1   
 22  11  15  1   
 23  11  23  1   
 24  11  24  1   
 25  13  16  1   
 26  14  17  1   
 27  15  25  1   
 28  15  26  1   
 29  16  17  2   
 30  16  27  1   
@<TRIPOS>SUBSTRUCTURE
  1 ****   5 GROUP 4 **** **** 0

# MOE 2024.06 (io_trps.svl 2023.06)
