@<TRIPOS>MOLECULE
NONAME
51 53 1 0 0 
SMALL
USER_CHARGES


@<TRIPOS>ATOM
  1 S       -0.1140    -0.0450    -0.5490 S.o2  1 <1>   1.2040 
  2 O        0.1530    -1.2910     0.1370 O.2   1 <1>  -0.6500 
  3 O       -0.3910    -0.0420    -1.9710 O.2   1 <1>  -0.6500 
  4 C        1.2510     1.0980    -0.2240 C.ar  1 <1>  -0.0090 
  5 C       -1.4540     0.8050     0.2940 C.3   1 <1>   0.0890 
  6 C        2.0350     0.9710     0.9160 C.ar  1 <1>  -0.1500 
  7 C        1.5260     2.1530    -1.0850 C.ar  1 <1>  -0.1500 
  8 C       -2.7950     0.0830     0.2360 C.ar  1 <1>  -0.1440 
  9 C        3.0520     1.8700     1.1920 C.ar  1 <1>  -0.1500 
 10 C        2.5410     3.0550    -0.8160 C.ar  1 <1>  -0.1500 
 11 C       -3.3370    -0.4910     1.3750 C.ar  1 <1>  -0.1500 
 12 C       -3.4880    -0.0140    -0.9610 C.ar  1 <1>  -0.1500 
 13 C        3.3080     2.9200     0.3280 C.ar  1 <1>  -0.1430 
 14 C       -4.5580    -1.1380     1.3180 C.ar  1 <1>  -0.1500 
 15 C       -4.7070    -0.6640    -1.0110 C.ar  1 <1>  -0.1500 
 16 C        4.4240     3.9050     0.6260 C.3   1 <1>  -0.0970 
 17 C       -5.2770    -1.2310     0.1280 C.ar  1 <1>   0.0860 
 18 C       -6.5640    -1.9010     0.0860 C.2   1 <1>   0.5440 
 19 O       -6.6500    -3.0370     0.5140 O.2   1 <1>  -0.5700 
 20 N       -7.6950    -1.2840    -0.4150 N.am  1 <1>  -0.6600 
 21 C       -8.9550    -2.0410    -0.6580 C.3   1 <1>   0.1400 
 22 C       -7.8210     0.1880    -0.6040 C.3   1 <1>   0.1400 
 23 C      -10.0640    -1.5090     0.2550 C.3   1 <1>  -0.1600 
 24 C       -8.9270     0.7350     0.3040 C.3   1 <1>  -0.1600 
 25 C      -10.2610     0.0040     0.0810 C.3   1 <1>  -0.0800 
 26 C      -11.3300     0.5240     1.0480 C.3   1 <1>  -0.2400 
 27 H       -1.5800     1.7780    -0.1380 H     1 <1>   0.0800 
 28 H       -1.1830     0.9480     1.3230 H     1 <1>   0.0800 
 29 H        1.8560     0.1560     1.5980 H     1 <1>   0.1500 
 30 H        0.9450     2.2710    -1.9850 H     1 <1>   0.1500 
 31 H        3.6450     1.7450     2.0820 H     1 <1>   0.1500 
 32 H        2.7330     3.8610    -1.5030 H     1 <1>   0.1500 
 33 H       -2.8130    -0.4450     2.3150 H     1 <1>   0.1500 
 34 H       -3.0780     0.4080    -1.8640 H     1 <1>   0.1500 
 35 H       -4.9710    -1.5890     2.2040 H     1 <1>   0.1500 
 36 H       -5.2310    -0.7440    -1.9480 H     1 <1>   0.1500 
 37 H        5.3420     3.5580     0.1870 H     1 <1>   0.0800 
 38 H        4.5630     4.0080     1.6870 H     1 <1>   0.0800 
 39 H        4.1900     4.8730     0.2200 H     1 <1>   0.0800 
 40 H       -8.8110    -3.0930    -0.4770 H     1 <1>   0.0800 
 41 H       -9.2410    -1.9200    -1.6890 H     1 <1>   0.0800 
 42 H       -8.0600     0.3890    -1.6340 H     1 <1>   0.0800 
 43 H       -6.8990     0.6890    -0.3680 H     1 <1>   0.0800 
 44 H       -9.8020    -1.7350     1.2740 H     1 <1>   0.0800 
 45 H      -10.9800    -2.0250     0.0300 H     1 <1>   0.0800 
 46 H       -9.0520     1.7850     0.1110 H     1 <1>   0.0800 
 47 H       -8.6170     0.6230     1.3280 H     1 <1>   0.0800 
 48 H      -10.5920     0.1930    -0.9270 H     1 <1>   0.0800 
 49 H      -11.0350     0.3510     2.0680 H     1 <1>   0.0800 
 50 H      -12.2660     0.0250     0.8720 H     1 <1>   0.0800 
 51 H      -11.4780     1.5810     0.9080 H     1 <1>   0.0800 
@<TRIPOS>BOND
  1   1   2  2   
  2   1   3  2   
  3   1   4  1   
  4   1   5  1   
  5   4   6  ar  
  6   4   7  ar  
  7   5   8  1   
  8   5  27  1   
  9   5  28  1   
 10   6   9  ar  
 11   6  29  1   
 12   7  10  ar  
 13   7  30  1   
 14   8  11  ar  
 15   8  12  ar  
 16   9  13  ar  
 17   9  31  1   
 18  10  13  ar  
 19  10  32  1   
 20  11  14  ar  
 21  11  33  1   
 22  12  15  ar  
 23  12  34  1   
 24  13  16  1   
 25  14  17  ar  
 26  14  35  1   
 27  15  17  ar  
 28  15  36  1   
 29  16  37  1   
 30  16  38  1   
 31  16  39  1   
 32  17  18  1   
 33  18  19  2   
 34  18  20  am  
 35  20  21  1   
 36  20  22  1   
 37  21  23  1   
 38  21  40  1   
 39  21  41  1   
 40  22  24  1   
 41  22  42  1   
 42  22  43  1   
 43  23  25  1   
 44  23  44  1   
 45  23  45  1   
 46  24  25  1   
 47  24  46  1   
 48  24  47  1   
 49  25  26  1   
 50  25  48  1   
 51  26  49  1   
 52  26  50  1   
 53  26  51  1   
@<TRIPOS>SUBSTRUCTURE
  1 ****   8 GROUP 4 **** **** 0

# MOE 2024.06 (io_trps.svl 2023.06)
