@<TRIPOS>MOLECULE
NONAME
42 42 1 0 0 
SMALL
USER_CHARGES


@<TRIPOS>ATOM
  1 O      -11.8590     5.9950    -1.4040 O.2   1 <1>  -0.5700 
  2 C      -11.3180     6.2300    -0.3480 C.2   1 <1>   0.5690 
  3 N      -11.9100     5.9240     0.8420 N.am  1 <1>  -0.7300 
  4 C       -9.9300     6.8890    -0.3520 C.3   1 <1>   0.2610 
  5 C      -13.2360     5.2830     1.0150 C.3   1 <1>   0.0600 
  6 O       -9.2730     6.6640     0.8940 O.3   1 <1>  -0.3630 
  7 C      -10.0050     8.4060    -0.5590 C.3   1 <1>  -0.2400 
  8 C       -7.9650     6.3090     0.8790 C.ar  1 <1>   0.0820 
  9 C       -7.4870     5.1710     0.2200 C.ar  1 <1>   0.0820 
 10 C       -7.0770     7.1220     1.5620 C.ar  1 <1>  -0.1500 
 11 O       -8.2970     4.3160    -0.4440 O.3   1 <1>  -0.3630 
 12 C       -6.1320     4.8920     0.2200 C.ar  1 <1>  -0.1500 
 13 C       -5.7230     6.8330     1.5670 C.ar  1 <1>  -0.1500 
 14 C       -9.1550     3.5140     0.3370 C.3   1 <1>   0.1200 
 15 C       -5.2420     5.7220     0.8870 C.ar  1 <1>  -0.1440 
 16 C      -10.0620     2.7320    -0.6080 C.3   1 <1>  -0.2400 
 17 C       -3.7630     5.4200     0.8580 C.3   1 <1>   0.4870 
 18 N       -3.2450     6.0060    -0.3960 N.4   1 <1>  -0.9060 
 19 C       -1.7820     5.7990    -0.5970 C.3   1 <1>   0.2630 
 20 H      -11.3830     6.1390     1.6940 H     1 <1>   0.3700 
 21 H       -9.3540     6.4490    -1.1450 H     1 <1>   0.0800 
 22 H      -13.6890     5.0990     0.0550 H     1 <1>   0.0800 
 23 H      -13.8800     5.9290     1.5850 H     1 <1>   0.0800 
 24 H      -13.1230     4.3460     1.5310 H     1 <1>   0.0800 
 25 H      -10.5750     8.8610     0.2310 H     1 <1>   0.0800 
 26 H      -10.4900     8.6160    -1.4950 H     1 <1>   0.0800 
 27 H       -9.0170     8.8270    -0.5830 H     1 <1>   0.0800 
 28 H       -7.4550     7.9830     2.0870 H     1 <1>   0.1500 
 29 H       -5.8010     4.0140    -0.3070 H     1 <1>   0.1500 
 30 H       -5.0590     7.4880     2.1080 H     1 <1>   0.1500 
 31 H       -9.7370     4.1450     0.9850 H     1 <1>   0.0800 
 32 H       -8.5520     2.8490     0.9300 H     1 <1>   0.0800 
 33 H      -10.6510     3.4090    -1.2010 H     1 <1>   0.0800 
 34 H      -10.7290     2.1110    -0.0400 H     1 <1>   0.0800 
 35 H       -9.4750     2.1060    -1.2540 H     1 <1>   0.0800 
 36 H       -3.6040     4.3530     0.8730 H     1 <1>   0.0800 
 37 H       -3.2770     5.8600     1.7140 H     1 <1>   0.0800 
 38 H       -3.4810     7.0070    -0.3910 H     1 <1>   0.4500 
 39 H       -3.7860     5.6030    -1.1730 H     1 <1>   0.4500 
 40 H       -1.2230     6.2500     0.2070 H     1 <1>   0.0800 
 41 H       -1.4650     6.2470    -1.5260 H     1 <1>   0.0800 
 42 H       -1.5510     4.7460    -0.6300 H     1 <1>   0.0800 
@<TRIPOS>BOND
  1   1   2  2   
  2   2   3  am  
  3   2   4  1   
  4   3   5  1   
  5   3  20  1   
  6   4   6  1   
  7   4   7  1   
  8   4  21  1   
  9   5  22  1   
 10   5  23  1   
 11   5  24  1   
 12   6   8  1   
 13   7  25  1   
 14   7  26  1   
 15   7  27  1   
 16   8   9  ar  
 17   8  10  ar  
 18   9  11  1   
 19   9  12  ar  
 20  10  13  ar  
 21  10  28  1   
 22  11  14  1   
 23  12  15  ar  
 24  12  29  1   
 25  13  15  ar  
 26  13  30  1   
 27  14  16  1   
 28  14  31  1   
 29  14  32  1   
 30  15  17  1   
 31  16  33  1   
 32  16  34  1   
 33  16  35  1   
 34  17  18  1   
 35  17  36  1   
 36  17  37  1   
 37  18  19  1   
 38  18  38  1   
 39  18  39  1   
 40  19  40  1   
 41  19  41  1   
 42  19  42  1   
@<TRIPOS>SUBSTRUCTURE
  1 ****   9 GROUP 4 **** **** 0

# MOE 2024.06 (io_trps.svl 2023.06)
