@<TRIPOS>MOLECULE
NONAME
51 53 1 0 0 
SMALL
USER_CHARGES


@<TRIPOS>ATOM
  1 O        0.5600     0.1820    -0.2150 O.2   1 <1>  -0.5700 
  2 C        0.8730    -0.8080    -0.8470 C.2   1 <1>   0.6900 
  3 N        2.1550    -0.9560    -1.3070 N.am  1 <1>  -0.6600 
  4 N       -0.0390    -1.7800    -1.1450 N.am  1 <1>  -0.5470 
  5 C        3.1130     0.1950    -1.2920 C.3   1 <1>   0.1400 
  6 C        2.8350    -2.2860    -1.4440 C.3   1 <1>   0.1400 
  7 C       -1.3520    -1.9870    -0.7020 C.ar  1 <1>   0.1170 
  8 C        4.2100    -0.0020    -0.2330 C.3   1 <1>   0.2090 
  9 C        3.9530    -2.4580    -0.4000 C.3   1 <1>   0.2090 
 10 C       -2.2160    -2.7400    -1.4880 C.ar  1 <1>  -0.1500 
 11 C       -1.8290    -1.4900     0.5050 C.ar  1 <1>  -0.1500 
 12 N        4.9070    -1.3080    -0.4290 N.pl3 1 <1>  -0.8380 
 13 C       -3.5160    -2.9860    -1.0840 C.ar  1 <1>  -0.1500 
 14 C       -3.1290    -1.7340     0.9100 C.ar  1 <1>  -0.1500 
 15 C        6.1350    -1.4610     0.1860 C.ar  1 <1>   0.4100 
 16 C       -3.9880    -2.4850     0.1200 C.ar  1 <1>  -0.1430 
 17 N        6.2060    -2.3070     1.2080 N.ar  1 <1>  -0.6200 
 18 C        7.2290    -0.7340    -0.2770 C.ar  1 <1>  -0.1500 
 19 C       -5.4280    -2.7580     0.5530 C.3   1 <1>   0.0630 
 20 C        7.3920    -2.4220     1.7830 C.ar  1 <1>   0.1600 
 21 C        8.4570    -0.8620     0.3300 C.ar  1 <1>  -0.1500 
 22 C       -6.2150    -1.4370     0.6340 C.3   1 <1>  -0.1600 
 23 C       -5.4460    -3.5380     1.8740 C.3   1 <1>  -0.2400 
 24 C        8.5300    -1.7370     1.3950 C.ar  1 <1>  -0.1500 
 25 C       -7.7200    -1.6320     0.8680 C.3   1 <1>  -0.2400 
 26 H        0.2630    -2.3680    -1.9120 H     1 <1>   0.3700 
 27 H        2.5930     1.1170    -1.0970 H     1 <1>   0.0800 
 28 H        3.5740     0.2800    -2.2600 H     1 <1>   0.0800 
 29 H        3.2660    -2.3600    -2.4270 H     1 <1>   0.0800 
 30 H        2.1320    -3.0900    -1.3250 H     1 <1>   0.0800 
 31 H        3.7640     0.0210     0.7470 H     1 <1>   0.0800 
 32 H        4.9170     0.8050    -0.2960 H     1 <1>   0.0800 
 33 H        4.4890    -3.3710    -0.5950 H     1 <1>   0.0800 
 34 H        3.5180    -2.5340     0.5820 H     1 <1>   0.0800 
 35 H       -1.8740    -3.1360    -2.4260 H     1 <1>   0.1500 
 36 H       -1.1830    -0.9080     1.1360 H     1 <1>   0.1500 
 37 H       -4.1620    -3.5690    -1.7150 H     1 <1>   0.1500 
 38 H       -3.4670    -1.3310     1.8480 H     1 <1>   0.1500 
 39 H        7.0960    -0.0800    -1.1160 H     1 <1>   0.1500 
 40 H       -5.8940    -3.3750    -0.1970 H     1 <1>   0.0800 
 41 H        7.4600    -3.1030     2.6140 H     1 <1>   0.1500 
 42 H        9.3170    -0.3120    -0.0080 H     1 <1>   0.1500 
 43 H       -6.0800    -0.9050    -0.2930 H     1 <1>   0.0800 
 44 H       -5.8130    -0.8210     1.4190 H     1 <1>   0.0800 
 45 H       -5.0880    -2.9270     2.6830 H     1 <1>   0.0800 
 46 H       -4.8120    -4.4030     1.7930 H     1 <1>   0.0800 
 47 H       -6.4410    -3.8720     2.1060 H     1 <1>   0.0800 
 48 H        9.4570    -1.8870     1.9160 H     1 <1>   0.1500 
 49 H       -8.1410    -2.2680     0.1090 H     1 <1>   0.0800 
 50 H       -8.2200    -0.6800     0.8280 H     1 <1>   0.0800 
 51 H       -7.9060    -2.0680     1.8330 H     1 <1>   0.0800 
@<TRIPOS>BOND
  1   1   2  2   
  2   2   3  am  
  3   2   4  am  
  4   3   5  1   
  5   3   6  1   
  6   4   7  1   
  7   4  26  1   
  8   5   8  1   
  9   5  27  1   
 10   5  28  1   
 11   6   9  1   
 12   6  29  1   
 13   6  30  1   
 14   7  10  ar  
 15   7  11  ar  
 16   8  12  1   
 17   8  31  1   
 18   8  32  1   
 19   9  12  1   
 20   9  33  1   
 21   9  34  1   
 22  10  13  ar  
 23  10  35  1   
 24  11  14  ar  
 25  11  36  1   
 26  12  15  1   
 27  13  16  ar  
 28  13  37  1   
 29  14  16  ar  
 30  14  38  1   
 31  15  17  ar  
 32  15  18  ar  
 33  16  19  1   
 34  17  20  ar  
 35  18  21  ar  
 36  18  39  1   
 37  19  22  1   
 38  19  23  1   
 39  19  40  1   
 40  20  24  ar  
 41  20  41  1   
 42  21  24  ar  
 43  21  42  1   
 44  22  25  1   
 45  22  43  1   
 46  22  44  1   
 47  23  45  1   
 48  23  46  1   
 49  23  47  1   
 50  24  48  1   
 51  25  49  1   
 52  25  50  1   
 53  25  51  1   
@<TRIPOS>SUBSTRUCTURE
  1 ****   2 GROUP 4 **** **** 0

# MOE 2024.06 (io_trps.svl 2023.06)
