@<TRIPOS>MOLECULE
NONAME
34 34 1 0 0 
SMALL
USER_CHARGES


@<TRIPOS>ATOM
  1 O       -0.1630    -0.1970    -1.0740 O.2   1 <1>  -0.5700 
  2 C       -0.1040    -1.2580    -0.5040 C.2   1 <1>   0.5690 
  3 N        1.0500    -1.8050    -0.0170 N.am  1 <1>  -0.5470 
  4 C       -1.3860    -2.0520    -0.3210 C.3   1 <1>  -0.0990 
  5 C        2.3760    -1.3380    -0.0240 C.ar  1 <1>   0.1170 
  6 C       -1.8300    -2.1420     1.1480 C.3   1 <1>  -0.2400 
  7 C        3.3990    -2.2570     0.1600 C.ar  1 <1>  -0.1500 
  8 C        2.7080     0.0010    -0.1910 C.ar  1 <1>  -0.1500 
  9 C        4.7260    -1.8670     0.1720 C.ar  1 <1>   0.0830 
 10 C        4.0340     0.4210    -0.1810 C.ar  1 <1>   0.0830 
 11 O        5.6360    -2.8650     0.3480 O.3   1 <1>  -0.3630 
 12 C        5.0520    -0.5140     0.0190 C.ar  1 <1>   0.0830 
 13 O        4.3820     1.7310    -0.3560 O.3   1 <1>  -0.3630 
 14 C        6.7950    -2.8870    -0.4590 C.3   1 <1>   0.0400 
 15 O        6.3500    -0.0990     0.0680 O.3   1 <1>  -0.3630 
 16 C        3.4590     2.6630    -0.8760 C.3   1 <1>   0.0400 
 17 C        6.7490     0.4520     1.3020 C.3   1 <1>   0.0400 
 18 H        0.9340    -2.7270     0.3980 H     1 <1>   0.3700 
 19 H       -1.2450    -3.0380    -0.7230 H     1 <1>   0.0800 
 20 H       -2.1640    -1.5770    -0.8940 H     1 <1>   0.0800 
 21 H       -1.0900    -2.6470     1.7430 H     1 <1>   0.0800 
 22 H       -2.7580    -2.6830     1.2210 H     1 <1>   0.0800 
 23 H       -1.9780    -1.1540     1.5490 H     1 <1>   0.0800 
 24 H        3.1730    -3.2980     0.2890 H     1 <1>   0.1500 
 25 H        1.9180     0.7120    -0.3190 H     1 <1>   0.1500 
 26 H        7.1530    -3.8990    -0.5030 H     1 <1>   0.0800 
 27 H        7.5420    -2.2570    -0.0120 H     1 <1>   0.0800 
 28 H        6.5460    -2.5380    -1.4460 H     1 <1>   0.0800 
 29 H        3.9830     3.5820    -1.0660 H     1 <1>   0.0800 
 30 H        2.6820     2.8290    -0.1510 H     1 <1>   0.0800 
 31 H        3.0520     2.2780    -1.7950 H     1 <1>   0.0800 
 32 H        7.7880     0.7150     1.2320 H     1 <1>   0.0800 
 33 H        6.6020    -0.2830     2.0730 H     1 <1>   0.0800 
 34 H        6.1600     1.3300     1.5010 H     1 <1>   0.0800 
@<TRIPOS>BOND
  1   1   2  2   
  2   2   3  am  
  3   2   4  1   
  4   3   5  1   
  5   3  18  1   
  6   4   6  1   
  7   4  19  1   
  8   4  20  1   
  9   5   7  ar  
 10   5   8  ar  
 11   6  21  1   
 12   6  22  1   
 13   6  23  1   
 14   7   9  ar  
 15   7  24  1   
 16   8  10  ar  
 17   8  25  1   
 18   9  11  1   
 19   9  12  ar  
 20  10  12  ar  
 21  10  13  1   
 22  11  14  1   
 23  12  15  1   
 24  13  16  1   
 25  14  26  1   
 26  14  27  1   
 27  14  28  1   
 28  15  17  1   
 29  16  29  1   
 30  16  30  1   
 31  16  31  1   
 32  17  32  1   
 33  17  33  1   
 34  17  34  1   
@<TRIPOS>SUBSTRUCTURE
  1 ****   5 GROUP 4 **** **** 0

# MOE 2024.06 (io_trps.svl 2023.06)
