@<TRIPOS>MOLECULE
NONAME
35 36 1 0 0 
SMALL
USER_CHARGES


@<TRIPOS>ATOM
  1 BR       0.8100     0.8100     2.7090 Br    1 <1>  -0.0580 
  2 C        2.0800     0.5530     1.2900 C.2   1 <1>   0.1980 
  3 O        3.2250    -0.0100     1.5830 O.3   1 <1>  -0.2800 
  4 C        1.9680     0.8770    -0.0120 C.2   1 <1>  -0.1500 
  5 C        3.9300    -0.0780     0.4510 C.2   1 <1>   0.0550 
  6 C        3.1820     0.4600    -0.5620 C.2   1 <1>  -0.1500 
  7 C        5.2560    -0.6610     0.4360 C.2   1 <1>   0.7150 
  8 O        5.4810    -1.6730     1.0780 O.2   1 <1>  -0.5700 
  9 N        6.2840    -0.1140    -0.3150 N.am  1 <1>  -0.6600 
 10 C        6.3320     1.3190    -0.7130 C.3   1 <1>   0.1400 
 11 C        7.5290    -0.8810    -0.6010 C.3   1 <1>   0.1400 
 12 C        7.5230     2.0030    -0.0350 C.3   1 <1>  -0.1600 
 13 C        8.7190    -0.2130     0.0910 C.3   1 <1>  -0.1600 
 14 C        8.8500     1.2670    -0.3140 C.3   1 <1>  -0.0190 
 15 C       10.0500     1.9230     0.3700 C.2   1 <1>   0.6590 
 16 O        9.9340     2.7810     1.2080 O.2   1 <1>  -0.5700 
 17 O       11.2390     1.4880    -0.0270 O.3   1 <1>  -0.4300 
 18 C       12.4300     2.0030     0.5210 C.3   1 <1>   0.1200 
 19 C       13.6030     1.2880    -0.1420 C.3   1 <1>  -0.2400 
 20 H        1.1450     1.3430    -0.5230 H     1 <1>   0.1500 
 21 H        3.4560     0.5480    -1.5990 H     1 <1>   0.1500 
 22 H        5.4320     1.8320    -0.4240 H     1 <1>   0.0800 
 23 H        6.4300     1.3840    -1.7830 H     1 <1>   0.0800 
 24 H        7.6880    -0.9040    -1.6650 H     1 <1>   0.0800 
 25 H        7.4390    -1.9000    -0.2610 H     1 <1>   0.0800 
 26 H        7.3430     2.0360     1.0260 H     1 <1>   0.0800 
 27 H        7.5940     3.0190    -0.3820 H     1 <1>   0.0800 
 28 H        9.6170    -0.7440    -0.1690 H     1 <1>   0.0800 
 29 H        8.5900    -0.2920     1.1570 H     1 <1>   0.0800 
 30 H        9.0380     1.3110    -1.3720 H     1 <1>   0.0800 
 31 H       12.4200     1.8270     1.5840 H     1 <1>   0.0800 
 32 H       12.4630     3.0620     0.3310 H     1 <1>   0.0800 
 33 H       13.5490     0.2310     0.0480 H     1 <1>   0.0800 
 34 H       14.5270     1.6620     0.2600 H     1 <1>   0.0800 
 35 H       13.5940     1.4660    -1.2030 H     1 <1>   0.0800 
@<TRIPOS>BOND
  1   1   2  1   
  2   2   3  1   
  3   2   4  2   
  4   3   5  1   
  5   4   6  1   
  6   4  20  1   
  7   5   6  2   
  8   5   7  1   
  9   6  21  1   
 10   7   8  2   
 11   7   9  am  
 12   9  10  1   
 13   9  11  1   
 14  10  12  1   
 15  10  22  1   
 16  10  23  1   
 17  11  13  1   
 18  11  24  1   
 19  11  25  1   
 20  12  14  1   
 21  12  26  1   
 22  12  27  1   
 23  13  14  1   
 24  13  28  1   
 25  13  29  1   
 26  14  15  1   
 27  14  30  1   
 28  15  16  2   
 29  15  17  1   
 30  17  18  1   
 31  18  19  1   
 32  18  31  1   
 33  18  32  1   
 34  19  33  1   
 35  19  34  1   
 36  19  35  1   
@<TRIPOS>SUBSTRUCTURE
  1 ****   9 GROUP 4 **** **** 0

# MOE 2024.06 (io_trps.svl 2023.06)
