@<TRIPOS>MOLECULE
NONAME
44 46 1 0 0 
SMALL
USER_CHARGES


@<TRIPOS>ATOM
  1 S       -0.3710     0.4660     0.5550 S.o2  1 <1>   1.4470 
  2 O       -0.9280     0.5070     1.8900 O.2   1 <1>  -0.6500 
  3 O       -0.1790    -0.8110    -0.0970 O.2   1 <1>  -0.6500 
  4 N       -1.4060     1.3690    -0.4360 N.am  1 <1>  -0.8490 
  5 C        1.1820     1.4040     0.4920 C.ar  1 <1>  -0.0090 
  6 C       -2.6190     0.5980    -0.7790 C.3   1 <1>   0.1960 
  7 C       -1.7970     2.6560     0.1820 C.3   1 <1>   0.1960 
  8 C        1.7060     2.0150     1.6270 C.ar  1 <1>  -0.1500 
  9 C        1.8810     1.5460    -0.7020 C.ar  1 <1>  -0.1500 
 10 C       -3.5560     1.3750    -1.7220 C.3   1 <1>   0.2090 
 11 C       -2.7140     3.4920    -0.7330 C.3   1 <1>   0.2090 
 12 C        2.8840     2.7400     1.5700 C.ar  1 <1>  -0.1500 
 13 C        3.0610     2.2680    -0.7690 C.ar  1 <1>  -0.1500 
 14 N       -3.9180     2.7020    -1.1340 N.pl3 1 <1>  -0.8380 
 15 C        3.5700     2.8720     0.3760 C.ar  1 <1>   0.0820 
 16 C       -5.1850     3.0040    -0.6780 C.ar  1 <1>   0.7200 
 17 O        4.7150     3.5960     0.4050 O.3   1 <1>  -0.3630 
 18 N       -5.4070     4.2620    -0.2990 N.ar  1 <1>  -0.6200 
 19 N       -6.0760     2.0130    -0.6510 N.ar  1 <1>  -0.6200 
 20 C        5.5240     3.7450    -0.7390 C.3   1 <1>   0.1200 
 21 C       -6.6150     4.5380     0.1270 C.ar  1 <1>   0.1600 
 22 C       -7.2740     2.3180    -0.2190 C.ar  1 <1>   0.1600 
 23 C        6.7380     4.5850    -0.3540 C.3   1 <1>  -0.2400 
 24 C       -7.6030     3.5870     0.1880 C.ar  1 <1>  -0.1500 
 25 H       -3.1600     0.3440     0.1180 H     1 <1>   0.0800 
 26 H       -2.3370    -0.3210    -1.2660 H     1 <1>   0.0800 
 27 H       -0.9160     3.2330     0.4020 H     1 <1>   0.0800 
 28 H       -2.3170     2.4780     1.1090 H     1 <1>   0.0800 
 29 H        1.1890     1.9210     2.5670 H     1 <1>   0.1500 
 30 H        1.4910     1.0800    -1.5910 H     1 <1>   0.1500 
 31 H       -4.4290     0.7810    -1.9260 H     1 <1>   0.0800 
 32 H       -3.0530     1.5350    -2.6600 H     1 <1>   0.0800 
 33 H       -2.1700     3.7770    -1.6160 H     1 <1>   0.0800 
 34 H       -2.9890     4.3940    -0.2160 H     1 <1>   0.0800 
 35 H        3.2810     3.2060     2.4540 H     1 <1>   0.1500 
 36 H        3.5660     2.3470    -1.7130 H     1 <1>   0.1500 
 37 H        4.9470     4.2370    -1.5030 H     1 <1>   0.0800 
 38 H        5.8280     2.7670    -1.0710 H     1 <1>   0.0800 
 39 H       -6.8230     5.5490     0.4340 H     1 <1>   0.1500 
 40 H       -8.0130     1.5350    -0.1880 H     1 <1>   0.1500 
 41 H        6.4230     5.5540    -0.0090 H     1 <1>   0.0800 
 42 H        7.3760     4.7160    -1.2090 H     1 <1>   0.0800 
 43 H        7.2980     4.0920     0.4210 H     1 <1>   0.0800 
 44 H       -8.5890     3.8250     0.5390 H     1 <1>   0.1500 
@<TRIPOS>BOND
  1   1   2  2   
  2   1   3  2   
  3   1   4  am  
  4   1   5  1   
  5   4   6  1   
  6   4   7  1   
  7   5   8  ar  
  8   5   9  ar  
  9   6  10  1   
 10   6  25  1   
 11   6  26  1   
 12   7  11  1   
 13   7  27  1   
 14   7  28  1   
 15   8  12  ar  
 16   8  29  1   
 17   9  13  ar  
 18   9  30  1   
 19  10  14  1   
 20  10  31  1   
 21  10  32  1   
 22  11  14  1   
 23  11  33  1   
 24  11  34  1   
 25  12  15  ar  
 26  12  35  1   
 27  13  15  ar  
 28  13  36  1   
 29  14  16  1   
 30  15  17  1   
 31  16  18  ar  
 32  16  19  ar  
 33  17  20  1   
 34  18  21  ar  
 35  19  22  ar  
 36  20  23  1   
 37  20  37  1   
 38  20  38  1   
 39  21  24  ar  
 40  21  39  1   
 41  22  24  ar  
 42  22  40  1   
 43  23  41  1   
 44  23  42  1   
 45  23  43  1   
 46  24  44  1   
@<TRIPOS>SUBSTRUCTURE
  1 ****   7 GROUP 4 **** **** 0

# MOE 2024.06 (io_trps.svl 2023.06)
