@<TRIPOS>MOLECULE
NONAME
51 54 1 0 0 
SMALL
USER_CHARGES


@<TRIPOS>ATOM
  1 S       -0.2760    -0.4000     0.4430 S.3   1 <1>  -0.3320 
  2 C       -2.0060     0.0220     0.2490 C.ar  1 <1>   0.7220 
  3 C        0.6270     1.1550     0.0320 C.3   1 <1>   0.0700 
  4 N       -2.2510     1.3020    -0.1200 N.ar  1 <1>  -0.3100 
  5 N       -2.8590    -0.9380     0.4830 N.ar  1 <1>  -0.5670 
  6 C        2.1210     0.8740     0.2080 C.3   1 <1>   0.3430 
  7 N       -3.4790     1.7000    -0.2840 N.ar  1 <1>  -0.2560 
  8 C       -4.1150    -0.5150     0.3090 C.ar  1 <1>   0.1050 
  9 N        2.9690     2.0520    -0.1620 N.4   1 <1>  -0.9590 
 10 C       -4.4270     0.7800    -0.0670 C.ar  1 <1>   0.2560 
 11 N       -5.2720    -1.2340     0.4590 N.pl3 1 <1>   0.0480 
 12 C        4.4060     1.6490    -0.2230 C.3   1 <1>   0.3430 
 13 C        2.7720     3.2120     0.7630 C.3   1 <1>   0.3430 
 14 C       -5.8430     0.8620    -0.1530 C.ar  1 <1>   0.0000 
 15 C       -6.3380    -0.3970     0.1760 C.ar  1 <1>  -0.1520 
 16 C       -5.3550    -2.6590     0.8440 C.3   1 <1>   0.0960 
 17 C        5.2480     2.8160    -0.7440 C.3   1 <1>  -0.1600 
 18 C        3.5780     4.4120     0.2640 C.3   1 <1>  -0.1600 
 19 C       -6.7240     1.8930    -0.4820 C.ar  1 <1>  -0.1500 
 20 C       -7.7130    -0.6400     0.1780 C.ar  1 <1>  -0.1500 
 21 C       -5.4720    -3.5460    -0.4020 C.3   1 <1>  -0.1600 
 22 C        5.0670     4.0750     0.1130 C.3   1 <1>  -0.1600 
 23 C       -8.0800     1.6510    -0.4780 C.ar  1 <1>  -0.1500 
 24 C       -8.5740     0.3860    -0.1480 C.ar  1 <1>  -0.1500 
 25 C       -5.5770    -5.0270    -0.0230 C.3   1 <1>  -0.2400 
 26 H        0.2710     1.9090     0.7110 H     1 <1>   0.0800 
 27 H        0.3800     1.4020    -0.9850 H     1 <1>   0.0800 
 28 H        2.3810     0.0350    -0.4180 H     1 <1>   0.0800 
 29 H        2.3100     0.5950     1.2320 H     1 <1>   0.0800 
 30 H        2.7110     2.3650    -1.1070 H     1 <1>   0.4500 
 31 H        4.5270     0.8010    -0.8780 H     1 <1>   0.0800 
 32 H        4.7500     1.3700     0.7610 H     1 <1>   0.0800 
 33 H        3.0990     2.9470     1.7560 H     1 <1>   0.0800 
 34 H        1.7290     3.4820     0.8090 H     1 <1>   0.0800 
 35 H       -6.2090    -2.7960     1.4830 H     1 <1>   0.0800 
 36 H       -4.4710    -2.9200     1.3990 H     1 <1>   0.0800 
 37 H        4.9790     3.0240    -1.7650 H     1 <1>   0.0800 
 38 H        6.2860     2.5300    -0.7390 H     1 <1>   0.0800 
 39 H        3.4680     5.2240     0.9630 H     1 <1>   0.0800 
 40 H        3.1790     4.7450    -0.6780 H     1 <1>   0.0800 
 41 H       -6.3300     2.8620    -0.7340 H     1 <1>   0.1500 
 42 H       -8.0940    -1.6130     0.4300 H     1 <1>   0.1500 
 43 H       -4.6030    -3.4020    -1.0220 H     1 <1>   0.0800 
 44 H       -6.3450    -3.2630    -0.9660 H     1 <1>   0.0800 
 45 H        5.5870     4.9040    -0.3390 H     1 <1>   0.0800 
 46 H        5.5000     3.9120     1.0870 H     1 <1>   0.0800 
 47 H       -8.7710     2.4370    -0.7290 H     1 <1>   0.1500 
 48 H       -9.6370     0.2200    -0.1520 H     1 <1>   0.1500 
 49 H       -4.7040    -5.3390     0.5240 H     1 <1>   0.0800 
 50 H       -5.6540    -5.6280    -0.9120 H     1 <1>   0.0800 
 51 H       -6.4490    -5.2020     0.5830 H     1 <1>   0.0800 
@<TRIPOS>BOND
  1   1   2  1   
  2   1   3  1   
  3   2   4  ar  
  4   2   5  ar  
  5   3   6  1   
  6   3  26  1   
  7   3  27  1   
  8   4   7  ar  
  9   5   8  ar  
 10   6   9  1   
 11   6  28  1   
 12   6  29  1   
 13   7  10  ar  
 14   8  10  ar  
 15   8  11  1   
 16   9  12  1   
 17   9  13  1   
 18   9  30  1   
 19  10  14  1   
 20  11  15  1   
 21  11  16  1   
 22  12  17  1   
 23  12  31  1   
 24  12  32  1   
 25  13  18  1   
 26  13  33  1   
 27  13  34  1   
 28  14  15  ar  
 29  14  19  ar  
 30  15  20  ar  
 31  16  21  1   
 32  16  35  1   
 33  16  36  1   
 34  17  22  1   
 35  17  37  1   
 36  17  38  1   
 37  18  22  1   
 38  18  39  1   
 39  18  40  1   
 40  19  23  ar  
 41  19  41  1   
 42  20  24  ar  
 43  20  42  1   
 44  21  25  1   
 45  21  43  1   
 46  21  44  1   
 47  22  45  1   
 48  22  46  1   
 49  23  24  ar  
 50  23  47  1   
 51  24  48  1   
 52  25  49  1   
 53  25  50  1   
 54  25  51  1   
@<TRIPOS>SUBSTRUCTURE
  1 ****   2 GROUP 4 **** **** 0

# MOE 2024.06 (io_trps.svl 2023.06)
