@<TRIPOS>MOLECULE
NONAME
39 40 1 0 0 
SMALL
USER_CHARGES


@<TRIPOS>ATOM
  1 O       -1.3970     0.6130    -0.5870 O.2   1 <1>  -0.5700 
  2 C       -2.1200    -0.3310    -0.3340 C.2   1 <1>   0.7060 
  3 O       -3.4160    -0.0740    -0.1690 O.3   1 <1>  -0.2330 
  4 C       -1.6630    -1.6920    -0.2130 C.2   1 <1>  -0.1240 
  5 C       -4.3370    -1.0180     0.1210 C.ar  1 <1>   0.0820 
  6 C       -2.5500    -2.6930     0.0390 C.2   1 <1>  -0.1670 
  7 C       -0.1570    -1.9090    -0.3930 C.3   1 <1>  -0.1020 
  8 C       -3.9390    -2.3610     0.2410 C.ar  1 <1>   0.0280 
  9 C       -5.6610    -0.6190     0.2950 C.ar  1 <1>  -0.1440 
 10 C       -2.1610    -4.1720     0.1120 C.3   1 <1>  -0.1020 
 11 C       -4.9320    -3.2940     0.5610 C.ar  1 <1>  -0.1500 
 12 C       -6.6160    -1.5880     0.5740 C.ar  1 <1>   0.0830 
 13 C       -6.0460     0.8580     0.1910 C.3   1 <1>  -0.0960 
 14 C       -6.2460    -2.9150     0.7230 C.ar  1 <1>  -0.1500 
 15 O       -7.9200    -1.2820     0.7180 O.3   1 <1>  -0.3620 
 16 C       -8.6640    -1.0270    -0.4650 C.3   1 <1>   0.2610 
 17 C       -9.4970     0.2480    -0.3000 C.2   1 <1>   0.6590 
 18 C       -9.5090    -2.2730    -0.7640 C.3   1 <1>  -0.2400 
 19 O       -9.3060     1.2170    -0.9940 O.2   1 <1>  -0.5700 
 20 O      -10.4450     0.2370     0.6350 O.3   1 <1>  -0.4300 
 21 C      -11.2640     1.3610     0.8800 C.3   1 <1>   0.0400 
 22 H        0.3950    -1.0550    -0.0420 H     1 <1>   0.0800 
 23 H        0.0690    -2.0510    -1.4350 H     1 <1>   0.0800 
 24 H        0.2000    -2.7520     0.1660 H     1 <1>   0.0800 
 25 H       -2.8020    -4.7500    -0.5300 H     1 <1>   0.0800 
 26 H       -2.2630    -4.5290     1.1210 H     1 <1>   0.0800 
 27 H       -1.1570    -4.3600    -0.2130 H     1 <1>   0.0800 
 28 H       -4.6860    -4.3310     0.6890 H     1 <1>   0.1500 
 29 H       -5.2410     1.4930     0.5150 H     1 <1>   0.0800 
 30 H       -6.8940     1.0770     0.8150 H     1 <1>   0.0800 
 31 H       -6.2900     1.1050    -0.8260 H     1 <1>   0.0800 
 32 H       -6.9990    -3.6420     0.9680 H     1 <1>   0.1500 
 33 H       -7.9720    -0.8650    -1.2730 H     1 <1>   0.0800 
 34 H      -10.1770    -2.4750     0.0540 H     1 <1>   0.0800 
 35 H       -8.8710    -3.1230    -0.9250 H     1 <1>   0.0800 
 36 H      -10.0920    -2.1120    -1.6520 H     1 <1>   0.0800 
 37 H      -11.9490     1.1180     1.6720 H     1 <1>   0.0800 
 38 H      -11.8040     1.6010    -0.0200 H     1 <1>   0.0800 
 39 H      -10.6390     2.1890     1.1700 H     1 <1>   0.0800 
@<TRIPOS>BOND
  1   1   2  2   
  2   2   3  1   
  3   2   4  1   
  4   3   5  1   
  5   4   6  2   
  6   4   7  1   
  7   5   8  ar  
  8   5   9  ar  
  9   6   8  1   
 10   6  10  1   
 11   7  22  1   
 12   7  23  1   
 13   7  24  1   
 14   8  11  ar  
 15   9  12  ar  
 16   9  13  1   
 17  10  25  1   
 18  10  26  1   
 19  10  27  1   
 20  11  14  ar  
 21  11  28  1   
 22  12  14  ar  
 23  12  15  1   
 24  13  29  1   
 25  13  30  1   
 26  13  31  1   
 27  14  32  1   
 28  15  16  1   
 29  16  17  1   
 30  16  18  1   
 31  16  33  1   
 32  17  19  2   
 33  17  20  1   
 34  18  34  1   
 35  18  35  1   
 36  18  36  1   
 37  20  21  1   
 38  21  37  1   
 39  21  38  1   
 40  21  39  1   
@<TRIPOS>SUBSTRUCTURE
  1 ****   9 GROUP 4 **** **** 0

# MOE 2024.06 (io_trps.svl 2023.06)
