@<TRIPOS>MOLECULE
NONAME
45 46 1 0 0 
SMALL
USER_CHARGES


@<TRIPOS>ATOM
  1 S       -0.3930     0.2530     0.6590 S.o2  1 <1>   1.4470 
  2 O       -0.6000     0.8600     1.9540 O.2   1 <1>  -0.6500 
  3 O       -1.0640    -0.9760     0.3070 O.2   1 <1>  -0.6500 
  4 N       -0.9530     1.3410    -0.4880 N.am  1 <1>  -0.9140 
  5 C        1.3800     0.1480     0.2930 C.ar  1 <1>  -0.0090 
  6 C       -2.2500     1.9040    -0.1370 C.3   1 <1>   0.1960 
  7 C        1.9600    -1.0400    -0.1430 C.ar  1 <1>  -0.1500 
  8 C        2.2000     1.2640     0.4330 C.ar  1 <1>  -0.1500 
  9 C       -2.7280     2.8290    -1.2560 C.3   1 <1>  -0.0160 
 10 C        3.3130    -1.1130    -0.4300 C.ar  1 <1>  -0.1500 
 11 C        3.5550     1.2050     0.1500 C.ar  1 <1>  -0.1500 
 12 C       -4.0900     3.4100    -0.9120 C.ar  1 <1>  -0.1430 
 13 C        4.1030     0.0100    -0.2830 C.ar  1 <1>   0.1010 
 14 C       -4.1840     4.5710    -0.1610 C.ar  1 <1>  -0.1500 
 15 C       -5.2460     2.7810    -1.3410 C.ar  1 <1>  -0.1500 
 16 S        5.8520    -0.1600    -0.6760 S.3   1 <1>  -0.3310 
 17 C       -5.4270     5.1100     0.1640 C.ar  1 <1>   0.0830 
 18 C       -6.4880     3.3050    -1.0260 C.ar  1 <1>  -0.1500 
 19 C        6.6310     1.4860    -0.3680 C.3   1 <1>  -0.0100 
 20 O       -5.5600     6.2510     0.9020 O.3   1 <1>  -0.3620 
 21 C       -6.5900     4.4710    -0.2730 C.ar  1 <1>   0.0830 
 22 C       -4.4440     6.9400     1.4190 C.3   1 <1>   0.0400 
 23 O       -7.7930     5.0240     0.0620 O.3   1 <1>  -0.3630 
 24 C       -9.0140     4.4460    -0.3400 C.3   1 <1>   0.0400 
 25 H       -1.0950     0.7550    -1.3080 H     1 <1>   0.4200 
 26 H       -2.1680     2.4690     0.7780 H     1 <1>   0.0800 
 27 H       -2.9670     1.1130     0.0160 H     1 <1>   0.0800 
 28 H        1.3490    -1.9200    -0.2580 H     1 <1>   0.1500 
 29 H        1.7670     2.1910     0.7700 H     1 <1>   0.1500 
 30 H       -2.7950     2.2810    -2.1790 H     1 <1>   0.0800 
 31 H       -2.0190     3.6270    -1.3880 H     1 <1>   0.0800 
 32 H        3.7550    -2.0340    -0.7660 H     1 <1>   0.1500 
 33 H        4.1560     2.0850     0.2700 H     1 <1>   0.1500 
 34 H       -3.2790     5.0460     0.1650 H     1 <1>   0.1500 
 35 H       -5.1900     1.8780    -1.9240 H     1 <1>   0.1500 
 36 H       -7.3600     2.7890    -1.3770 H     1 <1>   0.1500 
 37 H        7.6780     1.3960    -0.5940 H     1 <1>   0.0800 
 38 H        6.4850     1.7350     0.6680 H     1 <1>   0.0800 
 39 H        6.1620     2.2030    -1.0170 H     1 <1>   0.0800 
 40 H       -4.8050     7.7890     1.9700 H     1 <1>   0.0800 
 41 H       -3.8290     7.2690     0.6010 H     1 <1>   0.0800 
 42 H       -3.9010     6.2820     2.0740 H     1 <1>   0.0800 
 43 H       -9.8110     5.0580     0.0400 H     1 <1>   0.0800 
 44 H       -9.0830     3.4560     0.0740 H     1 <1>   0.0800 
 45 H       -9.0510     4.4220    -1.4140 H     1 <1>   0.0800 
@<TRIPOS>BOND
  1   1   2  2   
  2   1   3  2   
  3   1   4  am  
  4   1   5  1   
  5   4   6  1   
  6   4  25  1   
  7   5   7  ar  
  8   5   8  ar  
  9   6   9  1   
 10   6  26  1   
 11   6  27  1   
 12   7  10  ar  
 13   7  28  1   
 14   8  11  ar  
 15   8  29  1   
 16   9  12  1   
 17   9  30  1   
 18   9  31  1   
 19  10  13  ar  
 20  10  32  1   
 21  11  13  ar  
 22  11  33  1   
 23  12  14  ar  
 24  12  15  ar  
 25  13  16  1   
 26  14  17  ar  
 27  14  34  1   
 28  15  18  ar  
 29  15  35  1   
 30  16  19  1   
 31  17  20  1   
 32  17  21  ar  
 33  18  21  ar  
 34  18  36  1   
 35  19  37  1   
 36  19  38  1   
 37  19  39  1   
 38  20  22  1   
 39  21  23  1   
 40  22  40  1   
 41  22  41  1   
 42  22  42  1   
 43  23  24  1   
 44  24  43  1   
 45  24  44  1   
 46  24  45  1   
@<TRIPOS>SUBSTRUCTURE
  1 ****   6 GROUP 4 **** **** 0

# MOE 2024.06 (io_trps.svl 2023.06)
