@<TRIPOS>MOLECULE
NONAME
45 47 1 0 0 
SMALL
USER_CHARGES


@<TRIPOS>ATOM
  1 CL       0.6510     0.8220    -2.5060 Cl    1 <1>  -0.1770 
  2 C        0.1110    -0.0590    -1.0990 C.ar  1 <1>   0.1770 
  3 C        1.0370    -0.7290    -0.3180 C.ar  1 <1>  -0.1440 
  4 C       -1.2390    -0.0580    -0.7850 C.ar  1 <1>  -0.1500 
  5 C        0.5600    -1.3930     0.7980 C.ar  1 <1>   0.1900 
  6 C        2.5100    -0.7520    -0.6660 C.3   1 <1>   0.4860 
  7 C       -1.6860    -0.7380     0.3380 C.ar  1 <1>  -0.1500 
  8 F        1.4130    -2.0190     1.5640 F     1 <1>  -0.1900 
  9 C       -0.7800    -1.4120     1.1410 C.ar  1 <1>  -0.1500 
 10 N        3.2540     0.1620     0.2420 N.4   1 <1>  -0.9590 
 11 C        2.8700     1.5900     0.0290 C.3   1 <1>   0.3430 
 12 C        4.7250    -0.0510     0.1260 C.3   1 <1>   0.3430 
 13 C        3.5630     2.4620     1.0690 C.3   1 <1>  -0.1600 
 14 C        5.4530     0.8060     1.1590 C.3   1 <1>  -0.1600 
 15 C        5.0910     2.2960     1.0120 C.3   1 <1>  -0.0190 
 16 C        5.7540     3.1610     2.0850 C.2   1 <1>   0.5690 
 17 O        5.7210     2.7810     3.2270 O.2   1 <1>  -0.5700 
 18 N        6.3530     4.3380     1.8000 N.am  1 <1>  -0.7300 
 19 C        6.5260     5.0360     0.5040 C.3   1 <1>   0.3200 
 20 C        5.1850     5.4480    -0.0840 C.2   1 <1>  -0.0400 
 21 O        4.6910     4.7740    -1.1080 O.3   1 <1>  -0.2800 
 22 C        4.3550     6.4550     0.2610 C.2   1 <1>  -0.1500 
 23 C        3.5500     5.3420    -1.4450 C.2   1 <1>  -0.0100 
 24 C        3.2790     6.3850    -0.6330 C.2   1 <1>  -0.1500 
 25 H       -1.9350     0.4690    -1.4150 H     1 <1>   0.1500 
 26 H        2.6580    -0.4590    -1.6930 H     1 <1>   0.0800 
 27 H        2.8760    -1.7600    -0.5490 H     1 <1>   0.0800 
 28 H       -2.7360    -0.7420     0.5860 H     1 <1>   0.1500 
 29 H       -1.1080    -1.9440     2.0180 H     1 <1>   0.1500 
 30 H        2.9810    -0.0890     1.2030 H     1 <1>   0.4500 
 31 H        1.8020     1.7080     0.1230 H     1 <1>   0.0800 
 32 H        3.1610     1.9080    -0.9600 H     1 <1>   0.0800 
 33 H        5.0570     0.2210    -0.8640 H     1 <1>   0.0800 
 34 H        4.9640    -1.0900     0.2930 H     1 <1>   0.0800 
 35 H        3.2010     2.2110     2.0510 H     1 <1>   0.0800 
 36 H        3.3060     3.4910     0.8900 H     1 <1>   0.0800 
 37 H        6.5150     0.6840     1.0350 H     1 <1>   0.0800 
 38 H        5.2060     0.4570     2.1480 H     1 <1>   0.0800 
 39 H        5.4400     2.6130     0.0480 H     1 <1>   0.0800 
 40 H        6.7150     4.8390     2.6140 H     1 <1>   0.3700 
 41 H        7.0520     4.4020    -0.1890 H     1 <1>   0.0800 
 42 H        7.1210     5.9190     0.6640 H     1 <1>   0.0800 
 43 H        4.4640     7.1830     1.0470 H     1 <1>   0.1500 
 44 H        2.9930     4.9480    -2.2780 H     1 <1>   0.1500 
 45 H        2.4330     7.0510    -0.6450 H     1 <1>   0.1500 
@<TRIPOS>BOND
  1   1   2  1   
  2   2   3  ar  
  3   2   4  ar  
  4   3   5  ar  
  5   3   6  1   
  6   4   7  ar  
  7   4  25  1   
  8   5   8  1   
  9   5   9  ar  
 10   6  10  1   
 11   6  26  1   
 12   6  27  1   
 13   7   9  ar  
 14   7  28  1   
 15   9  29  1   
 16  10  11  1   
 17  10  12  1   
 18  10  30  1   
 19  11  13  1   
 20  11  31  1   
 21  11  32  1   
 22  12  14  1   
 23  12  33  1   
 24  12  34  1   
 25  13  15  1   
 26  13  35  1   
 27  13  36  1   
 28  14  15  1   
 29  14  37  1   
 30  14  38  1   
 31  15  16  1   
 32  15  39  1   
 33  16  17  2   
 34  16  18  am  
 35  18  19  1   
 36  18  40  1   
 37  19  20  1   
 38  19  41  1   
 39  19  42  1   
 40  20  21  1   
 41  20  22  2   
 42  21  23  1   
 43  22  24  1   
 44  22  43  1   
 45  23  24  2   
 46  23  44  1   
 47  24  45  1   
@<TRIPOS>SUBSTRUCTURE
  1 ****  11 GROUP 4 **** **** 0

# MOE 2024.06 (io_trps.svl 2023.06)
