@<TRIPOS>MOLECULE
NONAME
38 40 1 0 0 
SMALL
USER_CHARGES


@<TRIPOS>ATOM
  1 N       -0.0350    -0.2490    -1.1560 N.pl3 1 <1>   0.0330 
  2 C       -1.1420     0.4780    -0.8040 C.ar  1 <1>  -0.1520 
  3 C        1.0760     0.4340    -0.7230 C.2   1 <1>  -0.3320 
  4 C       -0.7260     1.6410    -0.1670 C.ar  1 <1>   0.0000 
  5 C       -2.5000     0.2160    -0.9960 C.ar  1 <1>  -0.1500 
  6 C        0.6830     1.5940    -0.1500 C.2   1 <1>  -0.1810 
  7 C        2.5170     0.0050    -0.8740 C.3   1 <1>   0.6030 
  8 C       -1.6770     2.5580     0.2920 C.ar  1 <1>  -0.1500 
  9 C       -3.4230     1.1270    -0.5390 C.ar  1 <1>  -0.1500 
 10 C        1.6200     2.6630     0.3720 C.3   1 <1>   0.0210 
 11 N        2.5990    -1.2750    -0.1680 N.4   1 <1>  -0.9060 
 12 C        3.4780     1.0150    -0.2030 C.3   1 <1>  -0.1600 
 13 C       -3.0170     2.3020     0.1080 C.ar  1 <1>  -0.1430 
 14 C        2.9990     2.4800    -0.2850 C.3   1 <1>  -0.1600 
 15 C        3.8980    -1.9700    -0.2740 C.3   1 <1>   0.3430 
 16 C       -4.0750     3.2760     0.5940 C.3   1 <1>  -0.0970 
 17 C        3.8040    -3.2680     0.5130 C.3   1 <1>  -0.2400 
 18 H       -0.0950    -1.1020    -1.7210 H     1 <1>   0.2700 
 19 H       -2.8170    -0.6830    -1.4940 H     1 <1>   0.1500 
 20 H        2.7540    -0.1060    -1.9200 H     1 <1>   0.0800 
 21 H       -1.3410     3.4520     0.7830 H     1 <1>   0.1500 
 22 H       -4.4740     0.9420    -0.6770 H     1 <1>   0.1500 
 23 H        1.6940     2.5810     1.4430 H     1 <1>   0.0800 
 24 H        1.2320     3.6380     0.1330 H     1 <1>   0.0800 
 25 H        1.8430    -1.8710    -0.5050 H     1 <1>   0.4500 
 26 H        2.3700    -1.0660     0.8090 H     1 <1>   0.4500 
 27 H        4.4450     0.9420    -0.6680 H     1 <1>   0.0800 
 28 H        3.5880     0.7790     0.8410 H     1 <1>   0.0800 
 29 H        3.7110     3.1290     0.1960 H     1 <1>   0.0800 
 30 H        2.9310     2.7770    -1.3180 H     1 <1>   0.0800 
 31 H        4.6870    -1.3550     0.1310 H     1 <1>   0.0800 
 32 H        4.1250    -2.1840    -1.3070 H     1 <1>   0.0800 
 33 H       -3.6230     4.1280     1.0680 H     1 <1>   0.0800 
 34 H       -4.7200     2.7900     1.3050 H     1 <1>   0.0800 
 35 H       -4.6660     3.6190    -0.2360 H     1 <1>   0.0800 
 36 H        3.6010    -3.0740     1.5520 H     1 <1>   0.0800 
 37 H        4.7430    -3.7880     0.4520 H     1 <1>   0.0800 
 38 H        3.0430    -3.9110     0.1080 H     1 <1>   0.0800 
@<TRIPOS>BOND
  1   1   2  1   
  2   1   3  1   
  3   1  18  1   
  4   2   4  ar  
  5   2   5  ar  
  6   3   6  2   
  7   3   7  1   
  8   4   6  1   
  9   4   8  ar  
 10   5   9  ar  
 11   5  19  1   
 12   6  10  1   
 13   7  11  1   
 14   7  12  1   
 15   7  20  1   
 16   8  13  ar  
 17   8  21  1   
 18   9  13  ar  
 19   9  22  1   
 20  10  14  1   
 21  10  23  1   
 22  10  24  1   
 23  11  15  1   
 24  11  25  1   
 25  11  26  1   
 26  12  14  1   
 27  12  27  1   
 28  12  28  1   
 29  13  16  1   
 30  14  29  1   
 31  14  30  1   
 32  15  17  1   
 33  15  31  1   
 34  15  32  1   
 35  16  33  1   
 36  16  34  1   
 37  16  35  1   
 38  17  36  1   
 39  17  37  1   
 40  17  38  1   
@<TRIPOS>SUBSTRUCTURE
  1 ****   6 GROUP 4 **** **** 0

# MOE 2024.06 (io_trps.svl 2023.06)
