@<TRIPOS>MOLECULE
NONAME
43 45 1 0 0 
SMALL
USER_CHARGES


@<TRIPOS>ATOM
  1 O       -0.4280     0.5500    -1.6150 O.2   1 <1>  -0.5700 
  2 C       -1.2100     1.2670    -1.0050 C.2   1 <1>   0.6160 
  3 N       -2.4820     0.8740    -0.7390 N.am  1 <1>  -0.5470 
  4 C       -0.9880     2.5720    -0.4630 C.2   1 <1>  -0.0140 
  5 C       -3.1230     1.8700    -0.0290 C.ar  1 <1>   0.1170 
  6 C       -2.2360     2.9230     0.1570 C.ar  1 <1>   0.0280 
  7 C        0.1550     3.3190    -0.5210 C.2   1 <1>  -0.0500 
  8 C       -4.4190     1.9170     0.4610 C.ar  1 <1>  -0.1500 
  9 C       -2.6560     4.0520     0.8530 C.ar  1 <1>  -0.1500 
 10 N        1.2910     2.9090    -1.1490 N.pl3 1 <1>  -0.8690 
 11 C       -4.8270     3.0450     1.1520 C.ar  1 <1>  -0.1500 
 12 C       -3.9490     4.1070     1.3460 C.ar  1 <1>  -0.1500 
 13 C        2.5610     3.6370    -1.2430 C.3   1 <1>   0.2090 
 14 C        3.6240     2.7830    -0.5590 C.3   1 <1>  -0.1600 
 15 C        4.9890     3.4640    -0.6140 C.3   1 <1>   0.3430 
 16 N        5.9940     2.6730     0.1520 N.4   1 <1>  -0.9590 
 17 C        7.2530     3.4680     0.3690 C.3   1 <1>   0.3430 
 18 C        6.3200     1.3560    -0.5080 C.3   1 <1>   0.3430 
 19 C        8.3420     2.6310     1.0670 C.3   1 <1>   0.1200 
 20 C        7.4540     0.6160     0.2270 C.3   1 <1>   0.1200 
 21 O        8.5690     1.4470     0.3580 O.3   1 <1>  -0.5600 
 22 H       -2.8490    -0.0280    -1.0370 H     1 <1>   0.3700 
 23 H        0.1750     4.2890    -0.0510 H     1 <1>   0.1500 
 24 H       -5.0870     1.0910     0.3050 H     1 <1>   0.1500 
 25 H       -1.9790     4.8740     1.0030 H     1 <1>   0.1500 
 26 H        1.2530     1.9950    -1.6410 H     1 <1>   0.4000 
 27 H       -5.8290     3.1040     1.5420 H     1 <1>   0.1500 
 28 H       -4.2810     4.9780     1.8850 H     1 <1>   0.1500 
 29 H        2.7990     3.7960    -2.2820 H     1 <1>   0.0800 
 30 H        2.4650     4.5940    -0.7570 H     1 <1>   0.0800 
 31 H        3.6610     1.8320    -1.0600 H     1 <1>   0.0800 
 32 H        3.3300     2.6370     0.4650 H     1 <1>   0.0800 
 33 H        4.9020     4.4490    -0.1820 H     1 <1>   0.0800 
 34 H        5.3060     3.5730    -1.6390 H     1 <1>   0.0800 
 35 H        5.5970     2.4620     1.0780 H     1 <1>   0.4500 
 36 H        7.6420     3.8000    -0.5800 H     1 <1>   0.0800 
 37 H        7.0420     4.3410     0.9640 H     1 <1>   0.0800 
 38 H        5.4470     0.7250    -0.5310 H     1 <1>   0.0800 
 39 H        6.6320     1.5250    -1.5260 H     1 <1>   0.0800 
 40 H        8.0610     2.3840     2.0760 H     1 <1>   0.0800 
 41 H        9.2700     3.1770     1.0940 H     1 <1>   0.0800 
 42 H        7.7560    -0.2510    -0.3350 H     1 <1>   0.0800 
 43 H        7.1410     0.2950     1.2070 H     1 <1>   0.0800 
@<TRIPOS>BOND
  1   1   2  2   
  2   2   3  am  
  3   2   4  1   
  4   3   5  1   
  5   3  22  1   
  6   4   6  1   
  7   4   7  2   
  8   5   6  ar  
  9   5   8  ar  
 10   6   9  ar  
 11   7  10  1   
 12   7  23  1   
 13   8  11  ar  
 14   8  24  1   
 15   9  12  ar  
 16   9  25  1   
 17  10  13  1   
 18  10  26  1   
 19  11  12  ar  
 20  11  27  1   
 21  12  28  1   
 22  13  14  1   
 23  13  29  1   
 24  13  30  1   
 25  14  15  1   
 26  14  31  1   
 27  14  32  1   
 28  15  16  1   
 29  15  33  1   
 30  15  34  1   
 31  16  17  1   
 32  16  18  1   
 33  16  35  1   
 34  17  19  1   
 35  17  36  1   
 36  17  37  1   
 37  18  20  1   
 38  18  38  1   
 39  18  39  1   
 40  19  21  1   
 41  19  40  1   
 42  19  41  1   
 43  20  21  1   
 44  20  42  1   
 45  20  43  1   
@<TRIPOS>SUBSTRUCTURE
  1 ****  10 GROUP 4 **** **** 0

# MOE 2024.06 (io_trps.svl 2023.06)
