@<TRIPOS>MOLECULE
NONAME
37 39 1 0 0 
SMALL
USER_CHARGES


@<TRIPOS>ATOM
  1 BR       1.1560    -3.0980    -1.8580 Br    1 <1>  -0.1110 
  2 C       -0.4180    -3.1040    -0.7500 C.ar  1 <1>   0.1110 
  3 C       -1.6540    -3.2060    -1.3510 C.ar  1 <1>  -0.1500 
  4 C       -0.2580    -3.0040     0.6230 C.ar  1 <1>  -0.1500 
  5 C       -2.7990    -3.2100    -0.5550 C.ar  1 <1>   0.0280 
  6 C       -1.3890    -3.0080     1.4180 C.ar  1 <1>  -0.1500 
  7 C       -2.6460    -3.1100     0.8360 C.ar  1 <1>   0.0830 
  8 C       -4.1190    -3.3080    -1.0750 C.2   1 <1>  -0.1780 
  9 O       -3.7360    -3.1130     1.6340 O.3   1 <1>  -0.2320 
 10 C       -5.1940    -3.2980    -0.2410 C.2   1 <1>   0.0290 
 11 C       -4.9900    -3.2080     1.1760 C.2   1 <1>   0.7060 
 12 C       -6.5440    -3.3970    -0.7150 C.2   1 <1>   0.6160 
 13 O       -5.8780    -3.1960     2.0040 O.2   1 <1>  -0.5700 
 14 O       -6.8890    -4.4380    -1.2440 O.2   1 <1>  -0.5700 
 15 N       -7.4320    -2.3420    -0.6600 N.am  1 <1>  -0.6600 
 16 C       -7.0730    -0.9590    -0.2300 C.3   1 <1>   0.1400 
 17 C       -8.8740    -2.5150    -0.9920 C.3   1 <1>   0.1400 
 18 C       -7.9110    -0.5470     0.9910 C.3   1 <1>  -0.0800 
 19 C       -9.7300    -2.1210     0.2160 C.3   1 <1>  -0.1600 
 20 C       -9.4130    -0.6980     0.6990 C.3   1 <1>  -0.1600 
 21 C       -7.5900     0.8940     1.4080 C.3   1 <1>  -0.2400 
 22 H       -1.7300    -3.2830    -2.4210 H     1 <1>   0.1500 
 23 H        0.7260    -2.9260     1.0490 H     1 <1>   0.1500 
 24 H       -1.3040    -2.9340     2.4890 H     1 <1>   0.1500 
 25 H       -4.2420    -3.3970    -2.1420 H     1 <1>   0.1500 
 26 H       -7.2690    -0.2840    -1.0450 H     1 <1>   0.0800 
 27 H       -6.0280    -0.8880     0.0110 H     1 <1>   0.0800 
 28 H       -9.0880    -3.5350    -1.2620 H     1 <1>   0.0800 
 29 H       -9.1180    -1.8900    -1.8350 H     1 <1>   0.0800 
 30 H       -7.6520    -1.1970     1.8100 H     1 <1>   0.0800 
 31 H       -9.5450    -2.8240     1.0110 H     1 <1>   0.0800 
 32 H      -10.7700    -2.1910    -0.0470 H     1 <1>   0.0800 
 33 H       -9.7090     0.0070    -0.0580 H     1 <1>   0.0800 
 34 H       -9.9800    -0.4890     1.5900 H     1 <1>   0.0800 
 35 H       -7.8280     1.5830     0.6170 H     1 <1>   0.0800 
 36 H       -6.5450     0.9890     1.6470 H     1 <1>   0.0800 
 37 H       -8.1600     1.1630     2.2800 H     1 <1>   0.0800 
@<TRIPOS>BOND
  1   1   2  1   
  2   2   3  ar  
  3   2   4  ar  
  4   3   5  ar  
  5   3  22  1   
  6   4   6  ar  
  7   4  23  1   
  8   5   7  ar  
  9   5   8  1   
 10   6   7  ar  
 11   6  24  1   
 12   7   9  1   
 13   8  10  2   
 14   8  25  1   
 15   9  11  1   
 16  10  11  1   
 17  10  12  1   
 18  11  13  2   
 19  12  14  2   
 20  12  15  am  
 21  15  16  1   
 22  15  17  1   
 23  16  18  1   
 24  16  26  1   
 25  16  27  1   
 26  17  19  1   
 27  17  28  1   
 28  17  29  1   
 29  18  20  1   
 30  18  21  1   
 31  18  30  1   
 32  19  20  1   
 33  19  31  1   
 34  19  32  1   
 35  20  33  1   
 36  20  34  1   
 37  21  35  1   
 38  21  36  1   
 39  21  37  1   
@<TRIPOS>SUBSTRUCTURE
  1 ****  10 GROUP 4 **** **** 0

# MOE 2024.06 (io_trps.svl 2023.06)
