@<TRIPOS>MOLECULE
NONAME
39 40 1 0 0 
SMALL
USER_CHARGES


@<TRIPOS>ATOM
  1 O        0.1540     0.4350    -0.3430 O.3   1 <1>  -0.3630 
  2 C        0.3320     1.7760    -0.2760 C.ar  1 <1>   0.0820 
  3 C       -0.8540    -0.2120     0.4040 C.3   1 <1>   0.1200 
  4 C        1.3130     2.3160    -1.0910 C.ar  1 <1>  -0.1500 
  5 C       -0.4060     2.6170     0.5520 C.ar  1 <1>  -0.1500 
  6 C       -0.8380    -1.7160     0.0920 C.3   1 <1>  -0.0800 
  7 C        1.5640     3.6760    -1.0810 C.ar  1 <1>  -0.1500 
  8 C       -0.1530     3.9780     0.5610 C.ar  1 <1>  -0.1500 
  9 C       -1.1240    -1.9940    -1.3920 C.3   1 <1>  -0.2400 
 10 C       -1.8680    -2.4480     0.9620 C.3   1 <1>  -0.2400 
 11 C        0.8350     4.5140    -0.2530 C.ar  1 <1>  -0.1430 
 12 C        1.1370     6.0090    -0.2310 C.3   1 <1>   0.0440 
 13 C        2.4840     6.3040     0.4140 C.2   1 <1>   0.4390 
 14 N        3.2610     7.1560    -0.1120 N.2   1 <1>  -0.6520 
 15 N        2.7690     5.5880     1.5470 N.pl3 1 <1>  -0.8500 
 16 N        4.4810     7.4490     0.5030 N.pl3 1 <1>   0.5050 
 17 C        4.7370     7.8940     1.7380 C.2   1 <1>   0.0360 
 18 C        5.7090     7.2950     0.0010 C.2   1 <1>   0.0360 
 19 N        6.0030     7.9800     1.9740 N.2   1 <1>  -0.3380 
 20 N        6.6280     7.5960     0.8560 N.2   1 <1>  -0.3380 
 21 H       -0.6560    -0.0440     1.4480 H     1 <1>   0.0800 
 22 H       -1.8030     0.2190     0.1340 H     1 <1>   0.0800 
 23 H        1.8760     1.6620    -1.7310 H     1 <1>   0.1500 
 24 H       -1.1770     2.2330     1.1930 H     1 <1>   0.1500 
 25 H        0.1390    -2.0980     0.3360 H     1 <1>   0.0800 
 26 H        2.3310     4.0770    -1.7220 H     1 <1>   0.1500 
 27 H       -0.7320     4.6160     1.2060 H     1 <1>   0.1500 
 28 H       -2.0900    -1.6100    -1.6710 H     1 <1>   0.0800 
 29 H       -1.1030    -3.0520    -1.5860 H     1 <1>   0.0800 
 30 H       -0.3790    -1.5250    -2.0100 H     1 <1>   0.0800 
 31 H       -2.8630    -2.0970     0.7500 H     1 <1>   0.0800 
 32 H       -1.6600    -2.2860     2.0050 H     1 <1>   0.0800 
 33 H       -1.8310    -3.5060     0.7730 H     1 <1>   0.0800 
 34 H        0.3760     6.5340     0.3180 H     1 <1>   0.0800 
 35 H        1.1300     6.3880    -1.2370 H     1 <1>   0.0800 
 36 H        2.2160     4.7340     1.6900 H     1 <1>   0.4000 
 37 H        3.7430     5.4910     1.8430 H     1 <1>   0.4000 
 38 H        3.9530     8.1370     2.4290 H     1 <1>   0.1500 
 39 H        5.8730     6.9520    -1.0020 H     1 <1>   0.1500 
@<TRIPOS>BOND
  1   1   2  1   
  2   1   3  1   
  3   2   4  ar  
  4   2   5  ar  
  5   3   6  1   
  6   3  21  1   
  7   3  22  1   
  8   4   7  ar  
  9   4  23  1   
 10   5   8  ar  
 11   5  24  1   
 12   6   9  1   
 13   6  10  1   
 14   6  25  1   
 15   7  11  ar  
 16   7  26  1   
 17   8  11  ar  
 18   8  27  1   
 19   9  28  1   
 20   9  29  1   
 21   9  30  1   
 22  10  31  1   
 23  10  32  1   
 24  10  33  1   
 25  11  12  1   
 26  12  13  1   
 27  12  34  1   
 28  12  35  1   
 29  13  14  2   
 30  13  15  1   
 31  14  16  1   
 32  15  36  1   
 33  15  37  1   
 34  16  17  1   
 35  16  18  1   
 36  17  19  2   
 37  17  38  1   
 38  18  20  2   
 39  18  39  1   
 40  19  20  1   
@<TRIPOS>SUBSTRUCTURE
  1 ****  11 GROUP 4 **** **** 0

# MOE 2024.06 (io_trps.svl 2023.06)
