@<TRIPOS>MOLECULE
NONAME
40 42 1 0 0 
SMALL
USER_CHARGES


@<TRIPOS>ATOM
  1 CL      -1.9730     1.9780    -2.3040 Cl    1 <1>  -0.1770 
  2 C       -1.0750     2.6600    -0.9690 C.ar  1 <1>   0.1770 
  3 C       -1.5270     2.4760     0.3290 C.ar  1 <1>  -0.1440 
  4 C        0.0700     3.3860    -1.2410 C.ar  1 <1>  -0.1500 
  5 C       -0.8020     3.0350     1.3730 C.ar  1 <1>  -0.1500 
  6 C       -2.7870     1.6790     0.5980 C.3   1 <1>   0.4870 
  7 C        0.7820     3.9420    -0.1940 C.ar  1 <1>  -0.1500 
  8 C        0.3460     3.7660     1.1090 C.ar  1 <1>  -0.1500 
  9 N       -3.9630     2.4320     0.0860 N.4   1 <1>  -0.9590 
 10 C       -4.1250     3.7730     0.7610 C.3   1 <1>   0.3430 
 11 C       -5.2300     1.6210     0.1720 C.3   1 <1>   0.3430 
 12 C       -5.3480     4.5530     0.2370 C.3   1 <1>   0.2090 
 13 C       -6.4580     2.3910    -0.3570 C.3   1 <1>   0.2090 
 14 N       -6.5860     3.7200     0.3120 N.pl3 1 <1>  -0.8380 
 15 C       -7.7790     4.4070     0.0460 C.ar  1 <1>   0.1000 
 16 C       -8.1350     4.9280    -1.2050 C.ar  1 <1>   0.1900 
 17 C       -8.6850     4.5940     1.0830 C.ar  1 <1>  -0.1500 
 18 F       -7.3180     4.7810    -2.2220 F     1 <1>  -0.1900 
 19 C       -9.3200     5.6000    -1.4280 C.ar  1 <1>  -0.1500 
 20 C       -9.8800     5.2660     0.8790 C.ar  1 <1>  -0.1500 
 21 C      -10.2010     5.7690    -0.3720 C.ar  1 <1>  -0.1500 
 22 H        0.4010     3.5130    -2.2580 H     1 <1>   0.1500 
 23 H       -1.1120     2.9100     2.3980 H     1 <1>   0.1500 
 24 H       -2.8910     1.5030     1.6570 H     1 <1>   0.0800 
 25 H       -2.7130     0.7260     0.1000 H     1 <1>   0.0800 
 26 H        1.6770     4.5100    -0.3900 H     1 <1>   0.1500 
 27 H        0.9090     4.1980     1.9210 H     1 <1>   0.1500 
 28 H       -3.7770     2.6160    -0.9110 H     1 <1>   0.4500 
 29 H       -3.2410     4.3710     0.6110 H     1 <1>   0.0800 
 30 H       -4.2510     3.6310     1.8220 H     1 <1>   0.0800 
 31 H       -5.4220     1.3570     1.1990 H     1 <1>   0.0800 
 32 H       -5.1230     0.7080    -0.3910 H     1 <1>   0.0800 
 33 H       -5.1730     4.8580    -0.7810 H     1 <1>   0.0800 
 34 H       -5.4840     5.4420     0.8290 H     1 <1>   0.0800 
 35 H       -7.3490     1.8150    -0.1700 H     1 <1>   0.0800 
 36 H       -6.3710     2.5240    -1.4220 H     1 <1>   0.0800 
 37 H       -8.4460     4.2090     2.0570 H     1 <1>   0.1500 
 38 H       -9.5500     5.9830    -2.4060 H     1 <1>   0.1500 
 39 H      -10.5660     5.3980     1.6990 H     1 <1>   0.1500 
 40 H      -11.1320     6.2900    -0.5230 H     1 <1>   0.1500 
@<TRIPOS>BOND
  1   1   2  1   
  2   2   3  ar  
  3   2   4  ar  
  4   3   5  ar  
  5   3   6  1   
  6   4   7  ar  
  7   4  22  1   
  8   5   8  ar  
  9   5  23  1   
 10   6   9  1   
 11   6  24  1   
 12   6  25  1   
 13   7   8  ar  
 14   7  26  1   
 15   8  27  1   
 16   9  10  1   
 17   9  11  1   
 18   9  28  1   
 19  10  12  1   
 20  10  29  1   
 21  10  30  1   
 22  11  13  1   
 23  11  31  1   
 24  11  32  1   
 25  12  14  1   
 26  12  33  1   
 27  12  34  1   
 28  13  14  1   
 29  13  35  1   
 30  13  36  1   
 31  14  15  1   
 32  15  16  ar  
 33  15  17  ar  
 34  16  18  1   
 35  16  19  ar  
 36  17  20  ar  
 37  17  37  1   
 38  19  21  ar  
 39  19  38  1   
 40  20  21  ar  
 41  20  39  1   
 42  21  40  1   
@<TRIPOS>SUBSTRUCTURE
  1 ****  10 GROUP 4 **** **** 0

# MOE 2024.06 (io_trps.svl 2023.06)
