@<TRIPOS>MOLECULE
NONAME
32 32 1 0 0 
SMALL
USER_CHARGES


@<TRIPOS>ATOM
  1 CL      -0.1860     1.0250    -0.9110 Cl    1 <1>  -0.1770 
  2 C        1.5310     1.3260    -0.7560 C.ar  1 <1>   0.1770 
  3 C        1.9850     2.5070    -0.1810 C.ar  1 <1>  -0.1440 
  4 C        2.4070     0.3630    -1.2230 C.ar  1 <1>  -0.1500 
  5 C        3.3540     2.7070    -0.0740 C.ar  1 <1>  -0.1500 
  6 C        1.0120     3.5630     0.3190 C.3   1 <1>  -0.0960 
  7 C        3.7700     0.5720    -1.1100 C.ar  1 <1>  -0.1500 
  8 C        4.2420     1.7380    -0.5270 C.ar  1 <1>   0.0830 
  9 O        5.5790     1.9080    -0.4320 O.3   1 <1>  -0.3630 
 10 C        6.1500     2.1520     0.8520 C.3   1 <1>   0.2610 
 11 C        7.4550     2.9490     0.7120 C.2   1 <1>   0.5690 
 12 C        6.3690     0.7940     1.5310 C.3   1 <1>  -0.2400 
 13 O        7.8760     3.5480     1.6750 O.2   1 <1>  -0.5700 
 14 N        8.1080     2.9660    -0.4830 N.am  1 <1>  -0.7300 
 15 C        9.3720     3.6650    -0.7690 C.3   1 <1>   0.1400 
 16 C       10.3130     2.6970    -1.4750 C.3   1 <1>  -0.2400 
 17 H        2.0230    -0.5370    -1.6680 H     1 <1>   0.1500 
 18 H        3.7320     3.6190     0.3500 H     1 <1>   0.1500 
 19 H        0.3790     3.1480     1.0840 H     1 <1>   0.0800 
 20 H        0.3940     3.9060    -0.4920 H     1 <1>   0.0800 
 21 H        1.5340     4.4080     0.7310 H     1 <1>   0.0800 
 22 H        4.4700    -0.1620    -1.4680 H     1 <1>   0.1500 
 23 H        5.4670     2.7420     1.4340 H     1 <1>   0.0800 
 24 H        7.0400     0.1910     0.9470 H     1 <1>   0.0800 
 25 H        5.4330     0.2810     1.6540 H     1 <1>   0.0800 
 26 H        6.8040     0.9460     2.5030 H     1 <1>   0.0800 
 27 H        7.6610     2.4890    -1.2710 H     1 <1>   0.3700 
 28 H        9.8180     4.0100     0.1500 H     1 <1>   0.0800 
 29 H        9.1750     4.5190    -1.3950 H     1 <1>   0.0800 
 30 H       10.5090     1.8470    -0.8450 H     1 <1>   0.0800 
 31 H       11.2470     3.1880    -1.6820 H     1 <1>   0.0800 
 32 H        9.8870     2.3670    -2.4050 H     1 <1>   0.0800 
@<TRIPOS>BOND
  1   1   2  1   
  2   2   3  ar  
  3   2   4  ar  
  4   3   5  ar  
  5   3   6  1   
  6   4   7  ar  
  7   4  17  1   
  8   5   8  ar  
  9   5  18  1   
 10   6  19  1   
 11   6  20  1   
 12   6  21  1   
 13   7   8  ar  
 14   7  22  1   
 15   8   9  1   
 16   9  10  1   
 17  10  11  1   
 18  10  12  1   
 19  10  23  1   
 20  11  13  2   
 21  11  14  am  
 22  12  24  1   
 23  12  25  1   
 24  12  26  1   
 25  14  15  1   
 26  14  27  1   
 27  15  16  1   
 28  15  28  1   
 29  15  29  1   
 30  16  30  1   
 31  16  31  1   
 32  16  32  1   
@<TRIPOS>SUBSTRUCTURE
  1 ****   9 GROUP 4 **** **** 0

# MOE 2024.06 (io_trps.svl 2023.06)
