@<TRIPOS>MOLECULE
NONAME
46 48 1 0 0 
SMALL
USER_CHARGES


@<TRIPOS>ATOM
  1 O        0.4520     0.0330     0.6620 O.2   1 <1>  -0.5700 
  2 C        0.8450    -1.0920     0.9080 C.2   1 <1>   0.6900 
  3 N        2.1750    -1.3200     1.1360 N.am  1 <1>  -0.6600 
  4 N       -0.0140    -2.1490     0.9830 N.am  1 <1>  -0.5470 
  5 C        3.0940    -0.1800     1.4360 C.3   1 <1>   0.1400 
  6 C        2.8830    -2.5250     0.6030 C.3   1 <1>   0.1400 
  7 C       -1.3750    -2.2640     0.6630 C.ar  1 <1>   0.1170 
  8 C        3.9260     0.1930     0.1980 C.3   1 <1>   0.1400 
  9 C        3.7080    -2.1540    -0.6390 C.3   1 <1>   0.1400 
 10 C       -2.1230    -3.2690     1.2640 C.ar  1 <1>  -0.1500 
 11 C       -2.0060    -1.4260    -0.2510 C.ar  1 <1>  -0.1500 
 12 N        4.6280    -1.0120    -0.3460 N.am  1 <1>  -0.6600 
 13 C       -3.4640    -3.4300     0.9640 C.ar  1 <1>  -0.1500 
 14 C       -3.3470    -1.5810    -0.5540 C.ar  1 <1>  -0.1500 
 15 C        5.9930    -1.1960    -0.2370 C.2   1 <1>   0.7150 
 16 C       -4.0860    -2.5900     0.0560 C.ar  1 <1>   0.0820 
 17 O        6.4090    -2.3360    -0.1200 O.2   1 <1>  -0.5700 
 18 C        6.9110    -0.0750    -0.2650 C.2   1 <1>   0.0550 
 19 O       -5.4060    -2.8160    -0.1810 O.3   1 <1>  -0.3630 
 20 O        8.0200    -0.0740     0.4710 O.3   1 <1>  -0.2800 
 21 C        6.8650     1.0960    -0.9640 C.2   1 <1>  -0.1500 
 22 C       -6.1330    -1.9850    -1.0540 C.3   1 <1>   0.1200 
 23 C        8.6700     1.0480     0.2640 C.2   1 <1>  -0.0100 
 24 C        8.0050     1.8220    -0.6190 C.2   1 <1>  -0.1500 
 25 C       -7.5760    -2.4810    -1.0850 C.3   1 <1>  -0.2400 
 26 H        0.3880    -2.9360     1.4800 H     1 <1>   0.3700 
 27 H        3.7550    -0.4620     2.2380 H     1 <1>   0.0800 
 28 H        2.5320     0.6770     1.7630 H     1 <1>   0.0800 
 29 H        2.1820    -3.2960     0.3370 H     1 <1>   0.0800 
 30 H        3.5410    -2.9180     1.3600 H     1 <1>   0.0800 
 31 H        4.6300     0.9570     0.4760 H     1 <1>   0.0800 
 32 H        3.2740     0.5980    -0.5560 H     1 <1>   0.0800 
 33 H        3.0420    -1.8730    -1.4360 H     1 <1>   0.0800 
 34 H        4.2650    -3.0140    -0.9700 H     1 <1>   0.0800 
 35 H       -1.6610    -3.9290     1.9730 H     1 <1>   0.1500 
 36 H       -1.4470    -0.6440    -0.7320 H     1 <1>   0.1500 
 37 H       -4.0400    -4.2080     1.4330 H     1 <1>   0.1500 
 38 H       -3.7910    -0.9090    -1.2630 H     1 <1>   0.1500 
 39 H        6.1100     1.4150    -1.6600 H     1 <1>   0.1500 
 40 H       -5.6890    -2.0460    -2.0330 H     1 <1>   0.0800 
 41 H       -6.0860    -0.9760    -0.6830 H     1 <1>   0.0800 
 42 H        9.5990     1.2150     0.7820 H     1 <1>   0.1500 
 43 H        8.2750     2.7930    -0.9950 H     1 <1>   0.1500 
 44 H       -7.6090    -3.4950    -1.4410 H     1 <1>   0.0800 
 45 H       -8.1580    -1.8650    -1.7450 H     1 <1>   0.0800 
 46 H       -8.0040    -2.4310    -0.1000 H     1 <1>   0.0800 
@<TRIPOS>BOND
  1   1   2  2   
  2   2   3  am  
  3   2   4  am  
  4   3   5  1   
  5   3   6  1   
  6   4   7  1   
  7   4  26  1   
  8   5   8  1   
  9   5  27  1   
 10   5  28  1   
 11   6   9  1   
 12   6  29  1   
 13   6  30  1   
 14   7  10  ar  
 15   7  11  ar  
 16   8  12  1   
 17   8  31  1   
 18   8  32  1   
 19   9  12  1   
 20   9  33  1   
 21   9  34  1   
 22  10  13  ar  
 23  10  35  1   
 24  11  14  ar  
 25  11  36  1   
 26  12  15  am  
 27  13  16  ar  
 28  13  37  1   
 29  14  16  ar  
 30  14  38  1   
 31  15  17  2   
 32  15  18  1   
 33  16  19  1   
 34  18  20  1   
 35  18  21  2   
 36  19  22  1   
 37  20  23  1   
 38  21  24  1   
 39  21  39  1   
 40  22  25  1   
 41  22  40  1   
 42  22  41  1   
 43  23  24  2   
 44  23  42  1   
 45  24  43  1   
 46  25  44  1   
 47  25  45  1   
 48  25  46  1   
@<TRIPOS>SUBSTRUCTURE
  1 ****   2 GROUP 4 **** **** 0

# MOE 2024.06 (io_trps.svl 2023.06)
