@<TRIPOS>MOLECULE
NONAME
31 33 1 0 0 
SMALL
USER_CHARGES


@<TRIPOS>ATOM
  1 F        0.0700    -1.3410    -0.9680 F     1 <1>  -0.3400 
  2 C        0.6290    -1.8010     0.1460 C.3   1 <1>   1.1640 
  3 F        0.0270    -1.1790     1.1500 F     1 <1>  -0.3400 
  4 F        0.2770    -3.0790     0.2340 F     1 <1>  -0.3400 
  5 C        2.1540    -1.6000     0.1770 C.ar  1 <1>  -0.1440 
  6 C        2.9760    -2.4700     0.8820 C.ar  1 <1>  -0.1500 
  7 C        2.7500    -0.5360    -0.4920 C.ar  1 <1>  -0.1500 
  8 C        4.3460    -2.2840     0.9120 C.ar  1 <1>  -0.1500 
  9 C        4.1210    -0.3560    -0.4580 C.ar  1 <1>  -0.1500 
 10 C        4.9590    -1.2240     0.2430 C.ar  1 <1>   0.0540 
 11 C        6.4010    -1.0350     0.2790 C.2   1 <1>   0.4620 
 12 N        7.2340    -1.7970     0.9070 N.2   1 <1>  -0.4100 
 13 N        7.0120    -0.0190    -0.3590 N.2   1 <1>  -0.5650 
 14 O        8.3730    -1.2740     0.6740 O.3   1 <1>  -0.0190 
 15 C        8.2570    -0.2160    -0.0770 C.2   1 <1>   0.3930 
 16 C        9.4540     0.5230    -0.4530 C.2   1 <1>   0.7150 
 17 O        9.3980     1.5190    -1.1550 O.2   1 <1>  -0.5700 
 18 N       10.6900     0.1050    -0.0180 N.am  1 <1>  -0.5790 
 19 C       11.9800     0.7460    -0.3140 C.3   1 <1>   0.0490 
 20 C       13.1750    -0.1330    -0.4780 C.3   1 <1>  -0.2000 
 21 C       13.0320     0.7220     0.7450 C.3   1 <1>  -0.2000 
 22 H        2.5520    -3.3050     1.4180 H     1 <1>   0.1500 
 23 H        2.1480     0.1650    -1.0470 H     1 <1>   0.1500 
 24 H        4.9540    -2.9780     1.4680 H     1 <1>   0.1500 
 25 H        4.5500     0.4780    -0.9880 H     1 <1>   0.1500 
 26 H       10.7500    -0.7270     0.5700 H     1 <1>   0.3700 
 27 H       11.8950     1.6240    -0.9370 H     1 <1>   0.1000 
 28 H       13.9210     0.1430    -1.2040 H     1 <1>   0.1000 
 29 H       13.0600    -1.1980    -0.3880 H     1 <1>   0.1000 
 30 H       12.8160     0.2530     1.6890 H     1 <1>   0.1000 
 31 H       13.6800     1.5750     0.8470 H     1 <1>   0.1000 
@<TRIPOS>BOND
  1   1   2  1   
  2   2   3  1   
  3   2   4  1   
  4   2   5  1   
  5   5   6  ar  
  6   5   7  ar  
  7   6   8  ar  
  8   6  22  1   
  9   7   9  ar  
 10   7  23  1   
 11   8  10  ar  
 12   8  24  1   
 13   9  10  ar  
 14   9  25  1   
 15  10  11  1   
 16  11  12  2   
 17  11  13  1   
 18  12  14  1   
 19  13  15  2   
 20  14  15  1   
 21  15  16  1   
 22  16  17  2   
 23  16  18  am  
 24  18  19  1   
 25  18  26  1   
 26  19  20  1   
 27  19  21  1   
 28  19  27  1   
 29  20  21  1   
 30  20  28  1   
 31  20  29  1   
 32  21  30  1   
 33  21  31  1   
@<TRIPOS>SUBSTRUCTURE
  1 ****  11 GROUP 4 **** **** 0

# MOE 2024.06 (io_trps.svl 2023.06)
