@<TRIPOS>MOLECULE
NONAME
43 44 1 0 0 
SMALL
USER_CHARGES


@<TRIPOS>ATOM
  1 O       -1.1000    -0.1340     1.4150 O.2   1 <1>  -0.5700 
  2 C       -1.8580     0.5860     0.7260 C.2   1 <1>   0.5410 
  3 C       -2.7780     0.0390    -0.2080 C.2   1 <1>   0.0140 
  4 C       -1.7820     1.9830     0.8860 C.2   1 <1>  -0.1360 
  5 C       -2.9190    -1.3690    -0.3680 C.2   1 <1>   0.2000 
  6 C       -3.5250     0.9420    -0.9820 C.2   1 <1>  -0.1500 
  7 C       -2.5520     2.8300     0.1360 C.2   1 <1>  -0.1500 
  8 N       -1.9330    -2.2540    -0.2940 N.pl3 1 <1>  -0.5500 
  9 N       -4.0230    -2.0980    -0.6150 N.pl3 1 <1>  -0.4270 
 10 C       -3.4270     2.3030    -0.8160 C.2   1 <1>  -0.1500 
 11 C       -2.4540    -3.4760    -0.5260 C.2   1 <1>   0.4390 
 12 N       -3.7170    -3.4210    -0.7240 N.2   1 <1>  -0.4920 
 13 C       -5.4350    -1.6680    -0.6640 C.3   1 <1>   0.2090 
 14 C       -1.6060    -4.7220    -0.5260 C.3   1 <1>  -0.1790 
 15 C       -6.2940    -2.7060     0.0760 C.3   1 <1>   0.3430 
 16 N       -7.7640    -2.3790     0.1380 N.4   1 <1>  -0.9590 
 17 C       -8.0370    -1.1650     0.9560 C.3   1 <1>   0.3430 
 18 C       -8.4950    -3.5660     0.6550 C.3   1 <1>   0.3430 
 19 C       -8.4670    -0.0410     0.0240 C.3   1 <1>  -0.2400 
 20 C       -9.9760    -3.4430     0.3120 C.3   1 <1>  -0.2400 
 21 H       -1.0910     2.3550     1.6190 H     1 <1>   0.1500 
 22 H       -4.1810     0.5540    -1.7410 H     1 <1>   0.1500 
 23 H       -2.4870     3.8990     0.2630 H     1 <1>   0.1500 
 24 H       -0.9690    -2.0430    -0.0250 H     1 <1>   0.4000 
 25 H       -4.0130     2.9780    -1.4200 H     1 <1>   0.1500 
 26 H       -5.7350    -1.6000    -1.6940 H     1 <1>   0.0800 
 27 H       -5.5220    -0.7100    -0.1880 H     1 <1>   0.0800 
 28 H       -0.8470    -4.6430    -1.2820 H     1 <1>   0.0800 
 29 H       -2.2190    -5.5790    -0.7340 H     1 <1>   0.0800 
 30 H       -1.1430    -4.8460     0.4340 H     1 <1>   0.0800 
 31 H       -5.9050    -2.8130     1.0750 H     1 <1>   0.0800 
 32 H       -6.1630    -3.6500    -0.4280 H     1 <1>   0.0800 
 33 H       -8.1040    -2.2110    -0.8180 H     1 <1>   0.4500 
 34 H       -7.1580    -0.8770     1.5110 H     1 <1>   0.0800 
 35 H       -8.8280    -1.3610     1.6630 H     1 <1>   0.0800 
 36 H       -8.3630    -3.6530     1.7220 H     1 <1>   0.0800 
 37 H       -8.1070    -4.4610     0.1940 H     1 <1>   0.0800 
 38 H       -7.6960     0.2000    -0.6850 H     1 <1>   0.0800 
 39 H       -8.6680     0.8410     0.6060 H     1 <1>   0.0800 
 40 H       -9.3700    -0.3040    -0.4980 H     1 <1>   0.0800 
 41 H      -10.4280    -2.6010     0.8040 H     1 <1>   0.0800 
 42 H      -10.4870    -4.3280     0.6460 H     1 <1>   0.0800 
 43 H      -10.1170    -3.3610    -0.7510 H     1 <1>   0.0800 
@<TRIPOS>BOND
  1   1   2  2   
  2   2   3  1   
  3   2   4  1   
  4   3   5  2   
  5   3   6  1   
  6   4   7  2   
  7   4  21  1   
  8   5   8  1   
  9   5   9  1   
 10   6  10  2   
 11   6  22  1   
 12   7  10  1   
 13   7  23  1   
 14   8  11  1   
 15   8  24  1   
 16   9  12  1   
 17   9  13  1   
 18  10  25  1   
 19  11  12  2   
 20  11  14  1   
 21  13  15  1   
 22  13  26  1   
 23  13  27  1   
 24  14  28  1   
 25  14  29  1   
 26  14  30  1   
 27  15  16  1   
 28  15  31  1   
 29  15  32  1   
 30  16  17  1   
 31  16  18  1   
 32  16  33  1   
 33  17  19  1   
 34  17  34  1   
 35  17  35  1   
 36  18  20  1   
 37  18  36  1   
 38  18  37  1   
 39  19  38  1   
 40  19  39  1   
 41  19  40  1   
 42  20  41  1   
 43  20  42  1   
 44  20  43  1   
@<TRIPOS>SUBSTRUCTURE
  1 ****   9 GROUP 4 **** **** 0

# MOE 2024.06 (io_trps.svl 2023.06)
