@<TRIPOS>MOLECULE
NONAME
38 38 1 0 0 
SMALL
USER_CHARGES


@<TRIPOS>ATOM
  1 O       -0.2610     0.9930     1.4710 O.2   1 <1>  -0.5700 
  2 C       -0.4690     1.6770     0.5000 C.2   1 <1>   0.6590 
  3 O        0.4860     2.4100    -0.0570 O.3   1 <1>  -0.4300 
  4 C       -1.8370     1.7620    -0.1750 C.3   1 <1>  -0.0190 
  5 C        1.7930     2.4340     0.4660 C.3   1 <1>   0.1200 
  6 C       -2.4850     3.1400     0.0580 C.3   1 <1>  -0.1600 
  7 C       -2.8020     0.6470     0.2800 C.3   1 <1>  -0.1600 
  8 C        2.6280     3.3790    -0.3920 C.3   1 <1>  -0.2400 
  9 C       -3.8560     3.2410    -0.6150 C.3   1 <1>   0.1400 
 10 C       -4.1720     0.7690    -0.3900 C.3   1 <1>   0.1400 
 11 N       -4.7280     2.1290    -0.1480 N.am  1 <1>  -0.6600 
 12 C       -5.9790     2.3780     0.3780 C.2   1 <1>   0.5690 
 13 O       -6.3810     3.5090     0.5350 O.2   1 <1>  -0.5700 
 14 C       -6.9120     1.2500     0.8340 C.3   1 <1>   0.1810 
 15 O       -7.2280     0.3490    -0.2000 O.3   1 <1>  -0.5600 
 16 C       -8.1550    -0.6180     0.1560 C.3   1 <1>   0.1200 
 17 C       -8.3430    -1.5350    -1.0450 C.3   1 <1>  -0.2400 
 18 H       -1.6700     1.6440    -1.2310 H     1 <1>   0.0800 
 19 H        2.1900     1.4330     0.4400 H     1 <1>   0.0800 
 20 H        1.7460     2.7780     1.4860 H     1 <1>   0.0800 
 21 H       -1.8470     3.9130    -0.3310 H     1 <1>   0.0800 
 22 H       -2.6040     3.3140     1.1140 H     1 <1>   0.0800 
 23 H       -2.9340     0.6920     1.3480 H     1 <1>   0.0800 
 24 H       -2.3780    -0.3140     0.0470 H     1 <1>   0.0800 
 25 H        2.6590     3.0270    -1.4080 H     1 <1>   0.0800 
 26 H        3.6340     3.4180    -0.0130 H     1 <1>   0.0800 
 27 H        2.2130     4.3700    -0.3650 H     1 <1>   0.0800 
 28 H       -3.7490     3.1750    -1.6840 H     1 <1>   0.0800 
 29 H       -4.2970     4.1960    -0.3860 H     1 <1>   0.0800 
 30 H       -4.8190     0.0040    -0.0020 H     1 <1>   0.0800 
 31 H       -4.0800     0.6160    -1.4520 H     1 <1>   0.0800 
 32 H       -7.8260     1.6860     1.1940 H     1 <1>   0.0800 
 33 H       -6.4410     0.7050     1.6320 H     1 <1>   0.0800 
 34 H       -9.0830    -0.1330     0.4130 H     1 <1>   0.0800 
 35 H       -7.7800    -1.1700     1.0010 H     1 <1>   0.0800 
 36 H       -8.7060    -0.9700    -1.8850 H     1 <1>   0.0800 
 37 H       -9.0590    -2.3010    -0.8110 H     1 <1>   0.0800 
 38 H       -7.4090    -2.0020    -1.3030 H     1 <1>   0.0800 
@<TRIPOS>BOND
  1   1   2  2   
  2   2   3  1   
  3   2   4  1   
  4   3   5  1   
  5   4   6  1   
  6   4   7  1   
  7   4  18  1   
  8   5   8  1   
  9   5  19  1   
 10   5  20  1   
 11   6   9  1   
 12   6  21  1   
 13   6  22  1   
 14   7  10  1   
 15   7  23  1   
 16   7  24  1   
 17   8  25  1   
 18   8  26  1   
 19   8  27  1   
 20   9  11  1   
 21   9  28  1   
 22   9  29  1   
 23  10  11  1   
 24  10  30  1   
 25  10  31  1   
 26  11  12  am  
 27  12  13  2   
 28  12  14  1   
 29  14  15  1   
 30  14  32  1   
 31  14  33  1   
 32  15  16  1   
 33  16  17  1   
 34  16  34  1   
 35  16  35  1   
 36  17  36  1   
 37  17  37  1   
 38  17  38  1   
@<TRIPOS>SUBSTRUCTURE
  1 ****   7 GROUP 4 **** **** 0

# MOE 2024.06 (io_trps.svl 2023.06)
