@<TRIPOS>MOLECULE
NONAME
32 33 1 0 0 
SMALL
USER_CHARGES


@<TRIPOS>ATOM
  1 O        0.7110    -0.4040    -0.2120 O.2   1 <1>  -0.5700 
  2 C        1.6970    -0.1090     0.4150 C.2   1 <1>   0.5690 
  3 N        2.0850    -0.8530     1.4690 N.am  1 <1>  -0.8000 
  4 C        2.5220     1.1230     0.0230 C.3   1 <1>   0.1710 
  5 N        3.9590     1.0570     0.4220 N.3   1 <1>  -0.8100 
  6 C        4.6000     2.3860     0.3080 C.3   1 <1>   0.1100 
  7 C        4.6990     0.0800    -0.4180 C.3   1 <1>   0.1100 
  8 C        6.0910     2.3510     0.6960 C.3   1 <1>   0.2090 
  9 C        6.1920     0.0030    -0.0470 C.3   1 <1>   0.2090 
 10 N        6.8340     1.3490    -0.1190 N.pl3 1 <1>  -0.8380 
 11 C        8.2120     1.4130    -0.0630 C.ar  1 <1>   0.4100 
 12 N        8.8410     0.4920     0.6600 N.ar  1 <1>  -0.6200 
 13 C        8.8750     2.4300    -0.7450 C.ar  1 <1>  -0.1500 
 14 C       10.1580     0.5930     0.7050 C.ar  1 <1>   0.1600 
 15 C       10.2460     2.5240    -0.6900 C.ar  1 <1>  -0.1500 
 16 C       10.8990     1.5700     0.0630 C.ar  1 <1>  -0.1500 
 17 H        1.5650    -1.6810     1.7550 H     1 <1>   0.3700 
 18 H        2.9540    -0.6260     1.9600 H     1 <1>   0.3700 
 19 H        2.0630     1.9680     0.5010 H     1 <1>   0.0800 
 20 H        2.4440     1.2650    -1.0400 H     1 <1>   0.0800 
 21 H        4.0940     3.0810     0.9550 H     1 <1>   0.0800 
 22 H        4.5170     2.7470    -0.7040 H     1 <1>   0.0800 
 23 H        4.6210     0.3560    -1.4560 H     1 <1>   0.0800 
 24 H        4.2670    -0.8990    -0.3020 H     1 <1>   0.0800 
 25 H        6.1820     2.0960     1.7380 H     1 <1>   0.0800 
 26 H        6.5220     3.3260     0.5510 H     1 <1>   0.0800 
 27 H        6.6970    -0.6670    -0.7210 H     1 <1>   0.0800 
 28 H        6.2920    -0.3890     0.9510 H     1 <1>   0.0800 
 29 H        8.2950     3.1290    -1.3150 H     1 <1>   0.1500 
 30 H       10.6780    -0.1470     1.2880 H     1 <1>   0.1500 
 31 H       10.7820     3.2990    -1.2080 H     1 <1>   0.1500 
 32 H       11.9700     1.5820     0.1500 H     1 <1>   0.1500 
@<TRIPOS>BOND
  1   1   2  2   
  2   2   3  am  
  3   2   4  1   
  4   3  17  1   
  5   3  18  1   
  6   4   5  1   
  7   4  19  1   
  8   4  20  1   
  9   5   6  1   
 10   5   7  1   
 11   6   8  1   
 12   6  21  1   
 13   6  22  1   
 14   7   9  1   
 15   7  23  1   
 16   7  24  1   
 17   8  10  1   
 18   8  25  1   
 19   8  26  1   
 20   9  10  1   
 21   9  27  1   
 22   9  28  1   
 23  10  11  1   
 24  11  12  ar  
 25  11  13  ar  
 26  12  14  ar  
 27  13  15  ar  
 28  13  29  1   
 29  14  16  ar  
 30  14  30  1   
 31  15  16  ar  
 32  15  31  1   
 33  16  32  1   
@<TRIPOS>SUBSTRUCTURE
  1 ****  10 GROUP 4 **** **** 0

# MOE 2024.06 (io_trps.svl 2023.06)
