@<TRIPOS>MOLECULE
NONAME
45 45 1 0 0 
SMALL
USER_CHARGES


@<TRIPOS>ATOM
  1 S       -0.0030     0.2240     1.0030 S.o2  1 <1>   1.4470 
  2 O       -0.6690     1.3020     0.3110 O.2   1 <1>  -0.6500 
  3 O        0.4800     0.4090     2.3520 O.2   1 <1>  -0.6500 
  4 N        1.3260    -0.0980     0.0330 N.am  1 <1>  -0.9140 
  5 C       -0.9920    -1.2930     0.8880 C.ar  1 <1>  -0.0090 
  6 C        2.4780     0.7170     0.3700 C.3   1 <1>   0.1960 
  7 C       -2.3660    -1.2400     0.7010 C.ar  1 <1>  -0.1500 
  8 C       -0.4040    -2.5440     1.0010 C.ar  1 <1>  -0.1500 
  9 C        3.5770     0.4640    -0.6610 C.3   1 <1>  -0.1600 
 10 C       -3.1620    -2.3810     0.6110 C.ar  1 <1>   0.0860 
 11 C       -1.1630    -3.6970     0.9190 C.ar  1 <1>  -0.1500 
 12 C        4.8300     1.2920    -0.3500 C.3   1 <1>  -0.1600 
 13 C       -2.5310    -3.6260     0.7230 C.ar  1 <1>  -0.1430 
 14 C       -4.5910    -2.2340     0.3980 C.2   1 <1>   0.5440 
 15 C        5.9300     1.0350    -1.3840 C.3   1 <1>  -0.2400 
 16 C       -3.3300    -4.9210     0.6330 C.3   1 <1>  -0.0970 
 17 O       -5.3880    -2.7390     1.1630 O.2   1 <1>  -0.5700 
 18 N       -5.0310    -1.5090    -0.6770 N.am  1 <1>  -0.7300 
 19 C       -6.4170    -1.2220    -1.0990 C.3   1 <1>   0.2200 
 20 C       -7.1470    -0.4240    -0.0210 C.3   1 <1>  -0.2400 
 21 C       -7.1410    -2.5210    -1.4470 C.3   1 <1>  -0.2400 
 22 H        1.0180     0.2000    -0.8900 H     1 <1>   0.4200 
 23 H        2.8330     0.4540     1.3540 H     1 <1>   0.0800 
 24 H        2.2050     1.7610     0.3710 H     1 <1>   0.0800 
 25 H       -2.8430    -0.2760     0.6290 H     1 <1>   0.1500 
 26 H        0.6600    -2.6170     1.1560 H     1 <1>   0.1500 
 27 H        3.2160     0.7230    -1.6410 H     1 <1>   0.0800 
 28 H        3.8320    -0.5820    -0.6520 H     1 <1>   0.0800 
 29 H       -0.6760    -4.6530     1.0120 H     1 <1>   0.1500 
 30 H        5.2000     1.0370     0.6290 H     1 <1>   0.0800 
 31 H        4.5830     2.3410    -0.3500 H     1 <1>   0.0800 
 32 H        6.2100    -0.0040    -1.3860 H     1 <1>   0.0800 
 33 H        6.8000     1.6220    -1.1490 H     1 <1>   0.0800 
 34 H        5.5920     1.3050    -2.3690 H     1 <1>   0.0800 
 35 H       -3.9570    -4.9140    -0.2410 H     1 <1>   0.0800 
 36 H       -3.9570    -5.0230     1.5020 H     1 <1>   0.0800 
 37 H       -2.6830    -5.7770     0.5770 H     1 <1>   0.0800 
 38 H       -4.3250    -1.1500    -1.3190 H     1 <1>   0.3700 
 39 H       -6.3700    -0.6160    -1.9890 H     1 <1>   0.0800 
 40 H       -7.2660    -1.0090     0.8730 H     1 <1>   0.0800 
 41 H       -8.1230    -0.1450    -0.3720 H     1 <1>   0.0800 
 42 H       -6.5990     0.4710     0.2120 H     1 <1>   0.0800 
 43 H       -7.2590    -3.1370    -0.5730 H     1 <1>   0.0800 
 44 H       -6.5910    -3.0650    -2.1920 H     1 <1>   0.0800 
 45 H       -8.1180    -2.3000    -1.8360 H     1 <1>   0.0800 
@<TRIPOS>BOND
  1   1   2  2   
  2   1   3  2   
  3   1   4  am  
  4   1   5  1   
  5   4   6  1   
  6   4  22  1   
  7   5   7  ar  
  8   5   8  ar  
  9   6   9  1   
 10   6  23  1   
 11   6  24  1   
 12   7  10  ar  
 13   7  25  1   
 14   8  11  ar  
 15   8  26  1   
 16   9  12  1   
 17   9  27  1   
 18   9  28  1   
 19  10  13  ar  
 20  10  14  1   
 21  11  13  ar  
 22  11  29  1   
 23  12  15  1   
 24  12  30  1   
 25  12  31  1   
 26  13  16  1   
 27  14  17  2   
 28  14  18  am  
 29  15  32  1   
 30  15  33  1   
 31  15  34  1   
 32  16  35  1   
 33  16  36  1   
 34  16  37  1   
 35  18  19  1   
 36  18  38  1   
 37  19  20  1   
 38  19  21  1   
 39  19  39  1   
 40  20  40  1   
 41  20  41  1   
 42  20  42  1   
 43  21  43  1   
 44  21  44  1   
 45  21  45  1   
@<TRIPOS>SUBSTRUCTURE
  1 ****   5 GROUP 4 **** **** 0

# MOE 2024.06 (io_trps.svl 2023.06)
