@<TRIPOS>MOLECULE
NONAME
38 38 1 0 0 
SMALL
USER_CHARGES


@<TRIPOS>ATOM
  1 O        0.1750    -0.2430     0.0680 O.3   1 <1>  -0.3630 
  2 C       -1.0620    -0.8010     0.0810 C.ar  1 <1>   0.0830 
  3 C        1.3350    -1.0350     0.0410 C.3   1 <1>   0.1200 
  4 C       -1.2960    -2.1740     0.0720 C.ar  1 <1>  -0.1500 
  5 C       -2.1370     0.0720     0.1020 C.ar  1 <1>  -0.1500 
  6 C        2.5340    -0.0850     0.0300 C.3   1 <1>  -0.1600 
  7 C       -2.5920    -2.6640     0.0860 C.ar  1 <1>  -0.1440 
  8 C       -3.4320    -0.4130     0.1140 C.ar  1 <1>  -0.1500 
  9 C        3.8680    -0.8440    -0.0020 C.3   1 <1>  -0.1600 
 10 C       -3.6580    -1.7780     0.1060 C.ar  1 <1>  -0.1500 
 11 C       -2.8460    -4.1610     0.0750 C.3   1 <1>  -0.0970 
 12 C        5.0370     0.1390    -0.0120 C.3   1 <1>   0.3430 
 13 N        6.3110    -0.6180    -0.0430 N.4   1 <1>  -0.9060 
 14 C        7.4930     0.2940    -0.0550 C.3   1 <1>   0.3430 
 15 C        8.8150    -0.4830    -0.0870 C.3   1 <1>   0.1200 
 16 O        9.8380     0.4450    -0.0950 O.3   1 <1>  -0.6800 
 17 H        1.3100    -1.6390    -0.8500 H     1 <1>   0.0800 
 18 H        1.3400    -1.6570     0.9190 H     1 <1>   0.0800 
 19 H       -0.4830    -2.8730     0.0540 H     1 <1>   0.1500 
 20 H       -1.9530     1.1310     0.1090 H     1 <1>   0.1500 
 21 H        2.4860     0.5320     0.9120 H     1 <1>   0.0800 
 22 H        2.4550     0.5510    -0.8370 H     1 <1>   0.0800 
 23 H       -4.2620     0.2710     0.1300 H     1 <1>   0.1500 
 24 H        3.8980    -1.4580    -0.8860 H     1 <1>   0.0800 
 25 H        3.9290    -1.4760     0.8680 H     1 <1>   0.0800 
 26 H       -4.6680    -2.1470     0.1140 H     1 <1>   0.1500 
 27 H       -2.0590    -4.6800     0.5910 H     1 <1>   0.0800 
 28 H       -2.8900    -4.5140    -0.9390 H     1 <1>   0.0800 
 29 H       -3.7770    -4.3880     0.5620 H     1 <1>   0.0800 
 30 H        4.9950     0.7590     0.8700 H     1 <1>   0.0800 
 31 H        4.9640     0.7770    -0.8800 H     1 <1>   0.0800 
 32 H        6.3260    -1.2180    -0.8780 H     1 <1>   0.4500 
 33 H        6.3560    -1.2350     0.7780 H     1 <1>   0.4500 
 34 H        7.4820     0.9150     0.8270 H     1 <1>   0.0800 
 35 H        7.4510     0.9330    -0.9220 H     1 <1>   0.0800 
 36 H        8.8990    -1.0780    -0.9800 H     1 <1>   0.0800 
 37 H        8.9310    -1.0960     0.7910 H     1 <1>   0.0800 
 38 H       10.7220     0.0190    -0.1160 H     1 <1>   0.4000 
@<TRIPOS>BOND
  1   1   2  1   
  2   1   3  1   
  3   2   4  ar  
  4   2   5  ar  
  5   3   6  1   
  6   3  17  1   
  7   3  18  1   
  8   4   7  ar  
  9   4  19  1   
 10   5   8  ar  
 11   5  20  1   
 12   6   9  1   
 13   6  21  1   
 14   6  22  1   
 15   7  10  ar  
 16   7  11  1   
 17   8  10  ar  
 18   8  23  1   
 19   9  12  1   
 20   9  24  1   
 21   9  25  1   
 22  10  26  1   
 23  11  27  1   
 24  11  28  1   
 25  11  29  1   
 26  12  13  1   
 27  12  30  1   
 28  12  31  1   
 29  13  14  1   
 30  13  32  1   
 31  13  33  1   
 32  14  15  1   
 33  14  34  1   
 34  14  35  1   
 35  15  16  1   
 36  15  36  1   
 37  15  37  1   
 38  16  38  1   
@<TRIPOS>SUBSTRUCTURE
  1 ****   3 GROUP 4 **** **** 0

# MOE 2024.06 (io_trps.svl 2023.06)
