@<TRIPOS>MOLECULE
NONAME
43 44 1 0 0 
SMALL
USER_CHARGES


@<TRIPOS>ATOM
  1 BR       0.4230    -0.5800    -0.5850 Br    1 <1>  -0.1110 
  2 C       -1.4000    -1.1750    -0.3990 C.ar  1 <1>   0.1110 
  3 C       -1.6380    -2.4760     0.0000 C.ar  1 <1>  -0.1500 
  4 C       -2.4200    -0.2860    -0.6700 C.ar  1 <1>  -0.1500 
  5 C       -2.9480    -2.9080     0.1350 C.ar  1 <1>  -0.1440 
  6 C       -3.7280    -0.7180    -0.5350 C.ar  1 <1>  -0.1500 
  7 C       -3.9980    -2.0280    -0.1330 C.ar  1 <1>   0.0830 
  8 C       -3.2250    -4.3390     0.5750 C.3   1 <1>  -0.0960 
  9 O       -5.2640    -2.5040     0.0160 O.3   1 <1>  -0.3630 
 10 C       -6.3930    -1.7020    -0.2240 C.3   1 <1>   0.1200 
 11 C       -7.6320    -2.5620     0.0400 C.3   1 <1>  -0.1600 
 12 C       -8.9340    -1.7810    -0.1880 C.3   1 <1>  -0.1600 
 13 C      -10.1470    -2.6770     0.0780 C.3   1 <1>   0.3430 
 14 N      -11.4120    -1.9600    -0.2370 N.4   1 <1>  -0.9590 
 15 C      -11.7230    -0.8730     0.7620 C.3   1 <1>   0.3430 
 16 C      -12.5620    -2.9310    -0.3170 C.3   1 <1>   0.3430 
 17 C      -13.0710    -0.1820     0.4580 C.3   1 <1>   0.1100 
 18 C      -13.8990    -2.2160    -0.6110 C.3   1 <1>   0.1100 
 19 N      -14.1660    -1.1600     0.3760 N.3   1 <1>  -0.9000 
 20 H       -0.8090    -3.1300     0.2000 H     1 <1>   0.1500 
 21 H       -2.1930     0.7190    -0.9790 H     1 <1>   0.1500 
 22 H       -4.5150    -0.0220    -0.7480 H     1 <1>   0.1500 
 23 H       -2.3100    -4.8810     0.7360 H     1 <1>   0.0800 
 24 H       -3.7960    -4.8470    -0.1810 H     1 <1>   0.0800 
 25 H       -3.7880    -4.3360     1.4900 H     1 <1>   0.0800 
 26 H       -6.3620    -1.3730    -1.2490 H     1 <1>   0.0800 
 27 H       -6.3560    -0.8590     0.4440 H     1 <1>   0.0800 
 28 H       -7.5920    -2.9120     1.0590 H     1 <1>   0.0800 
 29 H       -7.5990    -3.4150    -0.6160 H     1 <1>   0.0800 
 30 H       -8.9570    -1.4340    -1.2070 H     1 <1>   0.0800 
 31 H       -8.9460    -0.9320     0.4730 H     1 <1>   0.0800 
 32 H      -10.1490    -2.9960     1.1080 H     1 <1>   0.0800 
 33 H      -10.0670    -3.5550    -0.5430 H     1 <1>   0.0800 
 34 H      -11.3220    -1.5190    -1.1600 H     1 <1>   0.4500 
 35 H      -10.9420    -0.1320     0.7590 H     1 <1>   0.0800 
 36 H      -11.7780    -1.2950     1.7520 H     1 <1>   0.0800 
 37 H      -12.6600    -3.4540     0.6200 H     1 <1>   0.0800 
 38 H      -12.3760    -3.6610    -1.0870 H     1 <1>   0.0800 
 39 H      -13.0000     0.3690    -0.4650 H     1 <1>   0.0800 
 40 H      -13.2900     0.5220     1.2450 H     1 <1>   0.0800 
 41 H      -14.6990    -2.9380    -0.5750 H     1 <1>   0.0800 
 42 H      -13.8790    -1.7970    -1.6030 H     1 <1>   0.0800 
 43 H      -15.0510    -0.6780     0.1460 H     1 <1>   0.3600 
@<TRIPOS>BOND
  1   1   2  1   
  2   2   3  ar  
  3   2   4  ar  
  4   3   5  ar  
  5   3  20  1   
  6   4   6  ar  
  7   4  21  1   
  8   5   7  ar  
  9   5   8  1   
 10   6   7  ar  
 11   6  22  1   
 12   7   9  1   
 13   8  23  1   
 14   8  24  1   
 15   8  25  1   
 16   9  10  1   
 17  10  11  1   
 18  10  26  1   
 19  10  27  1   
 20  11  12  1   
 21  11  28  1   
 22  11  29  1   
 23  12  13  1   
 24  12  30  1   
 25  12  31  1   
 26  13  14  1   
 27  13  32  1   
 28  13  33  1   
 29  14  15  1   
 30  14  16  1   
 31  14  34  1   
 32  15  17  1   
 33  15  35  1   
 34  15  36  1   
 35  16  18  1   
 36  16  37  1   
 37  16  38  1   
 38  17  19  1   
 39  17  39  1   
 40  17  40  1   
 41  18  19  1   
 42  18  41  1   
 43  18  42  1   
 44  19  43  1   
@<TRIPOS>SUBSTRUCTURE
  1 ****  10 GROUP 4 **** **** 0

# MOE 2024.06 (io_trps.svl 2023.06)
