@<TRIPOS>MOLECULE
NONAME
28 29 1 0 0 
SMALL
USER_CHARGES


@<TRIPOS>ATOM
  1 CL      -0.2770    -0.2500     0.7140 Cl    1 <1>  -0.1770 
  2 C       -1.6640     0.7300     0.2930 C.ar  1 <1>   0.1770 
  3 C       -1.5110     2.0480    -0.1030 C.ar  1 <1>   0.1900 
  4 C       -2.9260     0.1720     0.3590 C.ar  1 <1>  -0.1500 
  5 F       -0.3160     2.5800    -0.1670 F     1 <1>  -0.1900 
  6 C       -2.6020     2.8260    -0.4390 C.ar  1 <1>  -0.1500 
  7 C       -4.0440     0.9330     0.0290 C.ar  1 <1>   0.1170 
  8 C       -3.8650     2.2590    -0.3720 C.ar  1 <1>  -0.1500 
  9 N       -5.3090     0.3330     0.0940 N.am  1 <1>  -0.5470 
 10 C       -6.5450     0.8710     0.3140 C.2   1 <1>   0.6900 
 11 O       -6.6810     2.0480     0.5890 O.2   1 <1>  -0.5700 
 12 N       -7.6390     0.0510     0.2390 N.am  1 <1>  -0.6600 
 13 C       -7.6580    -1.3350    -0.2790 C.3   1 <1>   0.1400 
 14 C       -9.0130     0.5630     0.4340 C.3   1 <1>   0.1400 
 15 C       -9.1180    -1.7640    -0.1960 C.3   1 <1>  -0.1600 
 16 C       -9.9110    -0.4610    -0.2510 C.3   1 <1>  -0.1600 
 17 H       -3.0330    -0.8490     0.6710 H     1 <1>   0.1500 
 18 H       -2.4670     3.8480    -0.7450 H     1 <1>   0.1500 
 19 H       -4.7210     2.8550    -0.6360 H     1 <1>   0.1500 
 20 H       -5.3260    -0.6790     0.0770 H     1 <1>   0.3700 
 21 H       -7.0310    -1.9790     0.3130 H     1 <1>   0.0800 
 22 H       -7.3260    -1.3330    -1.3040 H     1 <1>   0.0800 
 23 H       -9.1290     1.5430     0.0020 H     1 <1>   0.0800 
 24 H       -9.2230     0.6080     1.4890 H     1 <1>   0.0800 
 25 H       -9.2870    -2.2520     0.7480 H     1 <1>   0.0800 
 26 H       -9.3840    -2.4390    -0.9910 H     1 <1>   0.0800 
 27 H      -10.0590    -0.1640    -1.2750 H     1 <1>   0.0800 
 28 H      -10.8680    -0.5400     0.2330 H     1 <1>   0.0800 
@<TRIPOS>BOND
  1   1   2  1   
  2   2   3  ar  
  3   2   4  ar  
  4   3   5  1   
  5   3   6  ar  
  6   4   7  ar  
  7   4  17  1   
  8   6   8  ar  
  9   6  18  1   
 10   7   8  ar  
 11   7   9  1   
 12   8  19  1   
 13   9  10  am  
 14   9  20  1   
 15  10  11  2   
 16  10  12  am  
 17  12  13  1   
 18  12  14  1   
 19  13  15  1   
 20  13  21  1   
 21  13  22  1   
 22  14  16  1   
 23  14  23  1   
 24  14  24  1   
 25  15  16  1   
 26  15  25  1   
 27  15  26  1   
 28  16  27  1   
 29  16  28  1   
@<TRIPOS>SUBSTRUCTURE
  1 ****   9 GROUP 4 **** **** 0

# MOE 2024.06 (io_trps.svl 2023.06)
