@<TRIPOS>MOLECULE
NONAME
38 39 1 0 0 
SMALL
USER_CHARGES


@<TRIPOS>ATOM
  1 S       -0.5850    -1.3330    -0.0130 S.3   1 <1>  -0.3710 
  2 C       -1.6380     0.0440     0.3470 C.2   1 <1>   0.6410 
  3 C        1.0180    -0.8810     0.8330 C.3   1 <1>   0.1310 
  4 N       -2.8880    -0.0550    -0.1740 N.pl3 1 <1>  -0.5500 
  5 N       -1.1870     1.0160     1.0470 N.2   1 <1>  -0.6610 
  6 C        2.0900    -1.9460     0.6510 C.2   1 <1>   0.5690 
  7 C       -3.8030     0.9390     0.0280 C.2   1 <1>  -0.0380 
  8 C       -2.0640     2.0360     1.2780 C.2   1 <1>   0.7670 
  9 O        3.1670    -1.7530     1.1600 O.2   1 <1>  -0.5700 
 10 N        1.8030    -3.0670    -0.0700 N.am  1 <1>  -0.7300 
 11 C       -3.3900     1.9980     0.7620 C.2   1 <1>  -0.1360 
 12 C       -5.1830     0.7790    -0.5750 C.3   1 <1>  -0.1020 
 13 O       -1.6850     2.9880     1.9400 O.2   1 <1>  -0.5700 
 14 C        2.6740    -4.2210    -0.3760 C.3   1 <1>   0.2200 
 15 C        3.0960    -4.9450     0.9090 C.3   1 <1>  -0.1600 
 16 C        3.8880    -3.7870    -1.2060 C.3   1 <1>  -0.1600 
 17 C        3.9990    -6.1460     0.5900 C.3   1 <1>  -0.1600 
 18 C        4.7920    -4.9880    -1.5260 C.3   1 <1>  -0.1600 
 19 C        5.2160    -5.7170    -0.2430 C.3   1 <1>  -0.1600 
 20 H        0.8030    -0.7490     1.8780 H     1 <1>   0.0800 
 21 H        1.3500     0.0510     0.4140 H     1 <1>   0.0800 
 22 H       -3.1030    -0.8960    -0.7140 H     1 <1>   0.4000 
 23 H        0.8600    -3.1320    -0.4580 H     1 <1>   0.3700 
 24 H       -4.0160     2.8380     0.9880 H     1 <1>   0.1500 
 25 H       -5.1120     0.6950    -1.6450 H     1 <1>   0.0800 
 26 H       -5.7980     1.6300    -0.3390 H     1 <1>   0.0800 
 27 H       -5.6580    -0.1030    -0.1850 H     1 <1>   0.0800 
 28 H        2.1010    -4.9130    -0.9690 H     1 <1>   0.0800 
 29 H        2.2220    -5.2830     1.4370 H     1 <1>   0.0800 
 30 H        3.6370    -4.2670     1.5450 H     1 <1>   0.0800 
 31 H        4.4620    -3.0620    -0.6570 H     1 <1>   0.0800 
 32 H        3.5550    -3.3340    -2.1230 H     1 <1>   0.0800 
 33 H        3.4360    -6.8850     0.0460 H     1 <1>   0.0800 
 34 H        4.3340    -6.5970     1.5090 H     1 <1>   0.0800 
 35 H        5.6670    -4.6480    -2.0520 H     1 <1>   0.0800 
 36 H        4.2660    -5.6720    -2.1690 H     1 <1>   0.0800 
 37 H        5.8020    -6.5830    -0.4970 H     1 <1>   0.0800 
 38 H        5.8350    -5.0630     0.3470 H     1 <1>   0.0800 
@<TRIPOS>BOND
  1   1   2  1   
  2   1   3  1   
  3   2   4  1   
  4   2   5  2   
  5   3   6  1   
  6   3  20  1   
  7   3  21  1   
  8   4   7  1   
  9   4  22  1   
 10   5   8  1   
 11   6   9  2   
 12   6  10  am  
 13   7  11  2   
 14   7  12  1   
 15   8  11  1   
 16   8  13  2   
 17  10  14  1   
 18  10  23  1   
 19  11  24  1   
 20  12  25  1   
 21  12  26  1   
 22  12  27  1   
 23  14  15  1   
 24  14  16  1   
 25  14  28  1   
 26  15  17  1   
 27  15  29  1   
 28  15  30  1   
 29  16  18  1   
 30  16  31  1   
 31  16  32  1   
 32  17  19  1   
 33  17  33  1   
 34  17  34  1   
 35  18  19  1   
 36  18  35  1   
 37  18  36  1   
 38  19  37  1   
 39  19  38  1   
@<TRIPOS>SUBSTRUCTURE
  1 ****   3 GROUP 4 **** **** 0

# MOE 2024.06 (io_trps.svl 2023.06)
