@<TRIPOS>MOLECULE
NONAME
36 36 1 0 0 
SMALL
USER_CHARGES


@<TRIPOS>ATOM
  1 CL       0.7590    -0.6740    -3.2560 Cl    1 <1>  -0.1770 
  2 C        1.7330    -1.3270    -1.9610 C.ar  1 <1>   0.1770 
  3 C        1.8200    -2.6960    -1.8060 C.ar  1 <1>  -0.1500 
  4 C        2.3960    -0.4600    -1.1150 C.ar  1 <1>  -0.1500 
  5 C        2.5770    -3.2300    -0.7720 C.ar  1 <1>   0.1990 
  6 C        3.1630    -0.9790    -0.0840 C.ar  1 <1>  -0.1500 
  7 N        2.6340    -4.6180    -0.6140 N.am  1 <1>  -0.6930 
  8 C        3.2490    -2.3540     0.0930 C.ar  1 <1>   0.0830 
  9 S        3.6600    -5.5730    -1.6210 S.o2  1 <1>   1.3330 
 10 C        1.6600    -5.3240     0.2770 C.3   1 <1>   0.3370 
 11 O        4.0010    -2.8650     1.1050 O.3   1 <1>  -0.3630 
 12 O        3.2900    -6.9550    -1.4240 O.2   1 <1>  -0.6500 
 13 O        3.6380    -4.9900    -2.9400 O.2   1 <1>  -0.6500 
 14 C        5.2530    -5.2960    -0.8800 C.3   1 <1>  -0.1350 
 15 C        0.4690    -4.4380     0.7060 C.2   1 <1>   0.6590 
 16 C        2.4080    -5.9110     1.4860 C.3   1 <1>  -0.2400 
 17 C        3.7020    -2.4160     2.4100 C.3   1 <1>   0.0400 
 18 O        0.4280    -3.8600     1.7660 O.2   1 <1>  -0.5700 
 19 O       -0.5210    -4.3340    -0.1780 O.3   1 <1>  -0.4300 
 20 C       -1.6440    -3.5080     0.0530 C.3   1 <1>   0.0400 
 21 H        1.3020    -3.3470    -2.4850 H     1 <1>   0.1500 
 22 H        2.3150     0.6020    -1.2640 H     1 <1>   0.1500 
 23 H        3.6940    -0.3120     0.5700 H     1 <1>   0.1500 
 24 H        1.2350    -6.1420    -0.2780 H     1 <1>   0.0800 
 25 H        5.2450    -5.6050     0.1470 H     1 <1>   0.0800 
 26 H        5.5020    -4.2530    -0.9210 H     1 <1>   0.0800 
 27 H        6.0060    -5.8510    -1.4040 H     1 <1>   0.0800 
 28 H        2.8800    -5.1300     2.0510 H     1 <1>   0.0800 
 29 H        3.1450    -6.6260     1.1750 H     1 <1>   0.0800 
 30 H        1.7090    -6.4150     2.1290 H     1 <1>   0.0800 
 31 H        4.2210    -3.0470     3.1090 H     1 <1>   0.0800 
 32 H        2.6400    -2.4880     2.5710 H     1 <1>   0.0800 
 33 H        4.0340    -1.4000     2.5230 H     1 <1>   0.0800 
 34 H       -2.3030    -3.5840    -0.7930 H     1 <1>   0.0800 
 35 H       -1.3080    -2.4920     0.1710 H     1 <1>   0.0800 
 36 H       -2.1440    -3.8400     0.9460 H     1 <1>   0.0800 
@<TRIPOS>BOND
  1   1   2  1   
  2   2   3  ar  
  3   2   4  ar  
  4   3   5  ar  
  5   3  21  1   
  6   4   6  ar  
  7   4  22  1   
  8   5   7  1   
  9   5   8  ar  
 10   6   8  ar  
 11   6  23  1   
 12   7   9  am  
 13   7  10  1   
 14   8  11  1   
 15   9  12  2   
 16   9  13  2   
 17   9  14  1   
 18  10  15  1   
 19  10  16  1   
 20  10  24  1   
 21  11  17  1   
 22  14  25  1   
 23  14  26  1   
 24  14  27  1   
 25  15  18  2   
 26  15  19  1   
 27  16  28  1   
 28  16  29  1   
 29  16  30  1   
 30  17  31  1   
 31  17  32  1   
 32  17  33  1   
 33  19  20  1   
 34  20  34  1   
 35  20  35  1   
 36  20  36  1   
@<TRIPOS>SUBSTRUCTURE
  1 ****   5 GROUP 4 **** **** 0

# MOE 2024.06 (io_trps.svl 2023.06)
