@<TRIPOS>MOLECULE
NONAME
40 43 1 0 0 
SMALL
USER_CHARGES


@<TRIPOS>ATOM
  1 O        0.2080    -0.7400    -2.6530 O.2   1 <1>  -0.5700 
  2 C        0.9690    -0.7850    -1.7100 C.2   1 <1>   0.5690 
  3 N        1.7610     0.2910    -1.5280 N.am  1 <1>  -0.5060 
  4 C        0.9760    -2.0650    -0.8210 C.3   1 <1>   0.0610 
  5 C        2.7490     0.5870    -0.6150 C.2   1 <1>   0.8140 
  6 C        2.4080    -2.5980    -0.5420 C.3   1 <1>  -0.1600 
  7 C        0.2000    -3.2140    -1.5300 C.3   1 <1>  -0.1600 
  8 C        0.2610    -1.8040     0.5280 C.3   1 <1>  -0.1600 
  9 N        2.5740     0.6970     0.6500 N.2   1 <1>  -0.6190 
 10 N        3.9520     0.8300    -0.9900 N.2   1 <1>  -0.6190 
 11 C        2.3840    -3.8720     0.3270 C.3   1 <1>   0.0000 
 12 C        0.1500    -4.5010    -0.6830 C.3   1 <1>   0.0000 
 13 C        0.2330    -3.0740     1.3980 C.3   1 <1>  -0.0800 
 14 N        3.7360     1.0060     1.1170 N.2   1 <1>  -0.2500 
 15 N        4.5730     1.0870     0.1220 N.2   1 <1>  -0.2500 
 16 C        1.5920    -4.9680    -0.4090 C.3   1 <1>  -0.1600 
 17 C        1.6760    -3.5430     1.6570 C.3   1 <1>  -0.1600 
 18 C        3.8180    -4.3460     0.5980 C.3   1 <1>  -0.2400 
 19 C       -0.5370    -4.1810     0.6590 C.3   1 <1>  -0.1600 
 20 C       -0.6270    -5.5950    -1.4260 C.3   1 <1>  -0.2400 
 21 H        1.7670     0.9610    -2.2800 H     1 <1>   0.3700 
 22 H        2.9900    -1.8640    -0.0190 H     1 <1>   0.0800 
 23 H        2.9060    -2.7950    -1.4740 H     1 <1>   0.0800 
 24 H       -0.8060    -2.8920    -1.7350 H     1 <1>   0.0800 
 25 H        0.6680    -3.4230    -2.4770 H     1 <1>   0.0800 
 26 H       -0.7430    -1.4640     0.3450 H     1 <1>   0.0800 
 27 H        0.7650    -1.0270     1.0720 H     1 <1>   0.0800 
 28 H       -0.2500    -2.8560     2.3350 H     1 <1>   0.0800 
 29 H        1.5760    -5.8640     0.1870 H     1 <1>   0.0800 
 30 H        2.0800    -5.2010    -1.3390 H     1 <1>   0.0800 
 31 H        1.6640    -4.4110     2.2920 H     1 <1>   0.0800 
 32 H        2.2150    -2.7660     2.1730 H     1 <1>   0.0800 
 33 H        4.3720    -3.5770     1.1070 H     1 <1>   0.0800 
 34 H        4.3210    -4.5680    -0.3260 H     1 <1>   0.0800 
 35 H        3.8150    -5.2290     1.2110 H     1 <1>   0.0800 
 36 H       -0.5740    -5.0640     1.2730 H     1 <1>   0.0800 
 37 H       -1.5490    -3.8590     0.4860 H     1 <1>   0.0800 
 38 H       -0.1530    -5.8190    -2.3650 H     1 <1>   0.0800 
 39 H       -1.6340    -5.2720    -1.6220 H     1 <1>   0.0800 
 40 H       -0.6650    -6.4940    -0.8380 H     1 <1>   0.0800 
@<TRIPOS>BOND
  1   1   2  2   
  2   2   3  am  
  3   2   4  1   
  4   3   5  1   
  5   3  21  1   
  6   4   6  1   
  7   4   7  1   
  8   4   8  1   
  9   5   9  1   
 10   5  10  2   
 11   6  11  1   
 12   6  22  1   
 13   6  23  1   
 14   7  12  1   
 15   7  24  1   
 16   7  25  1   
 17   8  13  1   
 18   8  26  1   
 19   8  27  1   
 20   9  14  1   
 21  10  15  1   
 22  11  16  1   
 23  11  17  1   
 24  11  18  1   
 25  12  16  1   
 26  12  19  1   
 27  12  20  1   
 28  13  17  1   
 29  13  19  1   
 30  13  28  1   
 31  14  15  2   
 32  16  29  1   
 33  16  30  1   
 34  17  31  1   
 35  17  32  1   
 36  18  33  1   
 37  18  34  1   
 38  18  35  1   
 39  19  36  1   
 40  19  37  1   
 41  20  38  1   
 42  20  39  1   
 43  20  40  1   
@<TRIPOS>SUBSTRUCTURE
  1 ****   4 GROUP 4 **** **** 0

# MOE 2024.06 (io_trps.svl 2023.06)
