@<TRIPOS>MOLECULE
NONAME
44 47 1 0 0 
SMALL
USER_CHARGES


@<TRIPOS>ATOM
  1 O       -0.6490     0.1330     0.1970 O.2   1 <1>  -0.5700 
  2 C       -1.8440     0.1360    -0.0410 C.2   1 <1>   0.6900 
  3 N       -2.5290     1.3480    -0.1730 N.am  1 <1>  -0.2410 
  4 N       -2.5210    -1.0750    -0.1700 N.am  1 <1>  -0.4200 
  5 C       -1.8720     2.5930    -0.1560 C.ar  1 <1>   0.1170 
  6 C       -3.9140     1.2970    -0.3550 C.2   1 <1>  -0.0880 
  7 C       -3.9020    -1.1180    -0.3520 C.2   1 <1>   0.7160 
  8 C       -1.7580    -2.3570    -0.0680 C.3   1 <1>   0.0600 
  9 C       -1.7700     3.3490    -1.3190 C.ar  1 <1>  -0.1500 
 10 C       -1.3360     3.1000     1.0220 C.ar  1 <1>  -0.1500 
 11 N       -4.8000     2.3020    -0.4650 N.pl3 1 <1>   0.0330 
 12 C       -4.6050     0.1330    -0.4490 C.2   1 <1>   0.1410 
 13 O       -4.4600    -2.2040    -0.4140 O.2   1 <1>  -0.5700 
 14 C       -1.1530     4.5870    -1.3030 C.ar  1 <1>  -0.1500 
 15 C       -0.7180     4.3370     1.0410 C.ar  1 <1>  -0.1500 
 16 C       -6.0060     1.7020    -0.6300 C.2   1 <1>   0.2700 
 17 N       -5.9370     0.4090    -0.6300 N.2   1 <1>  -0.5650 
 18 C       -0.6280     5.0830    -0.1220 C.ar  1 <1>  -0.1500 
 19 N       -7.1720     2.4250    -0.7910 N.pl3 1 <1>  -0.8530 
 20 C       -8.4590     1.6970    -0.6770 C.3   1 <1>   0.2090 
 21 C       -9.6150     2.6960    -0.4990 C.3   1 <1>   0.2000 
 22 O       -9.3020     3.6430     0.4810 O.3   1 <1>  -0.5600 
 23 C      -10.9190     2.0730    -0.0250 C.3   1 <1>  -0.1600 
 24 C      -10.4610     4.1680     1.0510 C.3   1 <1>   0.1200 
 25 C      -11.6080     3.2400     0.6570 C.3   1 <1>  -0.1600 
 26 H       -0.7400    -2.2200    -0.3890 H     1 <1>   0.0800 
 27 H       -2.2060    -3.1120    -0.6900 H     1 <1>   0.0800 
 28 H       -1.7620    -2.6950     0.9530 H     1 <1>   0.0800 
 29 H       -2.1710     2.9620    -2.2390 H     1 <1>   0.1500 
 30 H       -1.4000     2.5170     1.9240 H     1 <1>   0.1500 
 31 H       -4.6240     3.3070    -0.4580 H     1 <1>   0.2700 
 32 H       -1.0770     5.1650    -2.2090 H     1 <1>   0.1500 
 33 H       -0.3040     4.7190     1.9580 H     1 <1>   0.1500 
 34 H       -0.1460     6.0460    -0.1080 H     1 <1>   0.1500 
 35 H       -7.2510     3.2700    -0.2090 H     1 <1>   0.4000 
 36 H       -8.4220     1.0360     0.1730 H     1 <1>   0.0800 
 37 H       -8.6160     1.1010    -1.5590 H     1 <1>   0.0800 
 38 H       -9.7760     3.2300    -1.4190 H     1 <1>   0.0800 
 39 H      -10.7150     1.2950     0.6910 H     1 <1>   0.0800 
 40 H      -11.4930     1.6680    -0.8390 H     1 <1>   0.0800 
 41 H      -10.6080     5.1640     0.6710 H     1 <1>   0.0800 
 42 H      -10.3210     4.1980     2.1180 H     1 <1>   0.0800 
 43 H      -12.1800     2.9300     1.5140 H     1 <1>   0.0800 
 44 H      -12.2580     3.7520    -0.0310 H     1 <1>   0.0800 
@<TRIPOS>BOND
  1   1   2  2   
  2   2   3  am  
  3   2   4  am  
  4   3   5  1   
  5   3   6  1   
  6   4   7  am  
  7   4   8  1   
  8   5   9  ar  
  9   5  10  ar  
 10   6  11  1   
 11   6  12  2   
 12   7  12  1   
 13   7  13  2   
 14   8  26  1   
 15   8  27  1   
 16   8  28  1   
 17   9  14  ar  
 18   9  29  1   
 19  10  15  ar  
 20  10  30  1   
 21  11  16  1   
 22  11  31  1   
 23  12  17  1   
 24  14  18  ar  
 25  14  32  1   
 26  15  18  ar  
 27  15  33  1   
 28  16  17  2   
 29  16  19  1   
 30  18  34  1   
 31  19  20  1   
 32  19  35  1   
 33  20  21  1   
 34  20  36  1   
 35  20  37  1   
 36  21  22  1   
 37  21  23  1   
 38  21  38  1   
 39  22  24  1   
 40  23  25  1   
 41  23  39  1   
 42  23  40  1   
 43  24  25  1   
 44  24  41  1   
 45  24  42  1   
 46  25  43  1   
 47  25  44  1   
@<TRIPOS>SUBSTRUCTURE
  1 ****  11 GROUP 4 **** **** 0

# MOE 2024.06 (io_trps.svl 2023.06)
