@<TRIPOS>MOLECULE
NONAME
34 34 1 0 0 
SMALL
USER_CHARGES


@<TRIPOS>ATOM
  1 F       -1.4800    -4.8060     0.2670 F     1 <1>  -0.1900 
  2 C       -2.2320    -4.0820    -0.5180 C.ar  1 <1>   0.1900 
  3 C       -2.8450    -2.9590    -0.0020 C.ar  1 <1>  -0.1500 
  4 C       -2.3800    -4.4700    -1.8360 C.ar  1 <1>  -0.1500 
  5 C       -3.6540    -2.1910    -0.8300 C.ar  1 <1>   0.1000 
  6 C       -3.1690    -3.6930    -2.6670 C.ar  1 <1>  -0.1500 
  7 N       -4.3140    -1.0590    -0.3610 N.pl3 1 <1>  -0.8690 
  8 C       -3.7940    -2.5620    -2.1660 C.ar  1 <1>  -0.1500 
  9 C       -5.5510    -1.1330     0.5550 C.3   1 <1>   0.6690 
 10 N       -6.3590    -2.1160    -0.2380 N.am  1 <1>  -0.7300 
 11 C       -6.2320     0.2880     0.6860 C.3   1 <1>   1.0200 
 12 C       -5.2260    -1.5510     2.0540 C.3   1 <1>   1.0200 
 13 C       -7.4400    -2.7780     0.1940 C.2   1 <1>   0.7800 
 14 F       -6.3620     0.8560    -0.5140 F     1 <1>  -0.3400 
 15 F       -5.5200     1.1620     1.3940 F     1 <1>  -0.3400 
 16 F       -7.4540     0.3100     1.2060 F     1 <1>  -0.3400 
 17 F       -4.1170    -0.9780     2.5170 F     1 <1>  -0.3400 
 18 F       -6.1590    -1.2640     2.9570 F     1 <1>  -0.3400 
 19 F       -5.0120    -2.8600     2.1830 F     1 <1>  -0.3400 
 20 O       -8.0300    -2.4670     1.2010 O.2   1 <1>  -0.5700 
 21 O       -7.8210    -3.8110    -0.5420 O.3   1 <1>  -0.4300 
 22 C       -8.9350    -4.5880    -0.1660 C.3   1 <1>   0.1200 
 23 C       -9.1090    -5.6960    -1.1990 C.3   1 <1>  -0.2400 
 24 H       -2.6810    -2.6900     1.0240 H     1 <1>   0.1500 
 25 H       -1.8840    -5.3530    -2.1980 H     1 <1>   0.1500 
 26 H       -3.2930    -3.9680    -3.7010 H     1 <1>   0.1500 
 27 H       -4.4870    -0.3620    -1.0980 H     1 <1>   0.4000 
 28 H       -4.3970    -1.9630    -2.8250 H     1 <1>   0.1500 
 29 H       -5.8040    -2.5810    -0.9540 H     1 <1>   0.3700 
 30 H       -9.8020    -3.9500    -0.1320 H     1 <1>   0.0800 
 31 H       -8.7500    -4.9990     0.8130 H     1 <1>   0.0800 
 32 H       -9.2830    -5.2720    -2.1720 H     1 <1>   0.0800 
 33 H       -9.9540    -6.3070    -0.9370 H     1 <1>   0.0800 
 34 H       -8.2330    -6.3180    -1.2280 H     1 <1>   0.0800 
@<TRIPOS>BOND
  1   1   2  1   
  2   2   3  ar  
  3   2   4  ar  
  4   3   5  ar  
  5   3  24  1   
  6   4   6  ar  
  7   4  25  1   
  8   5   7  1   
  9   5   8  ar  
 10   6   8  ar  
 11   6  26  1   
 12   7   9  1   
 13   7  27  1   
 14   8  28  1   
 15   9  10  1   
 16   9  11  1   
 17   9  12  1   
 18  10  13  am  
 19  10  29  1   
 20  11  14  1   
 21  11  15  1   
 22  11  16  1   
 23  12  17  1   
 24  12  18  1   
 25  12  19  1   
 26  13  20  2   
 27  13  21  1   
 28  21  22  1   
 29  22  23  1   
 30  22  30  1   
 31  22  31  1   
 32  23  32  1   
 33  23  33  1   
 34  23  34  1   
@<TRIPOS>SUBSTRUCTURE
  1 ****  10 GROUP 4 **** **** 0

# MOE 2024.06 (io_trps.svl 2023.06)
