@<TRIPOS>MOLECULE
NONAME
47 48 1 0 0 
SMALL
USER_CHARGES


@<TRIPOS>ATOM
  1 O       -0.5450     1.1670     0.9950 O.2   1 <1>  -0.5700 
  2 C       -1.0100     1.8930     0.1480 C.2   1 <1>   0.5690 
  3 N       -2.2920     2.3710     0.2470 N.am  1 <1>  -0.6600 
  4 C       -0.1400     2.2720    -1.0500 C.3   1 <1>  -0.0990 
  5 C       -3.1530     2.0370     1.4290 C.3   1 <1>   0.1400 
  6 C       -3.0090     3.1840    -0.7880 C.3   1 <1>   0.1400 
  7 C        1.3200     1.7880    -0.9720 C.3   1 <1>  -0.2400 
  8 C       -4.4690     1.3740     0.9910 C.3   1 <1>   0.2090 
  9 C       -4.3330     2.5170    -1.2040 C.3   1 <1>   0.2090 
 10 N       -5.1870     2.2180    -0.0150 N.pl3 1 <1>  -0.8380 
 11 C       -6.5020     1.8130    -0.3140 C.ar  1 <1>   0.1000 
 12 C       -7.5820     2.6470     0.0110 C.ar  1 <1>   0.1170 
 13 C       -6.7510     0.5950    -0.9330 C.ar  1 <1>  -0.1500 
 14 N       -7.2650     3.8600     0.6400 N.am  1 <1>  -0.5470 
 15 C       -8.8760     2.2440    -0.2920 C.ar  1 <1>  -0.1500 
 16 C       -8.0440     0.2020    -1.2310 C.ar  1 <1>  -0.1500 
 17 C       -7.9870     4.9550     1.0080 C.2   1 <1>   0.5690 
 18 C       -9.1070     1.0270    -0.9110 C.ar  1 <1>  -0.1500 
 19 O       -9.1770     5.0670     0.8450 O.2   1 <1>  -0.5700 
 20 C       -7.2310     6.0970     1.6610 C.3   1 <1>  -0.0990 
 21 C       -6.2510     6.7820     0.6940 C.3   1 <1>  -0.1600 
 22 C       -5.5140     7.9390     1.3750 C.3   1 <1>  -0.2400 
 23 H       -0.1350     3.3420    -1.1370 H     1 <1>   0.0800 
 24 H       -0.5890     1.8590    -1.9340 H     1 <1>   0.0800 
 25 H       -3.3760     2.9400     1.9670 H     1 <1>   0.0800 
 26 H       -2.6370     1.3750     2.1020 H     1 <1>   0.0800 
 27 H       -2.4030     3.3230    -1.6630 H     1 <1>   0.0800 
 28 H       -3.2250     4.1560    -0.3790 H     1 <1>   0.0800 
 29 H        1.7990     2.1930    -0.0970 H     1 <1>   0.0800 
 30 H        1.8660     2.1010    -1.8430 H     1 <1>   0.0800 
 31 H        1.3520     0.7140    -0.9090 H     1 <1>   0.0800 
 32 H       -5.1010     1.2300     1.8500 H     1 <1>   0.0800 
 33 H       -4.2530     0.4080     0.5700 H     1 <1>   0.0800 
 34 H       -4.1180     1.6050    -1.7330 H     1 <1>   0.0800 
 35 H       -4.8700     3.1700    -1.8700 H     1 <1>   0.0800 
 36 H       -5.9290    -0.0490    -1.1840 H     1 <1>   0.1500 
 37 H       -6.2550     3.9000     0.7930 H     1 <1>   0.3700 
 38 H       -9.7100     2.8750    -0.0470 H     1 <1>   0.1500 
 39 H       -8.2230    -0.7450    -1.7110 H     1 <1>   0.1500 
 40 H      -10.1150     0.7270    -1.1410 H     1 <1>   0.1500 
 41 H       -6.7020     5.7140     2.5140 H     1 <1>   0.0800 
 42 H       -7.9470     6.8180     2.0150 H     1 <1>   0.0800 
 43 H       -6.7980     7.1590    -0.1550 H     1 <1>   0.0800 
 44 H       -5.5310     6.0680     0.3330 H     1 <1>   0.0800 
 45 H       -6.2140     8.6810     1.7180 H     1 <1>   0.0800 
 46 H       -4.8380     8.4060     0.6800 H     1 <1>   0.0800 
 47 H       -4.9460     7.5830     2.2170 H     1 <1>   0.0800 
@<TRIPOS>BOND
  1   1   2  2   
  2   2   3  am  
  3   2   4  1   
  4   3   5  1   
  5   3   6  1   
  6   4   7  1   
  7   4  23  1   
  8   4  24  1   
  9   5   8  1   
 10   5  25  1   
 11   5  26  1   
 12   6   9  1   
 13   6  27  1   
 14   6  28  1   
 15   7  29  1   
 16   7  30  1   
 17   7  31  1   
 18   8  10  1   
 19   8  32  1   
 20   8  33  1   
 21   9  10  1   
 22   9  34  1   
 23   9  35  1   
 24  10  11  1   
 25  11  12  ar  
 26  11  13  ar  
 27  12  14  1   
 28  12  15  ar  
 29  13  16  ar  
 30  13  36  1   
 31  14  17  am  
 32  14  37  1   
 33  15  18  ar  
 34  15  38  1   
 35  16  18  ar  
 36  16  39  1   
 37  17  19  2   
 38  17  20  1   
 39  18  40  1   
 40  20  21  1   
 41  20  41  1   
 42  20  42  1   
 43  21  22  1   
 44  21  43  1   
 45  21  44  1   
 46  22  45  1   
 47  22  46  1   
 48  22  47  1   
@<TRIPOS>SUBSTRUCTURE
  1 ****  10 GROUP 4 **** **** 0

# MOE 2024.06 (io_trps.svl 2023.06)
