@<TRIPOS>MOLECULE
NONAME
43 43 1 0 0 
SMALL
USER_CHARGES


@<TRIPOS>ATOM
  1 O        0.0690    -0.1050     0.0590 O.2   1 <1>  -0.5700 
  2 C        0.0130     1.0490    -0.3110 C.2   1 <1>   0.6900 
  3 N       -1.1710     1.7210    -0.3690 N.am  1 <1>  -0.5470 
  4 N        1.1210     1.7390    -0.6700 N.am  1 <1>  -0.7300 
  5 C       -2.4870     1.2720    -0.1720 C.ar  1 <1>   0.1170 
  6 C        2.5230     1.3150    -0.7650 C.3   1 <1>   0.5000 
  7 C       -3.4430     2.1740     0.2750 C.ar  1 <1>  -0.1500 
  8 C       -2.8750    -0.0370    -0.4290 C.ar  1 <1>  -0.1500 
  9 C        3.1230     2.3480    -1.6640 C.1   1 <1>  -0.2000 
 10 C        3.2110     1.4400     0.6150 C.3   1 <1>  -0.1600 
 11 C        2.6650    -0.0770    -1.4310 C.3   1 <1>  -0.1600 
 12 C       -4.7640     1.7840     0.4690 C.ar  1 <1>   0.0830 
 13 C       -4.1840    -0.4410    -0.2420 C.ar  1 <1>  -0.1500 
 14 C        3.5960     3.1740    -2.3790 C.1   1 <1>  -0.1770 
 15 C        2.7260     0.4890     1.7230 C.3   1 <1>  -0.2400 
 16 C        4.1060    -0.5260    -1.7460 C.3   1 <1>  -0.2400 
 17 O       -5.7250     2.6480     0.9110 O.3   1 <1>  -0.3620 
 18 C       -5.1410     0.4630     0.2080 C.ar  1 <1>   0.0830 
 19 C       -5.4080     3.9440     1.3650 C.3   1 <1>   0.0400 
 20 O       -6.4480     0.1140     0.4100 O.3   1 <1>  -0.3630 
 21 C       -6.8840    -1.2160     0.2420 C.3   1 <1>   0.0400 
 22 H       -1.0690     2.7230    -0.4770 H     1 <1>   0.3700 
 23 H        1.0010     2.6470    -1.1040 H     1 <1>   0.3700 
 24 H       -3.1370     3.1810     0.4690 H     1 <1>   0.1500 
 25 H       -2.1510    -0.7490    -0.7810 H     1 <1>   0.1500 
 26 H        3.0960     2.4520     0.9630 H     1 <1>   0.0800 
 27 H        4.2660     1.2820     0.4820 H     1 <1>   0.0800 
 28 H        2.1060    -0.0710    -2.3500 H     1 <1>   0.0800 
 29 H        2.2310    -0.8270    -0.7980 H     1 <1>   0.0800 
 30 H       -4.4330    -1.4630    -0.4530 H     1 <1>   0.1500 
 31 H        4.0300     3.9160    -3.0270 H     1 <1>   0.1770 
 32 H        1.6950     0.6790     1.9640 H     1 <1>   0.0800 
 33 H        3.3090     0.6370     2.6140 H     1 <1>   0.0800 
 34 H        2.8240    -0.5390     1.4230 H     1 <1>   0.0800 
 35 H        4.5900     0.1620    -2.4160 H     1 <1>   0.0800 
 36 H        4.0860    -1.4930    -2.2170 H     1 <1>   0.0800 
 37 H        4.6870    -0.6060    -0.8450 H     1 <1>   0.0800 
 38 H       -6.3130     4.3980     1.7280 H     1 <1>   0.0800 
 39 H       -5.0170     4.5170     0.5440 H     1 <1>   0.0800 
 40 H       -4.6920     3.8690     2.1640 H     1 <1>   0.0800 
 41 H       -7.9310    -1.2550     0.4850 H     1 <1>   0.0800 
 42 H       -6.3310    -1.8520     0.9100 H     1 <1>   0.0800 
 43 H       -6.7360    -1.5050    -0.7830 H     1 <1>   0.0800 
@<TRIPOS>BOND
  1   1   2  2   
  2   2   3  am  
  3   2   4  am  
  4   3   5  1   
  5   3  22  1   
  6   4   6  1   
  7   4  23  1   
  8   5   7  ar  
  9   5   8  ar  
 10   6   9  1   
 11   6  10  1   
 12   6  11  1   
 13   7  12  ar  
 14   7  24  1   
 15   8  13  ar  
 16   8  25  1   
 17   9  14  3   
 18  10  15  1   
 19  10  26  1   
 20  10  27  1   
 21  11  16  1   
 22  11  28  1   
 23  11  29  1   
 24  12  17  1   
 25  12  18  ar  
 26  13  18  ar  
 27  13  30  1   
 28  14  31  1   
 29  15  32  1   
 30  15  33  1   
 31  15  34  1   
 32  16  35  1   
 33  16  36  1   
 34  16  37  1   
 35  17  19  1   
 36  18  20  1   
 37  19  38  1   
 38  19  39  1   
 39  19  40  1   
 40  20  21  1   
 41  21  41  1   
 42  21  42  1   
 43  21  43  1   
@<TRIPOS>SUBSTRUCTURE
  1 ****   3 GROUP 4 **** **** 0

# MOE 2024.06 (io_trps.svl 2023.06)
