@<TRIPOS>MOLECULE
NONAME
46 48 1 0 0 
SMALL
USER_CHARGES


@<TRIPOS>ATOM
  1 O        0.2440    -0.0960     0.4540 O.3   1 <1>  -0.1650 
  2 C        1.3540     0.6070     0.1140 C.ar  1 <1>   0.0830 
  3 C        0.1620    -1.4380     0.2660 C.ar  1 <1>   0.0830 
  4 C        2.6320     0.0940     0.2900 C.ar  1 <1>  -0.1500 
  5 C        1.1860     1.8800    -0.4060 C.ar  1 <1>  -0.1500 
  6 C       -0.4940    -2.1950     1.2230 C.ar  1 <1>  -0.1500 
  7 C        0.6990    -2.0560    -0.8580 C.ar  1 <1>  -0.1500 
  8 C        3.7410     0.8430    -0.0650 C.ar  1 <1>   0.0830 
  9 C        2.2910     2.6340    -0.7620 C.ar  1 <1>  -0.1500 
 10 C       -0.6030    -3.5660     1.0690 C.ar  1 <1>  -0.1500 
 11 C        0.5890    -3.4280    -1.0100 C.ar  1 <1>  -0.1500 
 12 O        4.9530     0.2690     0.1360 O.3   1 <1>  -0.3620 
 13 C        3.5660     2.1200    -0.5960 C.ar  1 <1>  -0.1500 
 14 C       -0.0600    -4.1820    -0.0470 C.ar  1 <1>  -0.1500 
 15 C        6.1460     0.9660    -0.1200 C.3   1 <1>   0.1200 
 16 C        7.2990     0.0400     0.2650 C.3   1 <1>  -0.1600 
 17 C        8.6450     0.7180     0.0200 C.3   1 <1>   0.3430 
 18 N        9.7540    -0.1610     0.4810 N.4   1 <1>  -0.9590 
 19 C       11.0700     0.5220     0.4790 C.3   1 <1>   0.3430 
 20 C        9.9390    -1.3920    -0.3300 C.3   1 <1>   0.3430 
 21 C       12.0840    -0.6130     0.5250 C.3   1 <1>  -0.1600 
 22 C       11.3560    -1.8490    -0.0110 C.3   1 <1>  -0.1600 
 23 H        2.7710    -0.8860     0.7090 H     1 <1>   0.1500 
 24 H        0.1930     2.2740    -0.5300 H     1 <1>   0.1500 
 25 H       -0.9130    -1.7090     2.0850 H     1 <1>   0.1500 
 26 H        1.1940    -1.4710    -1.6120 H     1 <1>   0.1500 
 27 H        2.1560     3.6220    -1.1690 H     1 <1>   0.1500 
 28 H       -1.1090    -4.1530     1.8150 H     1 <1>   0.1500 
 29 H        1.0070    -3.9080    -1.8780 H     1 <1>   0.1500 
 30 H        4.4010     2.7290    -0.8850 H     1 <1>   0.1500 
 31 H       -0.1430    -5.2490    -0.1660 H     1 <1>   0.1500 
 32 H        6.1460     1.8610     0.4790 H     1 <1>   0.0800 
 33 H        6.1730     1.2120    -1.1680 H     1 <1>   0.0800 
 34 H        7.2210    -0.8550    -0.3260 H     1 <1>   0.0800 
 35 H        7.2020    -0.2070     1.3080 H     1 <1>   0.0800 
 36 H        8.6730     1.6480     0.5660 H     1 <1>   0.0800 
 37 H        8.7600     0.9390    -1.0290 H     1 <1>   0.0800 
 38 H        9.5660    -0.4580     1.4480 H     1 <1>   0.4500 
 39 H       11.1790     1.1880     1.3200 H     1 <1>   0.0800 
 40 H       11.1940     1.0760    -0.4380 H     1 <1>   0.0800 
 41 H        9.8660    -1.1530    -1.3800 H     1 <1>   0.0800 
 42 H        9.2100    -2.1490    -0.0830 H     1 <1>   0.0800 
 43 H       12.4040    -0.7760     1.5400 H     1 <1>   0.0800 
 44 H       12.9490    -0.3690    -0.0690 H     1 <1>   0.0800 
 45 H       11.8300    -2.2420    -0.8930 H     1 <1>   0.0800 
 46 H       11.3310    -2.6240     0.7360 H     1 <1>   0.0800 
@<TRIPOS>BOND
  1   1   2  1   
  2   1   3  1   
  3   2   4  ar  
  4   2   5  ar  
  5   3   6  ar  
  6   3   7  ar  
  7   4   8  ar  
  8   4  23  1   
  9   5   9  ar  
 10   5  24  1   
 11   6  10  ar  
 12   6  25  1   
 13   7  11  ar  
 14   7  26  1   
 15   8  12  1   
 16   8  13  ar  
 17   9  13  ar  
 18   9  27  1   
 19  10  14  ar  
 20  10  28  1   
 21  11  14  ar  
 22  11  29  1   
 23  12  15  1   
 24  13  30  1   
 25  14  31  1   
 26  15  16  1   
 27  15  32  1   
 28  15  33  1   
 29  16  17  1   
 30  16  34  1   
 31  16  35  1   
 32  17  18  1   
 33  17  36  1   
 34  17  37  1   
 35  18  19  1   
 36  18  20  1   
 37  18  38  1   
 38  19  21  1   
 39  19  39  1   
 40  19  40  1   
 41  20  22  1   
 42  20  41  1   
 43  20  42  1   
 44  21  22  1   
 45  21  43  1   
 46  21  44  1   
 47  22  45  1   
 48  22  46  1   
@<TRIPOS>SUBSTRUCTURE
  1 ****  12 GROUP 4 **** **** 0

# MOE 2024.06 (io_trps.svl 2023.06)
