@<TRIPOS>MOLECULE
NONAME
42 45 1 0 0 
SMALL
USER_CHARGES


@<TRIPOS>ATOM
  1 F       -1.5850     0.9740     1.4420 F     1 <1>  -0.1900 
  2 C       -2.2820     1.1940     0.3610 C.ar  1 <1>   0.1900 
  3 C       -3.5340     0.6180     0.2540 C.ar  1 <1>  -0.1500 
  4 C       -1.7470     1.9930    -0.6290 C.ar  1 <1>  -0.1500 
  5 C       -4.2850     0.8560    -0.8900 C.ar  1 <1>  -0.1440 
  6 C       -2.4960     2.2200    -1.7710 C.ar  1 <1>  -0.1500 
  7 C       -3.7560     1.6540    -1.8990 C.ar  1 <1>  -0.1500 
  8 C       -5.6700     0.2540    -1.0340 C.3   1 <1>   0.4870 
  9 N       -6.6070     0.9990    -0.1500 N.4   1 <1>  -0.9590 
 10 C       -7.9400     0.3030    -0.0500 C.3   1 <1>   0.3430 
 11 C       -6.7370     2.4330    -0.5670 C.3   1 <1>   0.3430 
 12 C       -9.0460     1.1750     0.5810 C.3   1 <1>   0.0580 
 13 C       -7.6920     3.2230     0.3530 C.3   1 <1>  -0.0800 
 14 C       -9.9460     1.6830    -0.5490 C.2   1 <1>  -0.0290 
 15 C       -8.4390     2.3420     1.3700 C.3   1 <1>  -0.1600 
 16 C       -8.7380     3.9050    -0.5340 C.3   1 <1>   0.1400 
 17 N       -9.6640     2.9060    -1.1570 N.am  1 <1>  -0.4690 
 18 C      -10.9980     0.9310    -0.9790 C.2   1 <1>  -0.1500 
 19 C      -10.4090     3.3300    -2.2500 C.2   1 <1>   0.6160 
 20 C      -11.8030     1.3600    -2.0600 C.2   1 <1>  -0.1500 
 21 O      -10.1150     4.3670    -2.8310 O.2   1 <1>  -0.5700 
 22 C      -11.5020     2.5310    -2.6780 C.2   1 <1>  -0.1360 
 23 H       -3.8880    -0.0020     1.0580 H     1 <1>   0.1500 
 24 H       -0.7670     2.4220    -0.5080 H     1 <1>   0.1500 
 25 H       -2.0940     2.8360    -2.5590 H     1 <1>   0.1500 
 26 H       -4.3130     1.8440    -2.8020 H     1 <1>   0.1500 
 27 H       -5.6360    -0.7850    -0.7500 H     1 <1>   0.0800 
 28 H       -5.9960     0.3170    -2.0600 H     1 <1>   0.0800 
 29 H       -6.1810     1.0150     0.7850 H     1 <1>   0.4500 
 30 H       -7.8250    -0.5910     0.5410 H     1 <1>   0.0800 
 31 H       -8.2680     0.0060    -1.0330 H     1 <1>   0.0800 
 32 H       -7.1150     2.4700    -1.5770 H     1 <1>   0.0800 
 33 H       -5.7690     2.9080    -0.5620 H     1 <1>   0.0800 
 34 H       -9.6350     0.5600     1.2400 H     1 <1>   0.0800 
 35 H       -7.1350     3.9870     0.8670 H     1 <1>   0.0800 
 36 H       -7.7710     1.9810     2.1340 H     1 <1>   0.0800 
 37 H       -9.2190     2.9060     1.8550 H     1 <1>   0.0800 
 38 H       -8.2450     4.4800    -1.3010 H     1 <1>   0.0800 
 39 H       -9.3280     4.5880     0.0540 H     1 <1>   0.0800 
 40 H      -11.2530    -0.0110    -0.5230 H     1 <1>   0.1500 
 41 H      -12.6340     0.7490    -2.3700 H     1 <1>   0.1500 
 42 H      -12.0700     2.9070    -3.5080 H     1 <1>   0.1500 
@<TRIPOS>BOND
  1   1   2  1   
  2   2   3  ar  
  3   2   4  ar  
  4   3   5  ar  
  5   3  23  1   
  6   4   6  ar  
  7   4  24  1   
  8   5   7  ar  
  9   5   8  1   
 10   6   7  ar  
 11   6  25  1   
 12   7  26  1   
 13   8   9  1   
 14   8  27  1   
 15   8  28  1   
 16   9  10  1   
 17   9  11  1   
 18   9  29  1   
 19  10  12  1   
 20  10  30  1   
 21  10  31  1   
 22  11  13  1   
 23  11  32  1   
 24  11  33  1   
 25  12  14  1   
 26  12  15  1   
 27  12  34  1   
 28  13  15  1   
 29  13  16  1   
 30  13  35  1   
 31  14  17  1   
 32  14  18  2   
 33  15  36  1   
 34  15  37  1   
 35  16  17  1   
 36  16  38  1   
 37  16  39  1   
 38  17  19  am  
 39  18  20  1   
 40  18  40  1   
 41  19  21  2   
 42  19  22  1   
 43  20  22  2   
 44  20  41  1   
 45  22  42  1   
@<TRIPOS>SUBSTRUCTURE
  1 ****  11 GROUP 4 **** **** 0

# MOE 2024.06 (io_trps.svl 2023.06)
