@<TRIPOS>MOLECULE
NONAME
47 48 1 0 0 
SMALL
USER_CHARGES


@<TRIPOS>ATOM
  1 O       -0.8600    -5.7130     0.4390 O.3   1 <1>  -0.3630 
  2 C        0.3520    -6.3060     0.2970 C.ar  1 <1>   0.0830 
  3 C       -1.9690    -6.1260    -0.3180 C.3   1 <1>   0.1200 
  4 C        1.3680    -5.8550     1.1200 C.ar  1 <1>  -0.1500 
  5 C        0.6200    -7.3220    -0.6140 C.ar  1 <1>  -0.1500 
  6 C       -3.1560    -5.2590     0.1150 C.3   1 <1>   0.3430 
  7 C        2.6320    -6.4070     1.0390 C.ar  1 <1>  -0.1500 
  8 C        1.8890    -7.8710    -0.6900 C.ar  1 <1>  -0.1500 
  9 N       -4.4210    -5.5750    -0.6340 N.4   1 <1>  -0.9590 
 10 C        2.9190    -7.4220     0.1330 C.ar  1 <1>  -0.1430 
 11 C       -5.4600    -4.5410    -0.3340 C.3   1 <1>   0.2630 
 12 C       -4.9460    -6.9410    -0.3110 C.3   1 <1>   0.2630 
 13 C        4.3500    -8.0060     0.0960 C.3   1 <1>   0.2870 
 14 C        5.3920    -6.8650     0.0910 C.ar  1 <1>  -0.1430 
 15 C        4.4770    -8.9310     1.3180 C.3   1 <1>  -0.2400 
 16 C        4.6230    -8.8540    -1.1570 C.3   1 <1>  -0.2400 
 17 C        5.2140    -5.7970    -0.7830 C.ar  1 <1>  -0.1500 
 18 C        6.5170    -6.8530     0.9120 C.ar  1 <1>  -0.1500 
 19 C        6.1190    -4.7520    -0.8350 C.ar  1 <1>  -0.1500 
 20 C        7.4250    -5.8090     0.8630 C.ar  1 <1>  -0.1500 
 21 C        7.2280    -4.7560    -0.0100 C.ar  1 <1>  -0.1500 
 22 H       -2.1440    -7.1660    -0.1070 H     1 <1>   0.0800 
 23 H       -1.7380    -5.9730    -1.3580 H     1 <1>   0.0800 
 24 H        1.1700    -5.0690     1.8260 H     1 <1>   0.1500 
 25 H       -0.1350    -7.7030    -1.2730 H     1 <1>   0.1500 
 26 H       -2.8910    -4.2280    -0.0540 H     1 <1>   0.0800 
 27 H       -3.3180    -5.3960     1.1710 H     1 <1>   0.0800 
 28 H        3.4050    -6.0360     1.6920 H     1 <1>   0.1500 
 29 H        2.0530    -8.6570    -1.4040 H     1 <1>   0.1500 
 30 H       -4.2190    -5.5290    -1.6460 H     1 <1>   0.4500 
 31 H       -5.7030    -4.5460     0.7170 H     1 <1>   0.0800 
 32 H       -6.3600    -4.7380    -0.8950 H     1 <1>   0.0800 
 33 H       -5.1010    -3.5590    -0.5990 H     1 <1>   0.0800 
 34 H       -5.1520    -7.0230     0.7450 H     1 <1>   0.0800 
 35 H       -4.2270    -7.6970    -0.5810 H     1 <1>   0.0800 
 36 H       -5.8580    -7.1290    -0.8540 H     1 <1>   0.0800 
 37 H        4.4130    -8.3600     2.2270 H     1 <1>   0.0800 
 38 H        5.4090    -9.4650     1.3040 H     1 <1>   0.0800 
 39 H        3.6780    -9.6510     1.3180 H     1 <1>   0.0800 
 40 H        4.4290    -8.2810    -2.0460 H     1 <1>   0.0800 
 41 H        4.0130    -9.7390    -1.1680 H     1 <1>   0.0800 
 42 H        5.6540    -9.1580    -1.1750 H     1 <1>   0.0800 
 43 H        4.3570    -5.7730    -1.4340 H     1 <1>   0.1500 
 44 H        6.7130    -7.6520     1.6020 H     1 <1>   0.1500 
 45 H        5.9580    -3.9360    -1.5180 H     1 <1>   0.1500 
 46 H        8.2880    -5.8180     1.5050 H     1 <1>   0.1500 
 47 H        7.9330    -3.9450    -0.0480 H     1 <1>   0.1500 
@<TRIPOS>BOND
  1   1   2  1   
  2   1   3  1   
  3   2   4  ar  
  4   2   5  ar  
  5   3   6  1   
  6   3  22  1   
  7   3  23  1   
  8   4   7  ar  
  9   4  24  1   
 10   5   8  ar  
 11   5  25  1   
 12   6   9  1   
 13   6  26  1   
 14   6  27  1   
 15   7  10  ar  
 16   7  28  1   
 17   8  10  ar  
 18   8  29  1   
 19   9  11  1   
 20   9  12  1   
 21   9  30  1   
 22  10  13  1   
 23  11  31  1   
 24  11  32  1   
 25  11  33  1   
 26  12  34  1   
 27  12  35  1   
 28  12  36  1   
 29  13  14  1   
 30  13  15  1   
 31  13  16  1   
 32  14  17  ar  
 33  14  18  ar  
 34  15  37  1   
 35  15  38  1   
 36  15  39  1   
 37  16  40  1   
 38  16  41  1   
 39  16  42  1   
 40  17  19  ar  
 41  17  43  1   
 42  18  20  ar  
 43  18  44  1   
 44  19  21  ar  
 45  19  45  1   
 46  20  21  ar  
 47  20  46  1   
 48  21  47  1   
@<TRIPOS>SUBSTRUCTURE
  1 ****   7 GROUP 4 **** **** 0

# MOE 2024.06 (io_trps.svl 2023.06)
