@<TRIPOS>MOLECULE
NONAME
48 49 1 0 0 
SMALL
USER_CHARGES


@<TRIPOS>ATOM
  1 O       -0.0840     0.9700    -1.2560 O.2   1 <1>  -0.5700 
  2 C       -0.4040     1.7460    -0.3910 C.2   1 <1>   0.6590 
  3 O        0.4290     2.1050     0.5760 O.3   1 <1>  -0.4300 
  4 C       -1.7810     2.3880    -0.3480 C.3   1 <1>  -0.0190 
  5 C        1.7370     1.5880     0.6490 C.3   1 <1>   0.1200 
  6 C       -2.8480     1.4040    -0.8450 C.3   1 <1>   0.1400 
  7 C       -1.8130     3.6970    -1.1650 C.3   1 <1>  -0.1600 
  8 C        2.4220     2.2020     1.8660 C.3   1 <1>  -0.2400 
  9 N       -4.1900     2.0610    -0.8190 N.am  1 <1>  -0.6600 
 10 C       -3.2280     4.2980    -1.1960 C.3   1 <1>  -0.1600 
 11 C       -5.1980     1.5830    -0.0180 C.2   1 <1>   0.5690 
 12 C       -4.2680     3.2780    -1.6750 C.3   1 <1>   0.1400 
 13 O       -5.0340     0.6200     0.6960 O.2   1 <1>  -0.5700 
 14 C       -6.5570     2.2680    -0.0080 C.3   1 <1>  -0.0990 
 15 C       -7.5920     1.5980     0.9070 C.3   1 <1>  -0.0170 
 16 C       -8.9130     2.3490     0.8450 C.ar  1 <1>  -0.1440 
 17 C       -9.8750     1.9990    -0.0920 C.ar  1 <1>  -0.1500 
 18 C       -9.1670     3.3930     1.7200 C.ar  1 <1>  -0.1500 
 19 C      -11.0760     2.6840    -0.1560 C.ar  1 <1>  -0.1500 
 20 C      -10.3660     4.0800     1.6570 C.ar  1 <1>  -0.1500 
 21 C      -11.3280     3.7340     0.7220 C.ar  1 <1>   0.0820 
 22 O      -12.4760     4.4570     0.7280 O.3   1 <1>  -0.3620 
 23 C      -13.5290     4.1670    -0.1640 C.3   1 <1>   0.0400 
 24 H       -2.0010     2.6110     0.6810 H     1 <1>   0.0800 
 25 H        2.2560     1.8450    -0.2590 H     1 <1>   0.0800 
 26 H        1.6750     0.5170     0.7390 H     1 <1>   0.0800 
 27 H       -2.8400     0.5220    -0.2280 H     1 <1>   0.0800 
 28 H       -2.6280     1.0990    -1.8540 H     1 <1>   0.0800 
 29 H       -1.4940     3.4900    -2.1730 H     1 <1>   0.0800 
 30 H       -1.1260     4.4080    -0.7400 H     1 <1>   0.0800 
 31 H        2.4660     3.2720     1.7660 H     1 <1>   0.0800 
 32 H        3.4240     1.8240     1.9470 H     1 <1>   0.0800 
 33 H        1.8850     1.9460     2.7610 H     1 <1>   0.0800 
 34 H       -3.2420     5.1520    -1.8500 H     1 <1>   0.0800 
 35 H       -3.5010     4.6350    -0.2110 H     1 <1>   0.0800 
 36 H       -5.2460     3.7220    -1.6460 H     1 <1>   0.0800 
 37 H       -4.0610     2.9990    -2.6950 H     1 <1>   0.0800 
 38 H       -6.9420     2.2750    -1.0110 H     1 <1>   0.0800 
 39 H       -6.4230     3.2840     0.3130 H     1 <1>   0.0800 
 40 H       -7.2280     1.5860     1.9200 H     1 <1>   0.0800 
 41 H       -7.7380     0.5760     0.6040 H     1 <1>   0.0800 
 42 H       -9.6890     1.1880    -0.7750 H     1 <1>   0.1500 
 43 H       -8.4330     3.6770     2.4530 H     1 <1>   0.1500 
 44 H      -11.7980     2.3870    -0.8920 H     1 <1>   0.1500 
 45 H      -10.5650     4.8900     2.3340 H     1 <1>   0.1500 
 46 H      -14.3300     4.8570     0.0300 H     1 <1>   0.0800 
 47 H      -13.8640     3.1600     0.0080 H     1 <1>   0.0800 
 48 H      -13.1760     4.2910    -1.1720 H     1 <1>   0.0800 
@<TRIPOS>BOND
  1   1   2  2   
  2   2   3  1   
  3   2   4  1   
  4   3   5  1   
  5   4   6  1   
  6   4   7  1   
  7   4  24  1   
  8   5   8  1   
  9   5  25  1   
 10   5  26  1   
 11   6   9  1   
 12   6  27  1   
 13   6  28  1   
 14   7  10  1   
 15   7  29  1   
 16   7  30  1   
 17   8  31  1   
 18   8  32  1   
 19   8  33  1   
 20   9  11  am  
 21   9  12  1   
 22  10  12  1   
 23  10  34  1   
 24  10  35  1   
 25  11  13  2   
 26  11  14  1   
 27  12  36  1   
 28  12  37  1   
 29  14  15  1   
 30  14  38  1   
 31  14  39  1   
 32  15  16  1   
 33  15  40  1   
 34  15  41  1   
 35  16  17  ar  
 36  16  18  ar  
 37  17  19  ar  
 38  17  42  1   
 39  18  20  ar  
 40  18  43  1   
 41  19  21  ar  
 42  19  44  1   
 43  20  21  ar  
 44  20  45  1   
 45  21  22  1   
 46  22  23  1   
 47  23  46  1   
 48  23  47  1   
 49  23  48  1   
@<TRIPOS>SUBSTRUCTURE
  1 ****  11 GROUP 4 **** **** 0

# MOE 2024.06 (io_trps.svl 2023.06)
