@<TRIPOS>MOLECULE
NONAME
32 33 1 0 0 
SMALL
USER_CHARGES


@<TRIPOS>ATOM
  1 CL      -1.6030     0.9040     1.8550 Cl    1 <1>  -0.1770 
  2 C       -0.8020     2.1950     0.9940 C.ar  1 <1>   0.1770 
  3 C       -1.2560     2.5560    -0.2630 C.ar  1 <1>  -0.1440 
  4 C        0.2640     2.8410     1.5950 C.ar  1 <1>  -0.1500 
  5 C       -0.6130     3.6000    -0.9060 C.ar  1 <1>   0.1770 
  6 C       -2.4110     1.8230    -0.9130 C.3   1 <1>   0.4870 
  7 C        0.8980     3.8790     0.9300 C.ar  1 <1>  -0.1500 
  8 CL      -1.1680     4.1140    -2.4790 Cl    1 <1>  -0.1770 
  9 C        0.4560     4.2610    -0.3260 C.ar  1 <1>  -0.1500 
 10 N       -3.6880     2.2120    -0.2500 N.4   1 <1>  -0.9590 
 11 C       -4.7990     1.3090    -0.6710 C.3   1 <1>   0.3430 
 12 C       -4.0080     3.6570    -0.4700 C.3   1 <1>   0.3430 
 13 C       -6.0670     1.6500     0.1080 C.3   1 <1>  -0.1600 
 14 C       -5.2650     4.0350     0.3090 C.3   1 <1>  -0.1600 
 15 C       -6.4220     3.1220    -0.0840 C.3   1 <1>   0.2000 
 16 O       -7.5050     3.4190     0.7040 O.3   1 <1>  -0.6800 
 17 H        0.5970     2.5350     2.5730 H     1 <1>   0.1500 
 18 H       -2.2520     0.7620    -0.8050 H     1 <1>   0.0800 
 19 H       -2.4560     2.0480    -1.9660 H     1 <1>   0.0800 
 20 H        1.7320     4.3870     1.3890 H     1 <1>   0.1500 
 21 H        0.9380     5.0680    -0.8520 H     1 <1>   0.1500 
 22 H       -3.5390     2.0730     0.7610 H     1 <1>   0.4500 
 23 H       -4.5330     0.2800    -0.4860 H     1 <1>   0.0800 
 24 H       -4.9860     1.4270    -1.7270 H     1 <1>   0.0800 
 25 H       -4.1670     3.8410    -1.5210 H     1 <1>   0.0800 
 26 H       -3.1880     4.2760    -0.1420 H     1 <1>   0.0800 
 27 H       -5.9160     1.4270     1.1490 H     1 <1>   0.0800 
 28 H       -6.8750     1.0400    -0.2560 H     1 <1>   0.0800 
 29 H       -5.5240     5.0540     0.0800 H     1 <1>   0.0800 
 30 H       -5.0640     3.9650     1.3630 H     1 <1>   0.0800 
 31 H       -6.7120     3.3060    -1.1070 H     1 <1>   0.0800 
 32 H       -7.3180     3.2850     1.6530 H     1 <1>   0.4000 
@<TRIPOS>BOND
  1   1   2  1   
  2   2   3  ar  
  3   2   4  ar  
  4   3   5  ar  
  5   3   6  1   
  6   4   7  ar  
  7   4  17  1   
  8   5   8  1   
  9   5   9  ar  
 10   6  10  1   
 11   6  18  1   
 12   6  19  1   
 13   7   9  ar  
 14   7  20  1   
 15   9  21  1   
 16  10  11  1   
 17  10  12  1   
 18  10  22  1   
 19  11  13  1   
 20  11  23  1   
 21  11  24  1   
 22  12  14  1   
 23  12  25  1   
 24  12  26  1   
 25  13  15  1   
 26  13  27  1   
 27  13  28  1   
 28  14  15  1   
 29  14  29  1   
 30  14  30  1   
 31  15  16  1   
 32  15  31  1   
 33  16  32  1   
@<TRIPOS>SUBSTRUCTURE
  1 ****  10 GROUP 4 **** **** 0

# MOE 2024.06 (io_trps.svl 2023.06)
