@<TRIPOS>MOLECULE
NONAME
41 42 1 0 0 
SMALL
USER_CHARGES


@<TRIPOS>ATOM
  1 CL       0.3060     0.4260     0.0150 Cl    1 <1>  -0.1770 
  2 C        1.9610     1.0070     0.0190 C.ar  1 <1>   0.1770 
  3 C        2.9950     0.1070     0.2430 C.ar  1 <1>  -0.1440 
  4 C        2.2040     2.3560    -0.2010 C.ar  1 <1>  -0.1440 
  5 C        4.3010     0.5740     0.2450 C.ar  1 <1>  -0.1500 
  6 C        2.7080    -1.3690     0.4850 C.3   1 <1>  -0.0960 
  7 C        3.5150     2.8030    -0.1960 C.ar  1 <1>  -0.1500 
  8 C        1.0640     3.3340    -0.4450 C.3   1 <1>  -0.0960 
  9 C        4.5640     1.9240     0.0240 C.ar  1 <1>   0.0830 
 10 O        5.8120     2.4580     0.0090 O.3   1 <1>  -0.3630 
 11 C        6.9550     1.6590     0.1820 C.3   1 <1>   0.1200 
 12 C        8.1710     2.5880     0.0970 C.3   1 <1>   0.3430 
 13 N        9.4730     1.8690     0.2950 N.4   1 <1>  -0.9590 
 14 C       10.5750     2.8580     0.4890 C.3   1 <1>   0.3430 
 15 C        9.7820     0.9330    -0.8310 C.3   1 <1>   0.3430 
 16 C       11.8730     2.1250     0.8310 C.3   1 <1>  -0.1600 
 17 C       11.0620     0.1560    -0.5180 C.3   1 <1>  -0.1600 
 18 C       12.2440     1.0940    -0.2430 C.3   1 <1>  -0.1600 
 19 H        5.0940    -0.1260     0.4200 H     1 <1>   0.1500 
 20 H        2.0840    -1.4830     1.3540 H     1 <1>   0.0800 
 21 H        3.6140    -1.9240     0.6420 H     1 <1>   0.0800 
 22 H        2.1960    -1.7860    -0.3640 H     1 <1>   0.0800 
 23 H        3.7350     3.8420    -0.3630 H     1 <1>   0.1500 
 24 H        0.3990     3.3420     0.4000 H     1 <1>   0.0800 
 25 H        0.5100     3.0420    -1.3190 H     1 <1>   0.0800 
 26 H        1.4350     4.3320    -0.5960 H     1 <1>   0.0800 
 27 H        6.9650     0.9250    -0.6040 H     1 <1>   0.0800 
 28 H        6.8930     1.1930     1.1490 H     1 <1>   0.0800 
 29 H        8.0630     3.3430     0.8590 H     1 <1>   0.0800 
 30 H        8.1700     3.0760    -0.8630 H     1 <1>   0.0800 
 31 H        9.4220     1.3130     1.1590 H     1 <1>   0.4500 
 32 H       10.3280     3.5390     1.2880 H     1 <1>   0.0800 
 33 H       10.7150     3.4320    -0.4140 H     1 <1>   0.0800 
 34 H        9.9150     1.4920    -1.7440 H     1 <1>   0.0800 
 35 H        8.9720     0.2380    -0.9740 H     1 <1>   0.0800 
 36 H       11.7700     1.6400     1.7860 H     1 <1>   0.0800 
 37 H       12.6700     2.8440     0.9220 H     1 <1>   0.0800 
 38 H       11.3010    -0.4780    -1.3550 H     1 <1>   0.0800 
 39 H       10.8960    -0.4840     0.3310 H     1 <1>   0.0800 
 40 H       13.1000     0.5230     0.0770 H     1 <1>   0.0800 
 41 H       12.5160     1.6060    -1.1520 H     1 <1>   0.0800 
@<TRIPOS>BOND
  1   1   2  1   
  2   2   3  ar  
  3   2   4  ar  
  4   3   5  ar  
  5   3   6  1   
  6   4   7  ar  
  7   4   8  1   
  8   5   9  ar  
  9   5  19  1   
 10   6  20  1   
 11   6  21  1   
 12   6  22  1   
 13   7   9  ar  
 14   7  23  1   
 15   8  24  1   
 16   8  25  1   
 17   8  26  1   
 18   9  10  1   
 19  10  11  1   
 20  11  12  1   
 21  11  27  1   
 22  11  28  1   
 23  12  13  1   
 24  12  29  1   
 25  12  30  1   
 26  13  14  1   
 27  13  15  1   
 28  13  31  1   
 29  14  16  1   
 30  14  32  1   
 31  14  33  1   
 32  15  17  1   
 33  15  34  1   
 34  15  35  1   
 35  16  18  1   
 36  16  36  1   
 37  16  37  1   
 38  17  18  1   
 39  17  38  1   
 40  17  39  1   
 41  18  40  1   
 42  18  41  1   
@<TRIPOS>SUBSTRUCTURE
  1 ****  11 GROUP 4 **** **** 0

# MOE 2024.06 (io_trps.svl 2023.06)
