@<TRIPOS>MOLECULE
NONAME
33 34 1 0 0 
SMALL
USER_CHARGES


@<TRIPOS>ATOM
  1 CL       0.3540    -0.0030     0.1450 Cl    1 <1>  -0.1770 
  2 C        0.2070    -1.7330    -0.0840 C.ar  1 <1>   0.1770 
  3 C       -1.0620    -2.3210     0.0780 C.ar  1 <1>   0.0000 
  4 C        1.3000    -2.4890    -0.4060 C.ar  1 <1>  -0.1440 
  5 C       -1.1460    -3.7180    -0.1030 C.ar  1 <1>   0.3100 
  6 C       -2.2300    -1.5990     0.4060 C.ar  1 <1>  -0.1500 
  7 C        1.1040    -3.8760    -0.5580 C.ar  1 <1>   0.1660 
  8 C        2.6790    -1.8490    -0.5870 C.3   1 <1>  -0.0160 
  9 N       -0.0460    -4.4560    -0.4170 N.ar  1 <1>  -0.6200 
 10 C       -2.4110    -4.3490     0.0510 C.ar  1 <1>   0.0830 
 11 C       -3.4350    -2.2270     0.5490 C.ar  1 <1>  -0.1500 
 12 C        2.2550    -4.8040    -0.9080 C.3   1 <1>  -0.0960 
 13 C        3.4250    -1.7700     0.7510 C.3   1 <1>  -0.1600 
 14 O       -2.4740    -5.6980    -0.1290 O.3   1 <1>  -0.3630 
 15 C       -3.5290    -3.6070     0.3710 C.ar  1 <1>  -0.1500 
 16 C        4.8170    -1.1520     0.5830 C.3   1 <1>  -0.2400 
 17 C       -3.6700    -6.4330    -0.0040 C.3   1 <1>   0.0400 
 18 H       -2.1700    -0.5350     0.5450 H     1 <1>   0.1500 
 19 H        2.5760    -0.8600    -0.9950 H     1 <1>   0.0800 
 20 H        3.2640    -2.4030    -1.2990 H     1 <1>   0.0800 
 21 H       -4.3200    -1.6670     0.7990 H     1 <1>   0.1500 
 22 H        3.0710    -4.6680    -0.2250 H     1 <1>   0.0800 
 23 H        2.5870    -4.6130    -1.9120 H     1 <1>   0.0800 
 24 H        1.9380    -5.8300    -0.8490 H     1 <1>   0.0800 
 25 H        3.5220    -2.7550     1.1730 H     1 <1>   0.0800 
 26 H        2.8540    -1.1730     1.4420 H     1 <1>   0.0800 
 27 H       -4.4950    -4.0580     0.4930 H     1 <1>   0.1500 
 28 H        5.4160    -1.7450    -0.0850 H     1 <1>   0.0800 
 29 H        5.3140    -1.1040     1.5360 H     1 <1>   0.0800 
 30 H        4.7400    -0.1530     0.1890 H     1 <1>   0.0800 
 31 H       -3.4450    -7.4670    -0.1940 H     1 <1>   0.0800 
 32 H       -4.3780    -6.0740    -0.7290 H     1 <1>   0.0800 
 33 H       -4.0460    -6.3190     0.9970 H     1 <1>   0.0800 
@<TRIPOS>BOND
  1   1   2  1   
  2   2   3  ar  
  3   2   4  ar  
  4   3   5  ar  
  5   3   6  ar  
  6   4   7  ar  
  7   4   8  1   
  8   5   9  ar  
  9   5  10  ar  
 10   6  11  ar  
 11   6  18  1   
 12   7   9  ar  
 13   7  12  1   
 14   8  13  1   
 15   8  19  1   
 16   8  20  1   
 17  10  14  1   
 18  10  15  ar  
 19  11  15  ar  
 20  11  21  1   
 21  12  22  1   
 22  12  23  1   
 23  12  24  1   
 24  13  16  1   
 25  13  25  1   
 26  13  26  1   
 27  14  17  1   
 28  15  27  1   
 29  16  28  1   
 30  16  29  1   
 31  16  30  1   
 32  17  31  1   
 33  17  32  1   
 34  17  33  1   
@<TRIPOS>SUBSTRUCTURE
  1 ****   3 GROUP 4 **** **** 0

# MOE 2024.06 (io_trps.svl 2023.06)
