@<TRIPOS>MOLECULE
NONAME
30 30 1 0 0 
SMALL
USER_CHARGES


@<TRIPOS>ATOM
  1 CL      -0.4080    -0.6570     2.0010 Cl    1 <1>  -0.1770 
  2 C       -0.1750    -2.1130     1.0680 C.ar  1 <1>   0.1770 
  3 C        1.0860    -2.4270     0.6030 C.ar  1 <1>  -0.1500 
  4 C       -1.2640    -2.9240     0.8080 C.ar  1 <1>  -0.1500 
  5 C        1.2820    -3.5850    -0.1440 C.ar  1 <1>   0.1170 
  6 C       -1.0800    -4.0770     0.0630 C.ar  1 <1>  -0.1500 
  7 N        2.5340    -3.9520    -0.6570 N.am  1 <1>  -0.5470 
  8 C        0.1830    -4.3990    -0.4060 C.ar  1 <1>  -0.1500 
  9 C        3.7920    -3.6540    -0.2240 C.2   1 <1>   0.6900 
 10 O        3.9830    -3.0860     0.8320 O.2   1 <1>  -0.5700 
 11 N        4.8220    -4.0320    -1.0240 N.am  1 <1>  -0.7300 
 12 C        6.2710    -3.8630    -0.7810 C.3   1 <1>   0.2200 
 13 C        6.6870    -4.5820     0.5130 C.3   1 <1>  -0.1600 
 14 C        6.6170    -2.3740    -0.7920 C.3   1 <1>  -0.2400 
 15 C        8.2090    -4.7090     0.6680 C.3   1 <1>  -0.2400 
 16 H        1.9050    -1.7690     0.8230 H     1 <1>   0.1500 
 17 H       -2.2350    -2.6550     1.1830 H     1 <1>   0.1500 
 18 H       -1.9170    -4.7200    -0.1480 H     1 <1>   0.1500 
 19 H        2.5140    -4.6470    -1.3930 H     1 <1>   0.3700 
 20 H        0.3150    -5.2970    -0.9810 H     1 <1>   0.1500 
 21 H        4.6000    -4.3020    -1.9780 H     1 <1>   0.3700 
 22 H        6.7890    -4.3330    -1.6000 H     1 <1>   0.0800 
 23 H        6.2630    -5.5700     0.5110 H     1 <1>   0.0800 
 24 H        6.2950    -4.0550     1.3650 H     1 <1>   0.0800 
 25 H        6.1840    -1.8790     0.0590 H     1 <1>   0.0800 
 26 H        6.2510    -1.9130    -1.6920 H     1 <1>   0.0800 
 27 H        7.6820    -2.2380    -0.7560 H     1 <1>   0.0800 
 28 H        8.6360    -5.2180    -0.1780 H     1 <1>   0.0800 
 29 H        8.4370    -5.2740     1.5550 H     1 <1>   0.0800 
 30 H        8.6670    -3.7410     0.7630 H     1 <1>   0.0800 
@<TRIPOS>BOND
  1   1   2  1   
  2   2   3  ar  
  3   2   4  ar  
  4   3   5  ar  
  5   3  16  1   
  6   4   6  ar  
  7   4  17  1   
  8   5   7  1   
  9   5   8  ar  
 10   6   8  ar  
 11   6  18  1   
 12   7   9  am  
 13   7  19  1   
 14   8  20  1   
 15   9  10  2   
 16   9  11  am  
 17  11  12  1   
 18  11  21  1   
 19  12  13  1   
 20  12  14  1   
 21  12  22  1   
 22  13  15  1   
 23  13  23  1   
 24  13  24  1   
 25  14  25  1   
 26  14  26  1   
 27  14  27  1   
 28  15  28  1   
 29  15  29  1   
 30  15  30  1   
@<TRIPOS>SUBSTRUCTURE
  1 ****   7 GROUP 4 **** **** 0

# MOE 2024.06 (io_trps.svl 2023.06)
