@<TRIPOS>MOLECULE
NONAME
43 44 1 0 0 
SMALL
USER_CHARGES


@<TRIPOS>ATOM
  1 N        0.0500     0.0140     0.0150 N.4   1 <1>  -0.9590 
  2 C        1.3040     0.8470    -0.1040 C.3   1 <1>   0.4230 
  3 C       -1.1770     0.8950    -0.0780 C.3   1 <1>   0.3430 
  4 C        0.0580    -0.8610     1.2440 C.3   1 <1>   0.2630 
  5 C        2.5210    -0.0190    -0.4550 C.3   1 <1>  -0.0170 
  6 C        1.5950     1.6700     1.1590 C.3   1 <1>  -0.1600 
  7 C       -2.5210     0.1260    -0.2490 C.3   1 <1>   0.3430 
  8 C        3.7810     0.8260    -0.5370 C.ar  1 <1>  -0.1440 
  9 C        2.7150     2.6770     0.8700 C.3   1 <1>  -0.0160 
 10 N       -3.7460     1.0080    -0.3440 N.4   1 <1>  -0.9590 
 11 C        3.8700     2.0670     0.0870 C.ar  1 <1>  -0.1440 
 12 C        4.8680     0.3320    -1.2440 C.ar  1 <1>  -0.1500 
 13 C       -4.9930     0.1690    -0.3220 C.3   1 <1>   0.2630 
 14 C       -3.7730     1.8750    -1.5720 C.3   1 <1>   0.2630 
 15 C        5.0460     2.7940    -0.0110 C.ar  1 <1>  -0.1500 
 16 C        6.0360     1.0660    -1.3360 C.ar  1 <1>  -0.1500 
 17 C        6.1250     2.2980    -0.7190 C.ar  1 <1>  -0.1500 
 18 H        0.0810    -0.6100    -0.8070 H     1 <1>   0.4500 
 19 H        1.1770     1.5430    -0.9190 H     1 <1>   0.0800 
 20 H       -1.0590     1.5570    -0.9190 H     1 <1>   0.0800 
 21 H       -1.2380     1.4990     0.8130 H     1 <1>   0.0800 
 22 H        0.0370    -0.2590     2.1390 H     1 <1>   0.0800 
 23 H        0.9490    -1.4680     1.2700 H     1 <1>   0.0800 
 24 H       -0.7940    -1.5210     1.2520 H     1 <1>   0.0800 
 25 H        2.3620    -0.4970    -1.4040 H     1 <1>   0.0800 
 26 H        2.6880    -0.7720     0.2930 H     1 <1>   0.0800 
 27 H        1.9290     1.0260     1.9550 H     1 <1>   0.0800 
 28 H        0.7300     2.2140     1.4900 H     1 <1>   0.0800 
 29 H       -2.6420    -0.5350     0.5930 H     1 <1>   0.0800 
 30 H       -2.4630    -0.4800    -1.1400 H     1 <1>   0.0800 
 31 H        3.0840     3.0770     1.8000 H     1 <1>   0.0800 
 32 H        2.3230     3.5010     0.2970 H     1 <1>   0.0800 
 33 H       -3.8050     1.6280     0.4840 H     1 <1>   0.4500 
 34 H        4.8190    -0.6280    -1.7280 H     1 <1>   0.1500 
 35 H       -5.0210    -0.4930    -1.1720 H     1 <1>   0.0800 
 36 H       -5.8690     0.7990    -0.3530 H     1 <1>   0.0800 
 37 H       -5.0370    -0.4240     0.5780 H     1 <1>   0.0800 
 38 H       -3.7470     1.2680    -2.4640 H     1 <1>   0.0800 
 39 H       -2.9330     2.5500    -1.5860 H     1 <1>   0.0800 
 40 H       -4.6770     2.4640    -1.5920 H     1 <1>   0.0800 
 41 H        5.1320     3.7570     0.4640 H     1 <1>   0.1500 
 42 H        6.8760     0.6780    -1.8870 H     1 <1>   0.1500 
 43 H        7.0340     2.8710    -0.7890 H     1 <1>   0.1500 
@<TRIPOS>BOND
  1   1   2  1   
  2   1   3  1   
  3   1   4  1   
  4   1  18  1   
  5   2   5  1   
  6   2   6  1   
  7   2  19  1   
  8   3   7  1   
  9   3  20  1   
 10   3  21  1   
 11   4  22  1   
 12   4  23  1   
 13   4  24  1   
 14   5   8  1   
 15   5  25  1   
 16   5  26  1   
 17   6   9  1   
 18   6  27  1   
 19   6  28  1   
 20   7  10  1   
 21   7  29  1   
 22   7  30  1   
 23   8  11  ar  
 24   8  12  ar  
 25   9  11  1   
 26   9  31  1   
 27   9  32  1   
 28  10  13  1   
 29  10  14  1   
 30  10  33  1   
 31  11  15  ar  
 32  12  16  ar  
 33  12  34  1   
 34  13  35  1   
 35  13  36  1   
 36  13  37  1   
 37  14  38  1   
 38  14  39  1   
 39  14  40  1   
 40  15  17  ar  
 41  15  41  1   
 42  16  17  ar  
 43  16  42  1   
 44  17  43  1   
@<TRIPOS>SUBSTRUCTURE
  1 ****   2 GROUP 4 **** **** 0

# MOE 2024.06 (io_trps.svl 2023.06)
