@<TRIPOS>MOLECULE
NONAME
32 33 1 0 0 
SMALL
USER_CHARGES


@<TRIPOS>ATOM
  1 BR       0.2130     1.2710    -2.0580 Br    1 <1>  -0.1110 
  2 C        1.8820     1.6870    -1.1890 C.ar  1 <1>   0.1110 
  3 C        2.9450     0.8170    -1.3330 C.ar  1 <1>  -0.1500 
  4 C        1.9750     2.8460    -0.4430 C.ar  1 <1>  -0.1500 
  5 C        4.1400     1.1240    -0.7060 C.ar  1 <1>  -0.1500 
  6 C        3.1770     3.1380     0.1770 C.ar  1 <1>  -0.1500 
  7 C        4.2740     2.2860     0.0540 C.ar  1 <1>   0.1170 
  8 N        5.4630     2.6230     0.7170 N.am  1 <1>  -0.5470 
  9 C        6.7570     2.2870     0.4500 C.2   1 <1>   0.6900 
 10 O        7.0760     1.6760    -0.5490 O.2   1 <1>  -0.5700 
 11 N        7.7000     2.6790     1.3410 N.am  1 <1>  -0.7300 
 12 C        9.1540     2.3690     1.2180 C.3   1 <1>   0.1400 
 13 C        9.8090     3.0900     0.0290 C.3   1 <1>   0.2000 
 14 O       11.1900     2.9710     0.1270 O.3   1 <1>  -0.5600 
 15 C        9.5770     4.5960    -0.0250 C.3   1 <1>  -0.1600 
 16 C       11.8010     3.9390    -0.6620 C.3   1 <1>   0.1200 
 17 C       10.8280     5.1140    -0.7190 C.3   1 <1>  -0.1600 
 18 H        2.8410    -0.0770    -1.9220 H     1 <1>   0.1500 
 19 H        1.1260     3.5000    -0.3530 H     1 <1>   0.1500 
 20 H        4.9730     0.4510    -0.8070 H     1 <1>   0.1500 
 21 H        3.2640     4.0370     0.7590 H     1 <1>   0.1500 
 22 H        5.3650     3.3100     1.4550 H     1 <1>   0.3700 
 23 H        7.4080     3.0340     2.2490 H     1 <1>   0.3700 
 24 H        9.2770     1.3080     1.0900 H     1 <1>   0.0800 
 25 H        9.6520     2.6680     2.1240 H     1 <1>   0.0800 
 26 H        9.5090     2.6280    -0.8960 H     1 <1>   0.0800 
 27 H        9.5140     4.9920     0.9720 H     1 <1>   0.0800 
 28 H        8.6760     4.8330    -0.5620 H     1 <1>   0.0800 
 29 H       11.9630     3.5180    -1.6400 H     1 <1>   0.0800 
 30 H       12.7420     4.2060    -0.2130 H     1 <1>   0.0800 
 31 H       11.2310     5.9740    -0.2130 H     1 <1>   0.0800 
 32 H       10.6280     5.3710    -1.7440 H     1 <1>   0.0800 
@<TRIPOS>BOND
  1   1   2  1   
  2   2   3  ar  
  3   2   4  ar  
  4   3   5  ar  
  5   3  18  1   
  6   4   6  ar  
  7   4  19  1   
  8   5   7  ar  
  9   5  20  1   
 10   6   7  ar  
 11   6  21  1   
 12   7   8  1   
 13   8   9  am  
 14   8  22  1   
 15   9  10  2   
 16   9  11  am  
 17  11  12  1   
 18  11  23  1   
 19  12  13  1   
 20  12  24  1   
 21  12  25  1   
 22  13  14  1   
 23  13  15  1   
 24  13  26  1   
 25  14  16  1   
 26  15  17  1   
 27  15  27  1   
 28  15  28  1   
 29  16  17  1   
 30  16  29  1   
 31  16  30  1   
 32  17  31  1   
 33  17  32  1   
@<TRIPOS>SUBSTRUCTURE
  1 ****   9 GROUP 4 **** **** 0

# MOE 2024.06 (io_trps.svl 2023.06)
