@<TRIPOS>MOLECULE
NONAME
57 59 1 0 0 
SMALL
USER_CHARGES


@<TRIPOS>ATOM
  1 S       -0.4120    -0.4010    -0.3360 S.3   1 <1>  -0.0800 
  2 C       -0.4880     1.3170     0.0650 C.2   1 <1>   0.1040 
  3 C        1.3260    -0.4260    -0.1190 C.2   1 <1>  -0.1400 
  4 N       -1.7250     1.9760     0.0940 N.am  1 <1>  -0.4940 
  5 C        0.7600     1.7860     0.3410 C.2   1 <1>   0.0190 
  6 C        1.7850     0.7850     0.2220 C.2   1 <1>  -0.1810 
  7 C        2.1080    -1.7050    -0.3210 C.3   1 <1>   0.0200 
  8 C       -2.9380     1.6330    -0.4540 C.2   1 <1>   0.5690 
  9 C        1.0430     3.1350     0.7190 C.1   1 <1>   0.5380 
 10 C        3.2690     1.0180     0.4540 C.3   1 <1>   0.0210 
 11 C        3.5450    -1.5430     0.2450 C.3   1 <1>  -0.0800 
 12 O       -3.0800     0.7070    -1.2160 O.2   1 <1>  -0.5700 
 13 C       -4.1600     2.4930    -0.0720 C.3   1 <1>   0.1710 
 14 N        1.2150     4.2190     1.0290 N.1   1 <1>  -0.5570 
 15 C        4.1050    -0.1400    -0.1280 C.3   1 <1>  -0.1600 
 16 C        4.4980    -2.7310    -0.1150 C.3   1 <1>   0.0000 
 17 N       -5.4880     1.8190    -0.1730 N.3   1 <1>  -0.8100 
 18 C        4.8760    -2.7590    -1.6080 C.3   1 <1>  -0.2400 
 19 C        3.8450    -4.0810     0.2370 C.3   1 <1>  -0.2400 
 20 C        5.8020    -2.6420     0.7010 C.3   1 <1>  -0.2400 
 21 C       -5.6030     0.6040     0.6750 C.3   1 <1>   0.1100 
 22 C       -6.6380     2.7260     0.0390 C.3   1 <1>   0.1100 
 23 C       -6.9350    -0.1480     0.4320 C.3   1 <1>   0.3430 
 24 C       -7.9920     2.0000    -0.1770 C.3   1 <1>   0.3430 
 25 N       -7.7820     0.5690    -0.5790 N.4   1 <1>  -0.9590 
 26 C       -9.0380    -0.1540    -0.9250 C.3   1 <1>   0.2630 
 27 H       -1.7090     2.8800     0.5670 H     1 <1>   0.3700 
 28 H        2.1270    -1.9240    -1.3720 H     1 <1>   0.0800 
 29 H        1.5970    -2.5040     0.1870 H     1 <1>   0.0800 
 30 H        3.4480     1.0980     1.5120 H     1 <1>   0.0800 
 31 H        3.5780     1.9390    -0.0110 H     1 <1>   0.0800 
 32 H        3.4400    -1.5490     1.3170 H     1 <1>   0.0800 
 33 H       -4.1600     3.3440    -0.7300 H     1 <1>   0.0800 
 34 H       -4.0260     2.8520     0.9320 H     1 <1>   0.0800 
 35 H        5.1130    -0.0220     0.2200 H     1 <1>   0.0800 
 36 H        4.1160    -0.0410    -1.2000 H     1 <1>   0.0800 
 37 H        4.0040    -2.8510    -2.2290 H     1 <1>   0.0800 
 38 H        5.5170    -3.5980    -1.8140 H     1 <1>   0.0800 
 39 H        5.4040    -1.8670    -1.8900 H     1 <1>   0.0800 
 40 H        4.5430    -4.8880     0.0990 H     1 <1>   0.0800 
 41 H        3.5230    -4.0880     1.2630 H     1 <1>   0.0800 
 42 H        2.9970    -4.2810    -0.3920 H     1 <1>   0.0800 
 43 H        6.3900    -1.7900     0.4170 H     1 <1>   0.0800 
 44 H        6.4090    -3.5160     0.5410 H     1 <1>   0.0800 
 45 H        5.5860    -2.5750     1.7530 H     1 <1>   0.0800 
 46 H       -5.5270     0.8720     1.7150 H     1 <1>   0.0800 
 47 H       -4.7950    -0.0750     0.4580 H     1 <1>   0.0800 
 48 H       -6.5730     3.5490    -0.6520 H     1 <1>   0.0800 
 49 H       -6.6070     3.1340     1.0350 H     1 <1>   0.0800 
 50 H       -7.4660    -0.2400     1.3650 H     1 <1>   0.0800 
 51 H       -6.7100    -1.1420     0.0820 H     1 <1>   0.0800 
 52 H       -8.5460     2.5180    -0.9430 H     1 <1>   0.0800 
 53 H       -8.5680     2.0470     0.7320 H     1 <1>   0.0800 
 54 H       -7.1560     0.6340    -1.4010 H     1 <1>   0.4500 
 55 H       -9.6800    -0.2250    -0.0620 H     1 <1>   0.0800 
 56 H       -8.8110    -1.1500    -1.2700 H     1 <1>   0.0800 
 57 H       -9.5650     0.3680    -1.7080 H     1 <1>   0.0800 
@<TRIPOS>BOND
  1   1   2  1   
  2   1   3  1   
  3   2   4  1   
  4   2   5  2   
  5   3   6  2   
  6   3   7  1   
  7   4   8  am  
  8   4  27  1   
  9   5   6  1   
 10   5   9  1   
 11   6  10  1   
 12   7  11  1   
 13   7  28  1   
 14   7  29  1   
 15   8  12  2   
 16   8  13  1   
 17   9  14  3   
 18  10  15  1   
 19  10  30  1   
 20  10  31  1   
 21  11  15  1   
 22  11  16  1   
 23  11  32  1   
 24  13  17  1   
 25  13  33  1   
 26  13  34  1   
 27  15  35  1   
 28  15  36  1   
 29  16  18  1   
 30  16  19  1   
 31  16  20  1   
 32  17  21  1   
 33  17  22  1   
 34  18  37  1   
 35  18  38  1   
 36  18  39  1   
 37  19  40  1   
 38  19  41  1   
 39  19  42  1   
 40  20  43  1   
 41  20  44  1   
 42  20  45  1   
 43  21  23  1   
 44  21  46  1   
 45  21  47  1   
 46  22  24  1   
 47  22  48  1   
 48  22  49  1   
 49  23  25  1   
 50  23  50  1   
 51  23  51  1   
 52  24  25  1   
 53  24  52  1   
 54  24  53  1   
 55  25  26  1   
 56  25  54  1   
 57  26  55  1   
 58  26  56  1   
 59  26  57  1   
@<TRIPOS>SUBSTRUCTURE
  1 ****   1 GROUP 4 **** **** 0

# MOE 2024.06 (io_trps.svl 2023.06)
