@<TRIPOS>MOLECULE
NONAME
42 45 1 0 0 
SMALL
USER_CHARGES


@<TRIPOS>ATOM
  1 O       -3.0170    -0.8720    -0.8580 O.2   1 <1>  -0.5700 
  2 C       -3.0120    -1.4920     0.1720 C.2   1 <1>   0.6590 
  3 O       -4.0570    -2.1480     0.6580 O.3   1 <1>  -0.4300 
  4 C       -1.7390    -1.5940     0.9890 C.3   1 <1>   0.3890 
  5 C       -5.3510    -2.2390     0.0870 C.3   1 <1>   0.2800 
  6 N       -0.8110    -2.6110     0.4080 N.ar  1 <1>  -0.2100 
  7 C       -5.3010    -2.9290    -1.2930 C.3   1 <1>  -0.1600 
  8 C       -6.0080    -0.8470    -0.0270 C.3   1 <1>  -0.1600 
  9 C       -6.1850    -3.1060     1.0480 C.3   1 <1>  -0.1600 
 10 C       -0.2430    -2.3840    -0.8010 C.ar  1 <1>   0.2110 
 11 C       -0.5490    -3.7610     1.0720 C.ar  1 <1>   0.2110 
 12 C       -6.7320    -3.0760    -1.8460 C.3   1 <1>  -0.0800 
 13 C       -7.4380    -0.9980    -0.5830 C.3   1 <1>  -0.0800 
 14 C       -7.6200    -3.2670     0.5100 C.3   1 <1>  -0.0800 
 15 C        0.6130    -3.3100    -1.3660 C.ar  1 <1>  -0.1500 
 16 C        0.3030    -4.7090     0.5380 C.ar  1 <1>  -0.1500 
 17 C       -7.3760    -1.6800    -1.9640 C.3   1 <1>  -0.1600 
 18 C       -7.5660    -3.9350    -0.8760 C.3   1 <1>  -0.1600 
 19 C       -8.2660    -1.8750     0.3760 C.3   1 <1>  -0.1600 
 20 C        0.8950    -4.4880    -0.6950 C.ar  1 <1>  -0.1500 
 21 H       -1.9910    -1.8490     2.0030 H     1 <1>   0.0800 
 22 H       -1.2550    -0.6340     0.9930 H     1 <1>   0.0800 
 23 H       -4.8490    -3.9000    -1.2050 H     1 <1>   0.0800 
 24 H       -4.7290    -2.3450    -1.9900 H     1 <1>   0.0800 
 25 H       -5.4510    -0.2160    -0.6960 H     1 <1>   0.0800 
 26 H       -6.0460    -0.3750     0.9380 H     1 <1>   0.0800 
 27 H       -5.7350    -4.0780     1.1500 H     1 <1>   0.0800 
 28 H       -6.2210    -2.6450     2.0190 H     1 <1>   0.0800 
 29 H       -0.4650    -1.4690    -1.3310 H     1 <1>   0.1500 
 30 H       -1.0100    -3.9420     2.0310 H     1 <1>   0.1500 
 31 H       -6.7030    -3.5460    -2.8150 H     1 <1>   0.0800 
 32 H       -7.8970    -0.0280    -0.6760 H     1 <1>   0.0800 
 33 H       -8.2000    -3.8730     1.1850 H     1 <1>   0.0800 
 34 H        1.0600    -3.1190    -2.3280 H     1 <1>   0.1500 
 35 H        0.5080    -5.6210     1.0740 H     1 <1>   0.1500 
 36 H       -8.3700    -1.7730    -2.3660 H     1 <1>   0.0800 
 37 H       -6.8070    -1.0720    -2.6460 H     1 <1>   0.0800 
 38 H       -7.1350    -4.9180    -0.7930 H     1 <1>   0.0800 
 39 H       -8.5640    -4.0520    -1.2620 H     1 <1>   0.0800 
 40 H       -9.2690    -1.9750     0.0010 H     1 <1>   0.0800 
 41 H       -8.3270    -1.4040     1.3420 H     1 <1>   0.0800 
 42 H        1.5630    -5.2200    -1.1250 H     1 <1>   0.1500 
@<TRIPOS>BOND
  1   1   2  2   
  2   2   3  1   
  3   2   4  1   
  4   3   5  1   
  5   4   6  1   
  6   4  21  1   
  7   4  22  1   
  8   5   7  1   
  9   5   8  1   
 10   5   9  1   
 11   6  10  ar  
 12   6  11  ar  
 13   7  12  1   
 14   7  23  1   
 15   7  24  1   
 16   8  13  1   
 17   8  25  1   
 18   8  26  1   
 19   9  14  1   
 20   9  27  1   
 21   9  28  1   
 22  10  15  ar  
 23  10  29  1   
 24  11  16  ar  
 25  11  30  1   
 26  12  17  1   
 27  12  18  1   
 28  12  31  1   
 29  13  17  1   
 30  13  19  1   
 31  13  32  1   
 32  14  18  1   
 33  14  19  1   
 34  14  33  1   
 35  15  20  ar  
 36  15  34  1   
 37  16  20  ar  
 38  16  35  1   
 39  17  36  1   
 40  17  37  1   
 41  18  38  1   
 42  18  39  1   
 43  19  40  1   
 44  19  41  1   
 45  20  42  1   
@<TRIPOS>SUBSTRUCTURE
  1 ****   3 GROUP 4 **** **** 0

# MOE 2024.06 (io_trps.svl 2023.06)
