@<TRIPOS>MOLECULE
NONAME
55 58 1 0 0 
SMALL
USER_CHARGES


@<TRIPOS>ATOM
  1 O       -0.7380    -0.1950    -0.5250 O.3   1 <1>  -0.3630 
  2 C       -1.8290     0.5710    -0.2750 C.ar  1 <1>   0.0830 
  3 C       -0.3910    -0.5730    -1.8390 C.3   1 <1>   0.0400 
  4 C       -2.0680     0.9030     1.0480 C.ar  1 <1>  -0.1500 
  5 C       -2.6980     1.0300    -1.2600 C.ar  1 <1>  -0.1500 
  6 C       -3.1590     1.6820     1.3910 C.ar  1 <1>  -0.1500 
  7 C       -3.7900     1.8080    -0.9140 C.ar  1 <1>  -0.1500 
  8 C       -4.0280     2.1380     0.4120 C.ar  1 <1>  -0.1430 
  9 C       -5.2270     2.9860     0.7960 C.3   1 <1>  -0.0170 
 10 C       -6.4000     2.0680     1.1900 C.3   1 <1>  -0.1600 
 11 C       -7.7090     2.7680     1.5770 C.3   1 <1>   0.4230 
 12 N       -8.1910     3.5560     0.4300 N.4   1 <1>  -0.9060 
 13 C       -7.5470     3.6900     2.7850 C.3   1 <1>  -0.2400 
 14 C       -9.6000     4.0140     0.5070 C.3   1 <1>   0.4230 
 15 C      -10.5810     2.8230     0.3930 C.3   1 <1>  -0.0800 
 16 C       -9.8670     5.0090    -0.6430 C.3   1 <1>  -0.0800 
 17 C      -10.4450     2.1260    -0.9820 C.3   1 <1>  -0.1600 
 18 C      -12.0200     3.3630     0.5280 C.3   1 <1>  -0.1600 
 19 C       -9.7310     4.3150    -2.0200 C.3   1 <1>  -0.1600 
 20 C      -11.3070     5.5430    -0.5040 C.3   1 <1>  -0.1600 
 21 C      -10.7200     3.1360    -2.1130 C.3   1 <1>  -0.0800 
 22 C      -12.3120     4.3780    -0.5930 C.3   1 <1>  -0.0800 
 23 C      -12.1530     3.6790    -1.9560 C.3   1 <1>  -0.1600 
 24 H        0.5040    -1.1660    -1.7900 H     1 <1>   0.0800 
 25 H       -0.2110     0.3140    -2.4200 H     1 <1>   0.0800 
 26 H       -1.1920    -1.1550    -2.2580 H     1 <1>   0.0800 
 27 H       -1.3910     0.5480     1.8040 H     1 <1>   0.1500 
 28 H       -2.5400     0.7910    -2.2940 H     1 <1>   0.1500 
 29 H       -3.3200     1.9260     2.4260 H     1 <1>   0.1500 
 30 H       -4.4480     2.1540    -1.6910 H     1 <1>   0.1500 
 31 H       -5.4890     3.6150    -0.0350 H     1 <1>   0.0800 
 32 H       -4.9490     3.6220     1.6190 H     1 <1>   0.0800 
 33 H       -6.0850     1.4660     2.0250 H     1 <1>   0.0800 
 34 H       -6.5970     1.3830     0.3840 H     1 <1>   0.0800 
 35 H       -8.4300     2.0030     1.8190 H     1 <1>   0.0800 
 36 H       -8.1170     2.9930    -0.4220 H     1 <1>   0.4500 
 37 H       -7.5860     4.3720     0.3060 H     1 <1>   0.4500 
 38 H       -6.9170     4.5330     2.5640 H     1 <1>   0.0800 
 39 H       -7.1000     3.1420     3.5970 H     1 <1>   0.0800 
 40 H       -8.5030     4.0420     3.1290 H     1 <1>   0.0800 
 41 H       -9.7660     4.5200     1.4440 H     1 <1>   0.0800 
 42 H      -10.4170     2.1160     1.1860 H     1 <1>   0.0800 
 43 H       -9.1880     5.8420    -0.5780 H     1 <1>   0.0800 
 44 H      -11.1590     1.3200    -1.0470 H     1 <1>   0.0800 
 45 H       -9.4710     1.6880    -1.1040 H     1 <1>   0.0800 
 46 H      -12.1540     3.8340     1.4880 H     1 <1>   0.0800 
 47 H      -12.7250     2.5500     0.4690 H     1 <1>   0.0800 
 48 H       -8.7270     3.9680    -2.1880 H     1 <1>   0.0800 
 49 H       -9.9510     5.0230    -2.8020 H     1 <1>   0.0800 
 50 H      -11.4270     6.0560     0.4350 H     1 <1>   0.0800 
 51 H      -11.5120     6.2550    -1.2860 H     1 <1>   0.0800 
 52 H      -10.6240     2.6510    -3.0700 H     1 <1>   0.0800 
 53 H      -13.3170     4.7540    -0.4950 H     1 <1>   0.0800 
 54 H      -12.8610     2.8720    -2.0370 H     1 <1>   0.0800 
 55 H      -12.3700     4.3750    -2.7500 H     1 <1>   0.0800 
@<TRIPOS>BOND
  1   1   2  1   
  2   1   3  1   
  3   2   4  ar  
  4   2   5  ar  
  5   3  24  1   
  6   3  25  1   
  7   3  26  1   
  8   4   6  ar  
  9   4  27  1   
 10   5   7  ar  
 11   5  28  1   
 12   6   8  ar  
 13   6  29  1   
 14   7   8  ar  
 15   7  30  1   
 16   8   9  1   
 17   9  10  1   
 18   9  31  1   
 19   9  32  1   
 20  10  11  1   
 21  10  33  1   
 22  10  34  1   
 23  11  12  1   
 24  11  13  1   
 25  11  35  1   
 26  12  14  1   
 27  12  36  1   
 28  12  37  1   
 29  13  38  1   
 30  13  39  1   
 31  13  40  1   
 32  14  15  1   
 33  14  16  1   
 34  14  41  1   
 35  15  17  1   
 36  15  18  1   
 37  15  42  1   
 38  16  19  1   
 39  16  20  1   
 40  16  43  1   
 41  17  21  1   
 42  17  44  1   
 43  17  45  1   
 44  18  22  1   
 45  18  46  1   
 46  18  47  1   
 47  19  21  1   
 48  19  48  1   
 49  19  49  1   
 50  20  22  1   
 51  20  50  1   
 52  20  51  1   
 53  21  23  1   
 54  21  52  1   
 55  22  23  1   
 56  22  53  1   
 57  23  54  1   
 58  23  55  1   
@<TRIPOS>SUBSTRUCTURE
  1 ****  12 GROUP 4 **** **** 0

# MOE 2024.06 (io_trps.svl 2023.06)
