@<TRIPOS>MOLECULE
NONAME
46 48 1 0 0 
SMALL
USER_CHARGES


@<TRIPOS>ATOM
  1 O        0.6660    -2.3770    -2.4120 O.2   1 <1>  -0.5700 
  2 C        0.2850    -2.6710    -1.3090 C.2   1 <1>   0.5690 
  3 N       -0.9810    -3.0490    -0.9850 N.am  1 <1>  -0.4200 
  4 C        1.1820    -2.6700    -0.0860 C.3   1 <1>  -0.0190 
  5 C       -1.0910    -3.3260     0.3410 C.2   1 <1>   0.5690 
  6 C       -2.1130    -3.0800    -1.9460 C.3   1 <1>   0.1400 
  7 C        0.2300    -3.1240     1.0540 C.3   1 <1>  -0.0190 
  8 C        1.8920    -1.3170     0.1120 C.3   1 <1>  -0.0220 
  9 O       -2.0970    -3.7030     0.8880 O.2   1 <1>  -0.5700 
 10 C       -2.7200    -4.4850    -2.0540 C.3   1 <1>  -0.0990 
 11 C        0.0970    -2.1730     2.2600 C.3   1 <1>  -0.0220 
 12 C        2.2300    -1.0890     1.5710 C.2   1 <1>  -0.2880 
 13 C       -4.2010    -4.4470    -1.7550 C.2   1 <1>   0.5690 
 14 C        1.4130    -1.4790     2.5500 C.2   1 <1>  -0.2880 
 15 O       -4.9590    -4.4660    -2.6920 O.2   1 <1>  -0.5700 
 16 N       -4.5990    -4.3670    -0.4480 N.am  1 <1>  -0.5470 
 17 C       -5.8940    -4.3740     0.1010 C.ar  1 <1>   0.1170 
 18 C       -6.1730    -3.6950     1.2930 C.ar  1 <1>  -0.1440 
 19 C       -6.9240    -5.0760    -0.5180 C.ar  1 <1>  -0.1500 
 20 C       -7.4530    -3.7340     1.8250 C.ar  1 <1>  -0.1500 
 21 C       -5.1160    -2.8970     2.0490 C.3   1 <1>  -0.0170 
 22 C       -8.1980    -5.1070     0.0170 C.ar  1 <1>  -0.1500 
 23 C       -8.4640    -4.4340     1.1930 C.ar  1 <1>  -0.1500 
 24 C       -4.4280    -3.7730     3.0990 C.3   1 <1>  -0.2400 
 25 H        1.9330    -3.4270    -0.2230 H     1 <1>   0.0800 
 26 H       -1.7720    -2.7640    -2.9180 H     1 <1>   0.0800 
 27 H       -2.8580    -2.3740    -1.6200 H     1 <1>   0.0800 
 28 H        0.5660    -4.0790     1.4150 H     1 <1>   0.0800 
 29 H        1.2660    -0.5080    -0.2240 H     1 <1>   0.0800 
 30 H        2.7900    -1.3040    -0.4820 H     1 <1>   0.0800 
 31 H       -2.2450    -5.1850    -1.3930 H     1 <1>   0.0800 
 32 H       -2.5880    -4.8450    -3.0590 H     1 <1>   0.0800 
 33 H       -0.2190    -2.7390     3.1190 H     1 <1>   0.0800 
 34 H       -0.6490    -1.4200     2.0690 H     1 <1>   0.0800 
 35 H        3.1610    -0.5710     1.7370 H     1 <1>   0.1500 
 36 H        1.6080    -1.3120     3.5970 H     1 <1>   0.1500 
 37 H       -3.8440    -4.2190     0.2350 H     1 <1>   0.3700 
 38 H       -6.7320    -5.6100    -1.4310 H     1 <1>   0.1500 
 39 H       -7.6720    -3.2160     2.7420 H     1 <1>   0.1500 
 40 H       -5.5820    -2.0610     2.5400 H     1 <1>   0.0800 
 41 H       -4.3900    -2.4900     1.3700 H     1 <1>   0.0800 
 42 H       -8.9780    -5.6540    -0.4830 H     1 <1>   0.1500 
 43 H       -9.4540    -4.4550     1.6150 H     1 <1>   0.1500 
 44 H       -5.1460    -4.1210     3.8210 H     1 <1>   0.0800 
 45 H       -3.6660    -3.2120     3.6080 H     1 <1>   0.0800 
 46 H       -3.9730    -4.6280     2.6310 H     1 <1>   0.0800 
@<TRIPOS>BOND
  1   1   2  2   
  2   2   3  am  
  3   2   4  1   
  4   3   5  am  
  5   3   6  1   
  6   4   7  1   
  7   4   8  1   
  8   4  25  1   
  9   5   7  1   
 10   5   9  2   
 11   6  10  1   
 12   6  26  1   
 13   6  27  1   
 14   7  11  1   
 15   7  28  1   
 16   8  12  1   
 17   8  29  1   
 18   8  30  1   
 19  10  13  1   
 20  10  31  1   
 21  10  32  1   
 22  11  14  1   
 23  11  33  1   
 24  11  34  1   
 25  12  14  2   
 26  12  35  1   
 27  13  15  2   
 28  13  16  am  
 29  14  36  1   
 30  16  17  1   
 31  16  37  1   
 32  17  18  ar  
 33  17  19  ar  
 34  18  20  ar  
 35  18  21  1   
 36  19  22  ar  
 37  19  38  1   
 38  20  23  ar  
 39  20  39  1   
 40  21  24  1   
 41  21  40  1   
 42  21  41  1   
 43  22  23  ar  
 44  22  42  1   
 45  23  43  1   
 46  24  44  1   
 47  24  45  1   
 48  24  46  1   
@<TRIPOS>SUBSTRUCTURE
  1 ****   9 GROUP 4 **** **** 0

# MOE 2024.06 (io_trps.svl 2023.06)
