@<TRIPOS>MOLECULE
NONAME
40 41 1 0 0 
SMALL
USER_CHARGES


@<TRIPOS>ATOM
  1 S        1.5840    -0.1710    -0.1310 S.3   1 <1>  -0.3710 
  2 C        1.8360     1.5630     0.0100 C.2   1 <1>   0.6510 
  3 C       -0.2340    -0.0250    -0.0790 C.3   1 <1>   0.0700 
  4 N        0.7780     2.2450     0.0900 N.2   1 <1>  -0.6960 
  5 N        3.1540     1.9230     0.0120 N.am  1 <1>  -0.4900 
  6 C       -0.4840     1.4870     0.0540 C.3   1 <1>   0.0860 
  7 C        3.7490     3.1460     0.1020 C.2   1 <1>   0.5690 
  8 O        3.1490     4.1860     0.2040 O.2   1 <1>  -0.5700 
  9 C        5.2700     3.1960     0.0730 C.3   1 <1>   0.1810 
 10 O        5.8160     1.8890    -0.0480 O.3   1 <1>  -0.3630 
 11 C        7.1570     1.6660    -0.0950 C.ar  1 <1>   0.0830 
 12 C        7.6010     0.3470    -0.2130 C.ar  1 <1>  -0.1430 
 13 C        8.0810     2.7080    -0.0300 C.ar  1 <1>  -0.1500 
 14 C        8.9680     0.1080    -0.2630 C.ar  1 <1>  -0.1500 
 15 C        6.6280    -0.8380    -0.2880 C.3   1 <1>   0.0630 
 16 C        9.4400     2.4520    -0.0800 C.ar  1 <1>  -0.1430 
 17 C        9.8790     1.1460    -0.1980 C.ar  1 <1>  -0.1500 
 18 C        6.8330    -1.7920     0.8930 C.3   1 <1>  -0.2400 
 19 C        6.7730    -1.5830    -1.6190 C.3   1 <1>  -0.2400 
 20 C       10.4450     3.5890    -0.0100 C.3   1 <1>  -0.0970 
 21 H       -0.5920    -0.5750     0.7720 H     1 <1>   0.0800 
 22 H       -0.6310    -0.4260    -0.9950 H     1 <1>   0.0800 
 23 H        3.7990     1.1410    -0.0690 H     1 <1>   0.3700 
 24 H       -1.0350     1.6860     0.9570 H     1 <1>   0.0800 
 25 H       -1.0720     1.8320    -0.7790 H     1 <1>   0.0800 
 26 H        5.6290     3.6340     0.9860 H     1 <1>   0.0800 
 27 H        5.5900     3.7800    -0.7700 H     1 <1>   0.0800 
 28 H        7.7650     3.7280     0.0580 H     1 <1>   0.1500 
 29 H        9.3380    -0.8970    -0.3550 H     1 <1>   0.1500 
 30 H        5.6140    -0.4870    -0.2340 H     1 <1>   0.0800 
 31 H       10.9320     0.9310    -0.2410 H     1 <1>   0.1500 
 32 H        7.8090    -2.2430     0.8610 H     1 <1>   0.0800 
 33 H        6.0940    -2.5730     0.8740 H     1 <1>   0.0800 
 34 H        6.7360    -1.2520     1.8180 H     1 <1>   0.0800 
 35 H        7.7470    -2.0280    -1.7090 H     1 <1>   0.0800 
 36 H        6.6330    -0.8980    -2.4360 H     1 <1>   0.0800 
 37 H        6.0330    -2.3600    -1.6930 H     1 <1>   0.0800 
 38 H       10.0330     4.4280     0.5200 H     1 <1>   0.0800 
 39 H       10.7090     3.9010    -1.0050 H     1 <1>   0.0800 
 40 H       11.3350     3.2690     0.5010 H     1 <1>   0.0800 
@<TRIPOS>BOND
  1   1   2  1   
  2   1   3  1   
  3   2   4  2   
  4   2   5  1   
  5   3   6  1   
  6   3  21  1   
  7   3  22  1   
  8   4   6  1   
  9   5   7  am  
 10   5  23  1   
 11   6  24  1   
 12   6  25  1   
 13   7   8  2   
 14   7   9  1   
 15   9  10  1   
 16   9  26  1   
 17   9  27  1   
 18  10  11  1   
 19  11  12  ar  
 20  11  13  ar  
 21  12  14  ar  
 22  12  15  1   
 23  13  16  ar  
 24  13  28  1   
 25  14  17  ar  
 26  14  29  1   
 27  15  18  1   
 28  15  19  1   
 29  15  30  1   
 30  16  17  ar  
 31  16  20  1   
 32  17  31  1   
 33  18  32  1   
 34  18  33  1   
 35  18  34  1   
 36  19  35  1   
 37  19  36  1   
 38  19  37  1   
 39  20  38  1   
 40  20  39  1   
 41  20  40  1   
@<TRIPOS>SUBSTRUCTURE
  1 ****  10 GROUP 4 **** **** 0

# MOE 2024.06 (io_trps.svl 2023.06)
