@<TRIPOS>MOLECULE
NONAME
27 28 1 0 0 
SMALL
USER_CHARGES


@<TRIPOS>ATOM
  1 S        0.3010    -0.5210    -0.1530 S.o2  1 <1>   1.3450 
  2 O        0.9250     0.3410    -1.1880 O.co2 1 <1>  -0.8170 
  3 O        1.0730    -0.6150     1.1080 O.co2 1 <1>  -0.8170 
  4 O       -0.1980    -1.8160    -0.6690 O.co2 1 <1>  -0.8170 
  5 C       -1.2140     0.3600     0.3160 C.3   1 <1>  -0.0550 
  6 C       -1.0150     1.6910     1.0680 C.3   1 <1>  -0.1600 
  7 C       -0.2660     2.7290     0.2270 C.3   1 <1>   0.0700 
  8 S       -0.3440     4.3590     1.0960 S.3   1 <1>  -0.2860 
  9 C       -1.9630     4.9870     0.6970 C.2   1 <1>   0.4340 
 10 S       -2.3610     6.5470     1.3990 S.3   1 <1>  -0.0800 
 11 N       -2.8560     4.4440    -0.0270 N.2   1 <1>  -0.5650 
 12 C       -3.9260     6.4470     0.6160 C.ar  1 <1>   0.0400 
 13 C       -3.9840     5.2560    -0.0900 C.ar  1 <1>   0.2270 
 14 C       -4.9620     7.3610     0.6550 C.ar  1 <1>  -0.1500 
 15 C       -5.1450     4.9680    -0.7930 C.ar  1 <1>  -0.1500 
 16 C       -6.1130     7.0550    -0.0530 C.ar  1 <1>  -0.1500 
 17 C       -6.2020     5.8660    -0.7720 C.ar  1 <1>  -0.1500 
 18 H       -1.7870    -0.2910     0.9460 H     1 <1>   0.0800 
 19 H       -1.7920     0.5380    -0.5690 H     1 <1>   0.0800 
 20 H       -0.4610     1.5040     1.9710 H     1 <1>   0.0800 
 21 H       -1.9820     2.0760     1.3350 H     1 <1>   0.0800 
 22 H       -0.7090     2.8560    -0.7460 H     1 <1>   0.0800 
 23 H        0.7750     2.4740     0.1220 H     1 <1>   0.0800 
 24 H       -4.8700     8.2730     1.2180 H     1 <1>   0.1500 
 25 H       -5.2040     4.0480    -1.3450 H     1 <1>   0.1500 
 26 H       -6.9440     7.7400    -0.0490 H     1 <1>   0.1500 
 27 H       -7.1030     5.6420    -1.3180 H     1 <1>   0.1500 
@<TRIPOS>BOND
  1   1   2  ar  
  2   1   3  ar  
  3   1   4  ar  
  4   1   5  1   
  5   5   6  1   
  6   5  18  1   
  7   5  19  1   
  8   6   7  1   
  9   6  20  1   
 10   6  21  1   
 11   7   8  1   
 12   7  22  1   
 13   7  23  1   
 14   8   9  1   
 15   9  10  1   
 16   9  11  2   
 17  10  12  1   
 18  11  13  1   
 19  12  13  ar  
 20  12  14  ar  
 21  13  15  ar  
 22  14  16  ar  
 23  14  24  1   
 24  15  17  ar  
 25  15  25  1   
 26  16  17  ar  
 27  16  26  1   
 28  17  27  1   
@<TRIPOS>SUBSTRUCTURE
  1 ****  11 GROUP 4 **** **** 0

# MOE 2024.06 (io_trps.svl 2023.06)
