@<TRIPOS>MOLECULE
NONAME
41 42 1 0 0 
SMALL
USER_CHARGES


@<TRIPOS>ATOM
  1 O       -0.4020     1.1320     2.4930 O.2   1 <1>  -0.5700 
  2 C       -0.9790     1.3940     1.4660 C.2   1 <1>   0.5690 
  3 N       -0.6060     2.2930     0.5110 N.am  1 <1>  -0.0840 
  4 C       -2.2620     0.7050     1.0520 C.3   1 <1>  -0.0990 
  5 O        0.4840     3.1650     0.6480 O.3   1 <1>  -0.3160 
  6 C       -1.4590     2.3110    -0.5520 C.2   1 <1>   0.5690 
  7 C       -2.5890     1.3300    -0.3220 C.3   1 <1>  -0.0990 
  8 C        1.6420     2.5770     0.0940 C.3   1 <1>   0.1200 
  9 O       -1.3640     2.9690    -1.5590 O.2   1 <1>  -0.5700 
 10 C        2.8030     3.5480     0.2690 C.3   1 <1>   0.1200 
 11 O        3.9560     2.9610    -0.2950 O.3   1 <1>  -0.3630 
 12 C        5.1740     3.5640    -0.2150 C.ar  1 <1>   0.0820 
 13 C        6.2800     2.8530    -0.6760 C.ar  1 <1>  -0.1440 
 14 C        5.3470     4.8450     0.3060 C.ar  1 <1>  -0.1500 
 15 C        7.5390     3.4290    -0.6000 C.ar  1 <1>  -0.1500 
 16 C        6.1370     1.4530    -1.2600 C.3   1 <1>   0.1220 
 17 C        6.6070     5.4110     0.3720 C.ar  1 <1>  -0.1500 
 18 C        7.7140     4.7010    -0.0820 C.ar  1 <1>   0.0820 
 19 C        6.1680     0.4110    -0.1540 C.2   1 <1>  -0.2880 
 20 O        8.9860     5.1790    -0.0520 O.3   1 <1>  -0.3630 
 21 C        7.0380    -0.6010    -0.0650 C.2   1 <1>  -0.3000 
 22 C        9.2720     6.4530     0.4790 C.3   1 <1>   0.0400 
 23 H       -3.0340     0.9070     1.7720 H     1 <1>   0.0800 
 24 H       -2.0990    -0.3550     0.9760 H     1 <1>   0.0800 
 25 H       -3.5280     1.8540    -0.3050 H     1 <1>   0.0800 
 26 H       -2.5970     0.5900    -1.1020 H     1 <1>   0.0800 
 27 H        1.4660     2.3920    -0.9520 H     1 <1>   0.0800 
 28 H        1.8440     1.6580     0.6170 H     1 <1>   0.0800 
 29 H        2.9890     3.7240     1.3140 H     1 <1>   0.0800 
 30 H        2.6040     4.4680    -0.2500 H     1 <1>   0.0800 
 31 H        4.5140     5.4190     0.6640 H     1 <1>   0.1500 
 32 H        8.4050     2.8920    -0.9410 H     1 <1>   0.1500 
 33 H        6.9340     1.2670    -1.9570 H     1 <1>   0.0800 
 34 H        5.2130     1.3700    -1.8040 H     1 <1>   0.0800 
 35 H        6.7080     6.3990     0.7780 H     1 <1>   0.1500 
 36 H        5.3950     0.5770     0.5770 H     1 <1>   0.1500 
 37 H        7.0360    -1.3220     0.7340 H     1 <1>   0.1500 
 38 H        7.8220    -0.7920    -0.7760 H     1 <1>   0.1500 
 39 H       10.3330     6.6130     0.4080 H     1 <1>   0.0800 
 40 H        8.9680     6.4780     1.5100 H     1 <1>   0.0800 
 41 H        8.7520     7.1980    -0.0970 H     1 <1>   0.0800 
@<TRIPOS>BOND
  1   1   2  2   
  2   2   3  am  
  3   2   4  1   
  4   3   5  1   
  5   3   6  am  
  6   4   7  1   
  7   4  23  1   
  8   4  24  1   
  9   5   8  1   
 10   6   7  1   
 11   6   9  2   
 12   7  25  1   
 13   7  26  1   
 14   8  10  1   
 15   8  27  1   
 16   8  28  1   
 17  10  11  1   
 18  10  29  1   
 19  10  30  1   
 20  11  12  1   
 21  12  13  ar  
 22  12  14  ar  
 23  13  15  ar  
 24  13  16  1   
 25  14  17  ar  
 26  14  31  1   
 27  15  18  ar  
 28  15  32  1   
 29  16  19  1   
 30  16  33  1   
 31  16  34  1   
 32  17  18  ar  
 33  17  35  1   
 34  18  20  1   
 35  19  21  2   
 36  19  36  1   
 37  20  22  1   
 38  21  37  1   
 39  21  38  1   
 40  22  39  1   
 41  22  40  1   
 42  22  41  1   
@<TRIPOS>SUBSTRUCTURE
  1 ****  11 GROUP 4 **** **** 0

# MOE 2024.06 (io_trps.svl 2023.06)
