@<TRIPOS>MOLECULE
NONAME
44 46 1 0 0 
SMALL
USER_CHARGES


@<TRIPOS>ATOM
  1 S        0.0460    -0.4960     1.2500 S.o2  1 <1>   1.4470 
  2 O        0.4430    -1.2770     2.4020 O.2   1 <1>  -0.6500 
  3 O        0.4400     0.8940     1.1700 O.2   1 <1>  -0.6500 
  4 N        0.6990    -1.2670    -0.1100 N.am  1 <1>  -0.8490 
  5 C       -1.7440    -0.6350     0.9960 C.ar  1 <1>  -0.0090 
  6 C        2.1280    -0.9550    -0.2710 C.3   1 <1>   0.1960 
  7 C        0.5240    -2.7290    -0.0760 C.3   1 <1>   0.1960 
  8 C       -2.5900    -1.0450     2.0200 C.ar  1 <1>  -0.1500 
  9 C       -2.3230    -0.3280    -0.2300 C.ar  1 <1>  -0.1500 
 10 C        2.7160    -1.6630    -1.5060 C.3   1 <1>   0.1200 
 11 C        1.1420    -3.3870    -1.3230 C.3   1 <1>   0.1200 
 12 C       -3.9560    -1.1480     1.8270 C.ar  1 <1>  -0.1500 
 13 C       -3.6880    -0.4330    -0.4280 C.ar  1 <1>  -0.1500 
 14 O        2.4940    -3.0430    -1.4400 O.3   1 <1>  -0.5600 
 15 C       -4.5310    -0.8420     0.6000 C.ar  1 <1>   0.1170 
 16 N       -5.9190    -0.9700     0.4520 N.am  1 <1>  -0.5470 
 17 C       -6.7930    -0.4310    -0.4490 C.2   1 <1>   0.6900 
 18 O       -6.4320     0.3840    -1.2760 O.2   1 <1>  -0.5700 
 19 N       -8.1070    -0.8100    -0.3890 N.am  1 <1>  -0.6600 
 20 C       -8.6470    -1.9870     0.3270 C.3   1 <1>   0.1400 
 21 C       -9.1190    -0.2350    -1.3010 C.3   1 <1>   0.1400 
 22 C       -9.9660    -2.2950    -0.3720 C.3   1 <1>  -0.1600 
 23 C      -10.4150    -0.9570    -0.9540 C.3   1 <1>  -0.1600 
 24 H        2.6740    -1.2610     0.6070 H     1 <1>   0.0800 
 25 H        2.2550     0.1080    -0.3880 H     1 <1>   0.0800 
 26 H       -0.5250    -2.9680    -0.0380 H     1 <1>   0.0800 
 27 H        0.9940    -3.1430     0.8010 H     1 <1>   0.0800 
 28 H       -2.1710    -1.2860     2.9830 H     1 <1>   0.1500 
 29 H       -1.6950     0.0000    -1.0410 H     1 <1>   0.1500 
 30 H        3.7780    -1.5020    -1.5560 H     1 <1>   0.0800 
 31 H        2.2640    -1.2840    -2.4060 H     1 <1>   0.0800 
 32 H        0.6270    -3.0700    -2.2130 H     1 <1>   0.0800 
 33 H        1.0820    -4.4580    -1.2480 H     1 <1>   0.0800 
 34 H       -4.5810    -1.4660     2.6410 H     1 <1>   0.1500 
 35 H       -4.0950    -0.1920    -1.3940 H     1 <1>   0.1500 
 36 H       -6.3980    -1.4590     1.1980 H     1 <1>   0.3700 
 37 H       -8.8250    -1.7230     1.3550 H     1 <1>   0.0800 
 38 H       -7.9720    -2.8250     0.2680 H     1 <1>   0.0800 
 39 H       -8.8300    -0.4390    -2.3190 H     1 <1>   0.0800 
 40 H       -9.2000     0.8290    -1.1580 H     1 <1>   0.0800 
 41 H      -10.6910    -2.7130     0.3030 H     1 <1>   0.0800 
 42 H       -9.7850    -2.9950    -1.1690 H     1 <1>   0.0800 
 43 H      -11.0490    -1.0740    -1.8150 H     1 <1>   0.0800 
 44 H      -10.9410    -0.3890    -0.2060 H     1 <1>   0.0800 
@<TRIPOS>BOND
  1   1   2  2   
  2   1   3  2   
  3   1   4  am  
  4   1   5  1   
  5   4   6  1   
  6   4   7  1   
  7   5   8  ar  
  8   5   9  ar  
  9   6  10  1   
 10   6  24  1   
 11   6  25  1   
 12   7  11  1   
 13   7  26  1   
 14   7  27  1   
 15   8  12  ar  
 16   8  28  1   
 17   9  13  ar  
 18   9  29  1   
 19  10  14  1   
 20  10  30  1   
 21  10  31  1   
 22  11  14  1   
 23  11  32  1   
 24  11  33  1   
 25  12  15  ar  
 26  12  34  1   
 27  13  15  ar  
 28  13  35  1   
 29  15  16  1   
 30  16  17  am  
 31  16  36  1   
 32  17  18  2   
 33  17  19  am  
 34  19  20  1   
 35  19  21  1   
 36  20  22  1   
 37  20  37  1   
 38  20  38  1   
 39  21  23  1   
 40  21  39  1   
 41  21  40  1   
 42  22  23  1   
 43  22  41  1   
 44  22  42  1   
 45  23  43  1   
 46  23  44  1   
@<TRIPOS>SUBSTRUCTURE
  1 ****  13 GROUP 4 **** **** 0

# MOE 2024.06 (io_trps.svl 2023.06)
