@<TRIPOS>MOLECULE
NONAME
25 26 1 0 0 
SMALL
USER_CHARGES


@<TRIPOS>ATOM
  1 F       -0.7300     0.1980     1.3860 F     1 <1>  -0.1900 
  2 C       -1.6970     0.8750     0.8370 C.ar  1 <1>   0.5000 
  3 N       -2.6990     0.1750     0.3700 N.ar  1 <1>  -0.6200 
  4 C       -1.5920     2.2330     0.7930 C.ar  1 <1>  -0.1500 
  5 C       -3.6270     0.9340    -0.1680 C.ar  1 <1>   0.7200 
  6 C       -2.6420     2.9010     0.2050 C.ar  1 <1>   0.4100 
  7 N       -3.6810     2.2460    -0.2710 N.ar  1 <1>  -0.6200 
  8 N       -4.6820     0.2780    -0.6580 N.pl3 1 <1>  -0.9000 
  9 N       -2.6340     4.2770     0.1030 N.pl3 1 <1>  -0.8380 
 10 C       -1.5120     4.9480    -0.6180 C.3   1 <1>   0.2090 
 11 C       -3.9260     5.0100    -0.0760 C.3   1 <1>   0.2090 
 12 C       -1.4670     6.4510    -0.2850 C.3   1 <1>   0.1200 
 13 C       -3.7560     6.5110     0.2210 C.3   1 <1>   0.1200 
 14 O       -2.7050     7.0590    -0.5290 O.3   1 <1>  -0.5600 
 15 H       -0.7490     2.7510     1.2010 H     1 <1>   0.1500 
 16 H       -5.5210     0.8420    -0.7570 H     1 <1>   0.4000 
 17 H       -4.8060    -0.6610    -0.2890 H     1 <1>   0.4000 
 18 H       -1.6500     4.8270    -1.6780 H     1 <1>   0.0800 
 19 H       -0.5740     4.4980    -0.3490 H     1 <1>   0.0800 
 20 H       -4.6690     4.5980     0.5850 H     1 <1>   0.0800 
 21 H       -4.2720     4.8830    -1.0870 H     1 <1>   0.0800 
 22 H       -0.7340     6.9450    -0.8980 H     1 <1>   0.0800 
 23 H       -1.2100     6.5990     0.7490 H     1 <1>   0.0800 
 24 H       -3.5490     6.6630     1.2660 H     1 <1>   0.0800 
 25 H       -4.6540     7.0420    -0.0350 H     1 <1>   0.0800 
@<TRIPOS>BOND
  1   1   2  1   
  2   2   3  ar  
  3   2   4  ar  
  4   3   5  ar  
  5   4   6  ar  
  6   4  15  1   
  7   5   7  ar  
  8   5   8  1   
  9   6   7  ar  
 10   6   9  1   
 11   8  16  1   
 12   8  17  1   
 13   9  10  1   
 14   9  11  1   
 15  10  12  1   
 16  10  18  1   
 17  10  19  1   
 18  11  13  1   
 19  11  20  1   
 20  11  21  1   
 21  12  14  1   
 22  12  22  1   
 23  12  23  1   
 24  13  14  1   
 25  13  24  1   
 26  13  25  1   
@<TRIPOS>SUBSTRUCTURE
  1 ****   6 GROUP 4 **** **** 0

# MOE 2024.06 (io_trps.svl 2023.06)
