@<TRIPOS>MOLECULE
NONAME
43 45 1 0 0 
SMALL
USER_CHARGES


@<TRIPOS>ATOM
  1 N       -0.9540     0.6430     1.9930 N.2   1 <1>  -0.5030 
  2 N       -1.1160    -0.6120     1.4830 N.pl3 1 <1>  -0.4870 
  3 C       -1.3010     1.4940     1.1340 C.2   1 <1>   0.3280 
  4 C       -1.4910    -0.5720     0.0440 C.3   1 <1>   0.3340 
  5 C       -0.3940    -1.7690     2.0750 C.3   1 <1>   0.2910 
  6 C       -1.7580     0.9150    -0.1810 C.3   1 <1>  -0.0990 
  7 C       -1.2880     2.9940     1.3200 C.3   1 <1>  -0.1790 
  8 C       -2.7110    -1.4400    -0.2560 C.ar  1 <1>  -0.1440 
  9 C        0.5050    -2.4540     1.0570 C.2   1 <1>  -0.1810 
 10 C       -2.7270    -2.2320    -1.3950 C.ar  1 <1>  -0.1500 
 11 C       -3.8090    -1.4550     0.5920 C.ar  1 <1>  -0.1500 
 12 C        0.2500    -3.6190     0.3370 C.2   1 <1>   0.1080 
 13 C        1.7260    -2.0580     0.6370 C.2   1 <1>  -0.3020 
 14 C       -3.8250    -3.0240    -1.6840 C.ar  1 <1>  -0.1500 
 15 C       -4.9080    -2.2460     0.3050 C.ar  1 <1>  -0.1500 
 16 N        1.2230    -3.9190    -0.4640 N.2   1 <1>  -0.7070 
 17 C       -0.9880    -4.4840     0.4320 C.3   1 <1>  -0.0590 
 18 N        2.1400    -2.9530    -0.2780 N.pl3 1 <1>   0.3140 
 19 C       -4.9170    -3.0310    -0.8340 C.ar  1 <1>  -0.1500 
 20 C        3.4190    -2.9350    -1.0130 C.3   1 <1>   0.0960 
 21 C        3.3800    -1.9250    -2.1670 C.3   1 <1>  -0.2400 
 22 H       -0.6510    -0.8780    -0.5530 H     1 <1>   0.0800 
 23 H       -1.1140    -2.4640     2.4650 H     1 <1>   0.0800 
 24 H        0.2050    -1.4170     2.8950 H     1 <1>   0.0800 
 25 H       -1.1760     1.2860    -1.0030 H     1 <1>   0.0800 
 26 H       -2.8010     1.1110    -0.3420 H     1 <1>   0.0800 
 27 H       -2.2800     3.3850     1.1950 H     1 <1>   0.0800 
 28 H       -0.6310     3.4460     0.6010 H     1 <1>   0.0800 
 29 H       -0.9420     3.2320     2.3090 H     1 <1>   0.0800 
 30 H       -1.8800    -2.2410    -2.0600 H     1 <1>   0.1500 
 31 H       -3.8050    -0.8480     1.4820 H     1 <1>   0.1500 
 32 H        2.3030    -1.2020     0.9340 H     1 <1>   0.1500 
 33 H       -3.8280    -3.6360    -2.5690 H     1 <1>   0.1500 
 34 H       -5.7540    -2.2500     0.9700 H     1 <1>   0.1500 
 35 H       -1.8150    -3.9340     0.8410 H     1 <1>   0.0800 
 36 H       -0.7840    -5.3330     1.0560 H     1 <1>   0.0800 
 37 H       -1.2590    -4.8300    -0.5480 H     1 <1>   0.0800 
 38 H       -5.7700    -3.6470    -1.0580 H     1 <1>   0.1500 
 39 H        3.5980    -3.9240    -1.3960 H     1 <1>   0.0800 
 40 H        4.2040    -2.6870    -0.3230 H     1 <1>   0.0800 
 41 H        2.5940    -2.1850    -2.8550 H     1 <1>   0.0800 
 42 H        4.3160    -1.9390    -2.6960 H     1 <1>   0.0800 
 43 H        3.2110    -0.9320    -1.7910 H     1 <1>   0.0800 
@<TRIPOS>BOND
  1   1   2  1   
  2   1   3  2   
  3   2   4  1   
  4   2   5  1   
  5   3   6  1   
  6   3   7  1   
  7   4   6  1   
  8   4   8  1   
  9   4  22  1   
 10   5   9  1   
 11   5  23  1   
 12   5  24  1   
 13   6  25  1   
 14   6  26  1   
 15   7  27  1   
 16   7  28  1   
 17   7  29  1   
 18   8  10  ar  
 19   8  11  ar  
 20   9  12  1   
 21   9  13  2   
 22  10  14  ar  
 23  10  30  1   
 24  11  15  ar  
 25  11  31  1   
 26  12  16  2   
 27  12  17  1   
 28  13  18  1   
 29  13  32  1   
 30  14  19  ar  
 31  14  33  1   
 32  15  19  ar  
 33  15  34  1   
 34  16  18  1   
 35  17  35  1   
 36  17  36  1   
 37  17  37  1   
 38  18  20  1   
 39  19  38  1   
 40  20  21  1   
 41  20  39  1   
 42  20  40  1   
 43  21  41  1   
 44  21  42  1   
 45  21  43  1   
@<TRIPOS>SUBSTRUCTURE
  1 ****   4 GROUP 4 **** **** 0

# MOE 2024.06 (io_trps.svl 2023.06)
