@<TRIPOS>MOLECULE
NONAME
54 56 1 0 0 
SMALL
USER_CHARGES


@<TRIPOS>ATOM
  1 O        0.9430    -0.6220    -0.8000 O.2   1 <1>  -0.5700 
  2 C        0.7670    -1.5590    -0.0580 C.2   1 <1>   0.5690 
  3 N        1.1960    -1.5110     1.2330 N.am  1 <1>  -0.7300 
  4 C        0.0550    -2.8220    -0.5920 C.3   1 <1>   0.0610 
  5 C        1.8730    -0.3500     1.8620 C.3   1 <1>   0.1400 
  6 C       -0.0130    -3.9550     0.4650 C.3   1 <1>  -0.1600 
  7 C       -1.3930    -2.4740    -1.0110 C.3   1 <1>  -0.1600 
  8 C        0.8050    -3.3710    -1.8290 C.3   1 <1>  -0.1600 
  9 C        3.3470    -0.3140     1.4600 C.3   1 <1>   0.1200 
 10 C       -0.7270    -5.2190    -0.0740 C.3   1 <1>   0.0610 
 11 C       -2.1140    -3.7090    -1.5780 C.3   1 <1>  -0.0800 
 12 C        0.0940    -4.6100    -2.4010 C.3   1 <1>  -0.0800 
 13 O        3.9930     0.6510     2.2300 O.3   1 <1>  -0.5600 
 14 C       -0.7800    -6.3300     0.9960 C.2   1 <1>   0.5690 
 15 C       -2.1580    -4.8110    -0.5040 C.3   1 <1>  -0.1600 
 16 C        0.0440    -5.7090    -1.3240 C.3   1 <1>  -0.1600 
 17 C       -1.3420    -4.2280    -2.8040 C.3   1 <1>  -0.1600 
 18 C        5.3300     0.8330     1.8930 C.3   1 <1>   0.0400 
 19 O       -0.2870    -6.1560     2.0870 O.2   1 <1>  -0.5700 
 20 N       -1.3990    -7.4980     0.6900 N.am  1 <1>  -0.7300 
 21 C       -1.6480    -8.6320     1.6040 C.3   1 <1>   0.1400 
 22 C       -3.1210    -9.0440     1.5150 C.3   1 <1>   0.1200 
 23 O       -3.4940    -9.1580     0.1710 O.3   1 <1>  -0.5600 
 24 C       -4.8250    -9.5130    -0.0150 C.3   1 <1>   0.0400 
 25 H        1.0520    -2.3240     1.8350 H     1 <1>   0.3700 
 26 H        1.7900    -0.4280     2.9320 H     1 <1>   0.0800 
 27 H        1.3960     0.5600     1.5380 H     1 <1>   0.0800 
 28 H        0.9840    -4.2230     0.7700 H     1 <1>   0.0800 
 29 H       -0.5410    -3.6060     1.3350 H     1 <1>   0.0800 
 30 H       -1.3750    -1.6960    -1.7550 H     1 <1>   0.0800 
 31 H       -1.9340    -2.0930    -0.1620 H     1 <1>   0.0800 
 32 H        1.8160    -3.6230    -1.5590 H     1 <1>   0.0800 
 33 H        0.8570    -2.6080    -2.5880 H     1 <1>   0.0800 
 34 H        3.4360    -0.0510     0.4200 H     1 <1>   0.0800 
 35 H        3.8110    -1.2660     1.6500 H     1 <1>   0.0800 
 36 H       -3.1170    -3.4430    -1.8670 H     1 <1>   0.0800 
 37 H        0.6300    -4.9700    -3.2630 H     1 <1>   0.0800 
 38 H       -2.7060    -4.4600     0.3530 H     1 <1>   0.0800 
 39 H       -2.6860    -5.6630    -0.8960 H     1 <1>   0.0800 
 40 H       -0.4320    -6.5830    -1.7340 H     1 <1>   0.0800 
 41 H        1.0450    -5.9890    -1.0440 H     1 <1>   0.0800 
 42 H       -1.3150    -3.4670    -3.5650 H     1 <1>   0.0800 
 43 H       -1.8450    -5.0840    -3.2190 H     1 <1>   0.0800 
 44 H        5.7390     1.5870     2.5420 H     1 <1>   0.0800 
 45 H        5.3960     1.1620     0.8700 H     1 <1>   0.0800 
 46 H        5.8610    -0.0930     2.0300 H     1 <1>   0.0800 
 47 H       -1.8840    -7.6110    -0.2060 H     1 <1>   0.3700 
 48 H       -1.4020    -8.3580     2.6160 H     1 <1>   0.0800 
 49 H       -1.0260    -9.4610     1.3170 H     1 <1>   0.0800 
 50 H       -3.7370    -8.2940     1.9820 H     1 <1>   0.0800 
 51 H       -3.2730    -9.9910     2.0040 H     1 <1>   0.0800 
 52 H       -5.0110    -9.5760    -1.0730 H     1 <1>   0.0800 
 53 H       -5.4590    -8.7590     0.4200 H     1 <1>   0.0800 
 54 H       -5.0060   -10.4710     0.4420 H     1 <1>   0.0800 
@<TRIPOS>BOND
  1   1   2  2   
  2   2   3  am  
  3   2   4  1   
  4   3   5  1   
  5   3  25  1   
  6   4   6  1   
  7   4   7  1   
  8   4   8  1   
  9   5   9  1   
 10   5  26  1   
 11   5  27  1   
 12   6  10  1   
 13   6  28  1   
 14   6  29  1   
 15   7  11  1   
 16   7  30  1   
 17   7  31  1   
 18   8  12  1   
 19   8  32  1   
 20   8  33  1   
 21   9  13  1   
 22   9  34  1   
 23   9  35  1   
 24  10  14  1   
 25  10  15  1   
 26  10  16  1   
 27  11  15  1   
 28  11  17  1   
 29  11  36  1   
 30  12  16  1   
 31  12  17  1   
 32  12  37  1   
 33  13  18  1   
 34  14  19  2   
 35  14  20  am  
 36  15  38  1   
 37  15  39  1   
 38  16  40  1   
 39  16  41  1   
 40  17  42  1   
 41  17  43  1   
 42  18  44  1   
 43  18  45  1   
 44  18  46  1   
 45  20  21  1   
 46  20  47  1   
 47  21  22  1   
 48  21  48  1   
 49  21  49  1   
 50  22  23  1   
 51  22  50  1   
 52  22  51  1   
 53  23  24  1   
 54  24  52  1   
 55  24  53  1   
 56  24  54  1   
@<TRIPOS>SUBSTRUCTURE
  1 ****   6 GROUP 4 **** **** 0

# MOE 2024.06 (io_trps.svl 2023.06)
