@<TRIPOS>MOLECULE
NONAME
43 43 1 0 0 
SMALL
USER_CHARGES


@<TRIPOS>ATOM
  1 O       -0.2570     0.6290     0.4790 O.2   1 <1>  -0.5700 
  2 C       -1.2160     1.3660     0.4530 C.2   1 <1>   0.4950 
  3 C       -1.1470     2.7410     0.0400 C.2   1 <1>   0.0290 
  4 C       -2.5590     0.7910     0.8780 C.3   1 <1>   0.0420 
  5 C       -2.3320     3.2570    -0.5970 C.2   1 <1>   0.4950 
  6 C       -0.0180     3.5320     0.2210 C.2   1 <1>  -0.0380 
  7 C       -2.4570    -0.6770     1.2670 C.2   1 <1>   0.6590 
  8 C       -3.6680     1.1290    -0.1500 C.3   1 <1>   0.0000 
  9 O       -2.3630     4.1850    -1.3750 O.2   1 <1>  -0.5700 
 10 C       -3.6960     2.6590    -0.2850 C.3   1 <1>  -0.0990 
 11 N        0.0890     4.7730    -0.3170 N.pl3 1 <1>  -0.8690 
 12 C        1.1840     3.0880     1.0540 C.3   1 <1>  -0.1020 
 13 O       -2.6710    -1.0190     2.4020 O.2   1 <1>  -0.5700 
 14 O       -2.1600    -1.5610     0.3200 O.3   1 <1>  -0.4300 
 15 C       -5.0430     0.6510     0.3510 C.3   1 <1>  -0.2400 
 16 C       -3.4210     0.5120    -1.5440 C.3   1 <1>  -0.2400 
 17 C        1.1910     5.7440    -0.3270 C.3   1 <1>   0.2890 
 18 C       -2.0100    -2.9350     0.6030 C.3   1 <1>   0.0400 
 19 C        0.8420     6.8600     0.6480 C.3   1 <1>  -0.2400 
 20 C        1.3250     6.2680    -1.7500 C.3   1 <1>  -0.2400 
 21 H       -2.8080     1.3000     1.7910 H     1 <1>   0.0800 
 22 H       -4.0440     3.1070     0.6280 H     1 <1>   0.0800 
 23 H       -4.3890     2.9430    -1.0580 H     1 <1>   0.0800 
 24 H       -0.7080     5.1000    -0.8940 H     1 <1>   0.4000 
 25 H        1.5590     3.9040     1.6420 H     1 <1>   0.0800 
 26 H        1.9640     2.7350     0.4040 H     1 <1>   0.0800 
 27 H        0.9360     2.3100     1.7510 H     1 <1>   0.0800 
 28 H       -5.2620     1.0560     1.3240 H     1 <1>   0.0800 
 29 H       -5.0770    -0.4230     0.4210 H     1 <1>   0.0800 
 30 H       -5.8210     0.9620    -0.3250 H     1 <1>   0.0800 
 31 H       -4.1410     0.8820    -2.2520 H     1 <1>   0.0800 
 32 H       -3.5220    -0.5580    -1.5210 H     1 <1>   0.0800 
 33 H       -2.4400     0.7450    -1.9190 H     1 <1>   0.0800 
 34 H        2.1150     5.2730    -0.0360 H     1 <1>   0.0800 
 35 H       -2.9340    -3.3120     1.0060 H     1 <1>   0.0800 
 36 H       -1.2150    -3.0550     1.3190 H     1 <1>   0.0800 
 37 H       -1.7650    -3.4470    -0.3100 H     1 <1>   0.0800 
 38 H       -0.0760     7.3390     0.3590 H     1 <1>   0.0800 
 39 H        1.6260     7.5950     0.6620 H     1 <1>   0.0800 
 40 H        0.7330     6.4570     1.6380 H     1 <1>   0.0800 
 41 H        0.4160     6.7490    -2.0650 H     1 <1>   0.0800 
 42 H        1.5450     5.4550    -2.4170 H     1 <1>   0.0800 
 43 H        2.1280     6.9800    -1.8040 H     1 <1>   0.0800 
@<TRIPOS>BOND
  1   1   2  2   
  2   2   3  1   
  3   2   4  1   
  4   3   5  1   
  5   3   6  2   
  6   4   7  1   
  7   4   8  1   
  8   4  21  1   
  9   5   9  2   
 10   5  10  1   
 11   6  11  1   
 12   6  12  1   
 13   7  13  2   
 14   7  14  1   
 15   8  10  1   
 16   8  15  1   
 17   8  16  1   
 18  10  22  1   
 19  10  23  1   
 20  11  17  1   
 21  11  24  1   
 22  12  25  1   
 23  12  26  1   
 24  12  27  1   
 25  14  18  1   
 26  15  28  1   
 27  15  29  1   
 28  15  30  1   
 29  16  31  1   
 30  16  32  1   
 31  16  33  1   
 32  17  19  1   
 33  17  20  1   
 34  17  34  1   
 35  18  35  1   
 36  18  36  1   
 37  18  37  1   
 38  19  38  1   
 39  19  39  1   
 40  19  40  1   
 41  20  41  1   
 42  20  42  1   
 43  20  43  1   
@<TRIPOS>SUBSTRUCTURE
  1 ****   3 GROUP 4 **** **** 0

# MOE 2024.06 (io_trps.svl 2023.06)
