@<TRIPOS>MOLECULE
NONAME
44 45 1 0 0 
SMALL
USER_CHARGES


@<TRIPOS>ATOM
  1 CL       0.7000    -0.2080    -2.2840 Cl    1 <1>  -0.1770 
  2 C        1.9110     0.6720    -1.3890 C.ar  1 <1>   0.1770 
  3 C        2.0700     0.4230    -0.0390 C.ar  1 <1>  -0.1500 
  4 C        2.6930     1.6040    -2.0420 C.ar  1 <1>  -0.1500 
  5 C        3.0350     1.1200     0.6700 C.ar  1 <1>  -0.1500 
  6 C        3.6570     2.3000    -1.3310 C.ar  1 <1>  -0.1500 
  7 C        3.8360     2.0560     0.0270 C.ar  1 <1>  -0.1430 
  8 C        4.9000     2.8100     0.8050 C.3   1 <1>   0.4870 
  9 N        6.2410     2.2870     0.4220 N.4   1 <1>  -0.9590 
 10 C        6.4070     0.8500     0.7870 C.3   1 <1>   0.3430 
 11 C        7.3350     3.1350     0.9690 C.3   1 <1>   0.3430 
 12 C        7.7210     0.3310     0.2100 C.3   1 <1>  -0.1600 
 13 C        8.6710     2.6700     0.3950 C.3   1 <1>  -0.1600 
 14 C        8.9330     1.1730     0.6530 C.3   1 <1>  -0.0190 
 15 C       10.1970     0.7180    -0.0740 C.2   1 <1>   0.5690 
 16 O       10.2180     0.8200    -1.2760 O.2   1 <1>  -0.5700 
 17 N       11.2320     0.2230     0.6580 N.am  1 <1>  -0.7300 
 18 C       12.5340    -0.2710     0.1640 C.3   1 <1>   0.2200 
 19 C       13.2950     0.8530    -0.5340 C.3   1 <1>  -0.2400 
 20 C       12.3280    -1.4800    -0.7460 C.3   1 <1>  -0.2400 
 21 H        1.4410    -0.3050     0.4430 H     1 <1>   0.1500 
 22 H        2.5410     1.7800    -3.0930 H     1 <1>   0.1500 
 23 H        3.1460     0.9220     1.7230 H     1 <1>   0.1500 
 24 H        4.2540     3.0300    -1.8510 H     1 <1>   0.1500 
 25 H        4.7400     2.6870     1.8630 H     1 <1>   0.0800 
 26 H        4.8310     3.8590     0.5690 H     1 <1>   0.0800 
 27 H        6.2910     2.3300    -0.6050 H     1 <1>   0.4500 
 28 H        5.5910     0.2680     0.3870 H     1 <1>   0.0800 
 29 H        6.4100     0.7400     1.8590 H     1 <1>   0.0800 
 30 H        7.3560     3.0580     2.0450 H     1 <1>   0.0800 
 31 H        7.1740     4.1680     0.7040 H     1 <1>   0.0800 
 32 H        7.6510     0.3260    -0.8650 H     1 <1>   0.0800 
 33 H        7.8640    -0.6900     0.5200 H     1 <1>   0.0800 
 34 H        9.4650     3.2500     0.8320 H     1 <1>   0.0800 
 35 H        8.6830     2.8670    -0.6640 H     1 <1>   0.0800 
 36 H        9.0780     1.0310     1.7100 H     1 <1>   0.0800 
 37 H       11.1430     0.1630     1.6710 H     1 <1>   0.3700 
 38 H       13.1130    -0.5890     1.0160 H     1 <1>   0.0800 
 39 H       12.7840     1.1660    -1.4260 H     1 <1>   0.0800 
 40 H       14.2740     0.5090    -0.8150 H     1 <1>   0.0800 
 41 H       13.4080     1.6930     0.1250 H     1 <1>   0.0800 
 42 H       11.8010    -1.2010    -1.6410 H     1 <1>   0.0800 
 43 H       11.7760    -2.2450    -0.2320 H     1 <1>   0.0800 
 44 H       13.2820    -1.8850    -1.0330 H     1 <1>   0.0800 
@<TRIPOS>BOND
  1   1   2  1   
  2   2   3  ar  
  3   2   4  ar  
  4   3   5  ar  
  5   3  21  1   
  6   4   6  ar  
  7   4  22  1   
  8   5   7  ar  
  9   5  23  1   
 10   6   7  ar  
 11   6  24  1   
 12   7   8  1   
 13   8   9  1   
 14   8  25  1   
 15   8  26  1   
 16   9  10  1   
 17   9  11  1   
 18   9  27  1   
 19  10  12  1   
 20  10  28  1   
 21  10  29  1   
 22  11  13  1   
 23  11  30  1   
 24  11  31  1   
 25  12  14  1   
 26  12  32  1   
 27  12  33  1   
 28  13  14  1   
 29  13  34  1   
 30  13  35  1   
 31  14  15  1   
 32  14  36  1   
 33  15  16  2   
 34  15  17  am  
 35  17  18  1   
 36  17  37  1   
 37  18  19  1   
 38  18  20  1   
 39  18  38  1   
 40  19  39  1   
 41  19  40  1   
 42  19  41  1   
 43  20  42  1   
 44  20  43  1   
 45  20  44  1   
@<TRIPOS>SUBSTRUCTURE
  1 ****  10 GROUP 4 **** **** 0

# MOE 2024.06 (io_trps.svl 2023.06)
