@<TRIPOS>MOLECULE
NONAME
42 44 1 0 0 
SMALL
USER_CHARGES


@<TRIPOS>ATOM
  1 O        0.1880    -0.2800     0.3460 O.2   1 <1>  -0.5700 
  2 C        0.2040    -1.4910     0.4340 C.2   1 <1>   0.7800 
  3 O       -0.8890    -2.1970     0.1510 O.3   1 <1>  -0.4300 
  4 N        1.3330    -2.1820     0.7930 N.am  1 <1>  -0.6600 
  5 C       -2.0910    -1.5540    -0.2110 C.3   1 <1>   0.1200 
  6 C        1.4280    -3.6700     0.7580 C.3   1 <1>   0.1400 
  7 C        2.6120    -1.4760     1.0970 C.3   1 <1>   0.1400 
  8 C       -3.1430    -2.6280    -0.4700 C.3   1 <1>  -0.2400 
  9 C        2.5410    -4.1100    -0.2130 C.3   1 <1>   0.3430 
 10 C        3.7150    -1.9280     0.1250 C.3   1 <1>   0.3430 
 11 N        3.8550    -3.4320     0.0780 N.4   1 <1>  -0.9590 
 12 C        4.9100    -3.8500    -0.8840 C.3   1 <1>   0.4860 
 13 C        6.2450    -3.3380    -0.3820 C.ar  1 <1>  -0.1440 
 14 C        6.8120    -2.2040    -0.9600 C.ar  1 <1>  -0.1500 
 15 C        6.9040    -3.9950     0.6600 C.ar  1 <1>  -0.1500 
 16 C        8.0170    -1.7540    -0.4610 C.ar  1 <1>   0.0820 
 17 C        8.1190    -3.5250     1.1430 C.ar  1 <1>  -0.1500 
 18 O        8.7250    -0.6920    -0.8530 O.3   1 <1>  -0.3630 
 19 C        8.6520    -2.3930     0.5610 C.ar  1 <1>   0.0820 
 20 C        9.9010    -0.6630    -0.0420 C.3   1 <1>   0.4000 
 21 O        9.7930    -1.7640     0.8580 O.3   1 <1>  -0.3630 
 22 H       -1.9130    -0.9660    -1.0960 H     1 <1>   0.0800 
 23 H       -2.3900    -0.9080     0.5970 H     1 <1>   0.0800 
 24 H        0.4960    -4.1080     0.4450 H     1 <1>   0.0800 
 25 H        1.6390    -4.0340     1.7490 H     1 <1>   0.0800 
 26 H        2.9050    -1.6890     2.1110 H     1 <1>   0.0800 
 27 H        2.4870    -0.4090     1.0160 H     1 <1>   0.0800 
 28 H       -2.8300    -3.2710    -1.2730 H     1 <1>   0.0800 
 29 H       -4.0720    -2.1630    -0.7470 H     1 <1>   0.0800 
 30 H       -3.3060    -3.2110     0.4190 H     1 <1>   0.0800 
 31 H        2.2250    -3.8700    -1.2150 H     1 <1>   0.0800 
 32 H        2.6570    -5.1800    -0.1510 H     1 <1>   0.0800 
 33 H        4.6490    -1.4800     0.4260 H     1 <1>   0.0800 
 34 H        3.4740    -1.5540    -0.8570 H     1 <1>   0.0800 
 35 H        4.1770    -3.7250     1.0090 H     1 <1>   0.4500 
 36 H        4.7050    -3.4500    -1.8640 H     1 <1>   0.0800 
 37 H        4.9470    -4.9250    -0.9540 H     1 <1>   0.0800 
 38 H        6.3540    -1.6710    -1.7740 H     1 <1>   0.1500 
 39 H        6.4870    -4.8820     1.1070 H     1 <1>   0.1500 
 40 H        8.6450    -4.0160     1.9440 H     1 <1>   0.1500 
 41 H        9.9350     0.2570     0.5140 H     1 <1>   0.0800 
 42 H       10.7710    -0.7870    -0.6620 H     1 <1>   0.0800 
@<TRIPOS>BOND
  1   1   2  2   
  2   2   3  1   
  3   2   4  am  
  4   3   5  1   
  5   4   6  1   
  6   4   7  1   
  7   5   8  1   
  8   5  22  1   
  9   5  23  1   
 10   6   9  1   
 11   6  24  1   
 12   6  25  1   
 13   7  10  1   
 14   7  26  1   
 15   7  27  1   
 16   8  28  1   
 17   8  29  1   
 18   8  30  1   
 19   9  11  1   
 20   9  31  1   
 21   9  32  1   
 22  10  11  1   
 23  10  33  1   
 24  10  34  1   
 25  11  12  1   
 26  11  35  1   
 27  12  13  1   
 28  12  36  1   
 29  12  37  1   
 30  13  14  ar  
 31  13  15  ar  
 32  14  16  ar  
 33  14  38  1   
 34  15  17  ar  
 35  15  39  1   
 36  16  18  1   
 37  16  19  ar  
 38  17  19  ar  
 39  17  40  1   
 40  18  20  1   
 41  19  21  1   
 42  20  21  1   
 43  20  41  1   
 44  20  42  1   
@<TRIPOS>SUBSTRUCTURE
  1 ****  10 GROUP 4 **** **** 0

# MOE 2024.06 (io_trps.svl 2023.06)
