@<TRIPOS>MOLECULE
NONAME
55 58 1 0 0 
SMALL
USER_CHARGES


@<TRIPOS>ATOM
  1 O       -3.9280     3.3110    -2.3620 O.3   1 <1>  -0.6800 
  2 C       -4.0800     2.0040    -1.8700 C.3   1 <1>   0.2000 
  3 C       -5.1700     1.9590    -0.7600 C.3   1 <1>   0.0000 
  4 C       -2.6860     1.4430    -1.4410 C.3   1 <1>   0.4230 
  5 C       -5.4390     0.4860    -0.3490 C.3   1 <1>  -0.1600 
  6 C       -6.5040     2.5470    -1.2970 C.3   1 <1>  -0.1600 
  7 C       -4.7690     2.7460     0.5140 C.3   1 <1>  -0.1600 
  8 N       -1.6640     2.5160    -1.4220 N.4   1 <1>  -0.9060 
  9 C       -2.1860     0.3910    -2.4270 C.3   1 <1>  -0.2400 
 10 C       -6.5440     0.4000     0.7200 C.3   1 <1>  -0.0800 
 11 C       -7.6150     2.4680    -0.2360 C.3   1 <1>  -0.0800 
 12 C       -5.8780     2.6750     1.5790 C.3   1 <1>  -0.0800 
 13 C       -1.3560     3.1060    -0.1120 C.3   1 <1>   0.4230 
 14 C       -7.8430     0.9980     0.1540 C.3   1 <1>  -0.1600 
 15 C       -6.1160     1.2030     1.9610 C.3   1 <1>  -0.1600 
 16 C       -7.1790     3.2650     1.0070 C.3   1 <1>  -0.1600 
 17 C       -0.4950     4.3510    -0.3400 C.3   1 <1>  -0.1600 
 18 C       -0.6300     2.0860     0.7760 C.3   1 <1>  -0.1600 
 19 C       -0.0860     4.9900     0.9950 C.3   1 <1>  -0.1600 
 20 C       -0.2190     2.7180     2.1140 C.3   1 <1>  -0.1600 
 21 C        0.6300     3.9770     1.8970 C.3   1 <1>  -0.1600 
 22 H       -4.8050     3.6670    -2.6260 H     1 <1>   0.4000 
 23 H       -4.4470     1.4130    -2.6930 H     1 <1>   0.0800 
 24 H       -2.7680     0.9840    -0.4700 H     1 <1>   0.0800 
 25 H       -4.5530     0.0270     0.0500 H     1 <1>   0.0800 
 26 H       -5.7430    -0.0870    -1.2080 H     1 <1>   0.0800 
 27 H       -6.8200     2.0100    -2.1750 H     1 <1>   0.0800 
 28 H       -6.3820     3.5800    -1.5710 H     1 <1>   0.0800 
 29 H       -3.8780     2.3330     0.9460 H     1 <1>   0.0800 
 30 H       -4.5810     3.7780     0.2690 H     1 <1>   0.0800 
 31 H       -2.1020     3.2570    -1.9990 H     1 <1>   0.4500 
 32 H       -0.8100     2.2170    -1.8950 H     1 <1>   0.4500 
 33 H       -2.0960     0.8020    -3.4180 H     1 <1>   0.0800 
 34 H       -2.8830    -0.4280    -2.4660 H     1 <1>   0.0800 
 35 H       -1.2370    -0.0040    -2.1120 H     1 <1>   0.0800 
 36 H       -6.7110    -0.6290     0.9930 H     1 <1>   0.0800 
 37 H       -8.5280     2.8830    -0.6300 H     1 <1>   0.0800 
 38 H       -5.5850     3.2330     2.4530 H     1 <1>   0.0800 
 39 H       -2.2660     3.4150     0.3730 H     1 <1>   0.0800 
 40 H       -8.1630     0.4360    -0.7060 H     1 <1>   0.0800 
 41 H       -8.6250     0.9340     0.8910 H     1 <1>   0.0800 
 42 H       -5.2200     0.7810     2.3820 H     1 <1>   0.0800 
 43 H       -6.8840     1.1440     2.7130 H     1 <1>   0.0800 
 44 H       -7.9550     3.2260     1.7520 H     1 <1>   0.0800 
 45 H       -7.0310     4.2990     0.7470 H     1 <1>   0.0800 
 46 H       -1.0460     5.0750    -0.9140 H     1 <1>   0.0800 
 47 H        0.3970     4.0880    -0.8820 H     1 <1>   0.0800 
 48 H        0.2550     1.7310     0.2780 H     1 <1>   0.0800 
 49 H       -1.2670     1.2450     0.9850 H     1 <1>   0.0800 
 50 H       -0.9600     5.3630     1.5020 H     1 <1>   0.0800 
 51 H        0.5650     5.8280     0.8110 H     1 <1>   0.0800 
 52 H        0.3430     2.0050     2.6950 H     1 <1>   0.0800 
 53 H       -1.0990     2.9760     2.6800 H     1 <1>   0.0800 
 54 H        0.8450     4.4340     2.8490 H     1 <1>   0.0800 
 55 H        1.5720     3.7030     1.4510 H     1 <1>   0.0800 
@<TRIPOS>BOND
  1   1   2  1   
  2   1  22  1   
  3   2   3  1   
  4   2   4  1   
  5   2  23  1   
  6   3   5  1   
  7   3   6  1   
  8   3   7  1   
  9   4   8  1   
 10   4   9  1   
 11   4  24  1   
 12   5  10  1   
 13   5  25  1   
 14   5  26  1   
 15   6  11  1   
 16   6  27  1   
 17   6  28  1   
 18   7  12  1   
 19   7  29  1   
 20   7  30  1   
 21   8  13  1   
 22   8  31  1   
 23   8  32  1   
 24   9  33  1   
 25   9  34  1   
 26   9  35  1   
 27  10  14  1   
 28  10  15  1   
 29  10  36  1   
 30  11  14  1   
 31  11  16  1   
 32  11  37  1   
 33  12  15  1   
 34  12  16  1   
 35  12  38  1   
 36  13  17  1   
 37  13  18  1   
 38  13  39  1   
 39  14  40  1   
 40  14  41  1   
 41  15  42  1   
 42  15  43  1   
 43  16  44  1   
 44  16  45  1   
 45  17  19  1   
 46  17  46  1   
 47  17  47  1   
 48  18  20  1   
 49  18  48  1   
 50  18  49  1   
 51  19  21  1   
 52  19  50  1   
 53  19  51  1   
 54  20  21  1   
 55  20  52  1   
 56  20  53  1   
 57  21  54  1   
 58  21  55  1   
@<TRIPOS>SUBSTRUCTURE
  1 ****   7 GROUP 4 **** **** 0

# MOE 2024.06 (io_trps.svl 2023.06)
