@<TRIPOS>MOLECULE
NONAME
38 40 1 0 0 
SMALL
USER_CHARGES


@<TRIPOS>ATOM
  1 CL      -1.6490     0.5330     0.9730 Cl    1 <1>  -0.1770 
  2 C       -0.9660     2.0020     0.3190 C.ar  1 <1>   0.1770 
  3 C       -1.7000     2.7450    -0.5910 C.ar  1 <1>  -0.1440 
  4 C        0.2920     2.3990     0.7350 C.ar  1 <1>  -0.1500 
  5 C       -1.1360     3.9150    -1.0710 C.ar  1 <1>   0.1770 
  6 C       -3.0670     2.2830    -1.0490 C.3   1 <1>   0.4870 
  7 C        0.8390     3.5710     0.2380 C.ar  1 <1>  -0.1500 
  8 CL      -2.0310     4.9030    -2.1970 Cl    1 <1>  -0.1770 
  9 C        0.1210     4.3330    -0.6690 C.ar  1 <1>  -0.1500 
 10 N       -4.0540     2.4940     0.0430 N.4   1 <1>  -0.9590 
 11 C       -5.3590     1.7940    -0.2620 C.3   1 <1>   0.3430 
 12 C       -4.2650     3.9700     0.3230 C.3   1 <1>   0.3430 
 13 C       -6.4430     2.0550     0.8060 C.3   1 <1>   0.2090 
 14 C       -5.3460     4.2170     1.3940 C.3   1 <1>   0.2090 
 15 N       -6.6070     3.5230     1.0010 N.pl3 1 <1>  -0.8380 
 16 C       -7.5630     4.1840     0.2640 C.ar  1 <1>   0.7200 
 17 N       -7.1740     5.2850    -0.3750 N.ar  1 <1>  -0.6200 
 18 N       -8.7700     3.6310     0.2280 N.ar  1 <1>  -0.6200 
 19 C       -8.1030     5.9040    -1.0650 C.ar  1 <1>   0.1600 
 20 C       -9.6770     4.2720    -0.4680 C.ar  1 <1>   0.1600 
 21 C       -9.3910     5.4340    -1.1430 C.ar  1 <1>  -0.1500 
 22 H        0.8410     1.7980     1.4410 H     1 <1>   0.1500 
 23 H       -3.0150     1.2350    -1.2970 H     1 <1>   0.0800 
 24 H       -3.3720     2.8210    -1.9320 H     1 <1>   0.0800 
 25 H        1.8200     3.8880     0.5540 H     1 <1>   0.1500 
 26 H        0.5350     5.2470    -1.0630 H     1 <1>   0.1500 
 27 H       -3.6610     2.0670     0.8930 H     1 <1>   0.4500 
 28 H       -5.1970     0.7320    -0.3420 H     1 <1>   0.0800 
 29 H       -5.7410     2.1430    -1.2070 H     1 <1>   0.0800 
 30 H       -4.5780     4.4690    -0.5800 H     1 <1>   0.0800 
 31 H       -3.3420     4.4220     0.6450 H     1 <1>   0.0800 
 32 H       -6.1650     1.5980     1.7400 H     1 <1>   0.0800 
 33 H       -7.3690     1.6040     0.4910 H     1 <1>   0.0800 
 34 H       -5.5170     5.2750     1.5050 H     1 <1>   0.0800 
 35 H       -5.0140     3.8450     2.3480 H     1 <1>   0.0800 
 36 H       -7.8340     6.8100    -1.5830 H     1 <1>   0.1500 
 37 H      -10.6730     3.8620    -0.5020 H     1 <1>   0.1500 
 38 H      -10.1440     5.9510    -1.7080 H     1 <1>   0.1500 
@<TRIPOS>BOND
  1   1   2  1   
  2   2   3  ar  
  3   2   4  ar  
  4   3   5  ar  
  5   3   6  1   
  6   4   7  ar  
  7   4  22  1   
  8   5   8  1   
  9   5   9  ar  
 10   6  10  1   
 11   6  23  1   
 12   6  24  1   
 13   7   9  ar  
 14   7  25  1   
 15   9  26  1   
 16  10  11  1   
 17  10  12  1   
 18  10  27  1   
 19  11  13  1   
 20  11  28  1   
 21  11  29  1   
 22  12  14  1   
 23  12  30  1   
 24  12  31  1   
 25  13  15  1   
 26  13  32  1   
 27  13  33  1   
 28  14  15  1   
 29  14  34  1   
 30  14  35  1   
 31  15  16  1   
 32  16  17  ar  
 33  16  18  ar  
 34  17  19  ar  
 35  18  20  ar  
 36  19  21  ar  
 37  19  36  1   
 38  20  21  ar  
 39  20  37  1   
 40  21  38  1   
@<TRIPOS>SUBSTRUCTURE
  1 ****  12 GROUP 4 **** **** 0

# MOE 2024.06 (io_trps.svl 2023.06)
