@<TRIPOS>MOLECULE
NONAME
46 47 1 0 0 
SMALL
USER_CHARGES


@<TRIPOS>ATOM
  1 O       -6.8920    -5.0230     0.4340 O.3   1 <1>  -0.5600 
  2 C       -6.8470    -4.2570    -0.7390 C.3   1 <1>   0.1200 
  3 C       -6.1380    -4.4970     1.4920 C.3   1 <1>   0.1200 
  4 C       -5.3920    -4.0760    -1.2360 C.3   1 <1>   0.3430 
  5 C       -4.6480    -4.3530     1.1000 C.3   1 <1>   0.3430 
  6 N       -4.4120    -4.7660    -0.3290 N.4   1 <1>  -0.9590 
  7 C       -3.0040    -4.6230    -0.7900 C.3   1 <1>   0.3430 
  8 C       -2.0940    -5.5840    -0.0280 C.3   1 <1>  -0.1600 
  9 C       -0.6740    -5.5460    -0.5890 C.3   1 <1>   0.1200 
 10 O        0.0950    -6.4370     0.1770 O.3   1 <1>  -0.3630 
 11 C        1.3910    -6.7110    -0.1290 C.ar  1 <1>   0.0820 
 12 C        2.0300    -7.7230     0.5830 C.ar  1 <1>  -0.1440 
 13 C        2.0900    -6.0250    -1.1210 C.ar  1 <1>  -0.1500 
 14 C        3.3450    -8.0420     0.2850 C.ar  1 <1>  -0.1500 
 15 C        1.3140    -8.4960     1.6850 C.3   1 <1>   0.1220 
 16 C        3.4030    -6.3510    -1.4030 C.ar  1 <1>  -0.1500 
 17 C        4.0370    -7.3640    -0.7040 C.ar  1 <1>  -0.1440 
 18 C        0.5960    -9.7040     1.1060 C.2   1 <1>  -0.2880 
 19 C        5.4780    -7.7280    -1.0140 C.3   1 <1>  -0.0970 
 20 C        0.7840   -10.9720     1.4830 C.2   1 <1>  -0.3000 
 21 H       -7.3060    -3.3020    -0.5470 H     1 <1>   0.0800 
 22 H       -7.4330    -4.7660    -1.4850 H     1 <1>   0.0800 
 23 H       -6.2370    -5.1650     2.3310 H     1 <1>   0.0800 
 24 H       -6.5530    -3.5440     1.7720 H     1 <1>   0.0800 
 25 H       -5.1710    -3.0230    -1.2860 H     1 <1>   0.0800 
 26 H       -5.3140    -4.4730    -2.2350 H     1 <1>   0.0800 
 27 H       -4.0570    -4.9620     1.7630 H     1 <1>   0.0800 
 28 H       -4.3460    -3.3290     1.2440 H     1 <1>   0.0800 
 29 H       -4.6820    -5.7620    -0.3610 H     1 <1>   0.4500 
 30 H       -2.6680    -3.6080    -0.6470 H     1 <1>   0.0800 
 31 H       -2.9470    -4.8520    -1.8420 H     1 <1>   0.0800 
 32 H       -2.4670    -6.5890    -0.1220 H     1 <1>   0.0800 
 33 H       -2.0490    -5.3110     1.0100 H     1 <1>   0.0800 
 34 H       -0.2400    -4.5650    -0.4970 H     1 <1>   0.0800 
 35 H       -0.6480    -5.8760    -1.6140 H     1 <1>   0.0800 
 36 H        1.6370    -5.2340    -1.6850 H     1 <1>   0.1500 
 37 H        3.8360    -8.8310     0.8280 H     1 <1>   0.1500 
 38 H        0.6040    -7.8620     2.1850 H     1 <1>   0.0800 
 39 H        2.0270    -8.8160     2.4240 H     1 <1>   0.0800 
 40 H        3.9320    -5.8140    -2.1700 H     1 <1>   0.1500 
 41 H       -0.1000    -9.4250     0.3330 H     1 <1>   0.1500 
 42 H        5.6290    -8.7860    -0.8940 H     1 <1>   0.0800 
 43 H        6.1370    -7.2040    -0.3450 H     1 <1>   0.0800 
 44 H        5.7260    -7.4630    -2.0250 H     1 <1>   0.0800 
 45 H        0.2610   -11.8080     1.0500 H     1 <1>   0.1500 
 46 H        1.4730   -11.2840     2.2480 H     1 <1>   0.1500 
@<TRIPOS>BOND
  1   1   2  1   
  2   1   3  1   
  3   2   4  1   
  4   2  21  1   
  5   2  22  1   
  6   3   5  1   
  7   3  23  1   
  8   3  24  1   
  9   4   6  1   
 10   4  25  1   
 11   4  26  1   
 12   5   6  1   
 13   5  27  1   
 14   5  28  1   
 15   6   7  1   
 16   6  29  1   
 17   7   8  1   
 18   7  30  1   
 19   7  31  1   
 20   8   9  1   
 21   8  32  1   
 22   8  33  1   
 23   9  10  1   
 24   9  34  1   
 25   9  35  1   
 26  10  11  1   
 27  11  12  ar  
 28  11  13  ar  
 29  12  14  ar  
 30  12  15  1   
 31  13  16  ar  
 32  13  36  1   
 33  14  17  ar  
 34  14  37  1   
 35  15  18  1   
 36  15  38  1   
 37  15  39  1   
 38  16  17  ar  
 39  16  40  1   
 40  17  19  1   
 41  18  20  2   
 42  18  41  1   
 43  19  42  1   
 44  19  43  1   
 45  19  44  1   
 46  20  45  1   
 47  20  46  1   
@<TRIPOS>SUBSTRUCTURE
  1 ****  10 GROUP 4 **** **** 0

# MOE 2024.06 (io_trps.svl 2023.06)
