@<TRIPOS>MOLECULE
NONAME
57 59 1 0 0 
SMALL
USER_CHARGES


@<TRIPOS>ATOM
  1 O       -0.7750     0.9530     1.3950 O.2   1 <1>  -0.5700 
  2 C       -0.6180     2.0870     1.0050 C.2   1 <1>   0.5690 
  3 N       -1.5880     3.0420     1.1690 N.am  1 <1>  -0.6600 
  4 C        0.6950     2.4410     0.3210 C.3   1 <1>  -0.0990 
  5 C       -1.5160     4.4580     0.6760 C.3   1 <1>   0.1400 
  6 C       -2.8850     2.7280     1.8520 C.3   1 <1>   0.1400 
  7 C        1.7340     1.2990     0.3090 C.3   1 <1>  -0.0990 
  8 C       -2.7380     4.8190    -0.1880 C.3   1 <1>   0.2090 
  9 C       -4.0910     3.0990     0.9720 C.3   1 <1>   0.2090 
 10 C        3.0460     1.6800    -0.3580 C.2   1 <1>   0.5690 
 11 N       -4.0170     4.5210     0.5270 N.pl3 1 <1>  -0.8380 
 12 O        3.1910     2.7850    -0.8180 O.2   1 <1>  -0.5700 
 13 N        4.0620     0.7920    -0.4460 N.am  1 <1>  -0.7300 
 14 C       -5.1810     5.0710     0.0260 C.ar  1 <1>   0.4100 
 15 C        4.1330    -0.6110     0.0320 C.3   1 <1>   0.1400 
 16 N       -5.2540     5.2550    -1.2870 N.ar  1 <1>  -0.6200 
 17 C       -6.2150     5.3950     0.9010 C.ar  1 <1>  -0.1500 
 18 C        4.3040    -1.5550    -1.1600 C.3   1 <1>  -0.0220 
 19 C       -6.3870     5.7700    -1.7350 C.ar  1 <1>   0.1600 
 20 C       -7.3880     5.9300     0.4210 C.ar  1 <1>  -0.1500 
 21 C        4.4230    -3.0050    -0.7090 C.2   1 <1>  -0.2760 
 22 C       -7.4670     6.1190    -0.9430 C.ar  1 <1>  -0.1500 
 23 C        3.4160    -3.8770    -0.8220 C.2   1 <1>  -0.2880 
 24 C        5.7850    -3.3950    -0.1380 C.3   1 <1>  -0.0220 
 25 C        3.4950    -5.3410    -0.4220 C.3   1 <1>  -0.0220 
 26 C        5.7320    -4.7430     0.5970 C.3   1 <1>  -0.1600 
 27 C        4.9490    -5.7860    -0.2110 C.3   1 <1>  -0.1600 
 28 H        1.1230     3.2860     0.8280 H     1 <1>   0.0800 
 29 H        0.4820     2.7250    -0.6930 H     1 <1>   0.0800 
 30 H       -0.6270     4.6270     0.0990 H     1 <1>   0.0800 
 31 H       -1.4890     5.1210     1.5240 H     1 <1>   0.0800 
 32 H       -2.9390     3.2840     2.7710 H     1 <1>   0.0800 
 33 H       -2.9410     1.6820     2.0970 H     1 <1>   0.0800 
 34 H        1.3210     0.4530    -0.2100 H     1 <1>   0.0800 
 35 H        1.9400     1.0040     1.3220 H     1 <1>   0.0800 
 36 H       -2.7050     4.2590    -1.1070 H     1 <1>   0.0800 
 37 H       -2.7060     5.8660    -0.4360 H     1 <1>   0.0800 
 38 H       -4.9990     2.9370     1.5260 H     1 <1>   0.0800 
 39 H       -4.1100     2.4570     0.1080 H     1 <1>   0.0800 
 40 H        4.9000     1.1450    -0.9120 H     1 <1>   0.3700 
 41 H        3.2390    -0.8780     0.5690 H     1 <1>   0.0800 
 42 H        4.9670    -0.7070     0.7040 H     1 <1>   0.0800 
 43 H       -6.0750     5.2250     1.9500 H     1 <1>   0.1500 
 44 H        5.1760    -1.2840    -1.7280 H     1 <1>   0.0800 
 45 H        3.4450    -1.4540    -1.7990 H     1 <1>   0.0800 
 46 H       -6.4590     5.9230    -2.7980 H     1 <1>   0.1500 
 47 H       -8.2020     6.1900     1.0750 H     1 <1>   0.1500 
 48 H       -8.3530     6.5330    -1.3870 H     1 <1>   0.1500 
 49 H        2.4480    -3.6070    -1.2120 H     1 <1>   0.1500 
 50 H        6.1370    -2.6490     0.5500 H     1 <1>   0.0800 
 51 H        6.4910    -3.4570    -0.9480 H     1 <1>   0.0800 
 52 H        3.0490    -5.9500    -1.1890 H     1 <1>   0.0800 
 53 H        2.9340    -5.4820     0.4850 H     1 <1>   0.0800 
 54 H        5.2500    -4.6060     1.5490 H     1 <1>   0.0800 
 55 H        6.7330    -5.0940     0.7780 H     1 <1>   0.0800 
 56 H        5.4200    -5.9110    -1.1710 H     1 <1>   0.0800 
 57 H        4.9650    -6.7360     0.2950 H     1 <1>   0.0800 
@<TRIPOS>BOND
  1   1   2  2   
  2   2   3  am  
  3   2   4  1   
  4   3   5  1   
  5   3   6  1   
  6   4   7  1   
  7   4  28  1   
  8   4  29  1   
  9   5   8  1   
 10   5  30  1   
 11   5  31  1   
 12   6   9  1   
 13   6  32  1   
 14   6  33  1   
 15   7  10  1   
 16   7  34  1   
 17   7  35  1   
 18   8  11  1   
 19   8  36  1   
 20   8  37  1   
 21   9  11  1   
 22   9  38  1   
 23   9  39  1   
 24  10  12  2   
 25  10  13  am  
 26  11  14  1   
 27  13  15  1   
 28  13  40  1   
 29  14  16  ar  
 30  14  17  ar  
 31  15  18  1   
 32  15  41  1   
 33  15  42  1   
 34  16  19  ar  
 35  17  20  ar  
 36  17  43  1   
 37  18  21  1   
 38  18  44  1   
 39  18  45  1   
 40  19  22  ar  
 41  19  46  1   
 42  20  22  ar  
 43  20  47  1   
 44  21  23  2   
 45  21  24  1   
 46  22  48  1   
 47  23  25  1   
 48  23  49  1   
 49  24  26  1   
 50  24  50  1   
 51  24  51  1   
 52  25  27  1   
 53  25  52  1   
 54  25  53  1   
 55  26  27  1   
 56  26  54  1   
 57  26  55  1   
 58  27  56  1   
 59  27  57  1   
@<TRIPOS>SUBSTRUCTURE
  1 ****   2 GROUP 4 **** **** 0

# MOE 2024.06 (io_trps.svl 2023.06)
