@<TRIPOS>MOLECULE
NONAME
48 50 1 0 0 
SMALL
USER_CHARGES


@<TRIPOS>ATOM
  1 O        0.3760    -0.3510    -1.5580 O.2   1 <1>  -0.5700 
  2 C        0.8060    -1.0880    -0.7020 C.2   1 <1>   0.5690 
  3 N        1.4830    -0.5850     0.3640 N.am  1 <1>  -0.7300 
  4 C        0.5780    -2.6100    -0.8330 C.3   1 <1>   0.0610 
  5 C        1.7820     0.8340     0.5790 C.3   1 <1>   0.2780 
  6 C        1.1260    -3.4050     0.3810 C.3   1 <1>  -0.1600 
  7 C       -0.9340    -2.9090    -0.9550 C.3   1 <1>  -0.1600 
  8 C        1.2850    -3.1370    -2.1040 C.3   1 <1>  -0.1600 
  9 C        3.1460     0.9100     1.2280 C.2   1 <1>  -0.2880 
 10 C        0.9020    -4.9390     0.2520 C.3   1 <1>   0.0610 
 11 C       -1.1810    -4.4180    -1.1190 C.3   1 <1>  -0.0800 
 12 C        1.0520    -4.6480    -2.2740 C.3   1 <1>  -0.0800 
 13 C        3.3960     1.3660     2.4600 C.2   1 <1>  -0.3000 
 14 C        1.4860    -5.6740     1.4910 C.2   1 <1>   0.5690 
 15 C       -0.6270    -5.1600     0.1090 C.3   1 <1>  -0.1600 
 16 C        1.6160    -5.3890    -1.0480 C.3   1 <1>  -0.1600 
 17 C       -0.4590    -4.9170    -2.3840 C.3   1 <1>  -0.1600 
 18 O        2.1260    -5.0420     2.2970 O.2   1 <1>  -0.5700 
 19 N        1.3320    -6.9990     1.7460 N.am  1 <1>  -0.7300 
 20 C        0.6640    -8.0960     1.0370 C.3   1 <1>   0.2780 
 21 C        1.5170    -9.3300     1.2230 C.2   1 <1>  -0.2880 
 22 C        1.1400   -10.4450     1.8580 C.2   1 <1>  -0.3000 
 23 H        1.8420    -1.2090     1.0870 H     1 <1>   0.3700 
 24 H        1.0320     1.2620     1.2220 H     1 <1>   0.0800 
 25 H        1.7810     1.3650    -0.3580 H     1 <1>   0.0800 
 26 H        2.1810    -3.2160     0.4790 H     1 <1>   0.0800 
 27 H        0.6480    -3.0590     1.2810 H     1 <1>   0.0800 
 28 H       -1.3390    -2.3860    -1.8040 H     1 <1>   0.0800 
 29 H       -1.4470    -2.5480    -0.0800 H     1 <1>   0.0800 
 30 H        2.3410    -2.9350    -2.0410 H     1 <1>   0.0800 
 31 H        0.9100    -2.6160    -2.9680 H     1 <1>   0.0800 
 32 H        3.9230     0.5470     0.5760 H     1 <1>   0.1500 
 33 H       -2.2390    -4.6010    -1.2090 H     1 <1>   0.0800 
 34 H        1.5480    -4.9900    -3.1660 H     1 <1>   0.0800 
 35 H        4.3800     1.4070     2.8960 H     1 <1>   0.1500 
 36 H        2.6430     1.7330     3.1370 H     1 <1>   0.1500 
 37 H       -1.1250    -4.8110     0.9980 H     1 <1>   0.0800 
 38 H       -0.8590    -6.2000     0.0020 H     1 <1>   0.0800 
 39 H        1.5060    -6.4430    -1.2020 H     1 <1>   0.0800 
 40 H        2.6710    -5.1920    -0.9630 H     1 <1>   0.0800 
 41 H       -0.8550    -4.4120    -3.2490 H     1 <1>   0.0800 
 42 H       -0.6350    -5.9710    -2.5150 H     1 <1>   0.0800 
 43 H        1.7860    -7.3070     2.6080 H     1 <1>   0.3700 
 44 H        0.5560    -7.8860    -0.0100 H     1 <1>   0.0800 
 45 H       -0.3130    -8.2520     1.4640 H     1 <1>   0.0800 
 46 H        2.4930    -9.2190     0.7800 H     1 <1>   0.1500 
 47 H        1.7710   -11.3090     1.9760 H     1 <1>   0.1500 
 48 H        0.1750   -10.5910     2.3140 H     1 <1>   0.1500 
@<TRIPOS>BOND
  1   1   2  2   
  2   2   3  am  
  3   2   4  1   
  4   3   5  1   
  5   3  23  1   
  6   4   6  1   
  7   4   7  1   
  8   4   8  1   
  9   5   9  1   
 10   5  24  1   
 11   5  25  1   
 12   6  10  1   
 13   6  26  1   
 14   6  27  1   
 15   7  11  1   
 16   7  28  1   
 17   7  29  1   
 18   8  12  1   
 19   8  30  1   
 20   8  31  1   
 21   9  13  2   
 22   9  32  1   
 23  10  14  1   
 24  10  15  1   
 25  10  16  1   
 26  11  15  1   
 27  11  17  1   
 28  11  33  1   
 29  12  16  1   
 30  12  17  1   
 31  12  34  1   
 32  13  35  1   
 33  13  36  1   
 34  14  18  2   
 35  14  19  am  
 36  15  37  1   
 37  15  38  1   
 38  16  39  1   
 39  16  40  1   
 40  17  41  1   
 41  17  42  1   
 42  19  20  1   
 43  19  43  1   
 44  20  21  1   
 45  20  44  1   
 46  20  45  1   
 47  21  22  2   
 48  21  46  1   
 49  22  47  1   
 50  22  48  1   
@<TRIPOS>SUBSTRUCTURE
  1 ****   6 GROUP 4 **** **** 0

# MOE 2024.06 (io_trps.svl 2023.06)
