@<TRIPOS>MOLECULE
NONAME
40 42 1 0 0 
SMALL
USER_CHARGES


@<TRIPOS>ATOM
  1 O        2.5510     2.3080    -1.5350 O.co2 1 <1>  -0.9000 
  2 C        3.0470     1.1820    -1.4770 C.2   1 <1>   0.9060 
  3 O        3.8640     0.7880    -2.3210 O.co2 1 <1>  -0.9000 
  4 C        2.6710     0.2840    -0.3040 C.3   1 <1>  -0.1860 
  5 C        3.5730     0.3930     0.9740 C.3   1 <1>  -0.0190 
  6 C        2.4460    -1.2090    -0.6710 C.3   1 <1>  -0.0800 
  7 C        4.9520     1.0650     0.8660 C.2   1 <1>   0.5690 
  8 C        3.7150    -1.0120     1.6210 C.3   1 <1>  -0.0800 
  9 C        3.7960    -1.9590    -0.7230 C.3   1 <1>  -0.1600 
 10 C        1.6120    -1.8420     0.4630 C.3   1 <1>  -0.1600 
 11 O        5.4020     1.5990     1.8560 O.2   1 <1>  -0.5700 
 12 N        5.6680     1.0220    -0.2810 N.am  1 <1>  -0.7300 
 13 C        4.4850    -1.9410     0.6590 C.3   1 <1>  -0.1600 
 14 C        2.3080    -1.6180     1.8260 C.3   1 <1>  -0.1600 
 15 C        6.9010     1.7620    -0.5500 C.3   1 <1>   0.2840 
 16 C        8.0790     0.8080    -0.5000 C.ar  1 <1>  -0.1440 
 17 C        8.6820     0.3570    -1.6650 C.ar  1 <1>   0.1600 
 18 C        8.5700     0.3740     0.7150 C.ar  1 <1>  -0.1500 
 19 N        9.7280    -0.4570    -1.7130 N.ar  1 <1>  -0.6200 
 20 C        9.6500    -0.4810     0.6850 C.ar  1 <1>  -0.1500 
 21 C       10.1830    -0.8560    -0.5370 C.ar  1 <1>   0.1600 
 22 H        1.7060     0.6600    -0.0180 H     1 <1>   0.0800 
 23 H        3.0290     1.0090     1.6670 H     1 <1>   0.0800 
 24 H        1.9320    -1.2880    -1.6140 H     1 <1>   0.0800 
 25 H        4.2300    -0.9360     2.5630 H     1 <1>   0.0800 
 26 H        4.4390    -1.4980    -1.4530 H     1 <1>   0.0800 
 27 H        3.6360    -2.9750    -1.0360 H     1 <1>   0.0800 
 28 H        1.5020    -2.8960     0.2780 H     1 <1>   0.0800 
 29 H        0.6270    -1.4080     0.4810 H     1 <1>   0.0800 
 30 H        5.1610     0.7240    -1.1410 H     1 <1>   0.3700 
 31 H        4.5070    -2.9370     1.0640 H     1 <1>   0.0800 
 32 H        5.5050    -1.6150     0.5520 H     1 <1>   0.0800 
 33 H        1.7180    -0.9510     2.4300 H     1 <1>   0.0800 
 34 H        2.3860    -2.5540     2.3510 H     1 <1>   0.0800 
 35 H        7.0270     2.5390     0.1840 H     1 <1>   0.0800 
 36 H        6.8220     2.2250    -1.5190 H     1 <1>   0.0800 
 37 H        8.2800     0.6840    -2.6090 H     1 <1>   0.1500 
 38 H        8.1150     0.6890     1.6410 H     1 <1>   0.1500 
 39 H       10.0740    -0.8530     1.5990 H     1 <1>   0.1500 
 40 H       11.0290    -1.5220    -0.5460 H     1 <1>   0.1500 
@<TRIPOS>BOND
  1   1   2  ar  
  2   2   3  ar  
  3   2   4  1   
  4   4   5  1   
  5   4   6  1   
  6   4  22  1   
  7   5   7  1   
  8   5   8  1   
  9   5  23  1   
 10   6   9  1   
 11   6  10  1   
 12   6  24  1   
 13   7  11  2   
 14   7  12  am  
 15   8  13  1   
 16   8  14  1   
 17   8  25  1   
 18   9  13  1   
 19   9  26  1   
 20   9  27  1   
 21  10  14  1   
 22  10  28  1   
 23  10  29  1   
 24  12  15  1   
 25  12  30  1   
 26  13  31  1   
 27  13  32  1   
 28  14  33  1   
 29  14  34  1   
 30  15  16  1   
 31  15  35  1   
 32  15  36  1   
 33  16  17  ar  
 34  16  18  ar  
 35  17  19  ar  
 36  17  37  1   
 37  18  20  ar  
 38  18  38  1   
 39  19  21  ar  
 40  20  21  ar  
 41  20  39  1   
 42  21  40  1   
@<TRIPOS>SUBSTRUCTURE
  1 ****  12 GROUP 4 **** **** 0

# MOE 2024.06 (io_trps.svl 2023.06)
