@<TRIPOS>MOLECULE
NONAME
37 38 1 0 0 
SMALL
USER_CHARGES


@<TRIPOS>ATOM
  1 O        1.6870    -4.4160    -1.7040 O.2   1 <1>  -0.5700 
  2 C        1.4530    -3.5670    -0.8710 C.2   1 <1>   0.6340 
  3 O        0.1730    -3.2540    -0.6280 O.3   1 <1>  -0.4300 
  4 C        2.4640    -2.8620    -0.1050 C.ar  1 <1>   0.0860 
  5 C       -0.9020    -3.9140    -1.2810 C.3   1 <1>   0.2000 
  6 C        3.5780    -3.4950     0.4670 C.ar  1 <1>  -0.1440 
  7 C        2.3300    -1.4850     0.0920 C.ar  1 <1>  -0.1500 
  8 C       -2.1390    -3.0040    -1.1810 C.3   1 <1>   0.3430 
  9 C       -1.1870    -5.2510    -0.5690 C.3   1 <1>  -0.1600 
 10 C        4.4980    -2.7640     1.2010 C.ar  1 <1>  -0.1500 
 11 C        3.8130    -4.9940     0.3080 C.3   1 <1>  -0.0960 
 12 C        3.2510    -0.7610     0.8250 C.ar  1 <1>  -0.1500 
 13 N       -2.4510    -2.6340     0.2530 N.4   1 <1>  -0.9590 
 14 C       -2.1800    -5.1090     0.6060 C.3   1 <1>  -0.1600 
 15 C        4.3380    -1.4030     1.3830 C.ar  1 <1>  -0.1500 
 16 C       -2.1340    -3.7180     1.2490 C.3   1 <1>   0.3430 
 17 C       -3.8570    -2.1510     0.3920 C.3   1 <1>   0.2630 
 18 H       -0.6380    -4.0740    -2.3140 H     1 <1>   0.0800 
 19 H        1.4950    -0.9670    -0.3430 H     1 <1>   0.1500 
 20 H       -2.9750    -3.5350    -1.6050 H     1 <1>   0.0800 
 21 H       -1.9800    -2.1160    -1.7700 H     1 <1>   0.0800 
 22 H       -0.2610    -5.6830    -0.2270 H     1 <1>   0.0800 
 23 H       -1.6040    -5.9430    -1.2810 H     1 <1>   0.0800 
 24 H        5.3540    -3.2490     1.6390 H     1 <1>   0.1500 
 25 H        2.9290    -5.5450     0.5740 H     1 <1>   0.0800 
 26 H        4.6180    -5.3310     0.9360 H     1 <1>   0.0800 
 27 H        4.0660    -5.2180    -0.7130 H     1 <1>   0.0800 
 28 H        3.1280     0.3000     0.9620 H     1 <1>   0.1500 
 29 H       -1.8140    -1.8580     0.4860 H     1 <1>   0.4500 
 30 H       -1.9530    -5.8520     1.3510 H     1 <1>   0.0800 
 31 H       -3.1830    -5.3000     0.2650 H     1 <1>   0.0800 
 32 H        5.0610    -0.8460     1.9550 H     1 <1>   0.1500 
 33 H       -2.8180    -3.6730     2.0820 H     1 <1>   0.0800 
 34 H       -1.1380    -3.5610     1.6320 H     1 <1>   0.0800 
 35 H       -4.5490    -2.9460     0.1640 H     1 <1>   0.0800 
 36 H       -4.0400    -1.3290    -0.2810 H     1 <1>   0.0800 
 37 H       -4.0390    -1.8160     1.4000 H     1 <1>   0.0800 
@<TRIPOS>BOND
  1   1   2  2   
  2   2   3  1   
  3   2   4  1   
  4   3   5  1   
  5   4   6  ar  
  6   4   7  ar  
  7   5   8  1   
  8   5   9  1   
  9   5  18  1   
 10   6  10  ar  
 11   6  11  1   
 12   7  12  ar  
 13   7  19  1   
 14   8  13  1   
 15   8  20  1   
 16   8  21  1   
 17   9  14  1   
 18   9  22  1   
 19   9  23  1   
 20  10  15  ar  
 21  10  24  1   
 22  11  25  1   
 23  11  26  1   
 24  11  27  1   
 25  12  15  ar  
 26  12  28  1   
 27  13  16  1   
 28  13  17  1   
 29  13  29  1   
 30  14  16  1   
 31  14  30  1   
 32  14  31  1   
 33  15  32  1   
 34  16  33  1   
 35  16  34  1   
 36  17  35  1   
 37  17  36  1   
 38  17  37  1   
@<TRIPOS>SUBSTRUCTURE
  1 ****   3 GROUP 4 **** **** 0

# MOE 2024.06 (io_trps.svl 2023.06)
