@<TRIPOS>MOLECULE
NONAME
42 43 1 0 0 
SMALL
USER_CHARGES


@<TRIPOS>ATOM
  1 O       -0.1650    -0.0060    -1.0290 O.2   1 <1>  -0.5700 
  2 C       -0.1540    -0.9080    -0.2160 C.2   1 <1>   0.6900 
  3 N       -1.2970    -1.4130     0.3260 N.am  1 <1>  -0.5470 
  4 N        1.0160    -1.4640     0.1800 N.am  1 <1>  -0.7300 
  5 C       -2.6290    -0.9850     0.2220 C.ar  1 <1>   0.1170 
  6 C        2.3450    -1.0620    -0.3060 C.3   1 <1>   0.2200 
  7 C       -2.9830     0.3330    -0.0450 C.ar  1 <1>  -0.1500 
  8 C       -3.6440    -1.9120     0.4170 C.ar  1 <1>  -0.1500 
  9 C        3.1190    -2.3160    -0.7240 C.3   1 <1>  -0.1600 
 10 C        3.0730    -0.3040     0.8100 C.3   1 <1>  -0.1600 
 11 C       -4.3100     0.7180    -0.1200 C.ar  1 <1>   0.0830 
 12 C       -4.9760    -1.5460     0.3460 C.ar  1 <1>   0.0830 
 13 C        4.5560    -1.9680    -1.1410 C.3   1 <1>  -0.1600 
 14 C        4.5100     0.0470     0.3960 C.3   1 <1>  -0.1600 
 15 O       -4.5480     2.0290    -0.3830 O.3   1 <1>  -0.3630 
 16 C       -5.3150    -0.2240     0.0760 C.ar  1 <1>  -0.1500 
 17 O       -5.8850    -2.5330     0.5510 O.3   1 <1>  -0.3630 
 18 C        5.2880    -1.2070    -0.0270 C.3   1 <1>  -0.1600 
 19 C       -5.8580     2.5220    -0.5540 C.3   1 <1>   0.0400 
 20 C       -7.2710    -2.2850     0.4700 C.3   1 <1>   0.0400 
 21 H       -1.1690    -2.3050     0.7870 H     1 <1>   0.3700 
 22 H        1.0250    -2.0910     0.9790 H     1 <1>   0.3700 
 23 H        2.2410    -0.4130    -1.1610 H     1 <1>   0.0800 
 24 H       -2.2220     1.0760    -0.1960 H     1 <1>   0.1500 
 25 H       -3.4050    -2.9370     0.6240 H     1 <1>   0.1500 
 26 H        2.6140    -2.7840    -1.5510 H     1 <1>   0.0800 
 27 H        3.1530    -3.0110     0.0960 H     1 <1>   0.0800 
 28 H        3.1030    -0.9090     1.6990 H     1 <1>   0.0800 
 29 H        2.5360     0.6020     1.0290 H     1 <1>   0.0800 
 30 H        4.5310    -1.3590    -2.0300 H     1 <1>   0.0800 
 31 H        5.0930    -2.8700    -1.3760 H     1 <1>   0.0800 
 32 H        5.0150     0.5260     1.2170 H     1 <1>   0.0800 
 33 H        4.4820     0.7430    -0.4250 H     1 <1>   0.0800 
 34 H       -6.3430     0.0680     0.0200 H     1 <1>   0.1500 
 35 H        6.2680    -0.9230    -0.3700 H     1 <1>   0.0800 
 36 H        5.4130    -1.8540     0.8240 H     1 <1>   0.0800 
 37 H       -5.7910     3.5700    -0.7820 H     1 <1>   0.0800 
 38 H       -6.4060     2.3810     0.3610 H     1 <1>   0.0800 
 39 H       -6.3240     1.9990    -1.3700 H     1 <1>   0.0800 
 40 H       -7.7870    -3.2100     0.6540 H     1 <1>   0.0800 
 41 H       -7.5040    -1.9260    -0.5170 H     1 <1>   0.0800 
 42 H       -7.5410    -1.5610     1.2190 H     1 <1>   0.0800 
@<TRIPOS>BOND
  1   1   2  2   
  2   2   3  am  
  3   2   4  am  
  4   3   5  1   
  5   3  21  1   
  6   4   6  1   
  7   4  22  1   
  8   5   7  ar  
  9   5   8  ar  
 10   6   9  1   
 11   6  10  1   
 12   6  23  1   
 13   7  11  ar  
 14   7  24  1   
 15   8  12  ar  
 16   8  25  1   
 17   9  13  1   
 18   9  26  1   
 19   9  27  1   
 20  10  14  1   
 21  10  28  1   
 22  10  29  1   
 23  11  15  1   
 24  11  16  ar  
 25  12  16  ar  
 26  12  17  1   
 27  13  18  1   
 28  13  30  1   
 29  13  31  1   
 30  14  18  1   
 31  14  32  1   
 32  14  33  1   
 33  15  19  1   
 34  16  34  1   
 35  17  20  1   
 36  18  35  1   
 37  18  36  1   
 38  19  37  1   
 39  19  38  1   
 40  19  39  1   
 41  20  40  1   
 42  20  41  1   
 43  20  42  1   
@<TRIPOS>SUBSTRUCTURE
  1 ****   3 GROUP 4 **** **** 0

# MOE 2024.06 (io_trps.svl 2023.06)
