@<TRIPOS>MOLECULE
NONAME
50 52 1 0 0 
SMALL
USER_CHARGES


@<TRIPOS>ATOM
  1 N       -0.1210     0.0230    -0.4760 N.3   1 <1>  -0.8100 
  2 C       -1.3610    -0.7120    -0.7810 C.3   1 <1>   0.1100 
  3 C       -0.3750     1.4700    -0.3040 C.3   1 <1>   0.1100 
  4 C        0.9330    -0.2440    -1.4770 C.3   1 <1>   0.2540 
  5 C       -2.4220    -0.4890     0.3160 C.3   1 <1>   0.3430 
  6 C       -1.4190     1.7220     0.8010 C.3   1 <1>   0.3430 
  7 C        2.2380     0.4320    -1.0820 C.ar  1 <1>  -0.1440 
  8 N       -2.6960     0.9730     0.5440 N.4   1 <1>  -0.9590 
  9 C        2.8590     0.0980     0.1120 C.ar  1 <1>  -0.1500 
 10 C        2.8140     1.3900    -1.9020 C.ar  1 <1>  -0.1500 
 11 C       -3.6780     1.2020     1.6230 C.3   1 <1>   0.4810 
 12 C        4.0390     0.7140     0.4940 C.ar  1 <1>  -0.1440 
 13 C        3.9930     2.0080    -1.5270 C.ar  1 <1>  -0.1500 
 14 C       -5.0270     0.7860     1.0900 C.2   1 <1>  -0.2880 
 15 C        4.6040     1.6710    -0.3320 C.ar  1 <1>  -0.1500 
 16 C        4.7100     0.3380     1.8030 C.3   1 <1>  -0.0970 
 17 C       -5.9810     1.6350     0.6730 C.2   1 <1>  -0.1780 
 18 C       -7.2880     1.3050     0.1480 C.ar  1 <1>   0.0280 
 19 C       -8.0050     2.2530    -0.5790 C.ar  1 <1>  -0.1500 
 20 C       -7.8780     0.0570     0.3390 C.ar  1 <1>  -0.1500 
 21 C       -9.2520     1.9670    -1.1020 C.ar  1 <1>  -0.1500 
 22 C       -9.1250    -0.2360    -0.1820 C.ar  1 <1>  -0.1500 
 23 C       -9.8150     0.7190    -0.9060 C.ar  1 <1>  -0.1500 
 24 H       -1.7530    -0.4000    -1.7350 H     1 <1>   0.0800 
 25 H       -1.1420    -1.7650    -0.8410 H     1 <1>   0.0800 
 26 H        0.5360     1.9690    -0.0170 H     1 <1>   0.0800 
 27 H       -0.7090     1.9020    -1.2320 H     1 <1>   0.0800 
 28 H        1.1070    -1.3050    -1.5410 H     1 <1>   0.0800 
 29 H        0.6170     0.1030    -2.4470 H     1 <1>   0.0800 
 30 H       -2.0600    -0.9360     1.2280 H     1 <1>   0.0800 
 31 H       -3.3300    -0.9960     0.0340 H     1 <1>   0.0800 
 32 H       -1.6150     2.7790     0.8650 H     1 <1>   0.0800 
 33 H       -0.9930     1.4040     1.7390 H     1 <1>   0.0800 
 34 H       -3.1170     1.3430    -0.3170 H     1 <1>   0.4500 
 35 H        2.4130    -0.6470     0.7480 H     1 <1>   0.1500 
 36 H        2.3520     1.6610    -2.8350 H     1 <1>   0.1500 
 37 H       -3.4220     0.6430     2.5090 H     1 <1>   0.0800 
 38 H       -3.7070     2.2510     1.8720 H     1 <1>   0.0800 
 39 H        4.4400     2.7500    -2.1650 H     1 <1>   0.1500 
 40 H       -5.1580    -0.2810     1.0720 H     1 <1>   0.1500 
 41 H        5.5220     2.1560    -0.0500 H     1 <1>   0.1500 
 42 H        5.2740     1.1670     2.1890 H     1 <1>   0.0800 
 43 H        5.3760    -0.4910     1.6430 H     1 <1>   0.0800 
 44 H        3.9750     0.0570     2.5350 H     1 <1>   0.0800 
 45 H       -5.8050     2.6980     0.7080 H     1 <1>   0.1500 
 46 H       -7.5860     3.2290    -0.7430 H     1 <1>   0.1500 
 47 H       -7.3700    -0.6990     0.9070 H     1 <1>   0.1500 
 48 H       -9.7880     2.7130    -1.6630 H     1 <1>   0.1500 
 49 H       -9.5640    -1.2060    -0.0230 H     1 <1>   0.1500 
 50 H      -10.7850     0.4930    -1.3130 H     1 <1>   0.1500 
@<TRIPOS>BOND
  1   1   2  1   
  2   1   3  1   
  3   1   4  1   
  4   2   5  1   
  5   2  24  1   
  6   2  25  1   
  7   3   6  1   
  8   3  26  1   
  9   3  27  1   
 10   4   7  1   
 11   4  28  1   
 12   4  29  1   
 13   5   8  1   
 14   5  30  1   
 15   5  31  1   
 16   6   8  1   
 17   6  32  1   
 18   6  33  1   
 19   7   9  ar  
 20   7  10  ar  
 21   8  11  1   
 22   8  34  1   
 23   9  12  ar  
 24   9  35  1   
 25  10  13  ar  
 26  10  36  1   
 27  11  14  1   
 28  11  37  1   
 29  11  38  1   
 30  12  15  ar  
 31  12  16  1   
 32  13  15  ar  
 33  13  39  1   
 34  14  17  2   
 35  14  40  1   
 36  15  41  1   
 37  16  42  1   
 38  16  43  1   
 39  16  44  1   
 40  17  18  1   
 41  17  45  1   
 42  18  19  ar  
 43  18  20  ar  
 44  19  21  ar  
 45  19  46  1   
 46  20  22  ar  
 47  20  47  1   
 48  21  23  ar  
 49  21  48  1   
 50  22  23  ar  
 51  22  49  1   
 52  23  50  1   
@<TRIPOS>SUBSTRUCTURE
  1 ****   8 GROUP 4 **** **** 0

# MOE 2024.06 (io_trps.svl 2023.06)
