@<TRIPOS>MOLECULE
NONAME
28 29 1 0 0 
SMALL
USER_CHARGES


@<TRIPOS>ATOM
  1 CL      -0.4160    -0.1200     0.8860 Cl    1 <1>  -0.1770 
  2 C       -1.1230     1.3880     0.3650 C.ar  1 <1>   0.1770 
  3 C       -0.3000     2.3860    -0.1180 C.ar  1 <1>  -0.1500 
  4 C       -2.4930     1.5540     0.4450 C.ar  1 <1>  -0.1500 
  5 C       -0.8870     3.5680    -0.5250 C.ar  1 <1>   0.1770 
  6 C       -3.0790     2.7480     0.0360 C.ar  1 <1>   0.1170 
  7 CL       0.1260     4.8460    -1.1460 Cl    1 <1>  -0.1770 
  8 C       -2.2540     3.7570    -0.4550 C.ar  1 <1>  -0.1500 
  9 N       -4.4720     2.8800     0.1190 N.am  1 <1>  -0.5470 
 10 C       -5.2600     3.9890     0.2510 C.2   1 <1>   0.6900 
 11 O       -4.7730     5.0920     0.4080 O.2   1 <1>  -0.5700 
 12 N       -6.6190     3.8330     0.2250 N.am  1 <1>  -0.6600 
 13 C       -7.3540     2.6020    -0.1420 C.3   1 <1>   0.1400 
 14 C       -7.5390     4.9880     0.3300 C.3   1 <1>   0.1400 
 15 C       -8.8280     2.9820    -0.0470 C.3   1 <1>  -0.1600 
 16 C       -8.8540     4.4930    -0.2600 C.3   1 <1>  -0.1600 
 17 H        0.7640     2.2490    -0.1750 H     1 <1>   0.1500 
 18 H       -3.0960     0.7540     0.8290 H     1 <1>   0.1500 
 19 H       -2.6700     4.6910    -0.7870 H     1 <1>   0.1500 
 20 H       -5.0010     2.0200     0.1920 H     1 <1>   0.3700 
 21 H       -7.1180     1.7950     0.5290 H     1 <1>   0.0800 
 22 H       -7.1030     2.3300    -1.1540 H     1 <1>   0.0800 
 23 H       -7.1570     5.8390    -0.2080 H     1 <1>   0.0800 
 24 H       -7.6590     5.2440     1.3690 H     1 <1>   0.0800 
 25 H       -9.1860     2.7480     0.9410 H     1 <1>   0.0800 
 26 H       -9.4260     2.4560    -0.7690 H     1 <1>   0.0800 
 27 H       -8.8680     4.7150    -1.3130 H     1 <1>   0.0800 
 28 H       -9.7020     4.9610     0.2080 H     1 <1>   0.0800 
@<TRIPOS>BOND
  1   1   2  1   
  2   2   3  ar  
  3   2   4  ar  
  4   3   5  ar  
  5   3  17  1   
  6   4   6  ar  
  7   4  18  1   
  8   5   7  1   
  9   5   8  ar  
 10   6   8  ar  
 11   6   9  1   
 12   8  19  1   
 13   9  10  am  
 14   9  20  1   
 15  10  11  2   
 16  10  12  am  
 17  12  13  1   
 18  12  14  1   
 19  13  15  1   
 20  13  21  1   
 21  13  22  1   
 22  14  16  1   
 23  14  23  1   
 24  14  24  1   
 25  15  16  1   
 26  15  25  1   
 27  15  26  1   
 28  16  27  1   
 29  16  28  1   
@<TRIPOS>SUBSTRUCTURE
  1 ****   9 GROUP 4 **** **** 0

# MOE 2024.06 (io_trps.svl 2023.06)
