@<TRIPOS>MOLECULE
NONAME
46 48 1 0 0 
SMALL
USER_CHARGES


@<TRIPOS>ATOM
  1 N        0.6240    -0.1970     0.5790 N.4   1 <1>  -0.9590 
  2 C        0.3130     1.2490     0.3710 C.3   1 <1>   0.3430 
  3 C        1.6110    -0.7390    -0.4010 C.3   1 <1>   0.3430 
  4 C       -0.6400    -1.0050     0.5350 C.3   1 <1>   0.2630 
  5 C        1.5980     2.0790     0.4260 C.3   1 <1>  -0.1600 
  6 C        2.9050     0.0760    -0.3510 C.3   1 <1>  -0.1600 
  7 C        2.6170     1.5590    -0.5970 C.3   1 <1>   0.4230 
  8 N        3.8860     2.3480    -0.6020 N.4   1 <1>  -0.9590 
  9 C        4.6000     2.4710     0.7100 C.3   1 <1>   0.4860 
 10 C        3.7130     3.7040    -1.2280 C.3   1 <1>   0.2630 
 11 C        6.0120     2.9430     0.4330 C.ar  1 <1>  -0.1430 
 12 C        6.3970     4.2260     0.7220 C.ar  1 <1>  -0.1500 
 13 C        6.9400     2.0560    -0.1340 C.ar  1 <1>  -0.1500 
 14 C        7.6980     4.6870     0.4430 C.ar  1 <1>   0.0000 
 15 C        8.2100     2.4780    -0.4150 C.ar  1 <1>  -0.1500 
 16 C        8.6220     3.7970    -0.1430 C.ar  1 <1>   0.0000 
 17 C        8.1130     6.0050     0.7240 C.ar  1 <1>  -0.1500 
 18 C        9.9220     4.2590    -0.4310 C.ar  1 <1>  -0.1500 
 19 C        9.3810     6.4270     0.4340 C.ar  1 <1>  -0.1500 
 20 C       10.2950     5.5440    -0.1510 C.ar  1 <1>  -0.1500 
 21 H        1.0090    -0.3150     1.5310 H     1 <1>   0.4500 
 22 H       -0.3710     1.5910     1.1340 H     1 <1>   0.0800 
 23 H       -0.1660     1.3830    -0.5870 H     1 <1>   0.0800 
 24 H        1.1940    -0.6990    -1.3960 H     1 <1>   0.0800 
 25 H        1.8250    -1.7730    -0.1730 H     1 <1>   0.0800 
 26 H       -1.1040    -0.9310    -0.4350 H     1 <1>   0.0800 
 27 H       -1.3390    -0.6520     1.2770 H     1 <1>   0.0800 
 28 H       -0.4300    -2.0440     0.7360 H     1 <1>   0.0800 
 29 H        1.9890     2.0370     1.4260 H     1 <1>   0.0800 
 30 H        1.3420     3.1000     0.2060 H     1 <1>   0.0800 
 31 H        3.5650    -0.2970    -1.1140 H     1 <1>   0.0800 
 32 H        3.3720    -0.0810     0.6050 H     1 <1>   0.0800 
 33 H        2.1720     1.6420    -1.5770 H     1 <1>   0.0800 
 34 H        4.5630     1.8620    -1.2080 H     1 <1>   0.4500 
 35 H        4.6440     1.5190     1.2130 H     1 <1>   0.0800 
 36 H        4.0950     3.1760     1.3500 H     1 <1>   0.0800 
 37 H        3.0850     4.3300    -0.6150 H     1 <1>   0.0800 
 38 H        3.2660     3.6160    -2.2050 H     1 <1>   0.0800 
 39 H        4.6700     4.1900    -1.3410 H     1 <1>   0.0800 
 40 H        5.7170     4.9290     1.1730 H     1 <1>   0.1500 
 41 H        6.6670     1.0360    -0.3470 H     1 <1>   0.1500 
 42 H        8.9280     1.8040    -0.8480 H     1 <1>   0.1500 
 43 H        7.4130     6.6840     1.1760 H     1 <1>   0.1500 
 44 H       10.6240     3.5780    -0.8780 H     1 <1>   0.1500 
 45 H        9.6930     7.4340     0.6490 H     1 <1>   0.1500 
 46 H       11.2890     5.8930    -0.3730 H     1 <1>   0.1500 
@<TRIPOS>BOND
  1   1   2  1   
  2   1   3  1   
  3   1   4  1   
  4   1  21  1   
  5   2   5  1   
  6   2  22  1   
  7   2  23  1   
  8   3   6  1   
  9   3  24  1   
 10   3  25  1   
 11   4  26  1   
 12   4  27  1   
 13   4  28  1   
 14   5   7  1   
 15   5  29  1   
 16   5  30  1   
 17   6   7  1   
 18   6  31  1   
 19   6  32  1   
 20   7   8  1   
 21   7  33  1   
 22   8   9  1   
 23   8  10  1   
 24   8  34  1   
 25   9  11  1   
 26   9  35  1   
 27   9  36  1   
 28  10  37  1   
 29  10  38  1   
 30  10  39  1   
 31  11  12  ar  
 32  11  13  ar  
 33  12  14  ar  
 34  12  40  1   
 35  13  15  ar  
 36  13  41  1   
 37  14  16  ar  
 38  14  17  ar  
 39  15  16  ar  
 40  15  42  1   
 41  16  18  ar  
 42  17  19  ar  
 43  17  43  1   
 44  18  20  ar  
 45  18  44  1   
 46  19  20  ar  
 47  19  45  1   
 48  20  46  1   
@<TRIPOS>SUBSTRUCTURE
  1 ****   9 GROUP 4 **** **** 0

# MOE 2024.06 (io_trps.svl 2023.06)
