@<TRIPOS>MOLECULE
NONAME
25 24 1 0 0 
SMALL
USER_CHARGES


@<TRIPOS>ATOM
  1 S        0.1940     0.1910     0.5840 S.3   1 <1>  -0.4600 
  2 C        1.8290    -0.5180     0.2390 C.3   1 <1>   0.0700 
  3 C       -0.9340    -0.9550    -0.2510 C.3   1 <1>  -0.0100 
  4 C        2.8890     0.4660     0.7330 C.3   1 <1>   0.1400 
  5 N        4.2390    -0.1440     0.6450 N.am  1 <1>  -0.7300 
  6 C        4.9340    -0.3110    -0.5080 C.2   1 <1>   0.5690 
  7 O        4.4700    -0.0230    -1.5830 O.2   1 <1>  -0.5700 
  8 C        6.3330    -0.8880    -0.4330 C.3   1 <1>  -0.0990 
  9 C        7.3650     0.1530     0.0300 C.3   1 <1>  -0.1600 
 10 C        8.7730    -0.4470     0.0970 C.3   1 <1>  -0.2400 
 11 H        1.9040    -0.6640    -0.8240 H     1 <1>   0.0800 
 12 H        1.8860    -1.4560     0.7600 H     1 <1>   0.0800 
 13 H       -1.9360    -0.6010    -0.0920 H     1 <1>   0.0800 
 14 H       -0.7980    -1.9300     0.1810 H     1 <1>   0.0800 
 15 H       -0.6900    -0.9570    -1.2980 H     1 <1>   0.0800 
 16 H        2.6870     0.7380     1.7540 H     1 <1>   0.0800 
 17 H        2.8580     1.3550     0.1260 H     1 <1>   0.0800 
 18 H        4.6750    -0.3940     1.5340 H     1 <1>   0.3700 
 19 H        6.6020    -1.2500    -1.4100 H     1 <1>   0.0800 
 20 H        6.3280    -1.7270     0.2380 H     1 <1>   0.0800 
 21 H        7.0910     0.5300     1.0000 H     1 <1>   0.0800 
 22 H        7.3630     0.9820    -0.6590 H     1 <1>   0.0800 
 23 H        8.8030    -1.2650     0.7950 H     1 <1>   0.0800 
 24 H        9.4760     0.3010     0.4170 H     1 <1>   0.0800 
 25 H        9.0750    -0.8060    -0.8720 H     1 <1>   0.0800 
@<TRIPOS>BOND
  1   1   2  1   
  2   1   3  1   
  3   2   4  1   
  4   2  11  1   
  5   2  12  1   
  6   3  13  1   
  7   3  14  1   
  8   3  15  1   
  9   4   5  1   
 10   4  16  1   
 11   4  17  1   
 12   5   6  am  
 13   5  18  1   
 14   6   7  2   
 15   6   8  1   
 16   8   9  1   
 17   8  19  1   
 18   8  20  1   
 19   9  10  1   
 20   9  21  1   
 21   9  22  1   
 22  10  23  1   
 23  10  24  1   
 24  10  25  1   
@<TRIPOS>SUBSTRUCTURE
  1 ****   5 GROUP 4 **** **** 0

# MOE 2024.06 (io_trps.svl 2023.06)
