@<TRIPOS>MOLECULE
NONAME
48 50 1 0 0 
SMALL
USER_CHARGES


@<TRIPOS>ATOM
  1 CL      -2.5310     0.5910     2.6730 Cl    1 <1>  -0.1770 
  2 C       -1.7900     1.1660     1.1980 C.ar  1 <1>   0.1770 
  3 C       -2.4080     2.1370     0.4180 C.ar  1 <1>  -0.1440 
  4 C       -0.5800     0.6050     0.8320 C.ar  1 <1>  -0.1500 
  5 C       -1.7780     2.5330    -0.7550 C.ar  1 <1>  -0.1500 
  6 C       -3.7360     2.7750     0.8120 C.3   1 <1>   0.2840 
  7 C        0.0330     1.0100    -0.3400 C.ar  1 <1>  -0.1500 
  8 C       -0.5690     1.9730    -1.1320 C.ar  1 <1>  -0.1500 
  9 N       -4.7300     2.6050    -0.2720 N.am  1 <1>  -0.7300 
 10 C       -5.2720     1.4760    -0.7840 C.2   1 <1>   0.5690 
 11 O       -6.0100     1.5550    -1.7320 O.2   1 <1>  -0.5700 
 12 C       -4.9640     0.0910    -0.2130 C.3   1 <1>  -0.0190 
 13 C       -3.9880    -0.6670    -1.1310 C.3   1 <1>  -0.1600 
 14 C       -6.2420    -0.7430    -0.0090 C.3   1 <1>  -0.1600 
 15 C       -3.7020    -2.0710    -0.6080 C.3   1 <1>   0.3430 
 16 C       -5.9230    -2.1510     0.4890 C.3   1 <1>   0.3430 
 17 N       -4.9810    -2.8170    -0.4580 N.4   1 <1>  -0.9590 
 18 C       -4.7440    -4.2420    -0.0830 C.3   1 <1>   0.5230 
 19 C       -5.9530    -5.0800    -0.4550 C.2   1 <1>  -0.0400 
 20 O       -7.0800    -4.9170     0.2110 O.3   1 <1>  -0.2800 
 21 C       -6.1000    -6.0300    -1.4040 C.2   1 <1>  -0.1500 
 22 C       -7.9680    -5.7490    -0.2920 C.2   1 <1>  -0.0400 
 23 C       -7.4260    -6.4680    -1.2970 C.2   1 <1>  -0.1500 
 24 C       -9.3630    -5.7730     0.2940 C.3   1 <1>  -0.0600 
 25 H       -0.1200    -0.1360     1.4610 H     1 <1>   0.1500 
 26 H       -2.2270     3.2840    -1.3840 H     1 <1>   0.1500 
 27 H       -3.5810     3.8270     0.9810 H     1 <1>   0.0800 
 28 H       -4.1300     2.3570     1.7210 H     1 <1>   0.0800 
 29 H        0.9790     0.5850    -0.6340 H     1 <1>   0.1500 
 30 H       -0.0920     2.2930    -2.0440 H     1 <1>   0.1500 
 31 H       -5.0050     3.4660    -0.7520 H     1 <1>   0.3700 
 32 H       -4.5070     0.2090     0.7500 H     1 <1>   0.0800 
 33 H       -3.0620    -0.1240    -1.2010 H     1 <1>   0.0800 
 34 H       -4.3950    -0.7280    -2.1260 H     1 <1>   0.0800 
 35 H       -6.7940    -0.8120    -0.9310 H     1 <1>   0.0800 
 36 H       -6.8780    -0.2520     0.7060 H     1 <1>   0.0800 
 37 H       -3.2020    -2.0030     0.3450 H     1 <1>   0.0800 
 38 H       -3.0510    -2.5820    -1.3000 H     1 <1>   0.0800 
 39 H       -6.8420    -2.7110     0.5630 H     1 <1>   0.0800 
 40 H       -5.4810    -2.0970     1.4710 H     1 <1>   0.0800 
 41 H       -5.4560    -2.8400    -1.3710 H     1 <1>   0.4500 
 42 H       -4.5510    -4.3280     0.9730 H     1 <1>   0.0800 
 43 H       -3.8900    -4.6220    -0.6190 H     1 <1>   0.0800 
 44 H       -5.3890    -6.4130    -2.1170 H     1 <1>   0.1500 
 45 H       -7.8860    -7.2270    -1.9060 H     1 <1>   0.1500 
 46 H       -9.8210    -4.8060     0.1930 H     1 <1>   0.0800 
 47 H       -9.3170    -6.0310     1.3360 H     1 <1>   0.0800 
 48 H       -9.9690    -6.5000    -0.2170 H     1 <1>   0.0800 
@<TRIPOS>BOND
  1   1   2  1   
  2   2   3  ar  
  3   2   4  ar  
  4   3   5  ar  
  5   3   6  1   
  6   4   7  ar  
  7   4  25  1   
  8   5   8  ar  
  9   5  26  1   
 10   6   9  1   
 11   6  27  1   
 12   6  28  1   
 13   7   8  ar  
 14   7  29  1   
 15   8  30  1   
 16   9  10  am  
 17   9  31  1   
 18  10  11  2   
 19  10  12  1   
 20  12  13  1   
 21  12  14  1   
 22  12  32  1   
 23  13  15  1   
 24  13  33  1   
 25  13  34  1   
 26  14  16  1   
 27  14  35  1   
 28  14  36  1   
 29  15  17  1   
 30  15  37  1   
 31  15  38  1   
 32  16  17  1   
 33  16  39  1   
 34  16  40  1   
 35  17  18  1   
 36  17  41  1   
 37  18  19  1   
 38  18  42  1   
 39  18  43  1   
 40  19  20  1   
 41  19  21  2   
 42  20  22  1   
 43  21  23  1   
 44  21  44  1   
 45  22  23  2   
 46  22  24  1   
 47  23  45  1   
 48  24  46  1   
 49  24  47  1   
 50  24  48  1   
@<TRIPOS>SUBSTRUCTURE
  1 ****  13 GROUP 4 **** **** 0

# MOE 2024.06 (io_trps.svl 2023.06)
