@<TRIPOS>MOLECULE
NONAME
42 43 1 0 0 
SMALL
USER_CHARGES


@<TRIPOS>ATOM
  1 CL       1.4610    -0.4810     1.1060 Cl    1 <1>  -0.1770 
  2 C        1.0040    -2.1050     0.6480 C.ar  1 <1>   0.1770 
  3 C        1.6710    -2.7300    -0.3950 C.ar  1 <1>  -0.1440 
  4 C       -0.0100    -2.7350     1.3430 C.ar  1 <1>  -0.1500 
  5 C        1.3160    -4.0280    -0.7290 C.ar  1 <1>  -0.1500 
  6 C        2.7650    -2.0070    -1.1470 C.3   1 <1>   0.4870 
  7 C       -0.3720    -4.0240     0.9950 C.ar  1 <1>   0.0830 
  8 C        0.3140    -4.6870    -0.0330 C.ar  1 <1>   0.0830 
  9 N        3.9590    -1.9740    -0.2770 N.4   1 <1>  -0.9060 
 10 O       -1.3950    -4.5880     1.6760 O.3   1 <1>  -0.3620 
 11 O        0.0640    -5.9660    -0.4080 O.3   1 <1>  -0.3620 
 12 C        5.1290    -1.2960    -0.8580 C.3   1 <1>   0.4230 
 13 C       -2.6120    -4.7150     0.9720 C.3   1 <1>   0.0400 
 14 C        0.0500    -6.9650     0.5890 C.3   1 <1>   0.1200 
 15 C        6.3020    -1.4970     0.0920 C.3   1 <1>  -0.1600 
 16 C        4.9170     0.2150    -0.8130 C.3   1 <1>  -0.1600 
 17 C        0.2920    -8.3100    -0.0890 C.3   1 <1>  -0.2400 
 18 C        6.1170    -0.4660     1.2130 C.3   1 <1>  -0.1600 
 19 C        5.2310     0.6410     0.6260 C.3   1 <1>  -0.1600 
 20 H       -0.5210    -2.2320     2.1440 H     1 <1>   0.1500 
 21 H        1.8040    -4.5580    -1.5300 H     1 <1>   0.1500 
 22 H        2.4410    -1.0060    -1.3830 H     1 <1>   0.0800 
 23 H        2.9840    -2.5260    -2.0660 H     1 <1>   0.0800 
 24 H        4.2040    -2.9320    -0.0080 H     1 <1>   0.4500 
 25 H        3.7140    -1.4790     0.5900 H     1 <1>   0.4500 
 26 H        5.3440    -1.6600    -1.8510 H     1 <1>   0.0800 
 27 H       -3.3310    -5.1770     1.6240 H     1 <1>   0.0800 
 28 H       -2.4580    -5.3280     0.1010 H     1 <1>   0.0800 
 29 H       -2.9510    -3.7360     0.6850 H     1 <1>   0.0800 
 30 H       -0.9090    -6.9580     1.0760 H     1 <1>   0.0800 
 31 H        0.8240    -6.7530     1.3060 H     1 <1>   0.0800 
 32 H        7.2100    -1.2620    -0.4390 H     1 <1>   0.0800 
 33 H        6.3850    -2.5040     0.4630 H     1 <1>   0.0800 
 34 H        3.9400     0.5330    -1.1320 H     1 <1>   0.0800 
 35 H        5.6420     0.6730    -1.4660 H     1 <1>   0.0800 
 36 H       -0.4820    -8.5060    -0.8090 H     1 <1>   0.0800 
 37 H        0.2830    -9.0940     0.6460 H     1 <1>   0.0800 
 38 H        1.2490    -8.3110    -0.5810 H     1 <1>   0.0800 
 39 H        7.0680    -0.0740     1.5340 H     1 <1>   0.0800 
 40 H        5.6310    -0.9130     2.0640 H     1 <1>   0.0800 
 41 H        4.3250     0.7330     1.2030 H     1 <1>   0.0800 
 42 H        5.7370     1.5930     0.6410 H     1 <1>   0.0800 
@<TRIPOS>BOND
  1   1   2  1   
  2   2   3  ar  
  3   2   4  ar  
  4   3   5  ar  
  5   3   6  1   
  6   4   7  ar  
  7   4  20  1   
  8   5   8  ar  
  9   5  21  1   
 10   6   9  1   
 11   6  22  1   
 12   6  23  1   
 13   7   8  ar  
 14   7  10  1   
 15   8  11  1   
 16   9  12  1   
 17   9  24  1   
 18   9  25  1   
 19  10  13  1   
 20  11  14  1   
 21  12  15  1   
 22  12  16  1   
 23  12  26  1   
 24  13  27  1   
 25  13  28  1   
 26  13  29  1   
 27  14  17  1   
 28  14  30  1   
 29  14  31  1   
 30  15  18  1   
 31  15  32  1   
 32  15  33  1   
 33  16  19  1   
 34  16  34  1   
 35  16  35  1   
 36  17  36  1   
 37  17  37  1   
 38  17  38  1   
 39  18  19  1   
 40  18  39  1   
 41  18  40  1   
 42  19  41  1   
 43  19  42  1   
@<TRIPOS>SUBSTRUCTURE
  1 ****   3 GROUP 4 **** **** 0

# MOE 2024.06 (io_trps.svl 2023.06)
