@<TRIPOS>MOLECULE
NONAME
54 55 1 0 0 
SMALL
USER_CHARGES


@<TRIPOS>ATOM
  1 BR      -0.7570     1.4230    -2.0870 Br    1 <1>  -0.1110 
  2 C        0.5840     1.4320    -0.6960 C.ar  1 <1>   0.1110 
  3 C        0.2580     1.9300     0.5580 C.ar  1 <1>   0.0830 
  4 C        1.8380     0.9370    -0.9950 C.ar  1 <1>  -0.1500 
  5 O       -1.0020     2.3960     0.7520 O.3   1 <1>  -0.3630 
  6 C        1.2430     1.9250     1.5410 C.ar  1 <1>  -0.1500 
  7 C        2.8120     0.9350    -0.0090 C.ar  1 <1>  -0.1430 
  8 C       -1.4240     2.9330     1.9980 C.3   1 <1>   0.1810 
  9 C        2.5060     1.4300     1.2520 C.ar  1 <1>  -0.1500 
 10 C        4.2030     0.3990    -0.3090 C.3   1 <1>  -0.0160 
 11 C       -2.8780     3.3820     1.9090 C.2   1 <1>   0.5690 
 12 C        5.1080     1.5190    -0.8250 C.3   1 <1>  -0.2400 
 13 O       -3.4000     3.9030     2.8650 O.2   1 <1>  -0.5700 
 14 N       -3.5590     3.1910     0.7470 N.am  1 <1>  -0.7300 
 15 C       -4.9570     3.5630     0.5160 C.3   1 <1>   0.2200 
 16 C       -5.6550     2.4350    -0.2350 C.3   1 <1>  -0.1600 
 17 C       -4.9940     4.8390    -0.3160 C.3   1 <1>  -0.1600 
 18 C       -7.1100     2.7860    -0.5710 C.3   1 <1>   0.5030 
 19 C       -6.4280     5.2640    -0.6510 C.3   1 <1>   0.5030 
 20 N       -7.2140     4.1300    -1.1670 N.4   1 <1>  -0.9060 
 21 C       -7.6330     1.8240    -1.6370 C.3   1 <1>  -0.2400 
 22 C       -8.0250     2.6820     0.6520 C.3   1 <1>  -0.2400 
 23 C       -6.4040     6.2930    -1.7800 C.3   1 <1>  -0.2400 
 24 C       -7.1390     5.8940     0.5500 C.3   1 <1>  -0.2400 
 25 H        2.0440     0.5630    -1.9820 H     1 <1>   0.1500 
 26 H        1.0530     2.2970     2.5300 H     1 <1>   0.1500 
 27 H       -0.8020     3.7760     2.2370 H     1 <1>   0.0800 
 28 H       -1.3270     2.1730     2.7510 H     1 <1>   0.0800 
 29 H        3.2610     1.4330     2.0200 H     1 <1>   0.1500 
 30 H        4.1400    -0.3830    -1.0460 H     1 <1>   0.0800 
 31 H        4.6290    -0.0280     0.5830 H     1 <1>   0.0800 
 32 H        4.7000     1.9400    -1.7270 H     1 <1>   0.0800 
 33 H        6.0900     1.1350    -1.0360 H     1 <1>   0.0800 
 34 H        5.1920     2.2990    -0.0890 H     1 <1>   0.0800 
 35 H       -3.0350     2.7640    -0.0250 H     1 <1>   0.3700 
 36 H       -5.4340     3.7250     1.4690 H     1 <1>   0.0800 
 37 H       -5.6330     1.5420     0.3660 H     1 <1>   0.0800 
 38 H       -5.1150     2.2300    -1.1420 H     1 <1>   0.0800 
 39 H       -4.4390     4.6830    -1.2240 H     1 <1>   0.0800 
 40 H       -4.5070     5.6290     0.2300 H     1 <1>   0.0800 
 41 H       -8.1990     4.4020    -1.1620 H     1 <1>   0.4500 
 42 H       -6.9520     4.0270    -2.1490 H     1 <1>   0.4500 
 43 H       -7.0420     1.8730    -2.5340 H     1 <1>   0.0800 
 44 H       -8.6610     2.0310    -1.8790 H     1 <1>   0.0800 
 45 H       -7.5830     0.8120    -1.2720 H     1 <1>   0.0800 
 46 H       -7.6460     3.2210     1.4970 H     1 <1>   0.0800 
 47 H       -8.1000     1.6530     0.9600 H     1 <1>   0.0800 
 48 H       -9.0200     3.0250     0.4280 H     1 <1>   0.0800 
 49 H       -5.9360     5.8960    -2.6640 H     1 <1>   0.0800 
 50 H       -5.8370     7.1560    -1.4760 H     1 <1>   0.0800 
 51 H       -7.3970     6.6270    -2.0250 H     1 <1>   0.0800 
 52 H       -7.0700     5.2900     1.4320 H     1 <1>   0.0800 
 53 H       -8.1730     6.0940     0.3340 H     1 <1>   0.0800 
 54 H       -6.6700     6.8320     0.7930 H     1 <1>   0.0800 
@<TRIPOS>BOND
  1   1   2  1   
  2   2   3  ar  
  3   2   4  ar  
  4   3   5  1   
  5   3   6  ar  
  6   4   7  ar  
  7   4  25  1   
  8   5   8  1   
  9   6   9  ar  
 10   6  26  1   
 11   7   9  ar  
 12   7  10  1   
 13   8  11  1   
 14   8  27  1   
 15   8  28  1   
 16   9  29  1   
 17  10  12  1   
 18  10  30  1   
 19  10  31  1   
 20  11  13  2   
 21  11  14  am  
 22  12  32  1   
 23  12  33  1   
 24  12  34  1   
 25  14  15  1   
 26  14  35  1   
 27  15  16  1   
 28  15  17  1   
 29  15  36  1   
 30  16  18  1   
 31  16  37  1   
 32  16  38  1   
 33  17  19  1   
 34  17  39  1   
 35  17  40  1   
 36  18  20  1   
 37  18  21  1   
 38  18  22  1   
 39  19  20  1   
 40  19  23  1   
 41  19  24  1   
 42  20  41  1   
 43  20  42  1   
 44  21  43  1   
 45  21  44  1   
 46  21  45  1   
 47  22  46  1   
 48  22  47  1   
 49  22  48  1   
 50  23  49  1   
 51  23  50  1   
 52  23  51  1   
 53  24  52  1   
 54  24  53  1   
 55  24  54  1   
@<TRIPOS>SUBSTRUCTURE
  1 ****  14 GROUP 4 **** **** 0

# MOE 2024.06 (io_trps.svl 2023.06)
