@<TRIPOS>MOLECULE
NONAME
35 35 1 0 0 
SMALL
USER_CHARGES


@<TRIPOS>ATOM
  1 CL      -2.9460    -1.4870     3.1340 Cl    1 <1>  -0.1770 
  2 C       -1.8160    -2.0090     1.8980 C.ar  1 <1>   0.1770 
  3 C       -2.2900    -2.6900     0.7770 C.ar  1 <1>   0.1170 
  4 C       -0.4750    -1.7260     2.0730 C.ar  1 <1>  -0.1500 
  5 N       -3.6690    -2.9550     0.6510 N.am  1 <1>  -0.5470 
  6 C       -1.3560    -3.0900    -0.1710 C.ar  1 <1>  -0.1500 
  7 C        0.4320    -2.1290     1.1100 C.ar  1 <1>  -0.1500 
  8 C       -4.4410    -3.2060    -0.4480 C.2   1 <1>   0.5690 
  9 C       -0.0040    -2.8110    -0.0190 C.ar  1 <1>   0.1000 
 10 O       -4.0140    -3.2400    -1.5760 O.2   1 <1>  -0.5700 
 11 C       -5.9150    -3.4360    -0.2440 C.3   1 <1>  -0.0380 
 12 N        0.9010    -3.2070    -0.9850 N.pl3 1 <1>  -0.9000 
 13 C       -6.4660    -2.3250     0.6190 C.2   1 <1>   0.4480 
 14 O       -6.3570    -2.4290     1.8070 O.2   1 <1>  -0.5700 
 15 C       -7.1200    -1.0940    -0.0560 C.3   1 <1>   0.0610 
 16 C       -7.4040     0.0100     0.9820 C.3   1 <1>  -0.2400 
 17 C       -8.4600    -1.4850    -0.7050 C.3   1 <1>  -0.2400 
 18 C       -6.1990    -0.4890    -1.1330 C.3   1 <1>  -0.2400 
 19 H       -0.1490    -1.2000     2.9520 H     1 <1>   0.1500 
 20 H       -4.2030    -2.8230     1.5220 H     1 <1>   0.3700 
 21 H       -1.6730    -3.6320    -1.0410 H     1 <1>   0.1500 
 22 H        1.4790    -1.9220     1.2320 H     1 <1>   0.1500 
 23 H       -6.0510    -4.3760     0.2540 H     1 <1>   0.0800 
 24 H       -6.4160    -3.4800    -1.1910 H     1 <1>   0.0800 
 25 H        1.7520    -2.6450    -1.0630 H     1 <1>   0.4000 
 26 H        0.5010    -3.4120    -1.9060 H     1 <1>   0.4000 
 27 H       -8.0710    -0.3540     1.7450 H     1 <1>   0.0800 
 28 H       -7.8560     0.8700     0.5200 H     1 <1>   0.0800 
 29 H       -6.4900     0.3190     1.4590 H     1 <1>   0.0800 
 30 H       -8.3190    -2.1990    -1.4960 H     1 <1>   0.0800 
 31 H       -8.9440    -0.6190    -1.1220 H     1 <1>   0.0800 
 32 H       -9.1170    -1.9170     0.0300 H     1 <1>   0.0800 
 33 H       -6.0310    -1.1790    -1.9410 H     1 <1>   0.0800 
 34 H       -5.2450    -0.2290    -0.7070 H     1 <1>   0.0800 
 35 H       -6.6360     0.4020    -1.5480 H     1 <1>   0.0800 
@<TRIPOS>BOND
  1   1   2  1   
  2   2   3  ar  
  3   2   4  ar  
  4   3   5  1   
  5   3   6  ar  
  6   4   7  ar  
  7   4  19  1   
  8   5   8  am  
  9   5  20  1   
 10   6   9  ar  
 11   6  21  1   
 12   7   9  ar  
 13   7  22  1   
 14   8  10  2   
 15   8  11  1   
 16   9  12  1   
 17  11  13  1   
 18  11  23  1   
 19  11  24  1   
 20  12  25  1   
 21  12  26  1   
 22  13  14  2   
 23  13  15  1   
 24  15  16  1   
 25  15  17  1   
 26  15  18  1   
 27  16  27  1   
 28  16  28  1   
 29  16  29  1   
 30  17  30  1   
 31  17  31  1   
 32  17  32  1   
 33  18  33  1   
 34  18  34  1   
 35  18  35  1   
@<TRIPOS>SUBSTRUCTURE
  1 ****   5 GROUP 4 **** **** 0

# MOE 2024.06 (io_trps.svl 2023.06)
