@<TRIPOS>MOLECULE
NONAME
46 48 1 0 0 
SMALL
USER_CHARGES


@<TRIPOS>ATOM
  1 S       -0.2980     0.7640     0.9930 S.3   1 <1>  -0.3710 
  2 C       -1.5470    -0.4050     0.4660 C.2   1 <1>   0.6510 
  3 C       -1.0140     2.4210     0.6000 C.3   1 <1>   0.0700 
  4 N       -2.6220     0.0920    -0.0210 N.2   1 <1>  -0.6290 
  5 N       -1.2760    -1.7500     0.6210 N.am  1 <1>  -0.4200 
  6 C        0.0080     3.4840     1.0030 C.3   1 <1>  -0.1600 
  7 C       -3.6150    -0.7680    -0.4300 C.ar  1 <1>   0.1790 
  8 C       -2.2550    -2.6510     0.2610 C.2   1 <1>   0.5440 
  9 C        0.0240    -2.2740     1.1520 C.3   1 <1>   0.1400 
 10 C       -0.5120     4.8950     0.7080 C.3   1 <1>  -0.2400 
 11 C       -3.4770    -2.1550    -0.3060 C.ar  1 <1>   0.0860 
 12 C       -4.7810    -0.2410    -0.9760 C.ar  1 <1>  -0.1500 
 13 O       -2.0790    -3.8490     0.4290 O.2   1 <1>  -0.5700 
 14 C        0.9530    -2.7730     0.0260 C.3   1 <1>  -0.0800 
 15 C       -4.5230    -2.9770    -0.7370 C.ar  1 <1>  -0.1500 
 16 C       -5.8040    -1.0650    -1.3960 C.ar  1 <1>  -0.1500 
 17 C        2.2220    -3.3930     0.6390 C.3   1 <1>  -0.1600 
 18 C        1.3320    -1.6630    -0.9740 C.3   1 <1>  -0.1600 
 19 C       -5.6740    -2.4410    -1.2760 C.ar  1 <1>  -0.1500 
 20 C        3.1790    -3.9110    -0.4430 C.3   1 <1>  -0.1600 
 21 C        2.2910    -2.1790    -2.0550 C.3   1 <1>  -0.1600 
 22 C        3.5470    -2.8000    -1.4330 C.3   1 <1>  -0.1600 
 23 H       -1.9310     2.5150     1.1570 H     1 <1>   0.0800 
 24 H       -1.2180     2.4410    -0.4560 H     1 <1>   0.0800 
 25 H        0.9230     3.3200     0.4600 H     1 <1>   0.0800 
 26 H        0.2180     3.3940     2.0550 H     1 <1>   0.0800 
 27 H       -0.1870    -3.0960     1.8150 H     1 <1>   0.0800 
 28 H        0.5320    -1.5350     1.7410 H     1 <1>   0.0800 
 29 H       -0.7120     5.0100    -0.3430 H     1 <1>   0.0800 
 30 H        0.2210     5.6260     0.9990 H     1 <1>   0.0800 
 31 H       -1.4190     5.0840     1.2560 H     1 <1>   0.0800 
 32 H       -4.8710     0.8270    -1.0640 H     1 <1>   0.1500 
 33 H        0.4370    -3.5530    -0.5100 H     1 <1>   0.0800 
 34 H       -4.4200    -4.0450    -0.6420 H     1 <1>   0.1500 
 35 H       -6.7020    -0.6450    -1.8170 H     1 <1>   0.1500 
 36 H        1.9500    -4.2100     1.2850 H     1 <1>   0.0800 
 37 H        2.7320    -2.6550     1.2340 H     1 <1>   0.0800 
 38 H        1.8030    -0.8500    -0.4480 H     1 <1>   0.0800 
 39 H        0.4490    -1.2790    -1.4540 H     1 <1>   0.0800 
 40 H       -6.4730    -3.0850    -1.6030 H     1 <1>   0.1500 
 41 H        2.7100    -4.7210    -0.9750 H     1 <1>   0.0800 
 42 H        4.0730    -4.2930     0.0180 H     1 <1>   0.0800 
 43 H        2.5730    -1.3670    -2.7030 H     1 <1>   0.0800 
 44 H        1.7870    -2.9190    -2.6530 H     1 <1>   0.0800 
 45 H        4.1740    -3.2020    -2.2110 H     1 <1>   0.0800 
 46 H        4.1060    -2.0360    -0.9210 H     1 <1>   0.0800 
@<TRIPOS>BOND
  1   1   2  1   
  2   1   3  1   
  3   2   4  2   
  4   2   5  1   
  5   3   6  1   
  6   3  23  1   
  7   3  24  1   
  8   4   7  1   
  9   5   8  am  
 10   5   9  1   
 11   6  10  1   
 12   6  25  1   
 13   6  26  1   
 14   7  11  ar  
 15   7  12  ar  
 16   8  11  1   
 17   8  13  2   
 18   9  14  1   
 19   9  27  1   
 20   9  28  1   
 21  10  29  1   
 22  10  30  1   
 23  10  31  1   
 24  11  15  ar  
 25  12  16  ar  
 26  12  32  1   
 27  14  17  1   
 28  14  18  1   
 29  14  33  1   
 30  15  19  ar  
 31  15  34  1   
 32  16  19  ar  
 33  16  35  1   
 34  17  20  1   
 35  17  36  1   
 36  17  37  1   
 37  18  21  1   
 38  18  38  1   
 39  18  39  1   
 40  19  40  1   
 41  20  22  1   
 42  20  41  1   
 43  20  42  1   
 44  21  22  1   
 45  21  43  1   
 46  21  44  1   
 47  22  45  1   
 48  22  46  1   
@<TRIPOS>SUBSTRUCTURE
  1 ****   5 GROUP 4 **** **** 0

# MOE 2024.06 (io_trps.svl 2023.06)
