@<TRIPOS>MOLECULE
NONAME
48 50 1 0 0 
SMALL
USER_CHARGES


@<TRIPOS>ATOM
  1 O        0.3200    -0.4700    -0.2600 O.2   1 <1>  -0.5700 
  2 C        1.3980    -0.9950    -0.3660 C.2   1 <1>   0.5690 
  3 N        2.5230    -0.2650    -0.1590 N.am  1 <1>  -0.5390 
  4 C        1.5730    -2.4200    -0.8550 C.3   1 <1>   0.0420 
  5 C        3.8060    -0.7420    -0.3380 C.2   1 <1>  -0.0290 
  6 C        0.2780    -3.1940    -0.6480 C.2   1 <1>   0.5690 
  7 C        2.8910    -3.0850    -0.3280 C.3   1 <1>   0.1380 
  8 C        4.0600    -2.0710    -0.4550 C.2   1 <1>  -0.1240 
  9 C        4.8610     0.3520    -0.3950 C.3   1 <1>  -0.1020 
 10 O       -0.1340    -3.4560     0.4530 O.2   1 <1>  -0.5700 
 11 N       -0.4300    -3.6100    -1.7180 N.am  1 <1>  -0.8000 
 12 C        3.1170    -4.4240    -1.0770 C.3   1 <1>  -0.1600 
 13 C        2.8000    -3.5190     1.1530 C.3   1 <1>  -0.1600 
 14 C        5.3820    -2.5910    -0.6320 C.2   1 <1>   0.6160 
 15 C        2.4380    -5.5110    -0.2480 C.3   1 <1>  -0.1600 
 16 C        2.5180    -5.0270     1.1970 C.3   1 <1>  -0.1600 
 17 O        5.8080    -2.8350    -1.7450 O.2   1 <1>  -0.5700 
 18 N        6.1750    -2.7660     0.4710 N.am  1 <1>  -0.5470 
 19 C        7.5030    -3.2030     0.5370 C.ar  1 <1>   0.1170 
 20 C        7.8840    -4.5090     0.2180 C.ar  1 <1>  -0.1430 
 21 C        8.4700    -2.3010     0.9630 C.ar  1 <1>  -0.1500 
 22 C        9.2160    -4.8770     0.3220 C.ar  1 <1>  -0.1500 
 23 C        6.8710    -5.5490    -0.2400 C.3   1 <1>  -0.0970 
 24 C        9.7960    -2.6770     1.0680 C.ar  1 <1>  -0.1500 
 25 C       10.1710    -3.9680     0.7460 C.ar  1 <1>  -0.1500 
 26 H        2.3500     0.7190     0.0560 H     1 <1>   0.3700 
 27 H        1.6980    -2.3160    -1.9150 H     1 <1>   0.0800 
 28 H        4.6200     1.0480    -1.1790 H     1 <1>   0.0800 
 29 H        5.8420    -0.0390    -0.5970 H     1 <1>   0.0800 
 30 H        4.8930     0.8820     0.5400 H     1 <1>   0.0800 
 31 H       -1.3220    -4.0800    -1.5550 H     1 <1>   0.3700 
 32 H       -0.2200    -3.3670    -2.6850 H     1 <1>   0.3700 
 33 H        4.1550    -4.6880    -1.1200 H     1 <1>   0.0800 
 34 H        2.7490    -4.4050    -2.0870 H     1 <1>   0.0800 
 35 H        2.0420    -2.9680     1.6840 H     1 <1>   0.0800 
 36 H        3.7300    -3.3430     1.6600 H     1 <1>   0.0800 
 37 H        2.9220    -6.4650    -0.3730 H     1 <1>   0.0800 
 38 H        1.4080    -5.6160    -0.5390 H     1 <1>   0.0800 
 39 H        1.5960    -5.2330     1.7160 H     1 <1>   0.0800 
 40 H        3.3200    -5.5320     1.7090 H     1 <1>   0.0800 
 41 H        5.7890    -2.4050     1.3400 H     1 <1>   0.3700 
 42 H        8.1850    -1.2960     1.2090 H     1 <1>   0.1500 
 43 H        9.5220    -5.8780     0.0730 H     1 <1>   0.1500 
 44 H        6.5900    -5.3540    -1.2590 H     1 <1>   0.0800 
 45 H        5.9930    -5.5140     0.3790 H     1 <1>   0.0800 
 46 H        7.2830    -6.5390    -0.1830 H     1 <1>   0.0800 
 47 H       10.5360    -1.9680     1.3960 H     1 <1>   0.1500 
 48 H       11.2020    -4.2670     0.8220 H     1 <1>   0.1500 
@<TRIPOS>BOND
  1   1   2  2   
  2   2   3  am  
  3   2   4  1   
  4   3   5  1   
  5   3  26  1   
  6   4   6  1   
  7   4   7  1   
  8   4  27  1   
  9   5   8  2   
 10   5   9  1   
 11   6  10  2   
 12   6  11  am  
 13   7   8  1   
 14   7  12  1   
 15   7  13  1   
 16   8  14  1   
 17   9  28  1   
 18   9  29  1   
 19   9  30  1   
 20  11  31  1   
 21  11  32  1   
 22  12  15  1   
 23  12  33  1   
 24  12  34  1   
 25  13  16  1   
 26  13  35  1   
 27  13  36  1   
 28  14  17  2   
 29  14  18  am  
 30  15  16  1   
 31  15  37  1   
 32  15  38  1   
 33  16  39  1   
 34  16  40  1   
 35  18  19  1   
 36  18  41  1   
 37  19  20  ar  
 38  19  21  ar  
 39  20  22  ar  
 40  20  23  1   
 41  21  24  ar  
 42  21  42  1   
 43  22  25  ar  
 44  22  43  1   
 45  23  44  1   
 46  23  45  1   
 47  23  46  1   
 48  24  25  ar  
 49  24  47  1   
 50  25  48  1   
@<TRIPOS>SUBSTRUCTURE
  1 ****   8 GROUP 4 **** **** 0

# MOE 2024.06 (io_trps.svl 2023.06)
