@<TRIPOS>MOLECULE
NONAME
47 48 1 0 0 
SMALL
USER_CHARGES


@<TRIPOS>ATOM
  1 P        0.6680     0.8100    -0.7350 P.3   1 <1>   0.9780 
  2 O        1.0650     0.0310    -1.9020 O.2   1 <1>  -0.7000 
  3 C        0.8930     2.5710    -0.9390 C.ar  1 <1>  -0.1390 
  4 C       -1.0150     0.5480    -0.1880 C.ar  1 <1>  -0.1390 
  5 C        1.6970     0.4060     0.6480 C.3   1 <1>  -0.1600 
  6 C        1.2760     3.0990    -2.1670 C.ar  1 <1>  -0.1500 
  7 C        0.6980     3.4760     0.1010 C.ar  1 <1>  -0.1500 
  8 C       -1.4010    -0.6490     0.4080 C.ar  1 <1>  -0.1500 
  9 C       -2.0080     1.5110    -0.3510 C.ar  1 <1>  -0.1500 
 10 C        3.1640     0.6550     0.3170 C.3   1 <1>   0.1200 
 11 C        1.4640     4.4580    -2.3530 C.ar  1 <1>  -0.1500 
 12 C        0.8830     4.8360    -0.0710 C.ar  1 <1>  -0.1500 
 13 C       -2.6960    -0.8670     0.8460 C.ar  1 <1>  -0.1500 
 14 C       -3.3060     1.3070     0.0830 C.ar  1 <1>  -0.1500 
 15 O        3.9280     0.2160     1.3960 O.3   1 <1>  -0.5600 
 16 C        1.2680     5.3310    -1.3010 C.ar  1 <1>  -0.1500 
 17 C       -3.6530     0.1150     0.6870 C.ar  1 <1>  -0.1500 
 18 C        5.3070     0.2830     1.2180 C.3   1 <1>   0.1200 
 19 C        5.7920    -1.0360     0.5940 C.3   1 <1>   0.3430 
 20 N        7.2910    -1.1270     0.5130 N.4   1 <1>  -0.9590 
 21 C        7.8730    -0.1270    -0.4390 C.3   1 <1>   0.2630 
 22 C        7.6990    -2.5130     0.1220 C.3   1 <1>   0.2630 
 23 H        1.5890    -0.6330     0.8950 H     1 <1>   0.0800 
 24 H        1.4360     0.9800     1.5160 H     1 <1>   0.0800 
 25 H        1.4280     2.4330    -3.0020 H     1 <1>   0.1500 
 26 H        0.3890     3.1220     1.0700 H     1 <1>   0.1500 
 27 H       -0.6820    -1.4390     0.5320 H     1 <1>   0.1500 
 28 H       -1.7770     2.4480    -0.8300 H     1 <1>   0.1500 
 29 H        3.3470     1.7070     0.1650 H     1 <1>   0.0800 
 30 H        3.4440     0.1040    -0.5650 H     1 <1>   0.0800 
 31 H        1.7590     4.8330    -3.3180 H     1 <1>   0.1500 
 32 H        0.7250     5.5120     0.7530 H     1 <1>   0.1500 
 33 H       -2.9590    -1.8040     1.3070 H     1 <1>   0.1500 
 34 H       -4.0470     2.0750    -0.0550 H     1 <1>   0.1500 
 35 H        1.4120     6.3890    -1.4410 H     1 <1>   0.1500 
 36 H       -4.6610    -0.0490     1.0270 H     1 <1>   0.1500 
 37 H        5.7390     0.4080     2.1950 H     1 <1>   0.0800 
 38 H        5.5460     1.1370     0.6080 H     1 <1>   0.0800 
 39 H        5.3690    -1.1360    -0.3920 H     1 <1>   0.0800 
 40 H        5.4210    -1.8430     1.2040 H     1 <1>   0.0800 
 41 H        7.6700    -0.9430     1.4560 H     1 <1>   0.4500 
 42 H        7.4810    -0.2820    -1.4310 H     1 <1>   0.0800 
 43 H        8.9460    -0.2260    -0.4740 H     1 <1>   0.0800 
 44 H        7.6350     0.8760    -0.1260 H     1 <1>   0.0800 
 45 H        7.3170    -2.7550    -0.8570 H     1 <1>   0.0800 
 46 H        7.3130    -3.2310     0.8290 H     1 <1>   0.0800 
 47 H        8.7740    -2.5960     0.1030 H     1 <1>   0.0800 
@<TRIPOS>BOND
  1   1   2  2   
  2   1   3  1   
  3   1   4  1   
  4   1   5  1   
  5   3   6  ar  
  6   3   7  ar  
  7   4   8  ar  
  8   4   9  ar  
  9   5  10  1   
 10   5  23  1   
 11   5  24  1   
 12   6  11  ar  
 13   6  25  1   
 14   7  12  ar  
 15   7  26  1   
 16   8  13  ar  
 17   8  27  1   
 18   9  14  ar  
 19   9  28  1   
 20  10  15  1   
 21  10  29  1   
 22  10  30  1   
 23  11  16  ar  
 24  11  31  1   
 25  12  16  ar  
 26  12  32  1   
 27  13  17  ar  
 28  13  33  1   
 29  14  17  ar  
 30  14  34  1   
 31  15  18  1   
 32  16  35  1   
 33  17  36  1   
 34  18  19  1   
 35  18  37  1   
 36  18  38  1   
 37  19  20  1   
 38  19  39  1   
 39  19  40  1   
 40  20  21  1   
 41  20  22  1   
 42  20  41  1   
 43  21  42  1   
 44  21  43  1   
 45  21  44  1   
 46  22  45  1   
 47  22  46  1   
 48  22  47  1   
@<TRIPOS>SUBSTRUCTURE
  1 ****   5 GROUP 4 **** **** 0

# MOE 2024.06 (io_trps.svl 2023.06)
