@<TRIPOS>MOLECULE
NONAME
56 58 1 0 0 
SMALL
USER_CHARGES


@<TRIPOS>ATOM
  1 S        0.1350     0.6380     0.4840 S.3   1 <1>  -0.0800 
  2 C       -0.1120    -1.0230     0.0060 C.2   1 <1>   0.1040 
  3 C        1.8600     0.4000     0.6860 C.2   1 <1>  -0.1400 
  4 N       -1.3820    -1.4710    -0.3380 N.am  1 <1>  -0.4940 
  5 C        1.0670    -1.7200     0.0370 C.2   1 <1>  -0.0860 
  6 C        2.2010    -0.8720     0.3820 C.2   1 <1>  -0.1810 
  7 C        2.5930     1.6550     1.1400 C.3   1 <1>   0.0200 
  8 C       -2.6170    -0.8700    -0.3710 C.2   1 <1>   0.5690 
  9 C        1.0950    -3.1400    -0.2310 C.2   1 <1>   0.8060 
 10 C        3.6260    -1.4410     0.3510 C.3   1 <1>   0.0210 
 11 C        3.1690     2.4410    -0.0460 C.3   1 <1>  -0.1600 
 12 O       -2.8110     0.2770    -0.0450 O.2   1 <1>  -0.5700 
 13 C       -3.7960    -1.7430    -0.8490 C.3   1 <1>   0.1710 
 14 O        0.1760    -3.7200    -0.7870 O.2   1 <1>  -0.5700 
 15 O        2.1370    -3.8770     0.1760 O.3   1 <1>  -0.4300 
 16 C        4.7910    -0.4440     0.2690 C.3   1 <1>  -0.1600 
 17 C        4.5750     2.0040    -0.4940 C.3   1 <1>  -0.1600 
 18 N       -5.1690    -1.1940    -0.6340 N.3   1 <1>  -0.8100 
 19 C        2.1990    -5.2760    -0.0290 C.3   1 <1>   0.0400 
 20 C        4.6870     0.5320    -0.9200 C.3   1 <1>  -0.1600 
 21 C       -6.2270    -1.9620    -1.3270 C.3   1 <1>   0.1100 
 22 C       -5.5060    -1.0080     0.8010 C.3   1 <1>   0.1100 
 23 C       -7.6280    -1.3260    -1.1270 C.3   1 <1>   0.3430 
 24 C       -6.8660    -0.2910     0.9840 C.3   1 <1>   0.3430 
 25 N       -7.5360    -0.0510    -0.3380 N.4   1 <1>  -0.9590 
 26 C       -8.8230     0.6910    -0.2300 C.3   1 <1>   0.2630 
 27 H       -1.3670    -2.4460    -0.6570 H     1 <1>   0.3700 
 28 H        3.3570     1.4200     1.8560 H     1 <1>   0.0800 
 29 H        1.8870     2.2830     1.6540 H     1 <1>   0.0800 
 30 H        3.7140    -2.0670    -0.5180 H     1 <1>   0.0800 
 31 H        3.7670    -2.0640     1.2170 H     1 <1>   0.0800 
 32 H        3.2230     3.4780     0.2350 H     1 <1>   0.0800 
 33 H        2.4870     2.3750    -0.8770 H     1 <1>   0.0800 
 34 H       -3.7230    -2.7020    -0.3660 H     1 <1>   0.0800 
 35 H       -3.6540    -1.8980    -1.9040 H     1 <1>   0.0800 
 36 H        5.6940    -1.0180     0.1500 H     1 <1>   0.0800 
 37 H        4.8990     0.0750     1.2010 H     1 <1>   0.0800 
 38 H        5.2870     2.2120     0.2860 H     1 <1>   0.0800 
 39 H        4.8490     2.6150    -1.3370 H     1 <1>   0.0800 
 40 H        3.1280    -5.6390     0.3730 H     1 <1>   0.0800 
 41 H        2.1500    -5.4780    -1.0860 H     1 <1>   0.0800 
 42 H        1.3700    -5.7410     0.4780 H     1 <1>   0.0800 
 43 H        3.8620     0.2760    -1.5640 H     1 <1>   0.0800 
 44 H        5.5820     0.4300    -1.5100 H     1 <1>   0.0800 
 45 H       -6.2410    -2.9770    -0.9670 H     1 <1>   0.0800 
 46 H       -6.0090    -1.9940    -2.3810 H     1 <1>   0.0800 
 47 H       -4.7500    -0.4160     1.2880 H     1 <1>   0.0800 
 48 H       -5.5350    -1.9630     1.2970 H     1 <1>   0.0800 
 49 H       -8.2660    -2.0280    -0.6170 H     1 <1>   0.0800 
 50 H       -8.0620    -1.1300    -2.0930 H     1 <1>   0.0800 
 51 H       -6.6940     0.6500     1.4810 H     1 <1>   0.0800 
 52 H       -7.4990    -0.8880     1.6200 H     1 <1>   0.0800 
 53 H       -6.8300     0.5050    -0.8550 H     1 <1>   0.4500 
 54 H       -9.5470     0.1090     0.3150 H     1 <1>   0.0800 
 55 H       -9.2160     0.9020    -1.2120 H     1 <1>   0.0800 
 56 H       -8.6710     1.6260     0.2850 H     1 <1>   0.0800 
@<TRIPOS>BOND
  1   1   2  1   
  2   1   3  1   
  3   2   4  1   
  4   2   5  2   
  5   3   6  2   
  6   3   7  1   
  7   4   8  am  
  8   4  27  1   
  9   5   6  1   
 10   5   9  1   
 11   6  10  1   
 12   7  11  1   
 13   7  28  1   
 14   7  29  1   
 15   8  12  2   
 16   8  13  1   
 17   9  14  2   
 18   9  15  1   
 19  10  16  1   
 20  10  30  1   
 21  10  31  1   
 22  11  17  1   
 23  11  32  1   
 24  11  33  1   
 25  13  18  1   
 26  13  34  1   
 27  13  35  1   
 28  15  19  1   
 29  16  20  1   
 30  16  36  1   
 31  16  37  1   
 32  17  20  1   
 33  17  38  1   
 34  17  39  1   
 35  18  21  1   
 36  18  22  1   
 37  19  40  1   
 38  19  41  1   
 39  19  42  1   
 40  20  43  1   
 41  20  44  1   
 42  21  23  1   
 43  21  45  1   
 44  21  46  1   
 45  22  24  1   
 46  22  47  1   
 47  22  48  1   
 48  23  25  1   
 49  23  49  1   
 50  23  50  1   
 51  24  25  1   
 52  24  51  1   
 53  24  52  1   
 54  25  26  1   
 55  25  53  1   
 56  26  54  1   
 57  26  55  1   
 58  26  56  1   
@<TRIPOS>SUBSTRUCTURE
  1 ****   4 GROUP 4 **** **** 0

# MOE 2024.06 (io_trps.svl 2023.06)
