@<TRIPOS>MOLECULE
NONAME
28 29 1 0 0 
SMALL
USER_CHARGES


@<TRIPOS>ATOM
  1 F       -0.4080     0.4040     0.9220 F     1 <1>  -0.1900 
  2 C       -1.0110     1.4950     0.5260 C.ar  1 <1>   0.1900 
  3 C       -0.2490     2.5650     0.0820 C.ar  1 <1>  -0.1440 
  4 C       -2.3910     1.5260     0.5710 C.ar  1 <1>  -0.1500 
  5 C       -0.9230     3.7050    -0.3280 C.ar  1 <1>  -0.1500 
  6 C        1.2710     2.5010     0.0470 C.3   1 <1>  -0.0960 
  7 C       -3.0660     2.6700     0.1560 C.ar  1 <1>   0.1170 
  8 C       -2.3070     3.7510    -0.2910 C.ar  1 <1>  -0.1500 
  9 N       -4.4730     2.7250     0.1800 N.am  1 <1>  -0.4770 
 10 C       -5.2840     3.8000     0.4230 C.2   1 <1>   0.5690 
 11 C       -5.2930     1.5200    -0.0900 C.3   1 <1>   0.1400 
 12 O       -4.9320     4.9250     0.6890 O.2   1 <1>  -0.5700 
 13 C       -6.7380     3.4260     0.3160 C.3   1 <1>  -0.0990 
 14 C       -6.6960     2.0550    -0.3780 C.3   1 <1>  -0.1860 
 15 C       -7.7720     1.0840     0.0570 C.2   1 <1>   0.9060 
 16 O       -8.8830     1.5240     0.3620 O.co2 1 <1>  -0.9000 
 17 O       -7.5020    -0.1210     0.0800 O.co2 1 <1>  -0.9000 
 18 H       -2.9270     0.6690     0.9310 H     1 <1>   0.1500 
 19 H       -0.3770     4.5640    -0.6790 H     1 <1>   0.1500 
 20 H        1.5870     1.6940    -0.5900 H     1 <1>   0.0800 
 21 H        1.6520     2.3300     1.0380 H     1 <1>   0.0800 
 22 H        1.6870     3.4180    -0.3280 H     1 <1>   0.0800 
 23 H       -2.8110     4.6440    -0.6150 H     1 <1>   0.1500 
 24 H       -5.3010     0.8950     0.7880 H     1 <1>   0.0800 
 25 H       -4.9110     0.9620    -0.9270 H     1 <1>   0.0800 
 26 H       -7.2930     4.1450    -0.2560 H     1 <1>   0.0800 
 27 H       -7.1530     3.3460     1.3040 H     1 <1>   0.0800 
 28 H       -6.7970     2.1900    -1.4380 H     1 <1>   0.0800 
@<TRIPOS>BOND
  1   1   2  1   
  2   2   3  ar  
  3   2   4  ar  
  4   3   5  ar  
  5   3   6  1   
  6   4   7  ar  
  7   4  18  1   
  8   5   8  ar  
  9   5  19  1   
 10   6  20  1   
 11   6  21  1   
 12   6  22  1   
 13   7   8  ar  
 14   7   9  1   
 15   8  23  1   
 16   9  10  am  
 17   9  11  1   
 18  10  12  2   
 19  10  13  1   
 20  11  14  1   
 21  11  24  1   
 22  11  25  1   
 23  13  14  1   
 24  13  26  1   
 25  13  27  1   
 26  14  15  1   
 27  14  28  1   
 28  15  16  ar  
 29  15  17  ar  
@<TRIPOS>SUBSTRUCTURE
  1 ****   9 GROUP 4 **** **** 0

# MOE 2024.06 (io_trps.svl 2023.06)
