@<TRIPOS>MOLECULE
NONAME
45 47 1 0 0 
SMALL
USER_CHARGES


@<TRIPOS>ATOM
  1 CL       1.8310     1.8480     2.3210 Cl    1 <1>  -0.1770 
  2 C        2.5570     1.6560     0.7450 C.ar  1 <1>   0.1770 
  3 C        3.6190     0.7870     0.5990 C.ar  1 <1>  -0.1500 
  4 C        2.0600     2.3790    -0.3230 C.ar  1 <1>  -0.1500 
  5 C        4.2130     0.6250    -0.6480 C.ar  1 <1>   0.1000 
  6 C        2.6440     2.2210    -1.5680 C.ar  1 <1>  -0.1500 
  7 N        5.2960    -0.2310    -0.8410 N.pl3 1 <1>  -0.8380 
  8 C        3.7090     1.3510    -1.7230 C.ar  1 <1>  -0.1500 
  9 C        6.6230     0.3660    -1.1810 C.3   1 <1>   0.2090 
 10 C        5.3170    -1.5920    -0.2230 C.3   1 <1>   0.2090 
 11 C        7.6060     0.2550     0.0020 C.3   1 <1>   0.3430 
 12 C        6.3370    -1.6750     0.9350 C.3   1 <1>   0.3430 
 13 N        7.6970    -1.1500     0.5520 N.4   1 <1>  -0.9590 
 14 C        8.6670    -1.2400     1.6760 C.3   1 <1>   0.4860 
 15 C       10.0410    -0.8680     1.1530 C.ar  1 <1>  -0.1430 
 16 C       10.6840    -1.6960     0.2450 C.ar  1 <1>  -0.1500 
 17 C       10.6640     0.3000     1.5650 C.ar  1 <1>  -0.1500 
 18 C       11.9250    -1.3730    -0.2760 C.ar  1 <1>   0.0830 
 19 C       11.9080     0.6380     1.0610 C.ar  1 <1>  -0.1500 
 20 O       12.4060    -2.2860    -1.1660 O.3   1 <1>  -0.3630 
 21 C       12.5440    -0.1820     0.1410 C.ar  1 <1>   0.0830 
 22 C       13.7290    -2.2600    -1.6560 C.3   1 <1>   0.0400 
 23 O       13.7470     0.2280    -0.3120 O.3   1 <1>  -0.5330 
 24 H        3.9720     0.2520     1.4550 H     1 <1>   0.1500 
 25 H        1.2310     3.0490    -0.1800 H     1 <1>   0.1500 
 26 H        2.2680     2.7720    -2.4130 H     1 <1>   0.1500 
 27 H        4.1550     1.2220    -2.6930 H     1 <1>   0.1500 
 28 H        6.4990     1.4050    -1.4400 H     1 <1>   0.0800 
 29 H        7.0280    -0.1370    -2.0420 H     1 <1>   0.0800 
 30 H        5.5700    -2.3140    -0.9800 H     1 <1>   0.0800 
 31 H        4.3340    -1.8410     0.1410 H     1 <1>   0.0800 
 32 H        7.2730     0.9250     0.7770 H     1 <1>   0.0800 
 33 H        8.5790     0.5860    -0.3240 H     1 <1>   0.0800 
 34 H        6.4140    -2.7000     1.2570 H     1 <1>   0.0800 
 35 H        5.9500    -1.0980     1.7590 H     1 <1>   0.0800 
 36 H        8.0680    -1.7340    -0.2080 H     1 <1>   0.4500 
 37 H        8.6970    -2.2450     2.0650 H     1 <1>   0.0800 
 38 H        8.3810    -0.5720     2.4730 H     1 <1>   0.0800 
 39 H       10.2380    -2.6190    -0.0800 H     1 <1>   0.1500 
 40 H       10.1960     0.9580     2.2790 H     1 <1>   0.1500 
 41 H       12.3800     1.5470     1.3900 H     1 <1>   0.1500 
 42 H       13.8880    -3.1460    -2.2430 H     1 <1>   0.0800 
 43 H       14.4100    -2.2460    -0.8230 H     1 <1>   0.0800 
 44 H       13.8560    -1.3870    -2.2710 H     1 <1>   0.0800 
 45 H       14.0510     1.0610     0.0910 H     1 <1>   0.4500 
@<TRIPOS>BOND
  1   1   2  1   
  2   2   3  ar  
  3   2   4  ar  
  4   3   5  ar  
  5   3  24  1   
  6   4   6  ar  
  7   4  25  1   
  8   5   7  1   
  9   5   8  ar  
 10   6   8  ar  
 11   6  26  1   
 12   7   9  1   
 13   7  10  1   
 14   8  27  1   
 15   9  11  1   
 16   9  28  1   
 17   9  29  1   
 18  10  12  1   
 19  10  30  1   
 20  10  31  1   
 21  11  13  1   
 22  11  32  1   
 23  11  33  1   
 24  12  13  1   
 25  12  34  1   
 26  12  35  1   
 27  13  14  1   
 28  13  36  1   
 29  14  15  1   
 30  14  37  1   
 31  14  38  1   
 32  15  16  ar  
 33  15  17  ar  
 34  16  18  ar  
 35  16  39  1   
 36  17  19  ar  
 37  17  40  1   
 38  18  20  1   
 39  18  21  ar  
 40  19  21  ar  
 41  19  41  1   
 42  20  22  1   
 43  21  23  1   
 44  22  42  1   
 45  22  43  1   
 46  22  44  1   
 47  23  45  1   
@<TRIPOS>SUBSTRUCTURE
  1 ****  11 GROUP 4 **** **** 0

# MOE 2024.06 (io_trps.svl 2023.06)
