@<TRIPOS>MOLECULE
NONAME
43 44 1 0 0 
SMALL
USER_CHARGES


@<TRIPOS>ATOM
  1 O        0.2350     1.9070     2.5940 O.2   1 <1>  -0.5700 
  2 C        0.1260     2.3500     1.4790 C.2   1 <1>   0.5690 
  3 N        1.1230     2.3340     0.5440 N.am  1 <1>  -0.5470 
  4 C       -1.1950     2.9780     1.0770 C.3   1 <1>  -0.0990 
  5 C        2.4320     1.8250     0.5870 C.ar  1 <1>   0.1170 
  6 C       -2.0010     2.0740     0.1280 C.3   1 <1>  -0.1600 
  7 C        3.3470     2.2780    -0.3550 C.ar  1 <1>  -0.1500 
  8 C        2.8530     0.8800     1.5190 C.ar  1 <1>  -0.1500 
  9 C       -3.3140     2.7280    -0.3320 C.3   1 <1>  -0.0800 
 10 C        4.6490     1.8110    -0.3720 C.ar  1 <1>   0.0830 
 11 C        4.1490     0.3940     1.5030 C.ar  1 <1>  -0.1500 
 12 C       -4.3120     2.9890     0.7960 C.3   1 <1>  -0.1600 
 13 C       -4.0970     1.8460    -1.3000 C.3   1 <1>  -0.1600 
 14 O        5.4850     2.3320    -1.3050 O.3   1 <1>  -0.3630 
 15 C        5.0500     0.8400     0.5520 C.ar  1 <1>   0.0830 
 16 C       -5.6830     3.0560     0.1180 C.3   1 <1>  -0.1600 
 17 C       -5.5230     2.3930    -1.2550 C.3   1 <1>  -0.1600 
 18 C        6.5860     3.0710    -0.8200 C.3   1 <1>   0.0400 
 19 O        6.2950     0.3000     0.5610 O.3   1 <1>  -0.3630 
 20 C        6.6090    -0.5310    -0.5350 C.3   1 <1>   0.0400 
 21 H        0.8830     2.7900    -0.3330 H     1 <1>   0.3700 
 22 H       -1.0030     3.9270     0.6110 H     1 <1>   0.0800 
 23 H       -1.7630     3.1620     1.9720 H     1 <1>   0.0800 
 24 H       -2.2150     1.1440     0.6280 H     1 <1>   0.0800 
 25 H       -1.4070     1.8460    -0.7400 H     1 <1>   0.0800 
 26 H        3.0560     3.0110    -1.0830 H     1 <1>   0.1500 
 27 H        2.1700     0.5110     2.2620 H     1 <1>   0.1500 
 28 H       -3.1010     3.6630    -0.8250 H     1 <1>   0.0800 
 29 H        4.4640    -0.3380     2.2250 H     1 <1>   0.1500 
 30 H       -4.0890     3.8950     1.3310 H     1 <1>   0.0800 
 31 H       -4.3040     2.1630     1.4870 H     1 <1>   0.0800 
 32 H       -4.1000     0.8290    -0.9470 H     1 <1>   0.0800 
 33 H       -3.6870     1.8730    -2.2950 H     1 <1>   0.0800 
 34 H       -5.9850     4.0820    -0.0080 H     1 <1>   0.0800 
 35 H       -6.4230     2.5480     0.7110 H     1 <1>   0.0800 
 36 H       -6.2450     1.6080    -1.4030 H     1 <1>   0.0800 
 37 H       -5.6510     3.1330    -2.0260 H     1 <1>   0.0800 
 38 H        7.0690     3.5420    -1.6570 H     1 <1>   0.0800 
 39 H        7.2730     2.4080    -0.3280 H     1 <1>   0.0800 
 40 H        6.2280     3.8170    -0.1320 H     1 <1>   0.0800 
 41 H        7.5850    -0.9500    -0.3710 H     1 <1>   0.0800 
 42 H        6.6070     0.0540    -1.4370 H     1 <1>   0.0800 
 43 H        5.8760    -1.3160    -0.5960 H     1 <1>   0.0800 
@<TRIPOS>BOND
  1   1   2  2   
  2   2   3  am  
  3   2   4  1   
  4   3   5  1   
  5   3  21  1   
  6   4   6  1   
  7   4  22  1   
  8   4  23  1   
  9   5   7  ar  
 10   5   8  ar  
 11   6   9  1   
 12   6  24  1   
 13   6  25  1   
 14   7  10  ar  
 15   7  26  1   
 16   8  11  ar  
 17   8  27  1   
 18   9  12  1   
 19   9  13  1   
 20   9  28  1   
 21  10  14  1   
 22  10  15  ar  
 23  11  15  ar  
 24  11  29  1   
 25  12  16  1   
 26  12  30  1   
 27  12  31  1   
 28  13  17  1   
 29  13  32  1   
 30  13  33  1   
 31  14  18  1   
 32  15  19  1   
 33  16  17  1   
 34  16  34  1   
 35  16  35  1   
 36  17  36  1   
 37  17  37  1   
 38  18  38  1   
 39  18  39  1   
 40  18  40  1   
 41  19  20  1   
 42  20  41  1   
 43  20  42  1   
 44  20  43  1   
@<TRIPOS>SUBSTRUCTURE
  1 ****   3 GROUP 4 **** **** 0

# MOE 2024.06 (io_trps.svl 2023.06)
