@<TRIPOS>MOLECULE
NONAME
45 46 1 0 0 
SMALL
USER_CHARGES


@<TRIPOS>ATOM
  1 O       -0.9270    -0.3700     0.0610 O.2   1 <1>  -0.5700 
  2 C       -0.9830     0.7680     0.4500 C.2   1 <1>   0.4230 
  3 C       -1.6450     1.8140    -0.2900 C.ar  1 <1>   0.0860 
  4 C       -0.3510     1.0590     1.7970 C.3   1 <1>  -0.1790 
  5 C       -1.1130     3.1030    -0.4500 C.ar  1 <1>   0.0830 
  6 C       -2.8800     1.5590    -0.8910 C.ar  1 <1>  -0.1500 
  7 O        0.1020     3.4210     0.0310 O.3   1 <1>  -0.3630 
  8 C       -1.8150     4.0920    -1.1200 C.ar  1 <1>  -0.1500 
  9 C       -3.5740     2.5390    -1.5750 C.ar  1 <1>  -0.1500 
 10 C        1.2140     3.0190    -0.7360 C.3   1 <1>   0.1200 
 11 C       -3.0450     3.8140    -1.6840 C.ar  1 <1>  -0.1500 
 12 C        2.4830     3.3810     0.0310 C.3   1 <1>  -0.1600 
 13 C        3.7240     2.9230    -0.7320 C.3   1 <1>   0.1200 
 14 O        4.8530     3.2660     0.0330 O.3   1 <1>  -0.3630 
 15 C        6.1180     2.9480    -0.3670 C.ar  1 <1>   0.0830 
 16 C        7.1750     3.2630     0.4900 C.ar  1 <1>   0.0830 
 17 C        6.3850     2.3280    -1.5840 C.ar  1 <1>  -0.1500 
 18 O        6.8780     3.8690     1.6770 O.3   1 <1>  -0.3630 
 19 C        8.4800     2.9530     0.1130 C.ar  1 <1>  -0.1500 
 20 C        7.6860     2.0260    -1.9450 C.ar  1 <1>  -0.1500 
 21 C        7.8820     4.2340     2.5960 C.3   1 <1>   0.0400 
 22 C        8.7380     2.3380    -1.1010 C.ar  1 <1>  -0.1430 
 23 C       10.1650     2.0030    -1.4990 C.3   1 <1>  -0.0970 
 24 H       -0.5930     0.2700     2.4850 H     1 <1>   0.0800 
 25 H        0.7160     1.1090     1.6900 H     1 <1>   0.0800 
 26 H       -0.7130     1.9890     2.1950 H     1 <1>   0.0800 
 27 H       -3.2970     0.5690    -0.8100 H     1 <1>   0.1500 
 28 H       -1.3910     5.0770    -1.2020 H     1 <1>   0.1500 
 29 H       -4.5280     2.3130    -2.0220 H     1 <1>   0.1500 
 30 H        1.1740     3.5330    -1.6820 H     1 <1>   0.0800 
 31 H        1.1550     1.9560    -0.8980 H     1 <1>   0.0800 
 32 H       -3.5890     4.5810    -2.2080 H     1 <1>   0.1500 
 33 H        2.4680     2.8990     0.9930 H     1 <1>   0.0800 
 34 H        2.5260     4.4470     0.1670 H     1 <1>   0.0800 
 35 H        3.7960     3.4220    -1.6830 H     1 <1>   0.0800 
 36 H        3.7190     1.8550    -0.8640 H     1 <1>   0.0800 
 37 H        5.5980     2.0730    -2.2670 H     1 <1>   0.1500 
 38 H        9.3080     3.1830     0.7550 H     1 <1>   0.1500 
 39 H        7.8760     1.5460    -2.8890 H     1 <1>   0.1500 
 40 H        7.4050     4.6950     3.4420 H     1 <1>   0.0800 
 41 H        8.5480     4.9350     2.1250 H     1 <1>   0.0800 
 42 H        8.4060     3.3490     2.9090 H     1 <1>   0.0800 
 43 H       10.8420     2.7540    -1.1340 H     1 <1>   0.0800 
 44 H       10.2580     1.9570    -2.5700 H     1 <1>   0.0800 
 45 H       10.4440     1.0510    -1.0850 H     1 <1>   0.0800 
@<TRIPOS>BOND
  1   1   2  2   
  2   2   3  1   
  3   2   4  1   
  4   3   5  ar  
  5   3   6  ar  
  6   4  24  1   
  7   4  25  1   
  8   4  26  1   
  9   5   7  1   
 10   5   8  ar  
 11   6   9  ar  
 12   6  27  1   
 13   7  10  1   
 14   8  11  ar  
 15   8  28  1   
 16   9  11  ar  
 17   9  29  1   
 18  10  12  1   
 19  10  30  1   
 20  10  31  1   
 21  11  32  1   
 22  12  13  1   
 23  12  33  1   
 24  12  34  1   
 25  13  14  1   
 26  13  35  1   
 27  13  36  1   
 28  14  15  1   
 29  15  16  ar  
 30  15  17  ar  
 31  16  18  1   
 32  16  19  ar  
 33  17  20  ar  
 34  17  37  1   
 35  18  21  1   
 36  19  22  ar  
 37  19  38  1   
 38  20  22  ar  
 39  20  39  1   
 40  21  40  1   
 41  21  41  1   
 42  21  42  1   
 43  22  23  1   
 44  23  43  1   
 45  23  44  1   
 46  23  45  1   
@<TRIPOS>SUBSTRUCTURE
  1 ****  12 GROUP 4 **** **** 0

# MOE 2024.06 (io_trps.svl 2023.06)
