@<TRIPOS>MOLECULE
NONAME
39 40 1 0 0 
SMALL
USER_CHARGES


@<TRIPOS>ATOM
  1 S       -0.4690     0.1350    -0.1460 S.o2  1 <1>   1.2040 
  2 O       -0.5850     0.9900    -1.3020 O.2   1 <1>  -0.6500 
  3 O       -1.0080     0.5880     1.1170 O.2   1 <1>  -0.6500 
  4 C       -1.3100    -1.4260    -0.5100 C.ar  1 <1>  -0.0090 
  5 C        1.2720    -0.2390     0.0900 C.3   1 <1>  -0.0550 
  6 C       -2.6670    -1.4170    -0.8750 C.ar  1 <1>   0.0860 
  7 C       -0.6450    -2.6480    -0.4180 C.ar  1 <1>  -0.1500 
  8 C        2.1260     1.0070     0.3840 C.3   1 <1>  -0.1600 
  9 C       -3.4870    -0.2210    -1.0020 C.2   1 <1>   0.5440 
 10 C       -3.2840    -2.6390    -1.1510 C.ar  1 <1>  -0.1500 
 11 C       -1.2830    -3.8440    -0.6890 C.ar  1 <1>  -0.1500 
 12 C        3.5950     0.6770     0.7010 C.3   1 <1>  -0.0800 
 13 O       -4.1370    -0.0700    -2.0130 O.2   1 <1>  -0.5700 
 14 N       -3.5900     0.6960     0.0190 N.am  1 <1>  -0.4940 
 15 C       -2.6100    -3.8390    -1.0610 C.ar  1 <1>  -0.1500 
 16 C        4.3350     1.9580     1.0990 C.3   1 <1>  -0.2400 
 17 C        4.3100     0.0240    -0.4900 C.3   1 <1>  -0.2400 
 18 C       -4.4070     1.7930     0.2020 C.2   1 <1>   0.4420 
 19 S       -5.6640     2.2250    -0.9210 S.3   1 <1>  -0.0800 
 20 N       -4.3580     2.6000     1.2000 N.2   1 <1>  -0.3380 
 21 C       -6.0310     3.5520     0.1200 C.2   1 <1>   0.2280 
 22 N       -5.2860     3.6030     1.1480 N.2   1 <1>  -0.3380 
 23 H        1.6480    -0.7130    -0.7950 H     1 <1>   0.0800 
 24 H        1.3810    -0.9210     0.9120 H     1 <1>   0.0800 
 25 H        0.3890    -2.7000    -0.1320 H     1 <1>   0.1500 
 26 H        1.6950     1.5220     1.2280 H     1 <1>   0.0800 
 27 H        2.0770     1.6770    -0.4580 H     1 <1>   0.0800 
 28 H       -4.3200    -2.6410    -1.4490 H     1 <1>   0.1500 
 29 H       -0.7490    -4.7770    -0.6140 H     1 <1>   0.1500 
 30 H        3.6300    -0.0010     1.5390 H     1 <1>   0.0800 
 31 H       -2.8830     0.6320     0.7600 H     1 <1>   0.3700 
 32 H       -3.1160    -4.7640    -1.2800 H     1 <1>   0.1500 
 33 H        4.3310     2.6670     0.2890 H     1 <1>   0.0800 
 34 H        5.3560     1.7370     1.3550 H     1 <1>   0.0800 
 35 H        3.8670     2.4130     1.9540 H     1 <1>   0.0800 
 36 H        4.2420     0.6500    -1.3630 H     1 <1>   0.0800 
 37 H        3.8890    -0.9380    -0.7180 H     1 <1>   0.0800 
 38 H        5.3510    -0.1230    -0.2600 H     1 <1>   0.0800 
 39 H       -6.8310     4.2100    -0.1670 H     1 <1>   0.1500 
@<TRIPOS>BOND
  1   1   2  2   
  2   1   3  2   
  3   1   4  1   
  4   1   5  1   
  5   4   6  ar  
  6   4   7  ar  
  7   5   8  1   
  8   5  23  1   
  9   5  24  1   
 10   6   9  1   
 11   6  10  ar  
 12   7  11  ar  
 13   7  25  1   
 14   8  12  1   
 15   8  26  1   
 16   8  27  1   
 17   9  13  2   
 18   9  14  am  
 19  10  15  ar  
 20  10  28  1   
 21  11  15  ar  
 22  11  29  1   
 23  12  16  1   
 24  12  17  1   
 25  12  30  1   
 26  14  18  1   
 27  14  31  1   
 28  15  32  1   
 29  16  33  1   
 30  16  34  1   
 31  16  35  1   
 32  17  36  1   
 33  17  37  1   
 34  17  38  1   
 35  18  19  1   
 36  18  20  2   
 37  19  21  1   
 38  20  22  1   
 39  21  22  2   
 40  21  39  1   
@<TRIPOS>SUBSTRUCTURE
  1 ****   1 GROUP 4 **** **** 0

# MOE 2024.06 (io_trps.svl 2023.06)
