@<TRIPOS>MOLECULE
NONAME
29 29 1 0 0 
SMALL
USER_CHARGES


@<TRIPOS>ATOM
  1 S       -0.4830     2.4630    -1.6810 S.3   1 <1>  -0.4600 
  2 C       -1.4600     0.9670    -2.0270 C.3   1 <1>   0.2140 
  3 C        1.2170     2.0180    -2.1940 C.3   1 <1>   0.1310 
  4 C       -1.5410     0.1290    -0.7590 C.ar  1 <1>  -0.1440 
  5 C        1.6380     0.6330    -1.7130 C.2   1 <1>   0.5690 
  6 C       -1.0220    -1.1570    -0.7330 C.ar  1 <1>  -0.1500 
  7 C       -2.1380     0.6420     0.3820 C.ar  1 <1>  -0.1500 
  8 O        1.7390    -0.2500    -2.5290 O.2   1 <1>  -0.5700 
  9 N        1.9000     0.3670    -0.4100 N.am  1 <1>  -0.7300 
 10 C       -1.0950    -1.9190     0.4200 C.ar  1 <1>  -0.1500 
 11 C       -2.2130    -0.1190     1.5370 C.ar  1 <1>  -0.1500 
 12 C        1.5720     1.1900     0.7690 C.3   1 <1>   0.1400 
 13 C       -1.6910    -1.4000     1.5560 C.ar  1 <1>  -0.1500 
 14 C        2.7090     1.0680     1.7750 C.3   1 <1>  -0.2400 
 15 H       -0.9850     0.4400    -2.8360 H     1 <1>   0.0800 
 16 H       -2.4390     1.2930    -2.3300 H     1 <1>   0.0800 
 17 H        1.8760     2.7680    -1.7990 H     1 <1>   0.0800 
 18 H        1.2370     2.0530    -3.2670 H     1 <1>   0.0800 
 19 H       -0.5510    -1.5690    -1.6100 H     1 <1>   0.1500 
 20 H       -2.5440     1.6390     0.3740 H     1 <1>   0.1500 
 21 H        2.1190    -0.6090    -0.2050 H     1 <1>   0.3700 
 22 H       -0.6890    -2.9150     0.4310 H     1 <1>   0.1500 
 23 H       -2.6790     0.2870     2.4180 H     1 <1>   0.1500 
 24 H        0.6520     0.8330     1.2040 H     1 <1>   0.0800 
 25 H        1.4390     2.2210     0.4890 H     1 <1>   0.0800 
 26 H       -1.7500    -1.9930     2.4520 H     1 <1>   0.1500 
 27 H        2.8240     0.0460     2.0890 H     1 <1>   0.0800 
 28 H        2.4890     1.6660     2.6410 H     1 <1>   0.0800 
 29 H        3.6280     1.4180     1.3420 H     1 <1>   0.0800 
@<TRIPOS>BOND
  1   1   2  1   
  2   1   3  1   
  3   2   4  1   
  4   2  15  1   
  5   2  16  1   
  6   3   5  1   
  7   3  17  1   
  8   3  18  1   
  9   4   6  ar  
 10   4   7  ar  
 11   5   8  2   
 12   5   9  am  
 13   6  10  ar  
 14   6  19  1   
 15   7  11  ar  
 16   7  20  1   
 17   9  12  1   
 18   9  21  1   
 19  10  13  ar  
 20  10  22  1   
 21  11  13  ar  
 22  11  23  1   
 23  12  14  1   
 24  12  24  1   
 25  12  25  1   
 26  13  26  1   
 27  14  27  1   
 28  14  28  1   
 29  14  29  1   
@<TRIPOS>SUBSTRUCTURE
  1 ****   4 GROUP 4 **** **** 0

# MOE 2024.06 (io_trps.svl 2023.06)
