@<TRIPOS>MOLECULE
NONAME
37 38 1 0 0 
SMALL
USER_CHARGES


@<TRIPOS>ATOM
  1 BR      -3.2400     1.6130     3.8740 Br    1 <1>  -0.1110 
  2 C       -3.2300     1.6580     1.9520 C.ar  1 <1>   0.1110 
  3 C       -4.1890     0.9360     1.2690 C.ar  1 <1>  -0.1500 
  4 C       -2.2690     2.4110     1.3060 C.ar  1 <1>  -0.1500 
  5 C       -4.1940     0.9740    -0.1190 C.ar  1 <1>  -0.1440 
  6 C       -2.2720     2.4370    -0.0780 C.ar  1 <1>  -0.1500 
  7 C       -3.2280     1.7220    -0.7850 C.ar  1 <1>  -0.1500 
  8 C       -5.2510     0.2140    -0.8970 C.3   1 <1>   0.4870 
  9 N       -6.5500     0.9080    -0.7080 N.4   1 <1>  -0.9590 
 10 C       -7.7180     0.0900    -1.0950 C.3   1 <1>   0.3430 
 11 C       -6.5910     2.2610    -1.3020 C.3   1 <1>   0.3430 
 12 C       -8.3500    -0.4570     0.1820 C.3   1 <1>  -0.1600 
 13 C       -7.0270     3.2490    -0.2200 C.3   1 <1>  -0.1600 
 14 C       -9.1850     0.5670     0.9750 C.3   1 <1>  -0.1600 
 15 C       -8.4110     2.9820     0.4060 C.3   1 <1>  -0.1600 
 16 C       -8.4700     1.8470     1.4530 C.3   1 <1>  -0.1600 
 17 H       -4.9050     0.3620     1.8310 H     1 <1>   0.1500 
 18 H       -1.5360     2.9590     1.8720 H     1 <1>   0.1500 
 19 H       -1.5280     3.0130    -0.6030 H     1 <1>   0.1500 
 20 H       -3.2040     1.7580    -1.8610 H     1 <1>   0.1500 
 21 H       -5.3100    -0.7940    -0.5200 H     1 <1>   0.0800 
 22 H       -4.9930     0.1760    -1.9430 H     1 <1>   0.0800 
 23 H       -6.6510     1.0750     0.3010 H     1 <1>   0.4500 
 24 H       -7.4110    -0.7210    -1.7360 H     1 <1>   0.0800 
 25 H       -8.4450     0.6870    -1.6220 H     1 <1>   0.0800 
 26 H       -7.2810     2.2910    -2.1310 H     1 <1>   0.0800 
 27 H       -5.6150     2.5440    -1.6620 H     1 <1>   0.0800 
 28 H       -7.5980    -0.8950     0.8140 H     1 <1>   0.0800 
 29 H       -9.0140    -1.2560    -0.1030 H     1 <1>   0.0800 
 30 H       -7.0580     4.2220    -0.6800 H     1 <1>   0.0800 
 31 H       -6.2740     3.3030     0.5490 H     1 <1>   0.0800 
 32 H       -9.5540     0.0590     1.8510 H     1 <1>   0.0800 
 33 H      -10.0580     0.8400     0.4040 H     1 <1>   0.0800 
 34 H       -9.1470     2.8350    -0.3660 H     1 <1>   0.0800 
 35 H       -8.6950     3.8900     0.9140 H     1 <1>   0.0800 
 36 H       -7.5020     1.6280     1.8690 H     1 <1>   0.0800 
 37 H       -9.0570     2.2260     2.2750 H     1 <1>   0.0800 
@<TRIPOS>BOND
  1   1   2  1   
  2   2   3  ar  
  3   2   4  ar  
  4   3   5  ar  
  5   3  17  1   
  6   4   6  ar  
  7   4  18  1   
  8   5   7  ar  
  9   5   8  1   
 10   6   7  ar  
 11   6  19  1   
 12   7  20  1   
 13   8   9  1   
 14   8  21  1   
 15   8  22  1   
 16   9  10  1   
 17   9  11  1   
 18   9  23  1   
 19  10  12  1   
 20  10  24  1   
 21  10  25  1   
 22  11  13  1   
 23  11  26  1   
 24  11  27  1   
 25  12  14  1   
 26  12  28  1   
 27  12  29  1   
 28  13  15  1   
 29  13  30  1   
 30  13  31  1   
 31  14  16  1   
 32  14  32  1   
 33  14  33  1   
 34  15  16  1   
 35  15  34  1   
 36  15  35  1   
 37  16  36  1   
 38  16  37  1   
@<TRIPOS>SUBSTRUCTURE
  1 ****   9 GROUP 4 **** **** 0

# MOE 2024.06 (io_trps.svl 2023.06)
