@<TRIPOS>MOLECULE
NONAME
50 52 1 0 0 
SMALL
USER_CHARGES


@<TRIPOS>ATOM
  1 O       -4.3340     1.6110    -1.8990 O.3   1 <1>  -0.6800 
  2 C       -4.5750     2.1240    -0.6480 C.3   1 <1>   0.7670 
  3 C       -3.2530     2.1610     0.0520 C.1   1 <1>  -0.2000 
  4 C       -5.0180     3.5970    -0.7520 C.ar  1 <1>  -0.1440 
  5 C       -5.6240     1.1980    -0.0120 C.ar  1 <1>  -0.1440 
  6 C       -2.2080     2.4370     0.5470 C.1   1 <1>  -0.2000 
  7 C       -5.5770     4.2210     0.3600 C.ar  1 <1>  -0.1500 
  8 C       -4.8370     4.3550    -1.9080 C.ar  1 <1>  -0.1500 
  9 C       -5.2600     0.1170     0.7870 C.ar  1 <1>  -0.1500 
 10 C       -6.9800     1.4110    -0.2520 C.ar  1 <1>  -0.1500 
 11 C       -0.9620     3.0750     1.0400 C.3   1 <1>   0.5430 
 12 C       -5.9450     5.5540     0.3210 C.ar  1 <1>  -0.1500 
 13 C       -5.2060     5.6880    -1.9490 C.ar  1 <1>  -0.1500 
 14 C       -6.2190    -0.7110     1.3420 C.ar  1 <1>  -0.1500 
 15 C       -7.9400     0.5830     0.3030 C.ar  1 <1>  -0.1500 
 16 N       -0.8180     4.3610     0.2990 N.4   1 <1>  -0.9590 
 17 C       -5.7590     6.2890    -0.8340 C.ar  1 <1>  -0.1500 
 18 C       -7.5600    -0.4780     1.1030 C.ar  1 <1>  -0.1500 
 19 C        0.5150     5.0100     0.4460 C.3   1 <1>   0.4230 
 20 C       -1.9430     5.2960     0.6320 C.3   1 <1>   0.3430 
 21 C        0.5830     6.2450    -0.4650 C.3   1 <1>  -0.1600 
 22 C        1.6360     4.0400     0.0710 C.3   1 <1>  -0.2400 
 23 C       -1.9050     6.5170    -0.2830 C.3   1 <1>  -0.1600 
 24 C       -0.5560     7.2350    -0.1990 C.3   1 <1>  -0.1600 
 25 H       -5.1680     1.2020    -2.1910 H     1 <1>   0.4000 
 26 H       -5.7330     3.6650     1.2710 H     1 <1>   0.1500 
 27 H       -4.4040     3.9160    -2.7920 H     1 <1>   0.1500 
 28 H       -4.2240    -0.1010     0.9840 H     1 <1>   0.1500 
 29 H       -7.3060     2.2290    -0.8730 H     1 <1>   0.1500 
 30 H       -0.1330     2.4180     0.8370 H     1 <1>   0.0800 
 31 H       -1.0220     3.2520     2.1010 H     1 <1>   0.0800 
 32 H       -6.3850     6.0180     1.1880 H     1 <1>   0.1500 
 33 H       -5.0670     6.2570    -2.8520 H     1 <1>   0.1500 
 34 H       -5.9220    -1.5410     1.9610 H     1 <1>   0.1500 
 35 H       -8.9840     0.7650     0.1120 H     1 <1>   0.1500 
 36 H       -0.9320     4.1200    -0.6920 H     1 <1>   0.4500 
 37 H       -6.0520     7.3250    -0.8690 H     1 <1>   0.1500 
 38 H       -8.3070    -1.1220     1.5350 H     1 <1>   0.1500 
 39 H        0.6480     5.3290     1.4680 H     1 <1>   0.0800 
 40 H       -1.8630     5.6140     1.6590 H     1 <1>   0.0800 
 41 H       -2.8950     4.8040     0.5060 H     1 <1>   0.0800 
 42 H        0.5550     5.9360    -1.4960 H     1 <1>   0.0800 
 43 H        1.5220     6.7490    -0.3090 H     1 <1>   0.0800 
 44 H        1.4730     3.6150    -0.9040 H     1 <1>   0.0800 
 45 H        1.7410     3.2560     0.7980 H     1 <1>   0.0800 
 46 H        2.5740     4.5670     0.0490 H     1 <1>   0.0800 
 47 H       -2.6920     7.1940     0.0030 H     1 <1>   0.0800 
 48 H       -2.1030     6.2090    -1.2960 H     1 <1>   0.0800 
 49 H       -0.5220     8.0360    -0.9200 H     1 <1>   0.0800 
 50 H       -0.4370     7.6700     0.7800 H     1 <1>   0.0800 
@<TRIPOS>BOND
  1   1   2  1   
  2   1  25  1   
  3   2   3  1   
  4   2   4  1   
  5   2   5  1   
  6   3   6  3   
  7   4   7  ar  
  8   4   8  ar  
  9   5   9  ar  
 10   5  10  ar  
 11   6  11  1   
 12   7  12  ar  
 13   7  26  1   
 14   8  13  ar  
 15   8  27  1   
 16   9  14  ar  
 17   9  28  1   
 18  10  15  ar  
 19  10  29  1   
 20  11  16  1   
 21  11  30  1   
 22  11  31  1   
 23  12  17  ar  
 24  12  32  1   
 25  13  17  ar  
 26  13  33  1   
 27  14  18  ar  
 28  14  34  1   
 29  15  18  ar  
 30  15  35  1   
 31  16  19  1   
 32  16  20  1   
 33  16  36  1   
 34  17  37  1   
 35  18  38  1   
 36  19  21  1   
 37  19  22  1   
 38  19  39  1   
 39  20  23  1   
 40  20  40  1   
 41  20  41  1   
 42  21  24  1   
 43  21  42  1   
 44  21  43  1   
 45  22  44  1   
 46  22  45  1   
 47  22  46  1   
 48  23  24  1   
 49  23  47  1   
 50  23  48  1   
 51  24  49  1   
 52  24  50  1   
@<TRIPOS>SUBSTRUCTURE
  1 ****   3 GROUP 4 **** **** 0

# MOE 2024.06 (io_trps.svl 2023.06)
