@<TRIPOS>MOLECULE
NONAME
26 28 1 0 0 
SMALL
USER_CHARGES


@<TRIPOS>ATOM
  1 S       -0.1380    -0.2590    -1.3520 S.3   1 <1>  -0.2860 
  2 C       -0.6670     1.1050    -0.2940 C.2   1 <1>   0.2420 
  3 C        1.2610    -1.0490    -0.4170 C.3   1 <1>   0.1310 
  4 N       -0.1580     1.3680     0.8670 N.2   1 <1>  -0.3380 
  5 N       -1.6430     1.9570    -0.6500 N.pl3 1 <1>   0.5050 
  6 C        2.5950    -0.4760    -0.8610 C.2   1 <1>   0.5090 
  7 N       -0.8030     2.4510     1.3330 N.2   1 <1>  -0.3380 
  8 N       -2.5760     2.3450    -1.6000 N.2   1 <1>  -0.6520 
  9 C       -1.6720     2.7620     0.4030 C.2   1 <1>   0.2700 
 10 O        3.4130    -1.1650    -1.3970 O.2   1 <1>  -0.5700 
 11 C        2.8560     0.9990    -0.5790 C.3   1 <1>  -0.1000 
 12 C       -3.1310     3.3770    -1.0640 C.2   1 <1>   0.4400 
 13 N       -2.6300     3.7000     0.1750 N.pl3 1 <1>  -0.1450 
 14 C        4.2340     1.5070    -0.2720 C.3   1 <1>  -0.2000 
 15 C        3.1930     1.4690     0.8060 C.3   1 <1>  -0.2000 
 16 N       -3.0150     4.8020     1.0620 N.3   1 <1>  -0.7090 
 17 H        1.2230    -2.1000    -0.6360 H     1 <1>   0.0800 
 18 H        1.1000    -0.8920     0.6320 H     1 <1>   0.0800 
 19 H        2.2380     1.6360    -1.1860 H     1 <1>   0.1000 
 20 H       -3.9180     3.9590    -1.5130 H     1 <1>   0.0600 
 21 H        4.5340     2.4590    -0.6730 H     1 <1>   0.1000 
 22 H        5.0450     0.7980    -0.2410 H     1 <1>   0.1000 
 23 H        3.3020     0.7470     1.5960 H     1 <1>   0.1000 
 24 H        2.7540     2.3900     1.1500 H     1 <1>   0.1000 
 25 H       -2.1500     5.3220     1.2630 H     1 <1>   0.3600 
 26 H       -3.2820     4.3690     1.9560 H     1 <1>   0.3600 
@<TRIPOS>BOND
  1   1   2  1   
  2   1   3  1   
  3   2   4  2   
  4   2   5  1   
  5   3   6  1   
  6   3  17  1   
  7   3  18  1   
  8   4   7  1   
  9   5   8  1   
 10   5   9  1   
 11   6  10  2   
 12   6  11  1   
 13   7   9  2   
 14   8  12  2   
 15   9  13  1   
 16  11  14  1   
 17  11  15  1   
 18  11  19  1   
 19  12  13  1   
 20  12  20  1   
 21  13  16  1   
 22  14  15  1   
 23  14  21  1   
 24  14  22  1   
 25  15  23  1   
 26  15  24  1   
 27  16  25  1   
 28  16  26  1   
@<TRIPOS>SUBSTRUCTURE
  1 ****   2 GROUP 4 **** **** 0

# MOE 2024.06 (io_trps.svl 2023.06)
