@<TRIPOS>MOLECULE
NONAME
47 48 1 0 0 
SMALL
USER_CHARGES


@<TRIPOS>ATOM
  1 O        0.2010     0.3830    -0.5300 O.2   1 <1>  -0.5700 
  2 C       -0.4030     1.4220    -0.3220 C.2   1 <1>   0.6340 
  3 O       -1.7330     1.3640    -0.2080 O.3   1 <1>  -0.4300 
  4 C        0.2380     2.7210    -0.1940 C.ar  1 <1>   0.0860 
  5 C       -2.4530     0.1510    -0.3240 C.3   1 <1>   0.0400 
  6 C        1.6380     2.8740    -0.1040 C.ar  1 <1>   0.1170 
  7 C       -0.5330     3.8880    -0.1600 C.ar  1 <1>  -0.1500 
  8 N        2.4680     1.7400    -0.1190 N.am  1 <1>  -0.5470 
  9 C        2.1860     4.1510    -0.0170 C.ar  1 <1>  -0.1500 
 10 C        0.0340     5.1400    -0.0610 C.ar  1 <1>  -0.1500 
 11 C        3.7330     1.5150     0.3550 C.2   1 <1>   0.5690 
 12 C        1.4170     5.3100     0.0080 C.ar  1 <1>   0.0860 
 13 O        4.3960     2.3500     0.9210 O.2   1 <1>  -0.5700 
 14 C        4.3650     0.1250     0.1670 C.3   1 <1>   0.4040 
 15 C        2.0340     6.6210     0.0950 C.2   1 <1>   0.6340 
 16 N        5.8760     0.1440     0.2250 N.4   1 <1>  -0.9590 
 17 O        3.2340     6.7940     0.0410 O.2   1 <1>  -0.5700 
 18 O        1.2350     7.6840     0.2350 O.3   1 <1>  -0.4300 
 19 C        6.4640     0.8690    -0.9410 C.3   1 <1>   0.3430 
 20 C        6.4580    -1.2130     0.4190 C.3   1 <1>   0.3430 
 21 C        1.7530     8.9970     0.3300 C.3   1 <1>   0.0400 
 22 C        7.9750     1.0100    -0.7490 C.3   1 <1>  -0.1600 
 23 C        7.9690    -1.0990     0.6310 C.3   1 <1>  -0.1600 
 24 C        8.6520    -0.3480    -0.5190 C.3   1 <1>  -0.1600 
 25 H       -3.5000     0.3630    -0.2030 H     1 <1>   0.0800 
 26 H       -2.1230    -0.5260     0.4440 H     1 <1>   0.0800 
 27 H       -2.2720    -0.2720    -1.2970 H     1 <1>   0.0800 
 28 H       -1.6070     3.8170    -0.2160 H     1 <1>   0.1500 
 29 H        1.9480     0.9040    -0.4290 H     1 <1>   0.3700 
 30 H        3.2530     4.2700     0.0290 H     1 <1>   0.1500 
 31 H       -0.6060     6.0070    -0.0390 H     1 <1>   0.1500 
 32 H        4.0430    -0.2810    -0.7760 H     1 <1>   0.0800 
 33 H        3.9870    -0.5090     0.9500 H     1 <1>   0.0800 
 34 H        6.1090     0.7250     1.0480 H     1 <1>   0.4500 
 35 H        6.0250     1.8510    -1.0270 H     1 <1>   0.0800 
 36 H        6.2670     0.3240    -1.8500 H     1 <1>   0.0800 
 37 H        6.2650    -1.8210    -0.4510 H     1 <1>   0.0800 
 38 H        6.0120    -1.6910     1.2760 H     1 <1>   0.0800 
 39 H        0.9310     9.6820     0.4370 H     1 <1>   0.0800 
 40 H        2.3070     9.2180    -0.5660 H     1 <1>   0.0800 
 41 H        2.3990     9.0550     1.1890 H     1 <1>   0.0800 
 42 H        8.1660     1.6630     0.0860 H     1 <1>   0.0800 
 43 H        8.3980     1.4760    -1.6220 H     1 <1>   0.0800 
 44 H        8.3890    -2.0870     0.7100 H     1 <1>   0.0800 
 45 H        8.1600    -0.5940     1.5630 H     1 <1>   0.0800 
 46 H        9.6950    -0.2020    -0.2920 H     1 <1>   0.0800 
 47 H        8.5930    -0.9360    -1.4190 H     1 <1>   0.0800 
@<TRIPOS>BOND
  1   1   2  2   
  2   2   3  1   
  3   2   4  1   
  4   3   5  1   
  5   4   6  ar  
  6   4   7  ar  
  7   5  25  1   
  8   5  26  1   
  9   5  27  1   
 10   6   8  1   
 11   6   9  ar  
 12   7  10  ar  
 13   7  28  1   
 14   8  11  am  
 15   8  29  1   
 16   9  12  ar  
 17   9  30  1   
 18  10  12  ar  
 19  10  31  1   
 20  11  13  2   
 21  11  14  1   
 22  12  15  1   
 23  14  16  1   
 24  14  32  1   
 25  14  33  1   
 26  15  17  2   
 27  15  18  1   
 28  16  19  1   
 29  16  20  1   
 30  16  34  1   
 31  18  21  1   
 32  19  22  1   
 33  19  35  1   
 34  19  36  1   
 35  20  23  1   
 36  20  37  1   
 37  20  38  1   
 38  21  39  1   
 39  21  40  1   
 40  21  41  1   
 41  22  24  1   
 42  22  42  1   
 43  22  43  1   
 44  23  24  1   
 45  23  44  1   
 46  23  45  1   
 47  24  46  1   
 48  24  47  1   
@<TRIPOS>SUBSTRUCTURE
  1 ****   8 GROUP 4 **** **** 0

# MOE 2024.06 (io_trps.svl 2023.06)
