@<TRIPOS>MOLECULE
NONAME
39 40 1 0 0 
SMALL
USER_CHARGES


@<TRIPOS>ATOM
  1 BR      -0.8000     2.4540    -1.8790 Br    1 <1>  -0.1110 
  2 C        1.0110     2.5600    -1.2190 C.ar  1 <1>   0.1110 
  3 C        1.3140     3.1620     0.0000 C.ar  1 <1>  -0.1440 
  4 C        1.9790     2.0020    -2.0320 C.ar  1 <1>  -0.1500 
  5 C        2.6490     3.1820     0.3880 C.ar  1 <1>  -0.1500 
  6 C        0.2750     3.7990     0.9260 C.3   1 <1>   0.5020 
  7 C        3.2990     2.0370    -1.6250 C.ar  1 <1>  -0.1500 
  8 C        3.6410     2.6250    -0.4180 C.ar  1 <1>   0.0830 
  9 N       -0.5450     2.7200     1.5040 N.am  1 <1>  -0.7300 
 10 C       -0.5560     4.9110     0.2740 C.2   1 <1>  -0.1240 
 11 O        4.9590     2.6180    -0.0960 O.3   1 <1>  -0.3620 
 12 C       -1.8860     2.6980     1.4660 C.2   1 <1>   0.6900 
 13 C       -1.9160     4.8270     0.3110 C.2   1 <1>  -0.0290 
 14 C        0.2470     5.9410    -0.3120 C.2   1 <1>   0.7060 
 15 C        5.4300     3.1790     1.1070 C.3   1 <1>   0.1200 
 16 O       -2.5030     1.7600     1.9140 O.2   1 <1>  -0.5700 
 17 N       -2.5370     3.7480     0.9080 N.am  1 <1>  -0.5390 
 18 C       -2.8950     5.8420    -0.2590 C.3   1 <1>  -0.1020 
 19 O       -0.1150     6.6460    -1.2340 O.2   1 <1>  -0.5700 
 20 O        1.4740     6.1450     0.1890 O.3   1 <1>  -0.4300 
 21 C        6.9440     3.0010     1.1490 C.3   1 <1>  -0.2400 
 22 C        2.3560     7.1000    -0.3700 C.3   1 <1>   0.0400 
 23 H        1.7030     1.5480    -2.9670 H     1 <1>   0.1500 
 24 H        2.9130     3.6400     1.3220 H     1 <1>   0.1500 
 25 H        0.7970     4.2520     1.7520 H     1 <1>   0.0800 
 26 H        4.0730     1.6110    -2.2390 H     1 <1>   0.1500 
 27 H       -0.0730     1.8600     1.7720 H     1 <1>   0.3700 
 28 H        4.9640     2.6630     1.9300 H     1 <1>   0.0800 
 29 H        5.1700     4.2230     1.1220 H     1 <1>   0.0800 
 30 H       -3.5510     3.6460     0.9080 H     1 <1>   0.3700 
 31 H       -3.3340     5.4550    -1.1610 H     1 <1>   0.0800 
 32 H       -2.4250     6.7800    -0.4860 H     1 <1>   0.0800 
 33 H       -3.6780     6.0390     0.4510 H     1 <1>   0.0800 
 34 H        7.1940     1.9560     1.1170 H     1 <1>   0.0800 
 35 H        7.3360     3.4210     2.0580 H     1 <1>   0.0800 
 36 H        7.3980     3.5040     0.3140 H     1 <1>   0.0800 
 37 H        3.2760     7.0820     0.1850 H     1 <1>   0.0800 
 38 H        1.9020     8.0740    -0.3070 H     1 <1>   0.0800 
 39 H        2.5400     6.8420    -1.3990 H     1 <1>   0.0800 
@<TRIPOS>BOND
  1   1   2  1   
  2   2   3  ar  
  3   2   4  ar  
  4   3   5  ar  
  5   3   6  1   
  6   4   7  ar  
  7   4  23  1   
  8   5   8  ar  
  9   5  24  1   
 10   6   9  1   
 11   6  10  1   
 12   6  25  1   
 13   7   8  ar  
 14   7  26  1   
 15   8  11  1   
 16   9  12  am  
 17   9  27  1   
 18  10  13  2   
 19  10  14  1   
 20  11  15  1   
 21  12  16  2   
 22  12  17  am  
 23  13  17  1   
 24  13  18  1   
 25  14  19  2   
 26  14  20  1   
 27  15  21  1   
 28  15  28  1   
 29  15  29  1   
 30  17  30  1   
 31  18  31  1   
 32  18  32  1   
 33  18  33  1   
 34  20  22  1   
 35  21  34  1   
 36  21  35  1   
 37  21  36  1   
 38  22  37  1   
 39  22  38  1   
 40  22  39  1   
@<TRIPOS>SUBSTRUCTURE
  1 ****   3 GROUP 4 **** **** 0

# MOE 2024.06 (io_trps.svl 2023.06)
