@<TRIPOS>MOLECULE
NONAME
35 36 1 0 0 
SMALL
USER_CHARGES


@<TRIPOS>ATOM
  1 O        0.2230    -0.4060    -0.4110 O.3   1 <1>  -0.6800 
  2 C        1.3620    -0.8160     0.2370 C.3   1 <1>   0.2000 
  3 C        2.5400    -0.0250    -0.3280 C.3   1 <1>  -0.1600 
  4 C        1.5090    -2.3130    -0.0260 C.3   1 <1>  -0.1600 
  5 C        3.8680    -0.5940     0.1650 C.3   1 <1>   0.3430 
  6 C        2.8570    -2.8260     0.4660 C.3   1 <1>   0.3430 
  7 N        3.9550    -2.0470    -0.1780 N.4   1 <1>  -0.9590 
  8 C        5.2820    -2.6410     0.1780 C.3   1 <1>   0.3430 
  9 C        6.4120    -2.1120    -0.7080 C.3   1 <1>  -0.0170 
 10 C        7.6850    -2.8520    -0.3500 C.ar  1 <1>  -0.1440 
 11 C        8.5200    -2.3670     0.6450 C.ar  1 <1>  -0.1500 
 12 C        8.0190    -4.0270    -1.0070 C.ar  1 <1>  -0.1500 
 13 C        9.6730    -3.0530     0.9840 C.ar  1 <1>  -0.1500 
 14 C        9.1720    -4.7130    -0.6680 C.ar  1 <1>  -0.1500 
 15 C        9.9990    -4.2270     0.3290 C.ar  1 <1>  -0.1500 
 16 H       -0.0170     0.5130    -0.1770 H     1 <1>   0.4000 
 17 H        1.2380    -0.6290     1.2920 H     1 <1>   0.0800 
 18 H        2.4650     1.0020    -0.0190 H     1 <1>   0.0800 
 19 H        2.5230    -0.0550    -1.4040 H     1 <1>   0.0800 
 20 H        1.4150    -2.5160    -1.0780 H     1 <1>   0.0800 
 21 H        0.7240    -2.8410     0.4860 H     1 <1>   0.0800 
 22 H        3.9420    -0.4660     1.2330 H     1 <1>   0.0800 
 23 H        4.6760    -0.0520    -0.2980 H     1 <1>   0.0800 
 24 H        2.9510    -3.8720     0.2200 H     1 <1>   0.0800 
 25 H        2.9150    -2.7240     1.5380 H     1 <1>   0.0800 
 26 H        3.8250    -2.1360    -1.1960 H     1 <1>   0.4500 
 27 H        5.2390    -3.7120     0.0580 H     1 <1>   0.0800 
 28 H        5.5150    -2.4380     1.2110 H     1 <1>   0.0800 
 29 H        6.5620    -1.0600    -0.5540 H     1 <1>   0.0800 
 30 H        6.1830    -2.2810    -1.7460 H     1 <1>   0.0800 
 31 H        8.2900    -1.4530     1.1650 H     1 <1>   0.1500 
 32 H        7.3930    -4.4210    -1.7890 H     1 <1>   0.1500 
 33 H       10.3200    -2.6750     1.7570 H     1 <1>   0.1500 
 34 H        9.4300    -5.6240    -1.1790 H     1 <1>   0.1500 
 35 H       10.8960    -4.7610     0.5930 H     1 <1>   0.1500 
@<TRIPOS>BOND
  1   1   2  1   
  2   1  16  1   
  3   2   3  1   
  4   2   4  1   
  5   2  17  1   
  6   3   5  1   
  7   3  18  1   
  8   3  19  1   
  9   4   6  1   
 10   4  20  1   
 11   4  21  1   
 12   5   7  1   
 13   5  22  1   
 14   5  23  1   
 15   6   7  1   
 16   6  24  1   
 17   6  25  1   
 18   7   8  1   
 19   7  26  1   
 20   8   9  1   
 21   8  27  1   
 22   8  28  1   
 23   9  10  1   
 24   9  29  1   
 25   9  30  1   
 26  10  11  ar  
 27  10  12  ar  
 28  11  13  ar  
 29  11  31  1   
 30  12  14  ar  
 31  12  32  1   
 32  13  15  ar  
 33  13  33  1   
 34  14  15  ar  
 35  14  34  1   
 36  15  35  1   
@<TRIPOS>SUBSTRUCTURE
  1 ****   8 GROUP 4 **** **** 0

# MOE 2024.06 (io_trps.svl 2023.06)
