@<TRIPOS>MOLECULE
NONAME
46 48 1 0 0 
SMALL
USER_CHARGES


@<TRIPOS>ATOM
  1 S       -0.3190     0.7870    -2.0920 S.3   1 <1>  -0.0800 
  2 C        1.0130     1.4730    -1.1530 C.2   1 <1>  -0.0450 
  3 C        0.4220    -0.8010    -2.1230 C.2   1 <1>  -0.1100 
  4 C        0.9670     2.8580    -0.7910 C.2   1 <1>   0.4740 
  5 C        1.9250     0.4900    -0.9180 C.2   1 <1>  -0.1500 
  6 C        1.5930    -0.7840    -1.4620 C.2   1 <1>  -0.1500 
  7 N        0.0490     3.7070    -1.0380 N.2   1 <1>  -0.5120 
  8 C        2.1150     3.4470    -0.0160 C.3   1 <1>  -0.0990 
  9 N        0.3740     4.9430    -0.5240 N.am  1 <1>  -0.2980 
 10 C        1.7110     4.9090     0.1120 C.3   1 <1>   0.3640 
 11 C       -0.4320     6.0750    -0.5520 C.2   1 <1>   0.5690 
 12 C        2.7220     5.8190    -0.5890 C.ar  1 <1>  -0.1440 
 13 O       -1.5050     6.1090    -1.1060 O.2   1 <1>  -0.5700 
 14 C        0.0100     7.3490     0.1410 C.3   1 <1>  -0.1790 
 15 C        3.7140     6.4500     0.1540 C.ar  1 <1>   0.0830 
 16 C        2.6840     6.0200    -1.9630 C.ar  1 <1>  -0.1500 
 17 O        3.7780     6.2280     1.4870 O.3   1 <1>  -0.3620 
 18 C        4.6340     7.2870    -0.4650 C.ar  1 <1>  -0.1500 
 19 C        3.6070     6.8450    -2.5810 C.ar  1 <1>  -0.1500 
 20 C        4.9890     5.7010     2.0180 C.3   1 <1>   0.1810 
 21 C        4.5810     7.4810    -1.8320 C.ar  1 <1>  -0.1500 
 22 C        5.3960     4.4120     1.3160 C.2   1 <1>   0.6590 
 23 O        4.8800     3.3520     1.5750 O.2   1 <1>  -0.5700 
 24 O        6.3370     4.5300     0.3880 O.3   1 <1>  -0.4300 
 25 C        6.7560     3.4340    -0.3890 C.3   1 <1>   0.1200 
 26 C        7.7070     3.9570    -1.4600 C.3   1 <1>  -0.2400 
 27 H       -0.1060    -1.5850    -2.6380 H     1 <1>   0.1500 
 28 H        2.8400     0.6220    -0.3660 H     1 <1>   0.1500 
 29 H        2.2450    -1.6310    -1.3330 H     1 <1>   0.1500 
 30 H        3.0380     3.3320    -0.5530 H     1 <1>   0.0800 
 31 H        2.1960     2.9900     0.9520 H     1 <1>   0.0800 
 32 H        1.6040     5.1670     1.1500 H     1 <1>   0.0800 
 33 H        0.3280     7.1440     1.1450 H     1 <1>   0.0800 
 34 H       -0.8120     8.0400     0.1790 H     1 <1>   0.0800 
 35 H        0.8110     7.8050    -0.4100 H     1 <1>   0.0800 
 36 H        1.9310     5.5350    -2.5660 H     1 <1>   0.1500 
 37 H        5.3880     7.7890     0.1130 H     1 <1>   0.1500 
 38 H        3.5640     6.9930    -3.6470 H     1 <1>   0.1500 
 39 H        4.8230     5.5000     3.0600 H     1 <1>   0.0800 
 40 H        5.7620     6.4400     1.9220 H     1 <1>   0.0800 
 41 H        5.2940     8.1270    -2.3150 H     1 <1>   0.1500 
 42 H        5.8880     2.9800    -0.8390 H     1 <1>   0.0800 
 43 H        7.2450     2.7240     0.2560 H     1 <1>   0.0800 
 44 H        7.2040     4.6720    -2.0850 H     1 <1>   0.0800 
 45 H        8.0440     3.1420    -2.0750 H     1 <1>   0.0800 
 46 H        8.5650     4.4170    -1.0030 H     1 <1>   0.0800 
@<TRIPOS>BOND
  1   1   2  1   
  2   1   3  1   
  3   2   4  1   
  4   2   5  2   
  5   3   6  2   
  6   3  27  1   
  7   4   7  2   
  8   4   8  1   
  9   5   6  1   
 10   5  28  1   
 11   6  29  1   
 12   7   9  1   
 13   8  10  1   
 14   8  30  1   
 15   8  31  1   
 16   9  10  1   
 17   9  11  am  
 18  10  12  1   
 19  10  32  1   
 20  11  13  2   
 21  11  14  1   
 22  12  15  ar  
 23  12  16  ar  
 24  14  33  1   
 25  14  34  1   
 26  14  35  1   
 27  15  17  1   
 28  15  18  ar  
 29  16  19  ar  
 30  16  36  1   
 31  17  20  1   
 32  18  21  ar  
 33  18  37  1   
 34  19  21  ar  
 35  19  38  1   
 36  20  22  1   
 37  20  39  1   
 38  20  40  1   
 39  21  41  1   
 40  22  23  2   
 41  22  24  1   
 42  24  25  1   
 43  25  26  1   
 44  25  42  1   
 45  25  43  1   
 46  26  44  1   
 47  26  45  1   
 48  26  46  1   
@<TRIPOS>SUBSTRUCTURE
  1 ****   8 GROUP 4 **** **** 0

# MOE 2024.06 (io_trps.svl 2023.06)
