@<TRIPOS>MOLECULE
NONAME
60 62 1 0 0 
SMALL
USER_CHARGES


@<TRIPOS>ATOM
  1 O       -0.5110    -0.8820     1.1960 O.2   1 <1>  -0.5700 
  2 C       -1.1970    -1.8160     0.8370 C.2   1 <1>   0.6900 
  3 N       -0.6160    -2.8890     0.1690 N.am  1 <1>  -0.4200 
  4 N       -2.5600    -1.8090     1.0920 N.am  1 <1>  -0.4360 
  5 C       -1.3750    -3.9740    -0.2510 C.2   1 <1>   0.7030 
  6 C        0.8610    -2.8690    -0.0730 C.3   1 <1>   0.0600 
  7 C       -3.3100    -2.8790     0.6410 C.2   1 <1>   0.4260 
  8 C       -3.1990    -0.6720     1.8190 C.3   1 <1>   0.0600 
  9 O       -0.8490    -4.9190    -0.8130 O.2   1 <1>  -0.5700 
 10 C       -2.7900    -3.9480    -0.0070 C.2   1 <1>   0.2770 
 11 N       -4.6480    -3.0590     0.7460 N.pl3 1 <1>  -0.7000 
 12 N       -3.8630    -4.8020    -0.2960 N.pl3 1 <1>  -0.7640 
 13 C       -4.9600    -4.2170     0.1770 C.cat 1 <1>   0.6560 
 14 C       -3.7160    -6.1070    -0.9940 C.3   1 <1>   0.3540 
 15 C       -6.4140    -4.7200     0.1230 C.3   1 <1>   0.2540 
 16 C       -3.3400    -7.1860     0.0230 C.3   1 <1>  -0.1600 
 17 N       -7.3890    -3.6130     0.3270 N.3   1 <1>  -0.8100 
 18 C       -3.2050    -8.5620    -0.6440 C.3   1 <1>  -0.1600 
 19 C       -8.7020    -4.1290     0.7850 C.3   1 <1>   0.1100 
 20 C       -7.5730    -2.8110    -0.9110 C.3   1 <1>   0.1100 
 21 C       -2.8310    -9.6330     0.3830 C.3   1 <1>  -0.2400 
 22 C       -9.7050    -2.9920     1.0540 C.3   1 <1>   0.1400 
 23 C       -8.5290    -1.6270    -0.6870 C.3   1 <1>   0.1400 
 24 N       -9.8260    -2.1040    -0.1370 N.am  1 <1>  -0.6600 
 25 C      -11.0220    -1.7600    -0.7080 C.2   1 <1>   0.7800 
 26 O      -11.0960    -1.0600    -1.7000 O.2   1 <1>  -0.5700 
 27 O      -12.1380    -2.2220    -0.1410 O.3   1 <1>  -0.4300 
 28 C      -13.4040    -1.9020    -0.6700 C.3   1 <1>   0.1200 
 29 C      -14.4630    -2.5800     0.1930 C.3   1 <1>  -0.2400 
 30 H        1.1760    -1.8800    -0.3600 H     1 <1>   0.0800 
 31 H        1.1380    -3.5490    -0.8600 H     1 <1>   0.0800 
 32 H        1.3780    -3.1480     0.8290 H     1 <1>   0.0800 
 33 H       -2.4740    -0.1530     2.4230 H     1 <1>   0.0800 
 34 H       -3.9770    -1.0310     2.4690 H     1 <1>   0.0800 
 35 H       -3.6150     0.0230     1.1100 H     1 <1>   0.0800 
 36 H       -5.3610    -2.4520     1.1590 H     1 <1>   0.4500 
 37 H       -2.9530    -6.0340    -1.7530 H     1 <1>   0.0800 
 38 H       -4.6390    -6.3720    -1.4810 H     1 <1>   0.0800 
 39 H       -6.5290    -5.4470     0.9070 H     1 <1>   0.0800 
 40 H       -6.6020    -5.2080    -0.8170 H     1 <1>   0.0800 
 41 H       -4.0930    -7.2390     0.7890 H     1 <1>   0.0800 
 42 H       -2.4000    -6.9300     0.4810 H     1 <1>   0.0800 
 43 H       -2.4410    -8.5260    -1.4030 H     1 <1>   0.0800 
 44 H       -4.1330    -8.8390    -1.1160 H     1 <1>   0.0800 
 45 H       -8.5750    -4.6900     1.6950 H     1 <1>   0.0800 
 46 H       -9.1210    -4.7880     0.0420 H     1 <1>   0.0800 
 47 H       -7.9770    -3.4290    -1.6960 H     1 <1>   0.0800 
 48 H       -6.6270    -2.4240    -1.2480 H     1 <1>   0.0800 
 49 H       -1.8910    -9.3970     0.8520 H     1 <1>   0.0800 
 50 H       -2.7350   -10.5900    -0.1010 H     1 <1>   0.0800 
 51 H       -3.5870    -9.7140     1.1440 H     1 <1>   0.0800 
 52 H       -9.3680    -2.4080     1.8930 H     1 <1>   0.0800 
 53 H      -10.6590    -3.4180     1.3120 H     1 <1>   0.0800 
 54 H       -8.6810    -1.1130    -1.6200 H     1 <1>   0.0800 
 55 H       -8.0890    -0.9310     0.0050 H     1 <1>   0.0800 
 56 H      -13.4480    -2.2560    -1.6870 H     1 <1>   0.0800 
 57 H      -13.5190    -0.8310    -0.6540 H     1 <1>   0.0800 
 58 H      -14.3280    -3.6470     0.1760 H     1 <1>   0.0800 
 59 H      -15.4410    -2.3530    -0.1890 H     1 <1>   0.0800 
 60 H      -14.3990    -2.2240     1.2060 H     1 <1>   0.0800 
@<TRIPOS>BOND
  1   1   2  2   
  2   2   3  am  
  3   2   4  am  
  4   3   5  am  
  5   3   6  1   
  6   4   7  1   
  7   4   8  1   
  8   5   9  2   
  9   5  10  1   
 10   6  30  1   
 11   6  31  1   
 12   6  32  1   
 13   7  10  2   
 14   7  11  1   
 15   8  33  1   
 16   8  34  1   
 17   8  35  1   
 18  10  12  1   
 19  11  13  ar  
 20  11  36  1   
 21  12  13  ar  
 22  12  14  1   
 23  13  15  1   
 24  14  16  1   
 25  14  37  1   
 26  14  38  1   
 27  15  17  1   
 28  15  39  1   
 29  15  40  1   
 30  16  18  1   
 31  16  41  1   
 32  16  42  1   
 33  17  19  1   
 34  17  20  1   
 35  18  21  1   
 36  18  43  1   
 37  18  44  1   
 38  19  22  1   
 39  19  45  1   
 40  19  46  1   
 41  20  23  1   
 42  20  47  1   
 43  20  48  1   
 44  21  49  1   
 45  21  50  1   
 46  21  51  1   
 47  22  24  1   
 48  22  52  1   
 49  22  53  1   
 50  23  24  1   
 51  23  54  1   
 52  23  55  1   
 53  24  25  am  
 54  25  26  2   
 55  25  27  1   
 56  27  28  1   
 57  28  29  1   
 58  28  56  1   
 59  28  57  1   
 60  29  58  1   
 61  29  59  1   
 62  29  60  1   
@<TRIPOS>SUBSTRUCTURE
  1 ****  13 GROUP 4 **** **** 0

# MOE 2024.06 (io_trps.svl 2023.06)
