@<TRIPOS>MOLECULE
NONAME
39 40 1 0 0 
SMALL
USER_CHARGES


@<TRIPOS>ATOM
  1 BR      -0.2130     0.5030     1.1530 Br    1 <1>  -0.1110 
  2 C       -1.6970    -0.4190     0.3320 C.ar  1 <1>   0.1110 
  3 C       -1.4710    -1.5640    -0.4210 C.ar  1 <1>   0.0830 
  4 C       -2.9640     0.0940     0.5200 C.ar  1 <1>  -0.1500 
  5 O       -0.2280    -2.0650    -0.6040 O.3   1 <1>  -0.3630 
  6 C       -2.5540    -2.1930    -1.0130 C.ar  1 <1>  -0.1500 
  7 C       -4.0530    -0.5440    -0.0610 C.ar  1 <1>   0.1000 
  8 C        0.2150    -2.9660     0.3850 C.3   1 <1>   0.0400 
  9 C       -3.8310    -1.6850    -0.8320 C.ar  1 <1>  -0.1500 
 10 N       -5.3340    -0.0110     0.1440 N.pl3 1 <1>  -0.6000 
 11 C       -6.5620    -0.5520    -0.0960 C.2   1 <1>  -0.0500 
 12 C       -7.7780     0.0540     0.1380 C.2   1 <1>   0.0290 
 13 C       -8.9850    -0.6490    -0.1800 C.2   1 <1>   0.4950 
 14 C       -7.8850     1.3760     0.6920 C.2   1 <1>   0.4950 
 15 O       -8.9970    -1.7690    -0.6350 O.2   1 <1>  -0.5700 
 16 C      -10.3510    -0.0250     0.0510 C.3   1 <1>  -0.0990 
 17 O       -6.9350     2.0530     1.0170 O.2   1 <1>  -0.5700 
 18 C       -9.2420     2.0180     0.9320 C.3   1 <1>  -0.0990 
 19 C      -10.3320     1.5080    -0.0200 C.3   1 <1>   0.0000 
 20 C      -11.6970     2.0600     0.4170 C.3   1 <1>  -0.2400 
 21 C      -10.0570     1.9810    -1.4600 C.3   1 <1>  -0.2400 
 22 H       -3.1020     0.9790     1.1120 H     1 <1>   0.1500 
 23 H       -2.3930    -3.0700    -1.6120 H     1 <1>   0.1500 
 24 H        1.2060    -3.2910     0.1230 H     1 <1>   0.0800 
 25 H       -0.4540    -3.8070     0.4160 H     1 <1>   0.0800 
 26 H        0.2320    -2.4630     1.3350 H     1 <1>   0.0800 
 27 H       -4.6580    -2.1830    -1.3020 H     1 <1>   0.1500 
 28 H       -5.3480     0.9390     0.5570 H     1 <1>   0.4000 
 29 H       -6.5640    -1.5500    -0.5040 H     1 <1>   0.1500 
 30 H      -11.0380    -0.4120    -0.6810 H     1 <1>   0.0800 
 31 H      -10.6970    -0.3470     1.0160 H     1 <1>   0.0800 
 32 H       -9.5200     1.8200     1.9520 H     1 <1>   0.0800 
 33 H       -9.1450     3.0850     0.8300 H     1 <1>   0.0800 
 34 H      -11.9340     1.7550     1.4210 H     1 <1>   0.0800 
 35 H      -12.4760     1.7030    -0.2350 H     1 <1>   0.0800 
 36 H      -11.6990     3.1360     0.3830 H     1 <1>   0.0800 
 37 H      -10.8250     1.6250    -2.1260 H     1 <1>   0.0800 
 38 H       -9.1110     1.6270    -1.8300 H     1 <1>   0.0800 
 39 H      -10.0500     3.0560    -1.5080 H     1 <1>   0.0800 
@<TRIPOS>BOND
  1   1   2  1   
  2   2   3  ar  
  3   2   4  ar  
  4   3   5  1   
  5   3   6  ar  
  6   4   7  ar  
  7   4  22  1   
  8   5   8  1   
  9   6   9  ar  
 10   6  23  1   
 11   7   9  ar  
 12   7  10  1   
 13   8  24  1   
 14   8  25  1   
 15   8  26  1   
 16   9  27  1   
 17  10  11  1   
 18  10  28  1   
 19  11  12  2   
 20  11  29  1   
 21  12  13  1   
 22  12  14  1   
 23  13  15  2   
 24  13  16  1   
 25  14  17  2   
 26  14  18  1   
 27  16  19  1   
 28  16  30  1   
 29  16  31  1   
 30  18  19  1   
 31  18  32  1   
 32  18  33  1   
 33  19  20  1   
 34  19  21  1   
 35  20  34  1   
 36  20  35  1   
 37  20  36  1   
 38  21  37  1   
 39  21  38  1   
 40  21  39  1   
@<TRIPOS>SUBSTRUCTURE
  1 ****  10 GROUP 4 **** **** 0

# MOE 2024.06 (io_trps.svl 2023.06)
