@<TRIPOS>MOLECULE
NONAME
35 35 1 0 0 
SMALL
USER_CHARGES


@<TRIPOS>ATOM
  1 O        1.0380    -0.9860     0.2920 O.2   1 <1>  -0.5700 
  2 C        0.5570    -1.9960    -0.1870 C.2   1 <1>   0.5440 
  3 N        1.3690    -2.7540    -0.9870 N.am  1 <1>  -0.7300 
  4 C       -0.8050    -2.4020     0.1100 C.ar  1 <1>   0.0860 
  5 C        2.6230    -2.2980    -1.6630 C.3   1 <1>   0.1400 
  6 C       -1.4360    -1.9890     1.2860 C.ar  1 <1>  -0.1500 
  7 C       -1.5440    -3.2150    -0.7550 C.ar  1 <1>  -0.1500 
  8 C        3.8600    -2.3840    -0.7440 C.3   1 <1>   0.3430 
  9 C       -2.7260    -2.3790     1.5910 C.ar  1 <1>  -0.1500 
 10 C       -2.8350    -3.6110    -0.4570 C.ar  1 <1>  -0.1500 
 11 N        3.7440    -1.4600     0.4240 N.4   1 <1>  -0.9590 
 12 C       -3.4370    -3.1950     0.7270 C.ar  1 <1>   0.0830 
 13 C        4.1620    -0.0640     0.1010 C.3   1 <1>   0.2630 
 14 C        4.4320    -1.9800     1.6400 C.3   1 <1>   0.2630 
 15 O       -4.6910    -3.5360     1.0970 O.3   1 <1>  -0.3630 
 16 C       -5.5140    -4.3470     0.2880 C.3   1 <1>   0.0400 
 17 H        0.9900    -3.6440    -1.3260 H     1 <1>   0.3700 
 18 H        2.4960    -1.2850    -2.0050 H     1 <1>   0.0800 
 19 H        2.7890    -2.9140    -2.5300 H     1 <1>   0.0800 
 20 H       -0.9060    -1.3500     1.9710 H     1 <1>   0.1500 
 21 H       -1.1110    -3.5400    -1.6840 H     1 <1>   0.1500 
 22 H        4.7490    -2.1480    -1.3060 H     1 <1>   0.0800 
 23 H        3.9480    -3.4010    -0.3970 H     1 <1>   0.0800 
 24 H       -3.1950    -2.0530     2.5020 H     1 <1>   0.1500 
 25 H       -3.3620    -4.2370    -1.1520 H     1 <1>   0.1500 
 26 H        2.7160    -1.4060     0.6220 H     1 <1>   0.4500 
 27 H        5.2060    -0.0320    -0.1600 H     1 <1>   0.0800 
 28 H        3.9950     0.5780     0.9510 H     1 <1>   0.0800 
 29 H        3.5810     0.3150    -0.7240 H     1 <1>   0.0800 
 30 H        5.4940    -2.0530     1.4690 H     1 <1>   0.0800 
 31 H        4.0520    -2.9560     1.8940 H     1 <1>   0.0800 
 32 H        4.2600    -1.3190     2.4740 H     1 <1>   0.0800 
 33 H       -6.4560    -4.4710     0.7890 H     1 <1>   0.0800 
 34 H       -5.0410    -5.3040     0.1570 H     1 <1>   0.0800 
 35 H       -5.6650    -3.8570    -0.6580 H     1 <1>   0.0800 
@<TRIPOS>BOND
  1   1   2  2   
  2   2   3  am  
  3   2   4  1   
  4   3   5  1   
  5   3  17  1   
  6   4   6  ar  
  7   4   7  ar  
  8   5   8  1   
  9   5  18  1   
 10   5  19  1   
 11   6   9  ar  
 12   6  20  1   
 13   7  10  ar  
 14   7  21  1   
 15   8  11  1   
 16   8  22  1   
 17   8  23  1   
 18   9  12  ar  
 19   9  24  1   
 20  10  12  ar  
 21  10  25  1   
 22  11  13  1   
 23  11  14  1   
 24  11  26  1   
 25  12  15  1   
 26  13  27  1   
 27  13  28  1   
 28  13  29  1   
 29  14  30  1   
 30  14  31  1   
 31  14  32  1   
 32  15  16  1   
 33  16  33  1   
 34  16  34  1   
 35  16  35  1   
@<TRIPOS>SUBSTRUCTURE
  1 ****   4 GROUP 4 **** **** 0

# MOE 2024.06 (io_trps.svl 2023.06)
