@<TRIPOS>MOLECULE
NONAME
44 46 1 0 0 
SMALL
USER_CHARGES


@<TRIPOS>ATOM
  1 S       -0.1560     0.7490     0.2610 S.3   1 <1>  -0.0800 
  2 C       -0.4950    -0.9230    -0.1680 C.2   1 <1>   0.1040 
  3 C       -1.7630     1.2600    -0.2220 C.2   1 <1>  -0.1100 
  4 N        0.4800    -1.9020    -0.0510 N.am  1 <1>  -0.4940 
  5 C       -1.7780    -1.0540    -0.6200 C.2   1 <1>  -0.0860 
  6 C       -2.4740     0.2070    -0.6600 C.2   1 <1>  -0.1500 
  7 C        1.7290    -1.9150     0.5160 C.2   1 <1>   0.5690 
  8 C       -2.3680    -2.3050    -1.0260 C.2   1 <1>   0.7160 
  9 O        2.1900    -0.9910     1.1390 O.2   1 <1>  -0.5700 
 10 C        2.5550    -3.1920     0.3530 C.3   1 <1>  -0.0190 
 11 O       -1.6500    -3.2110    -1.4230 O.2   1 <1>  -0.5700 
 12 N       -3.7250    -2.5350    -0.9550 N.am  1 <1>  -0.6600 
 13 C        2.7390    -3.9120     1.7030 C.3   1 <1>  -0.1600 
 14 C        3.9240    -2.9040    -0.2950 C.3   1 <1>  -0.1600 
 15 C       -4.3800    -3.6200    -1.7480 C.3   1 <1>   0.1400 
 16 C       -4.5600    -2.0620     0.1900 C.3   1 <1>   0.1400 
 17 C        3.5720    -5.1930     1.5510 C.3   1 <1>  -0.1600 
 18 C        4.7570    -4.1840    -0.4480 C.3   1 <1>  -0.1600 
 19 C       -4.9170    -4.7210    -0.8210 C.3   1 <1>   0.1200 
 20 C       -5.1000    -3.2540     1.0000 C.3   1 <1>   0.1200 
 21 C        4.9290    -4.8970     0.8990 C.3   1 <1>  -0.1600 
 22 O       -5.7450    -4.1700     0.1640 O.3   1 <1>  -0.5600 
 23 H       -1.9940     2.3070    -0.1290 H     1 <1>   0.1500 
 24 H        0.2040    -2.7850    -0.4930 H     1 <1>   0.3700 
 25 H       -3.4840     0.2660    -1.0280 H     1 <1>   0.1500 
 26 H        2.0210    -3.8560    -0.3020 H     1 <1>   0.0800 
 27 H        1.7760    -4.1570     2.1170 H     1 <1>   0.0800 
 28 H        3.2330    -3.2480     2.3930 H     1 <1>   0.0800 
 29 H        4.4650    -2.2010     0.3160 H     1 <1>   0.0800 
 30 H        3.7780    -2.4510    -1.2610 H     1 <1>   0.0800 
 31 H       -3.6870    -4.0490    -2.4510 H     1 <1>   0.0800 
 32 H       -5.1980    -3.2030    -2.3080 H     1 <1>   0.0800 
 33 H       -5.3880    -1.4870    -0.1860 H     1 <1>   0.0800 
 34 H       -3.9840    -1.4330     0.8460 H     1 <1>   0.0800 
 35 H        3.0330    -5.9020     0.9460 H     1 <1>   0.0800 
 36 H        3.7280    -5.6380     2.5190 H     1 <1>   0.0800 
 37 H        5.7250    -3.9370    -0.8500 H     1 <1>   0.0800 
 38 H        4.2710    -4.8470    -1.1440 H     1 <1>   0.0800 
 39 H       -4.1060    -5.2430    -0.3420 H     1 <1>   0.0800 
 40 H       -5.5000    -5.4290    -1.3830 H     1 <1>   0.0800 
 41 H       -5.8140    -2.9150     1.7290 H     1 <1>   0.0800 
 42 H       -4.2990    -3.7600     1.5110 H     1 <1>   0.0800 
 43 H        5.4690    -5.8170     0.7550 H     1 <1>   0.0800 
 44 H        5.5110    -4.2750     1.5580 H     1 <1>   0.0800 
@<TRIPOS>BOND
  1   1   2  1   
  2   1   3  1   
  3   2   4  1   
  4   2   5  2   
  5   3   6  2   
  6   3  23  1   
  7   4   7  am  
  8   4  24  1   
  9   5   6  1   
 10   5   8  1   
 11   6  25  1   
 12   7   9  2   
 13   7  10  1   
 14   8  11  2   
 15   8  12  am  
 16  10  13  1   
 17  10  14  1   
 18  10  26  1   
 19  12  15  1   
 20  12  16  1   
 21  13  17  1   
 22  13  27  1   
 23  13  28  1   
 24  14  18  1   
 25  14  29  1   
 26  14  30  1   
 27  15  19  1   
 28  15  31  1   
 29  15  32  1   
 30  16  20  1   
 31  16  33  1   
 32  16  34  1   
 33  17  21  1   
 34  17  35  1   
 35  17  36  1   
 36  18  21  1   
 37  18  37  1   
 38  18  38  1   
 39  19  22  1   
 40  19  39  1   
 41  19  40  1   
 42  20  22  1   
 43  20  41  1   
 44  20  42  1   
 45  21  43  1   
 46  21  44  1   
@<TRIPOS>SUBSTRUCTURE
  1 ****   4 GROUP 4 **** **** 0

# MOE 2024.06 (io_trps.svl 2023.06)
