@<TRIPOS>MOLECULE
NONAME
53 56 1 0 0 
SMALL
USER_CHARGES


@<TRIPOS>ATOM
  1 O       -0.5280     1.0620     1.5340 O.2   1 <1>  -0.5700 
  2 C       -1.1610     0.8480     0.5370 C.2   1 <1>   0.6590 
  3 O       -2.3940     0.3640     0.6380 O.3   1 <1>  -0.4300 
  4 C       -0.5830     1.1200    -0.8530 C.3   1 <1>  -0.0990 
  5 C       -3.2510     0.0560    -0.4400 C.3   1 <1>   0.1200 
  6 C        0.8370     1.7140    -0.8460 C.3   1 <1>  -0.2400 
  7 C       -4.5580    -0.5470     0.1120 C.3   1 <1>   0.0000 
  8 C       -5.5530    -0.7490    -0.9830 C.3   1 <1>  -0.0800 
  9 C       -4.2950    -2.0890     0.5850 C.3   1 <1>  -0.0800 
 10 C       -5.3150     0.6310     0.9880 C.3   1 <1>   0.1200 
 11 C       -6.6800    -1.2940    -0.0440 C.3   1 <1>  -0.0800 
 12 C       -5.1650    -1.4970    -2.2820 C.3   1 <1>  -0.2400 
 13 C       -5.3920    -3.2250     0.1410 C.3   1 <1>  -0.1600 
 14 C       -4.0190    -2.1360     2.0970 C.3   1 <1>  -0.2400 
 15 O       -6.8270     0.6990     0.9860 O.3   1 <1>  -0.5600 
 16 C       -6.8940    -2.7450     0.2270 C.3   1 <1>   0.2800 
 17 C       -7.5890    -0.1620     0.0740 C.3   1 <1>   0.3430 
 18 O       -8.0030    -2.9690    -0.6290 O.3   1 <1>  -0.3630 
 19 C       -7.3870    -3.2300     1.6360 C.3   1 <1>  -0.2400 
 20 C       -8.9500    -0.8540     0.2230 C.ar  1 <1>  -0.1440 
 21 C       -9.0990    -2.1770    -0.2760 C.ar  1 <1>   0.0820 
 22 C      -10.0530    -0.1820     0.7200 C.ar  1 <1>  -0.1500 
 23 C      -10.3580    -2.7510    -0.3190 C.ar  1 <1>  -0.1500 
 24 C      -11.3000    -0.7860     0.6950 C.ar  1 <1>  -0.1500 
 25 C      -11.4540    -2.0580     0.1660 C.ar  1 <1>  -0.1500 
 26 H       -1.2340     1.8030    -1.3650 H     1 <1>   0.0800 
 27 H       -0.5610     0.1950    -1.3990 H     1 <1>   0.0800 
 28 H       -2.7500    -0.6400    -1.0900 H     1 <1>   0.0800 
 29 H       -3.4530     0.9660    -0.9790 H     1 <1>   0.0800 
 30 H        0.8460     2.6520    -0.3180 H     1 <1>   0.0800 
 31 H        1.1790     1.8800    -1.8520 H     1 <1>   0.0800 
 32 H        1.5190     1.0410    -0.3550 H     1 <1>   0.0800 
 33 H       -5.7750     0.2370    -1.3610 H     1 <1>   0.0800 
 34 H       -3.3770    -2.4140     0.1260 H     1 <1>   0.0800 
 35 H       -4.9890     1.5910     0.6290 H     1 <1>   0.0800 
 36 H       -5.0010     0.5660     2.0150 H     1 <1>   0.0800 
 37 H       -6.4580    -1.2930     1.0050 H     1 <1>   0.0800 
 38 H       -4.3310    -2.1610    -2.1590 H     1 <1>   0.0800 
 39 H       -4.8840    -0.7860    -3.0390 H     1 <1>   0.0800 
 40 H       -6.0110    -2.0500    -2.6530 H     1 <1>   0.0800 
 41 H       -5.2500    -4.0950     0.7580 H     1 <1>   0.0800 
 42 H       -5.2100    -3.5840    -0.8510 H     1 <1>   0.0800 
 43 H       -4.8570    -1.7700     2.6600 H     1 <1>   0.0800 
 44 H       -3.1670    -1.5260     2.3370 H     1 <1>   0.0800 
 45 H       -3.8040    -3.1420     2.4110 H     1 <1>   0.0800 
 46 H       -7.6860     0.3880    -0.8460 H     1 <1>   0.0800 
 47 H       -6.6120    -3.1620     2.3750 H     1 <1>   0.0800 
 48 H       -7.6820    -4.2610     1.5730 H     1 <1>   0.0800 
 49 H       -8.2120    -2.6590     2.0180 H     1 <1>   0.0800 
 50 H       -9.9420     0.8160     1.1080 H     1 <1>   0.1500 
 51 H      -10.4680    -3.7450    -0.7130 H     1 <1>   0.1500 
 52 H      -12.1550    -0.2590     1.0810 H     1 <1>   0.1500 
 53 H      -12.4290    -2.5120     0.1390 H     1 <1>   0.1500 
@<TRIPOS>BOND
  1   1   2  2   
  2   2   3  1   
  3   2   4  1   
  4   3   5  1   
  5   4   6  1   
  6   4  26  1   
  7   4  27  1   
  8   5   7  1   
  9   5  28  1   
 10   5  29  1   
 11   6  30  1   
 12   6  31  1   
 13   6  32  1   
 14   7   8  1   
 15   7   9  1   
 16   7  10  1   
 17   8  11  1   
 18   8  12  1   
 19   8  33  1   
 20   9  13  1   
 21   9  14  1   
 22   9  34  1   
 23  10  15  1   
 24  10  35  1   
 25  10  36  1   
 26  11  16  1   
 27  11  17  1   
 28  11  37  1   
 29  12  38  1   
 30  12  39  1   
 31  12  40  1   
 32  13  16  1   
 33  13  41  1   
 34  13  42  1   
 35  14  43  1   
 36  14  44  1   
 37  14  45  1   
 38  15  17  1   
 39  16  18  1   
 40  16  19  1   
 41  17  20  1   
 42  17  46  1   
 43  18  21  1   
 44  19  47  1   
 45  19  48  1   
 46  19  49  1   
 47  20  21  ar  
 48  20  22  ar  
 49  21  23  ar  
 50  22  24  ar  
 51  22  50  1   
 52  23  25  ar  
 53  23  51  1   
 54  24  25  ar  
 55  24  52  1   
 56  25  53  1   
@<TRIPOS>SUBSTRUCTURE
  1 ****  11 GROUP 4 **** **** 0

# MOE 2024.06 (io_trps.svl 2023.06)
