@<TRIPOS>MOLECULE
NONAME
42 46 1 0 0 
SMALL
USER_CHARGES


@<TRIPOS>ATOM
  1 S       -0.4740     0.4200     0.1150 S.3   1 <1>  -0.0800 
  2 C        0.8970    -0.6060    -0.1740 C.2   1 <1>   0.4420 
  3 C       -1.4860    -0.9440    -0.2340 C.2   1 <1>   0.1980 
  4 N        0.5480    -1.7980    -0.4860 N.2   1 <1>  -0.3380 
  5 N        2.1940    -0.1590    -0.0720 N.am  1 <1>  -0.4940 
  6 N       -0.8050    -1.9840    -0.5180 N.2   1 <1>  -0.3380 
  7 C       -3.0090    -0.7650    -0.1670 C.3   1 <1>   0.1800 
  8 C        2.7410     1.0570     0.2430 C.2   1 <1>   0.7150 
  9 C       -3.4460    -0.3350     1.2540 C.3   1 <1>  -0.1600 
 10 C       -3.7270    -2.0940    -0.5110 C.3   1 <1>  -0.1600 
 11 C       -3.4770     0.3090    -1.1780 C.3   1 <1>  -0.1600 
 12 O        2.0300     2.0050     0.5030 O.2   1 <1>  -0.5700 
 13 C        4.1730     1.2020     0.2640 C.2   1 <1>  -0.0450 
 14 C       -4.9750    -0.1570     1.3250 C.3   1 <1>  -0.0800 
 15 C       -5.2570    -1.9290    -0.4480 C.3   1 <1>  -0.0800 
 16 C       -5.0060     0.4900    -1.1160 C.3   1 <1>  -0.0800 
 17 S        5.2020    -0.1860    -0.1170 S.3   1 <1>  -0.0800 
 18 C        4.9710     2.2670     0.5360 C.2   1 <1>  -0.1500 
 19 C       -5.6580    -1.4910     0.9730 C.3   1 <1>  -0.1600 
 20 C       -5.4060     0.9170     0.3090 C.3   1 <1>  -0.1600 
 21 C       -5.6880    -0.8480    -1.4550 C.3   1 <1>  -0.1600 
 22 C        6.6670     0.7430     0.1110 C.2   1 <1>  -0.1100 
 23 C        6.3700     2.0110     0.4500 C.2   1 <1>  -0.1500 
 24 H        2.8800    -0.8820    -0.2720 H     1 <1>   0.3700 
 25 H       -2.9730     0.5920     1.5220 H     1 <1>   0.0800 
 26 H       -3.1330    -1.0780     1.9670 H     1 <1>   0.0800 
 27 H       -3.4200    -2.8600     0.1800 H     1 <1>   0.0800 
 28 H       -3.4410    -2.4160    -1.4970 H     1 <1>   0.0800 
 29 H       -3.1860     0.0190    -2.1720 H     1 <1>   0.0800 
 30 H       -3.0040     1.2510    -0.9630 H     1 <1>   0.0800 
 31 H       -5.2600     0.1460     2.3190 H     1 <1>   0.0800 
 32 H       -5.7340    -2.8640    -0.6890 H     1 <1>   0.0800 
 33 H       -5.3120     1.2440    -1.8210 H     1 <1>   0.0800 
 34 H        4.6010     3.2440     0.7990 H     1 <1>   0.1500 
 35 H       -6.7270    -1.3800     1.0310 H     1 <1>   0.0800 
 36 H       -5.3700    -2.2480     1.6830 H     1 <1>   0.0800 
 37 H       -4.9420     1.8570     0.5530 H     1 <1>   0.0800 
 38 H       -6.4710     1.0580     0.3600 H     1 <1>   0.0800 
 39 H       -6.7580    -0.7280    -1.4250 H     1 <1>   0.0800 
 40 H       -5.4230    -1.1510    -2.4520 H     1 <1>   0.0800 
 41 H        7.6070     0.2410    -0.0340 H     1 <1>   0.1500 
 42 H        7.0900     2.7880     0.6470 H     1 <1>   0.1500 
@<TRIPOS>BOND
  1   1   2  1   
  2   1   3  1   
  3   2   4  2   
  4   2   5  1   
  5   3   6  2   
  6   3   7  1   
  7   4   6  1   
  8   5   8  am  
  9   5  24  1   
 10   7   9  1   
 11   7  10  1   
 12   7  11  1   
 13   8  12  2   
 14   8  13  1   
 15   9  14  1   
 16   9  25  1   
 17   9  26  1   
 18  10  15  1   
 19  10  27  1   
 20  10  28  1   
 21  11  16  1   
 22  11  29  1   
 23  11  30  1   
 24  13  17  1   
 25  13  18  2   
 26  14  19  1   
 27  14  20  1   
 28  14  31  1   
 29  15  19  1   
 30  15  21  1   
 31  15  32  1   
 32  16  20  1   
 33  16  21  1   
 34  16  33  1   
 35  17  22  1   
 36  18  23  1   
 37  18  34  1   
 38  19  35  1   
 39  19  36  1   
 40  20  37  1   
 41  20  38  1   
 42  21  39  1   
 43  21  40  1   
 44  22  23  2   
 45  22  41  1   
 46  23  42  1   
@<TRIPOS>SUBSTRUCTURE
  1 ****   1 GROUP 4 **** **** 0

# MOE 2024.06 (io_trps.svl 2023.06)
