@<TRIPOS>MOLECULE
NONAME
52 54 1 0 0 
SMALL
USER_CHARGES


@<TRIPOS>ATOM
  1 O        0.0890    -1.3790     0.4090 O.3   1 <1>  -0.3630 
  2 C       -1.1680    -1.8230     0.6560 C.ar  1 <1>   0.0830 
  3 C        0.3360    -0.7530    -0.8350 C.3   1 <1>   0.2640 
  4 C       -1.8620    -2.6970    -0.1870 C.ar  1 <1>   0.0830 
  5 C       -1.7780    -1.3690     1.8120 C.ar  1 <1>  -0.1500 
  6 C        1.5830     0.1110    -0.7210 C.ar  1 <1>  -0.1440 
  7 O       -1.3160    -3.2260    -1.3070 O.3   1 <1>  -0.3630 
  8 C       -3.1630    -3.0590     0.1150 C.ar  1 <1>  -0.1500 
  9 C       -3.0760    -1.7430     2.1160 C.ar  1 <1>  -0.1500 
 10 C        1.5480     1.4470    -1.0950 C.ar  1 <1>  -0.1500 
 11 C        2.7700    -0.4280    -0.2480 C.ar  1 <1>  -0.1500 
 12 C       -0.3030    -4.1890    -1.1080 C.3   1 <1>   0.0400 
 13 C       -3.7810    -2.5800     1.2620 C.ar  1 <1>  -0.1430 
 14 C        2.6850     2.2310    -1.0000 C.ar  1 <1>  -0.1500 
 15 C        3.9080     0.3540    -0.1530 C.ar  1 <1>  -0.1500 
 16 C       -5.2140    -2.9670     1.5740 C.3   1 <1>   0.4860 
 17 C        3.8660     1.6850    -0.5290 C.ar  1 <1>  -0.1500 
 18 N       -6.1100    -2.3080     0.5850 N.4   1 <1>  -0.9590 
 19 C       -6.0970    -0.8250     0.7490 C.3   1 <1>   0.3430 
 20 C       -7.4670    -2.9160     0.6230 C.3   1 <1>   0.3430 
 21 C       -6.3310    -0.1560    -0.6040 C.3   1 <1>  -0.1600 
 22 C       -8.3320    -2.4700    -0.5580 C.3   1 <1>  -0.1600 
 23 C       -7.8050     0.0160    -1.0090 C.3   1 <1>  -0.1600 
 24 C       -8.7990    -1.0110    -0.4510 C.3   1 <1>  -0.1600 
 25 H       -0.5210    -0.1570    -1.0930 H     1 <1>   0.0800 
 26 H        0.4840    -1.5120    -1.5820 H     1 <1>   0.0800 
 27 H       -1.2270    -0.7170     2.4680 H     1 <1>   0.1500 
 28 H       -3.6690    -3.7260    -0.5600 H     1 <1>   0.1500 
 29 H       -3.5200    -1.3710     3.0250 H     1 <1>   0.1500 
 30 H        0.6370     1.8850    -1.4620 H     1 <1>   0.1500 
 31 H        2.8090    -1.4610     0.0510 H     1 <1>   0.1500 
 32 H        0.0330    -4.5300    -2.0710 H     1 <1>   0.0800 
 33 H       -0.7110    -5.0120    -0.5470 H     1 <1>   0.0800 
 34 H        0.5150    -3.7440    -0.5710 H     1 <1>   0.0800 
 35 H        2.6500     3.2660    -1.2910 H     1 <1>   0.1500 
 36 H        4.8240    -0.0720     0.2160 H     1 <1>   0.1500 
 37 H       -5.4740    -2.6630     2.5760 H     1 <1>   0.0800 
 38 H       -5.3100    -4.0390     1.5060 H     1 <1>   0.0800 
 39 H        4.7500     2.2940    -0.4550 H     1 <1>   0.1500 
 40 H       -5.7010    -2.4960    -0.3380 H     1 <1>   0.4500 
 41 H       -5.1290    -0.5110     1.1060 H     1 <1>   0.0800 
 42 H       -6.8380    -0.5070     1.4650 H     1 <1>   0.0800 
 43 H       -7.9600    -2.6590     1.5460 H     1 <1>   0.0800 
 44 H       -7.3750    -3.9900     0.5850 H     1 <1>   0.0800 
 45 H       -5.8010    -0.6960    -1.3700 H     1 <1>   0.0800 
 46 H       -5.8910     0.8250    -0.5680 H     1 <1>   0.0800 
 47 H       -9.2120    -3.0900    -0.5490 H     1 <1>   0.0800 
 48 H       -7.8330    -2.6510    -1.4940 H     1 <1>   0.0800 
 49 H       -7.8620     0.0070    -2.0860 H     1 <1>   0.0800 
 50 H       -8.1380     0.9930    -0.6970 H     1 <1>   0.0800 
 51 H       -9.0340    -0.7760     0.5740 H     1 <1>   0.0800 
 52 H       -9.7180    -0.9060    -1.0050 H     1 <1>   0.0800 
@<TRIPOS>BOND
  1   1   2  1   
  2   1   3  1   
  3   2   4  ar  
  4   2   5  ar  
  5   3   6  1   
  6   3  25  1   
  7   3  26  1   
  8   4   7  1   
  9   4   8  ar  
 10   5   9  ar  
 11   5  27  1   
 12   6  10  ar  
 13   6  11  ar  
 14   7  12  1   
 15   8  13  ar  
 16   8  28  1   
 17   9  13  ar  
 18   9  29  1   
 19  10  14  ar  
 20  10  30  1   
 21  11  15  ar  
 22  11  31  1   
 23  12  32  1   
 24  12  33  1   
 25  12  34  1   
 26  13  16  1   
 27  14  17  ar  
 28  14  35  1   
 29  15  17  ar  
 30  15  36  1   
 31  16  18  1   
 32  16  37  1   
 33  16  38  1   
 34  17  39  1   
 35  18  19  1   
 36  18  20  1   
 37  18  40  1   
 38  19  21  1   
 39  19  41  1   
 40  19  42  1   
 41  20  22  1   
 42  20  43  1   
 43  20  44  1   
 44  21  23  1   
 45  21  45  1   
 46  21  46  1   
 47  22  24  1   
 48  22  47  1   
 49  22  48  1   
 50  23  24  1   
 51  23  49  1   
 52  23  50  1   
 53  24  51  1   
 54  24  52  1   
@<TRIPOS>SUBSTRUCTURE
  1 ****   2 GROUP 4 **** **** 0

# MOE 2024.06 (io_trps.svl 2023.06)
