@<TRIPOS>MOLECULE
NONAME
28 29 1 0 0 
SMALL
USER_CHARGES


@<TRIPOS>ATOM
  1 S       -0.3220     0.3820    -1.0710 S.3   1 <1>  -0.0800 
  2 C       -1.6420     0.9690    -0.0530 C.2   1 <1>   0.0410 
  3 C        0.8970     1.0190     0.0160 C.2   1 <1>  -0.1100 
  4 C       -3.0060     0.7300    -0.4540 C.2   1 <1>   0.5150 
  5 C       -1.1100     1.5990     1.0260 C.2   1 <1>  -0.1500 
  6 C        0.3170     1.6270     1.0660 C.2   1 <1>  -0.1500 
  7 N       -3.3850     0.1100    -1.5210 N.2   1 <1>  -0.4100 
  8 N       -4.0400     1.1590     0.2940 N.2   1 <1>  -0.5650 
  9 O       -4.6590     0.1400    -1.4610 O.3   1 <1>  -0.0190 
 10 C       -5.0620     0.7600    -0.3870 C.2   1 <1>   0.3930 
 11 C       -6.4910     0.8960    -0.1390 C.2   1 <1>   0.7150 
 12 O       -6.9200     1.4650     0.8500 O.2   1 <1>  -0.5700 
 13 N       -7.4140     0.3740    -1.0150 N.am  1 <1>  -0.7300 
 14 C       -8.8900     0.5210    -0.8970 C.3   1 <1>   0.1400 
 15 C       -9.4520    -0.4610     0.1320 C.3   1 <1>   0.1200 
 16 O      -10.8410    -0.4330     0.0490 O.3   1 <1>  -0.5600 
 17 C      -11.4780    -1.2250     0.9980 C.3   1 <1>   0.0400 
 18 H        1.9290     0.8690    -0.2490 H     1 <1>   0.1500 
 19 H       -1.6940     2.0510     1.8080 H     1 <1>   0.1500 
 20 H        0.8390     2.1020     1.8790 H     1 <1>   0.1500 
 21 H       -7.0840    -0.1220    -1.8460 H     1 <1>   0.3700 
 22 H       -9.3420     0.3340    -1.8550 H     1 <1>   0.0800 
 23 H       -9.1280     1.5260    -0.5900 H     1 <1>   0.0800 
 24 H       -9.1550    -0.1680     1.1240 H     1 <1>   0.0800 
 25 H       -9.1210    -1.4630    -0.0810 H     1 <1>   0.0800 
 26 H      -12.5400    -1.1390     0.8480 H     1 <1>   0.0800 
 27 H      -11.2220    -0.8740     1.9830 H     1 <1>   0.0800 
 28 H      -11.1740    -2.2500     0.8690 H     1 <1>   0.0800 
@<TRIPOS>BOND
  1   1   2  1   
  2   1   3  1   
  3   2   4  1   
  4   2   5  2   
  5   3   6  2   
  6   3  18  1   
  7   4   7  2   
  8   4   8  1   
  9   5   6  1   
 10   5  19  1   
 11   6  20  1   
 12   7   9  1   
 13   8  10  2   
 14   9  10  1   
 15  10  11  1   
 16  11  12  2   
 17  11  13  am  
 18  13  14  1   
 19  13  21  1   
 20  14  15  1   
 21  14  22  1   
 22  14  23  1   
 23  15  16  1   
 24  15  24  1   
 25  15  25  1   
 26  16  17  1   
 27  17  26  1   
 28  17  27  1   
 29  17  28  1   
@<TRIPOS>SUBSTRUCTURE
  1 ****  10 GROUP 4 **** **** 0

# MOE 2024.06 (io_trps.svl 2023.06)
