@<TRIPOS>MOLECULE
NONAME
32 33 1 0 0 
SMALL
USER_CHARGES


@<TRIPOS>ATOM
  1 O        1.3220    -1.4340     2.5140 O.3   1 <1>  -0.3370 
  2 N        0.8720    -2.6360     2.1760 N.2   1 <1>  -0.5130 
  3 C        0.4790    -2.8710     0.9810 C.2   1 <1>   0.4750 
  4 C        0.0140    -4.1700     0.5580 C.2   1 <1>  -0.0860 
  5 C        0.4970    -1.7980    -0.1150 C.3   1 <1>  -0.0990 
  6 C       -1.2690    -4.4310     0.0050 C.ar  1 <1>   0.0000 
  7 C        0.6700    -5.3720     0.5850 C.2   1 <1>  -0.3320 
  8 C        1.8970    -1.6020    -0.7190 C.3   1 <1>  -0.2400 
  9 C       -1.3150    -5.7850    -0.3050 C.ar  1 <1>  -0.1520 
 10 C       -2.3940    -3.6340    -0.2390 C.ar  1 <1>  -0.1500 
 11 N       -0.1220    -6.3550     0.0650 N.pl3 1 <1>   0.0480 
 12 C        2.0770    -5.6310     1.1050 C.3   1 <1>  -0.0600 
 13 C       -2.4540    -6.3500    -0.8860 C.ar  1 <1>  -0.1500 
 14 C       -3.5170    -4.1910    -0.8070 C.ar  1 <1>  -0.1500 
 15 C        0.1930    -7.7890    -0.0790 C.3   1 <1>   0.0160 
 16 C       -3.5450    -5.5500    -1.1360 C.ar  1 <1>  -0.1500 
 17 H        1.4600    -0.8040     1.7800 H     1 <1>   0.4000 
 18 H       -0.1690    -2.0850    -0.9080 H     1 <1>   0.0800 
 19 H        0.1280    -0.8680     0.2790 H     1 <1>   0.0800 
 20 H        2.2360    -2.5240    -1.1610 H     1 <1>   0.0800 
 21 H        2.6060    -1.3070     0.0330 H     1 <1>   0.0800 
 22 H        1.8690    -0.8460    -1.4850 H     1 <1>   0.0800 
 23 H       -2.3740    -2.5940     0.0280 H     1 <1>   0.1500 
 24 H        2.5370    -4.7170     1.4350 H     1 <1>   0.0800 
 25 H        2.6880    -6.0560     0.3290 H     1 <1>   0.0800 
 26 H        2.0420    -6.3070     1.9400 H     1 <1>   0.0800 
 27 H       -2.4730    -7.3960    -1.1310 H     1 <1>   0.1500 
 28 H       -4.3850    -3.5860    -1.0020 H     1 <1>   0.1500 
 29 H        1.1100    -8.0210     0.4280 H     1 <1>   0.0800 
 30 H        0.2900    -8.0230    -1.1230 H     1 <1>   0.0800 
 31 H       -0.6030    -8.3680     0.3490 H     1 <1>   0.0800 
 32 H       -4.4320    -5.9640    -1.5820 H     1 <1>   0.1500 
@<TRIPOS>BOND
  1   1   2  1   
  2   1  17  1   
  3   2   3  2   
  4   3   4  1   
  5   3   5  1   
  6   4   6  1   
  7   4   7  2   
  8   5   8  1   
  9   5  18  1   
 10   5  19  1   
 11   6   9  ar  
 12   6  10  ar  
 13   7  11  1   
 14   7  12  1   
 15   8  20  1   
 16   8  21  1   
 17   8  22  1   
 18   9  11  1   
 19   9  13  ar  
 20  10  14  ar  
 21  10  23  1   
 22  11  15  1   
 23  12  24  1   
 24  12  25  1   
 25  12  26  1   
 26  13  16  ar  
 27  13  27  1   
 28  14  16  ar  
 29  14  28  1   
 30  15  29  1   
 31  15  30  1   
 32  15  31  1   
 33  16  32  1   
@<TRIPOS>SUBSTRUCTURE
  1 ****   4 GROUP 4 **** **** 0

# MOE 2024.06 (io_trps.svl 2023.06)
