@<TRIPOS>MOLECULE
NONAME
44 46 1 0 0 
SMALL
USER_CHARGES


@<TRIPOS>ATOM
  1 S        0.2690     1.8150    -0.6300 S.3   1 <1>  -0.2860 
  2 C       -1.4560     1.3690    -0.4100 C.2   1 <1>   0.2420 
  3 C        1.1350     0.1790    -0.4460 C.3   1 <1>   0.1310 
  4 N       -1.8540     0.1760    -0.1480 N.2   1 <1>  -0.3380 
  5 N       -2.4440     2.2570    -0.5020 N.pl3 1 <1>   0.0480 
  6 C        2.6460     0.3350    -0.5080 C.2   1 <1>   0.5690 
  7 N       -3.1860     0.2550    -0.0520 N.2   1 <1>  -0.3380 
  8 C       -3.5160     1.4890    -0.2600 C.2   1 <1>   0.1010 
  9 C       -2.3580     3.7030    -0.7850 C.3   1 <1>   0.0160 
 10 O        3.2920    -0.6100    -0.8900 O.2   1 <1>  -0.5700 
 11 N        3.1960     1.5250    -0.1170 N.am  1 <1>  -0.5470 
 12 C       -4.9420     2.0150    -0.2390 C.3   1 <1>  -0.0150 
 13 C        4.5180     2.0010    -0.0140 C.ar  1 <1>   0.1170 
 14 C       -5.3870     2.9430     0.8510 C.3   1 <1>  -0.2000 
 15 C       -5.9030     1.5380     0.8050 C.3   1 <1>  -0.2000 
 16 C        4.7050     3.3440     0.3340 C.ar  1 <1>   0.0830 
 17 C        5.6350     1.2050    -0.2350 C.ar  1 <1>  -0.1500 
 18 O        3.5800     4.0960     0.5500 O.3   1 <1>  -0.3630 
 19 C        5.9910     3.8620     0.4500 C.ar  1 <1>  -0.1500 
 20 C        6.9160     1.7180    -0.1200 C.ar  1 <1>   0.0830 
 21 C        3.6720     5.4590     0.9030 C.3   1 <1>   0.0400 
 22 C        7.0920     3.0540     0.2240 C.ar  1 <1>  -0.1500 
 23 O        7.9430     0.8590    -0.3560 O.3   1 <1>  -0.3620 
 24 C        9.2850     1.2850    -0.2800 C.3   1 <1>   0.0400 
 25 H        0.7900    -0.4540    -1.2420 H     1 <1>   0.0800 
 26 H        0.8420    -0.2350     0.5000 H     1 <1>   0.0800 
 27 H       -1.6470     3.8720    -1.5740 H     1 <1>   0.0800 
 28 H       -2.0380     4.2190     0.1020 H     1 <1>   0.0800 
 29 H       -3.3190     4.0750    -1.0910 H     1 <1>   0.0800 
 30 H        2.5170     2.2560     0.1090 H     1 <1>   0.3700 
 31 H       -5.3380     2.1630    -1.2290 H     1 <1>   0.1000 
 32 H       -6.0620     3.7450     0.6100 H     1 <1>   0.1000 
 33 H       -4.6990     3.1990     1.6380 H     1 <1>   0.1000 
 34 H       -5.5520     0.8250     1.5320 H     1 <1>   0.1000 
 35 H       -6.9250     1.3610     0.5170 H     1 <1>   0.1000 
 36 H        5.5280     0.1710    -0.5000 H     1 <1>   0.1500 
 37 H        6.1620     4.8870     0.7140 H     1 <1>   0.1500 
 38 H        2.6750     5.8430     1.0200 H     1 <1>   0.0800 
 39 H        4.1770     5.9910     0.1160 H     1 <1>   0.0800 
 40 H        4.2070     5.5440     1.8330 H     1 <1>   0.0800 
 41 H        8.0720     3.4800     0.3200 H     1 <1>   0.1500 
 42 H        9.9140     0.4430    -0.5100 H     1 <1>   0.0800 
 43 H        9.4860     1.6290     0.7180 H     1 <1>   0.0800 
 44 H        9.4440     2.0670    -1.0010 H     1 <1>   0.0800 
@<TRIPOS>BOND
  1   1   2  1   
  2   1   3  1   
  3   2   4  2   
  4   2   5  1   
  5   3   6  1   
  6   3  25  1   
  7   3  26  1   
  8   4   7  1   
  9   5   8  1   
 10   5   9  1   
 11   6  10  2   
 12   6  11  am  
 13   7   8  2   
 14   8  12  1   
 15   9  27  1   
 16   9  28  1   
 17   9  29  1   
 18  11  13  1   
 19  11  30  1   
 20  12  14  1   
 21  12  15  1   
 22  12  31  1   
 23  13  16  ar  
 24  13  17  ar  
 25  14  15  1   
 26  14  32  1   
 27  14  33  1   
 28  15  34  1   
 29  15  35  1   
 30  16  18  1   
 31  16  19  ar  
 32  17  20  ar  
 33  17  36  1   
 34  18  21  1   
 35  19  22  ar  
 36  19  37  1   
 37  20  22  ar  
 38  20  23  1   
 39  21  38  1   
 40  21  39  1   
 41  21  40  1   
 42  22  41  1   
 43  23  24  1   
 44  24  42  1   
 45  24  43  1   
 46  24  44  1   
@<TRIPOS>SUBSTRUCTURE
  1 ****   1 GROUP 4 **** **** 0

# MOE 2024.06 (io_trps.svl 2023.06)
