@<TRIPOS>MOLECULE
NONAME
36 38 1 0 0 
SMALL
USER_CHARGES


@<TRIPOS>ATOM
  1 S       -0.3150    -0.2480     0.2170 S.o2  1 <1>   1.4470 
  2 O       -0.8170    -0.7500     1.4770 O.2   1 <1>  -0.6500 
  3 O       -0.2470    -1.1180    -0.9370 O.2   1 <1>  -0.6500 
  4 N        1.2510     0.3470     0.4950 N.am  1 <1>  -0.8490 
  5 C       -1.2730     1.2320    -0.2370 C.ar  1 <1>  -0.0090 
  6 C        1.3400     1.2510     1.6470 C.3   1 <1>   0.1960 
  7 C        1.9040     0.8760    -0.7080 C.3   1 <1>   0.1960 
  8 C       -1.3600     1.6440    -1.5660 C.ar  1 <1>  -0.1500 
  9 C       -1.9210     1.9960     0.7370 C.ar  1 <1>  -0.1500 
 10 C        2.8020     1.5310     1.9850 C.3   1 <1>  -0.1600 
 11 C        3.3810     1.1450    -0.4320 C.3   1 <1>  -0.1600 
 12 C       -2.0670     2.7870    -1.8890 C.ar  1 <1>   0.1900 
 13 C       -2.6330     3.1430     0.4150 C.ar  1 <1>  -0.1500 
 14 C        3.5230     2.0800     0.7650 C.3   1 <1>   0.5600 
 15 F       -2.1270     3.1550    -3.1420 F     1 <1>  -0.1900 
 16 C       -2.6980     3.5320    -0.9090 C.ar  1 <1>   0.1900 
 17 O        4.8570     2.2880     1.0750 O.3   1 <1>  -0.5600 
 18 O        3.0100     3.3350     0.4580 O.3   1 <1>  -0.5600 
 19 F       -3.3650     4.6130    -1.2200 F     1 <1>  -0.1900 
 20 C        5.3060     3.4060     0.4020 C.3   1 <1>   0.1200 
 21 C        4.0400     4.1670     0.0560 C.3   1 <1>   0.1200 
 22 H        0.8700     0.7980     2.5050 H     1 <1>   0.0800 
 23 H        0.8360     2.1790     1.4300 H     1 <1>   0.0800 
 24 H        1.4220     1.7880    -1.0190 H     1 <1>   0.0800 
 25 H        1.8290     0.1590    -1.5090 H     1 <1>   0.0800 
 26 H       -0.8830     1.0770    -2.3470 H     1 <1>   0.1500 
 27 H       -1.8710     1.6830     1.7680 H     1 <1>   0.1500 
 28 H        3.2690     0.6150     2.2950 H     1 <1>   0.0800 
 29 H        2.8670     2.2390     2.7900 H     1 <1>   0.0800 
 30 H        3.8420     1.5740    -1.3010 H     1 <1>   0.0800 
 31 H        3.8670     0.2120    -0.2130 H     1 <1>   0.0800 
 32 H       -3.1300     3.7250     1.1730 H     1 <1>   0.1500 
 33 H        5.8340     3.0940    -0.4820 H     1 <1>   0.0800 
 34 H        5.9580     3.9690     1.0460 H     1 <1>   0.0800 
 35 H        3.9710     5.0930     0.5990 H     1 <1>   0.0800 
 36 H        3.9600     4.3480    -1.0020 H     1 <1>   0.0800 
@<TRIPOS>BOND
  1   1   2  2   
  2   1   3  2   
  3   1   4  am  
  4   1   5  1   
  5   4   6  1   
  6   4   7  1   
  7   5   8  ar  
  8   5   9  ar  
  9   6  10  1   
 10   6  22  1   
 11   6  23  1   
 12   7  11  1   
 13   7  24  1   
 14   7  25  1   
 15   8  12  ar  
 16   8  26  1   
 17   9  13  ar  
 18   9  27  1   
 19  10  14  1   
 20  10  28  1   
 21  10  29  1   
 22  11  14  1   
 23  11  30  1   
 24  11  31  1   
 25  12  15  1   
 26  12  16  ar  
 27  13  16  ar  
 28  13  32  1   
 29  14  17  1   
 30  14  18  1   
 31  16  19  1   
 32  17  20  1   
 33  18  21  1   
 34  20  21  1   
 35  20  33  1   
 36  20  34  1   
 37  21  35  1   
 38  21  36  1   
@<TRIPOS>SUBSTRUCTURE
  1 ****   7 GROUP 4 **** **** 0

# MOE 2024.06 (io_trps.svl 2023.06)
