@<TRIPOS>MOLECULE
NONAME
42 43 1 0 0 
SMALL
USER_CHARGES


@<TRIPOS>ATOM
  1 S       -0.1810     1.0230    -0.5710 S.o2  1 <1>   1.4470 
  2 O       -0.0370     1.7940    -1.7820 O.2   1 <1>  -0.6500 
  3 O       -1.0520     1.4660     0.4910 O.2   1 <1>  -0.6500 
  4 N       -0.9200    -0.4080    -1.1710 N.am  1 <1>  -0.7570 
  5 C        1.4340     0.4760     0.0500 C.ar  1 <1>  -0.0090 
  6 C       -1.5260    -1.4450    -0.4620 C.ar  1 <1>   0.1990 
  7 C        2.2780     1.4050     0.6460 C.ar  1 <1>   0.0830 
  8 C        1.8700    -0.8450    -0.0380 C.ar  1 <1>  -0.1500 
  9 C       -1.4830    -1.5800     0.9320 C.ar  1 <1>   0.1600 
 10 C       -2.1940    -2.4270    -1.1730 C.ar  1 <1>  -0.1500 
 11 O        1.8410     2.6870     0.7160 O.3   1 <1>  -0.3630 
 12 C        3.5140     1.0100     1.1430 C.ar  1 <1>  -0.1500 
 13 C        3.0990    -1.2660     0.4590 C.ar  1 <1>  -0.1440 
 14 N       -2.0120    -2.5770     1.6270 N.ar  1 <1>  -0.6200 
 15 C       -2.7600    -3.4670    -0.4660 C.ar  1 <1>  -0.1500 
 16 C        2.5900     3.7080     1.3360 C.3   1 <1>   0.0400 
 17 C        3.9130    -0.3080     1.0500 C.ar  1 <1>  -0.1500 
 18 C        3.5820    -2.7330     0.3840 C.3   1 <1>   0.1440 
 19 C       -2.6410    -3.4960     0.9130 C.ar  1 <1>   0.1600 
 20 C        4.8790    -2.8030    -0.4360 C.3   1 <1>  -0.2400 
 21 C        2.5630    -3.6790    -0.2750 C.3   1 <1>  -0.2400 
 22 C        3.8450    -3.2590     1.8030 C.3   1 <1>  -0.2400 
 23 H       -1.1360    -0.2770    -2.1540 H     1 <1>   0.4200 
 24 H        1.2230    -1.5560    -0.5100 H     1 <1>   0.1500 
 25 H       -0.9810    -0.8230     1.5060 H     1 <1>   0.1500 
 26 H       -2.2680    -2.3820    -2.2440 H     1 <1>   0.1500 
 27 H        4.1810     1.7120     1.6070 H     1 <1>   0.1500 
 28 H       -3.2890    -4.2520    -0.9750 H     1 <1>   0.1500 
 29 H        2.0220     4.6200     1.2750 H     1 <1>   0.0800 
 30 H        3.5230     3.8240     0.8150 H     1 <1>   0.0800 
 31 H        2.7510     3.4470     2.3670 H     1 <1>   0.0800 
 32 H        4.8740    -0.5820     1.4470 H     1 <1>   0.1500 
 33 H       -3.0840    -4.3140     1.4560 H     1 <1>   0.1500 
 34 H        4.7130    -2.4080    -1.4220 H     1 <1>   0.0800 
 35 H        5.2160    -3.8210    -0.5270 H     1 <1>   0.0800 
 36 H        5.6630    -2.2340     0.0280 H     1 <1>   0.0800 
 37 H        2.3670    -3.3790    -1.2890 H     1 <1>   0.0800 
 38 H        1.6390    -3.6830     0.2760 H     1 <1>   0.0800 
 39 H        2.9410    -4.6860    -0.2950 H     1 <1>   0.0800 
 40 H        4.6220    -2.7000     2.2890 H     1 <1>   0.0800 
 41 H        4.1460    -4.2910     1.7760 H     1 <1>   0.0800 
 42 H        2.9510    -3.1800     2.3950 H     1 <1>   0.0800 
@<TRIPOS>BOND
  1   1   2  2   
  2   1   3  2   
  3   1   4  am  
  4   1   5  1   
  5   4   6  1   
  6   4  23  1   
  7   5   7  ar  
  8   5   8  ar  
  9   6   9  ar  
 10   6  10  ar  
 11   7  11  1   
 12   7  12  ar  
 13   8  13  ar  
 14   8  24  1   
 15   9  14  ar  
 16   9  25  1   
 17  10  15  ar  
 18  10  26  1   
 19  11  16  1   
 20  12  17  ar  
 21  12  27  1   
 22  13  17  ar  
 23  13  18  1   
 24  14  19  ar  
 25  15  19  ar  
 26  15  28  1   
 27  16  29  1   
 28  16  30  1   
 29  16  31  1   
 30  17  32  1   
 31  18  20  1   
 32  18  21  1   
 33  18  22  1   
 34  19  33  1   
 35  20  34  1   
 36  20  35  1   
 37  20  36  1   
 38  21  37  1   
 39  21  38  1   
 40  21  39  1   
 41  22  40  1   
 42  22  41  1   
 43  22  42  1   
@<TRIPOS>SUBSTRUCTURE
  1 ****   8 GROUP 4 **** **** 0

# MOE 2024.06 (io_trps.svl 2023.06)
