@<TRIPOS>MOLECULE
NONAME
36 36 1 0 0 
SMALL
USER_CHARGES


@<TRIPOS>ATOM
  1 CL      -1.9330     0.2590     3.2240 Cl    1 <1>  -0.1770 
  2 C       -2.4160     0.9950     1.7160 C.ar  1 <1>   0.1770 
  3 C       -1.6840     2.0310     1.1610 C.ar  1 <1>   0.1770 
  4 C       -3.5540     0.5230     1.0850 C.ar  1 <1>  -0.1500 
  5 CL      -0.2490     2.6400     1.9500 Cl    1 <1>  -0.1770 
  6 C       -2.0840     2.6000    -0.0340 C.ar  1 <1>  -0.1500 
  7 C       -3.9700     1.0960    -0.1110 C.ar  1 <1>  -0.1440 
  8 C       -3.2250     2.1310    -0.6680 C.ar  1 <1>  -0.1500 
  9 C       -5.2230     0.5930    -0.8090 C.3   1 <1>   0.4870 
 10 N       -6.4280     1.0890    -0.0660 N.4   1 <1>  -0.9590 
 11 C       -7.6760     0.3710    -0.5270 C.3   1 <1>   0.3430 
 12 C       -6.5180     2.5880    -0.1840 C.3   1 <1>   0.2630 
 13 C       -8.9500     0.6730     0.3200 C.3   1 <1>   0.3430 
 14 N      -10.2040    -0.0310    -0.1510 N.4   1 <1>  -0.9590 
 15 C      -11.3970     0.4730     0.6120 C.3   1 <1>   0.2630 
 16 C      -10.1470    -1.5270    -0.0130 C.3   1 <1>   0.2630 
 17 H       -4.0840    -0.2930     1.5450 H     1 <1>   0.1500 
 18 H       -1.5010     3.4000    -0.4580 H     1 <1>   0.1500 
 19 H       -3.5120     2.5850    -1.6030 H     1 <1>   0.1500 
 20 H       -5.2050    -0.4860    -0.8180 H     1 <1>   0.0800 
 21 H       -5.2390     0.9390    -1.8300 H     1 <1>   0.0800 
 22 H       -6.2250     0.8710     0.9240 H     1 <1>   0.4500 
 23 H       -7.4940    -0.6900    -0.4930 H     1 <1>   0.0800 
 24 H       -7.8720     0.6420    -1.5520 H     1 <1>   0.0800 
 25 H       -6.6620     2.8810    -1.2120 H     1 <1>   0.0800 
 26 H       -5.6080     3.0470     0.1740 H     1 <1>   0.0800 
 27 H       -7.3350     2.9720     0.4040 H     1 <1>   0.0800 
 28 H       -9.1280     1.7350     0.2950 H     1 <1>   0.0800 
 29 H       -8.7610     0.3930     1.3430 H     1 <1>   0.0800 
 30 H      -10.3880     0.1910    -1.1450 H     1 <1>   0.4500 
 31 H      -11.2950     0.2580     1.6640 H     1 <1>   0.0800 
 32 H      -12.2980    -0.0010     0.2550 H     1 <1>   0.0800 
 33 H      -11.5050     1.5390     0.4880 H     1 <1>   0.0800 
 34 H       -9.9890    -1.8070     1.0160 H     1 <1>   0.0800 
 35 H       -9.3500    -1.9390    -0.6110 H     1 <1>   0.0800 
 36 H      -11.0750    -1.9670    -0.3440 H     1 <1>   0.0800 
@<TRIPOS>BOND
  1   1   2  1   
  2   2   3  ar  
  3   2   4  ar  
  4   3   5  1   
  5   3   6  ar  
  6   4   7  ar  
  7   4  17  1   
  8   6   8  ar  
  9   6  18  1   
 10   7   8  ar  
 11   7   9  1   
 12   8  19  1   
 13   9  10  1   
 14   9  20  1   
 15   9  21  1   
 16  10  11  1   
 17  10  12  1   
 18  10  22  1   
 19  11  13  1   
 20  11  23  1   
 21  11  24  1   
 22  12  25  1   
 23  12  26  1   
 24  12  27  1   
 25  13  14  1   
 26  13  28  1   
 27  13  29  1   
 28  14  15  1   
 29  14  16  1   
 30  14  30  1   
 31  15  31  1   
 32  15  32  1   
 33  15  33  1   
 34  16  34  1   
 35  16  35  1   
 36  16  36  1   
@<TRIPOS>SUBSTRUCTURE
  1 ****  10 GROUP 4 **** **** 0

# MOE 2024.06 (io_trps.svl 2023.06)
