@<TRIPOS>MOLECULE
NONAME
64 66 1 0 0 
SMALL
USER_CHARGES


@<TRIPOS>ATOM
  1 O       -2.9140     2.4790     0.1240 O.2   1 <1>  -0.5700 
  2 C       -1.9750     1.8980     0.6120 C.2   1 <1>   0.5690 
  3 N       -0.6880     2.3170     0.4870 N.am  1 <1>  -0.7300 
  4 C       -2.2400     0.6480     1.4280 C.3   1 <1>  -0.0990 
  5 C       -0.1590     3.4470    -0.2800 C.3   1 <1>   0.3000 
  6 C       -2.1620    -0.6770     0.6350 C.3   1 <1>   0.0000 
  7 C       -0.7270     4.7550     0.2670 C.3   1 <1>  -0.2400 
  8 C        1.3570     3.4260    -0.0930 C.3   1 <1>  -0.2400 
  9 C       -0.4950     3.2660    -1.7610 C.3   1 <1>  -0.2400 
 10 C       -2.4860    -1.8470     1.5910 C.3   1 <1>  -0.1600 
 11 C       -0.7510    -0.9100     0.0440 C.3   1 <1>  -0.1600 
 12 C       -3.1890    -0.6960    -0.5200 C.3   1 <1>  -0.1600 
 13 C       -2.4390    -3.2120     0.8680 C.3   1 <1>   0.0000 
 14 C       -0.6910    -2.2540    -0.7020 C.3   1 <1>  -0.0800 
 15 C       -3.1380    -2.0390    -1.2700 C.3   1 <1>  -0.0800 
 16 C       -1.0230    -3.3970     0.2730 C.3   1 <1>  -0.1600 
 17 C       -3.4610    -3.1820    -0.2920 C.3   1 <1>  -0.1600 
 18 C       -2.7840    -4.3250     1.8850 C.3   1 <1>  -0.0990 
 19 C       -1.7240    -2.2460    -1.8430 C.3   1 <1>  -0.1600 
 20 C       -2.8100    -5.7290     1.3130 C.2   1 <1>   0.5690 
 21 O       -3.8610    -6.1730     0.9190 O.2   1 <1>  -0.5700 
 22 N       -1.6450    -6.4290     1.2900 N.am  1 <1>  -0.7300 
 23 C       -1.3860    -7.7650     0.7490 C.3   1 <1>   0.3000 
 24 C       -1.7050    -7.7860    -0.7460 C.3   1 <1>  -0.2400 
 25 C       -2.2110    -8.8010     1.5130 C.3   1 <1>  -0.2400 
 26 C        0.1020    -8.0370     0.9590 C.3   1 <1>  -0.2400 
 27 H        0.0390     1.7550     0.9220 H     1 <1>   0.3700 
 28 H       -3.2230     0.7450     1.8530 H     1 <1>   0.0800 
 29 H       -1.5450     0.6220     2.2460 H     1 <1>   0.0800 
 30 H       -1.7900     4.8000     0.1140 H     1 <1>   0.0800 
 31 H       -0.2860     5.5930    -0.2400 H     1 <1>   0.0800 
 32 H       -0.5230     4.8450     1.3190 H     1 <1>   0.0800 
 33 H        1.6110     3.5380     0.9450 H     1 <1>   0.0800 
 34 H        1.8050     4.2390    -0.6360 H     1 <1>   0.0800 
 35 H        1.7730     2.5070    -0.4660 H     1 <1>   0.0800 
 36 H       -1.5580     3.3070    -1.9150 H     1 <1>   0.0800 
 37 H       -0.1280     2.3220    -2.1190 H     1 <1>   0.0800 
 38 H       -0.0470     4.0510    -2.3410 H     1 <1>   0.0800 
 39 H       -1.7840    -1.8490     2.4060 H     1 <1>   0.0800 
 40 H       -3.4670    -1.7010     2.0100 H     1 <1>   0.0800 
 41 H       -0.0160    -0.9010     0.8290 H     1 <1>   0.0800 
 42 H       -0.5060    -0.1260    -0.6500 H     1 <1>   0.0800 
 43 H       -2.9830     0.1000    -1.2150 H     1 <1>   0.0800 
 44 H       -4.1800    -0.5370    -0.1340 H     1 <1>   0.0800 
 45 H        0.2950    -2.4000    -1.1100 H     1 <1>   0.0800 
 46 H       -3.8570    -2.0340    -2.0710 H     1 <1>   0.0800 
 47 H       -0.9650    -4.3280    -0.2630 H     1 <1>   0.0800 
 48 H       -0.2910    -3.4220     1.0600 H     1 <1>   0.0800 
 49 H       -4.4550    -3.0520     0.0980 H     1 <1>   0.0800 
 50 H       -3.4450    -4.1160    -0.8270 H     1 <1>   0.0800 
 51 H       -3.7560    -4.1300     2.3020 H     1 <1>   0.0800 
 52 H       -2.0830    -4.3020     2.6980 H     1 <1>   0.0800 
 53 H       -1.4950    -1.4570    -2.5380 H     1 <1>   0.0800 
 54 H       -1.6840    -3.1780    -2.3800 H     1 <1>   0.0800 
 55 H       -0.8050    -5.9670     1.6310 H     1 <1>   0.3700 
 56 H       -1.4470    -8.7400    -1.1660 H     1 <1>   0.0800 
 57 H       -1.1510    -7.0230    -1.2610 H     1 <1>   0.0800 
 58 H       -2.7550    -7.6250    -0.9110 H     1 <1>   0.0800 
 59 H       -3.2610    -8.6430     1.3500 H     1 <1>   0.0800 
 60 H       -2.0090    -8.7410     2.5670 H     1 <1>   0.0800 
 61 H       -1.9690    -9.7910     1.1730 H     1 <1>   0.0800 
 62 H        0.6980    -7.3110     0.4360 H     1 <1>   0.0800 
 63 H        0.3550    -9.0110     0.5810 H     1 <1>   0.0800 
 64 H        0.3480    -8.0120     2.0060 H     1 <1>   0.0800 
@<TRIPOS>BOND
  1   1   2  2   
  2   2   3  am  
  3   2   4  1   
  4   3   5  1   
  5   3  27  1   
  6   4   6  1   
  7   4  28  1   
  8   4  29  1   
  9   5   7  1   
 10   5   8  1   
 11   5   9  1   
 12   6  10  1   
 13   6  11  1   
 14   6  12  1   
 15   7  30  1   
 16   7  31  1   
 17   7  32  1   
 18   8  33  1   
 19   8  34  1   
 20   8  35  1   
 21   9  36  1   
 22   9  37  1   
 23   9  38  1   
 24  10  13  1   
 25  10  39  1   
 26  10  40  1   
 27  11  14  1   
 28  11  41  1   
 29  11  42  1   
 30  12  15  1   
 31  12  43  1   
 32  12  44  1   
 33  13  16  1   
 34  13  17  1   
 35  13  18  1   
 36  14  16  1   
 37  14  19  1   
 38  14  45  1   
 39  15  17  1   
 40  15  19  1   
 41  15  46  1   
 42  16  47  1   
 43  16  48  1   
 44  17  49  1   
 45  17  50  1   
 46  18  20  1   
 47  18  51  1   
 48  18  52  1   
 49  19  53  1   
 50  19  54  1   
 51  20  21  2   
 52  20  22  am  
 53  22  23  1   
 54  22  55  1   
 55  23  24  1   
 56  23  25  1   
 57  23  26  1   
 58  24  56  1   
 59  24  57  1   
 60  24  58  1   
 61  25  59  1   
 62  25  60  1   
 63  25  61  1   
 64  26  62  1   
 65  26  63  1   
 66  26  64  1   
@<TRIPOS>SUBSTRUCTURE
  1 ****  14 GROUP 4 **** **** 0

# MOE 2024.06 (io_trps.svl 2023.06)
