@<TRIPOS>MOLECULE
NONAME
43 45 1 0 0 
SMALL
USER_CHARGES


@<TRIPOS>ATOM
  1 F       -0.3140    -0.4530    -1.3690 F     1 <1>  -0.1900 
  2 C       -0.8530    -1.4340    -0.6820 C.ar  1 <1>   0.1900 
  3 C       -0.0350    -2.3600    -0.0250 C.ar  1 <1>   0.1000 
  4 C       -2.2260    -1.5030    -0.6600 C.ar  1 <1>  -0.1500 
  5 N        1.3610    -2.3480    -0.0120 N.pl3 1 <1>  -0.8380 
  6 C       -0.6950    -3.3640     0.6740 C.ar  1 <1>  -0.1500 
  7 C       -2.8800    -2.5300     0.0240 C.ar  1 <1>   0.0860 
  8 C        2.1200    -1.0660     0.0920 C.3   1 <1>   0.2090 
  9 C        2.1040    -3.4080    -0.7550 C.3   1 <1>   0.2090 
 10 C       -2.0770    -3.4560     0.7160 C.ar  1 <1>  -0.1430 
 11 C       -4.3210    -2.5650    -0.0250 C.2   1 <1>   0.4230 
 12 C        3.5100    -1.2880     0.7160 C.3   1 <1>   0.1400 
 13 C        3.4760    -3.6570    -0.1080 C.3   1 <1>   0.1400 
 14 C       -2.6830    -4.5680     1.5640 C.3   1 <1>  -0.0960 
 15 O       -5.0060    -1.5980     0.1840 O.2   1 <1>  -0.5700 
 16 C       -5.0440    -3.8380    -0.4160 C.3   1 <1>  -0.1790 
 17 N        4.2600    -2.3860     0.0230 N.am  1 <1>  -0.6600 
 18 C        5.4820    -2.2170    -0.6010 C.2   1 <1>   0.7150 
 19 O        5.7650    -2.9770    -1.5120 O.2   1 <1>  -0.5700 
 20 C        6.4350    -1.1860    -0.2360 C.2   1 <1>   0.0550 
 21 O        6.4180    -0.5730     0.9480 O.3   1 <1>  -0.2800 
 22 C        7.4820    -0.6890    -0.9530 C.2   1 <1>  -0.1500 
 23 C        7.4070     0.2900     0.9970 C.2   1 <1>  -0.0100 
 24 C        8.1090     0.2690    -0.1560 C.2   1 <1>  -0.1500 
 25 H       -2.8040    -0.7610    -1.1800 H     1 <1>   0.1500 
 26 H       -0.0880    -4.0740     1.2060 H     1 <1>   0.1500 
 27 H        1.5640    -0.3670     0.6920 H     1 <1>   0.0800 
 28 H        2.2400    -0.6430    -0.8910 H     1 <1>   0.0800 
 29 H        2.2450    -3.0980    -1.7770 H     1 <1>   0.0800 
 30 H        1.5360    -4.3210    -0.7580 H     1 <1>   0.0800 
 31 H        3.3920    -1.5440     1.7540 H     1 <1>   0.0800 
 32 H        4.0480    -0.3610     0.6600 H     1 <1>   0.0800 
 33 H        4.0160    -4.3810    -0.6920 H     1 <1>   0.0800 
 34 H        3.3260    -4.0750     0.8710 H     1 <1>   0.0800 
 35 H       -1.9660    -4.9410     2.2740 H     1 <1>   0.0800 
 36 H       -2.9950    -5.3870     0.9410 H     1 <1>   0.0800 
 37 H       -3.5280    -4.2020     2.1200 H     1 <1>   0.0800 
 38 H       -4.3740    -4.5220    -0.9030 H     1 <1>   0.0800 
 39 H       -5.8420    -3.5980    -1.0940 H     1 <1>   0.0800 
 40 H       -5.4640    -4.3000     0.4580 H     1 <1>   0.0800 
 41 H        7.7820    -0.9780    -1.9450 H     1 <1>   0.1500 
 42 H        7.5460     0.8800     1.8870 H     1 <1>   0.1500 
 43 H        8.9710     0.8510    -0.4300 H     1 <1>   0.1500 
@<TRIPOS>BOND
  1   1   2  1   
  2   2   3  ar  
  3   2   4  ar  
  4   3   5  1   
  5   3   6  ar  
  6   4   7  ar  
  7   4  25  1   
  8   5   8  1   
  9   5   9  1   
 10   6  10  ar  
 11   6  26  1   
 12   7  10  ar  
 13   7  11  1   
 14   8  12  1   
 15   8  27  1   
 16   8  28  1   
 17   9  13  1   
 18   9  29  1   
 19   9  30  1   
 20  10  14  1   
 21  11  15  2   
 22  11  16  1   
 23  12  17  1   
 24  12  31  1   
 25  12  32  1   
 26  13  17  1   
 27  13  33  1   
 28  13  34  1   
 29  14  35  1   
 30  14  36  1   
 31  14  37  1   
 32  16  38  1   
 33  16  39  1   
 34  16  40  1   
 35  17  18  am  
 36  18  19  2   
 37  18  20  1   
 38  20  21  1   
 39  20  22  2   
 40  21  23  1   
 41  22  24  1   
 42  22  41  1   
 43  23  24  2   
 44  23  42  1   
 45  24  43  1   
@<TRIPOS>SUBSTRUCTURE
  1 ****   5 GROUP 4 **** **** 0

# MOE 2024.06 (io_trps.svl 2023.06)
