@<TRIPOS>MOLECULE
NONAME
41 42 1 0 0 
SMALL
USER_CHARGES


@<TRIPOS>ATOM
  1 O       -0.1580     0.5570    -0.9920 O.2   1 <1>  -0.5700 
  2 C       -0.0220     1.4980    -0.2450 C.2   1 <1>   0.5690 
  3 N        1.1750     1.8660     0.3160 N.am  1 <1>  -0.5470 
  4 C       -1.2930     2.3040     0.0790 C.3   1 <1>   0.4040 
  5 C        2.4450     1.2720     0.2160 C.ar  1 <1>   0.1170 
  6 N       -2.5670     1.5210    -0.1480 N.4   1 <1>  -0.9590 
  7 C        2.6450    -0.0620    -0.1220 C.ar  1 <1>  -0.1500 
  8 C        3.5610     2.0520     0.4890 C.ar  1 <1>  -0.1500 
  9 C       -3.7750     2.3880    -0.2360 C.3   1 <1>   0.3430 
 10 C       -2.7180     0.4120     0.8410 C.3   1 <1>   0.3430 
 11 C        3.9160    -0.6090    -0.1940 C.ar  1 <1>  -0.1430 
 12 C        4.8330     1.5170     0.4220 C.ar  1 <1>  -0.1500 
 13 C       -4.9860     1.5440    -0.6360 C.3   1 <1>  -0.1600 
 14 C       -3.9150    -0.4590     0.4570 C.3   1 <1>  -0.1600 
 15 C        5.0230     0.1870     0.0810 C.ar  1 <1>  -0.1430 
 16 C        4.0710    -2.0750    -0.5750 C.3   1 <1>  -0.0970 
 17 C       -5.2020     0.3650     0.3230 C.3   1 <1>  -0.1600 
 18 C        6.4390    -0.3660     0.0160 C.3   1 <1>  -0.0970 
 19 H        1.1960     2.7300     0.8560 H     1 <1>   0.3700 
 20 H       -1.2930     3.1720    -0.5580 H     1 <1>   0.0800 
 21 H       -1.2480     2.6350     1.1010 H     1 <1>   0.0800 
 22 H       -2.4330     1.0490    -1.0590 H     1 <1>   0.4500 
 23 H        1.8010    -0.6910    -0.3300 H     1 <1>   0.1500 
 24 H        3.4470     3.0870     0.7530 H     1 <1>   0.1500 
 25 H       -3.6230     3.1640    -0.9700 H     1 <1>   0.0800 
 26 H       -3.9620     2.8520     0.7190 H     1 <1>   0.0800 
 27 H       -2.8700     0.8170     1.8290 H     1 <1>   0.0800 
 28 H       -1.8270    -0.1970     0.8540 H     1 <1>   0.0800 
 29 H        5.6800     2.1450     0.6360 H     1 <1>   0.1500 
 30 H       -4.8510     1.1790    -1.6400 H     1 <1>   0.0800 
 31 H       -5.8640     2.1660    -0.6370 H     1 <1>   0.0800 
 32 H       -4.0530    -1.2170     1.2080 H     1 <1>   0.0800 
 33 H       -3.7020    -0.9630    -0.4700 H     1 <1>   0.0800 
 34 H        3.1150    -2.5290    -0.7650 H     1 <1>   0.0800 
 35 H        4.5490    -2.6140     0.2220 H     1 <1>   0.0800 
 36 H        4.6660    -2.1630    -1.4660 H     1 <1>   0.0800 
 37 H       -6.0000    -0.2610    -0.0420 H     1 <1>   0.0800 
 38 H       -5.4950     0.7360     1.2910 H     1 <1>   0.0800 
 39 H        6.5490    -1.1810     0.7080 H     1 <1>   0.0800 
 40 H        7.1620     0.3890     0.2670 H     1 <1>   0.0800 
 41 H        6.6520    -0.7180    -0.9780 H     1 <1>   0.0800 
@<TRIPOS>BOND
  1   1   2  2   
  2   2   3  am  
  3   2   4  1   
  4   3   5  1   
  5   3  19  1   
  6   4   6  1   
  7   4  20  1   
  8   4  21  1   
  9   5   7  ar  
 10   5   8  ar  
 11   6   9  1   
 12   6  10  1   
 13   6  22  1   
 14   7  11  ar  
 15   7  23  1   
 16   8  12  ar  
 17   8  24  1   
 18   9  13  1   
 19   9  25  1   
 20   9  26  1   
 21  10  14  1   
 22  10  27  1   
 23  10  28  1   
 24  11  15  ar  
 25  11  16  1   
 26  12  15  ar  
 27  12  29  1   
 28  13  17  1   
 29  13  30  1   
 30  13  31  1   
 31  14  17  1   
 32  14  32  1   
 33  14  33  1   
 34  15  18  1   
 35  16  34  1   
 36  16  35  1   
 37  16  36  1   
 38  17  37  1   
 39  17  38  1   
 40  18  39  1   
 41  18  40  1   
 42  18  41  1   
@<TRIPOS>SUBSTRUCTURE
  1 ****   2 GROUP 4 **** **** 0

# MOE 2024.06 (io_trps.svl 2023.06)
