@<TRIPOS>MOLECULE
NONAME
39 40 1 0 0 
SMALL
USER_CHARGES


@<TRIPOS>ATOM
  1 O       -0.8000    -1.5370     0.7520 O.2   1 <1>  -0.5700 
  2 C       -1.9730    -1.5960     0.4850 C.2   1 <1>   0.5690 
  3 N       -2.5100    -0.9770    -0.5970 N.am  1 <1>  -0.5470 
  4 C       -2.9180    -2.4320     1.3400 C.3   1 <1>   0.2010 
  5 C       -3.8360    -1.2060    -1.0080 C.ar  1 <1>   0.1170 
  6 N       -3.8970    -3.1610     0.4590 N.am  1 <1>  -0.4770 
  7 C       -4.5500    -2.2910    -0.4630 C.ar  1 <1>   0.1170 
  8 C       -4.4410    -0.3690    -1.9330 C.ar  1 <1>  -0.1500 
  9 C       -3.9070    -4.5370     0.3340 C.2   1 <1>   0.5690 
 10 C       -5.8720    -2.4770    -0.8490 C.ar  1 <1>  -0.1500 
 11 C       -5.7540    -0.5810    -2.3130 C.ar  1 <1>  -0.1500 
 12 O       -4.7120    -5.1300    -0.3480 O.2   1 <1>  -0.5700 
 13 C       -2.8450    -5.4260     1.0100 C.3   1 <1>   0.4040 
 14 C       -6.4700    -1.6320    -1.7670 C.ar  1 <1>  -0.1500 
 15 N       -2.5370    -6.6790     0.2150 N.4   1 <1>  -0.9590 
 16 C       -1.8510    -7.7330     1.0080 C.3   1 <1>   0.3430 
 17 C       -1.8180    -6.3380    -1.0440 C.3   1 <1>   0.3430 
 18 C       -2.8220    -8.3300     2.0190 C.3   1 <1>  -0.2400 
 19 C       -1.9970    -7.4640    -2.0550 C.3   1 <1>  -0.2400 
 20 H       -1.8990    -0.3610    -1.1350 H     1 <1>   0.3700 
 21 H       -3.4640    -1.7650     1.9830 H     1 <1>   0.0800 
 22 H       -2.3480    -3.0940     1.9620 H     1 <1>   0.0800 
 23 H       -3.8930     0.4540    -2.3550 H     1 <1>   0.1500 
 24 H       -6.4440    -3.2890    -0.4350 H     1 <1>   0.1500 
 25 H       -6.2220     0.0720    -3.0300 H     1 <1>   0.1500 
 26 H       -3.2240    -5.6960     1.9790 H     1 <1>   0.0800 
 27 H       -1.9390    -4.8640     1.1470 H     1 <1>   0.0800 
 28 H       -7.4940    -1.7940    -2.0600 H     1 <1>   0.1500 
 29 H       -3.4640    -7.0310    -0.0840 H     1 <1>   0.4500 
 30 H       -0.9890    -7.3240     1.5110 H     1 <1>   0.0800 
 31 H       -1.5130    -8.5200     0.3530 H     1 <1>   0.0800 
 32 H       -0.7700    -6.1730    -0.8480 H     1 <1>   0.0800 
 33 H       -2.2310    -5.4350    -1.4680 H     1 <1>   0.0800 
 34 H       -3.1080    -7.6160     2.7700 H     1 <1>   0.0800 
 35 H       -2.3420    -9.1520     2.5210 H     1 <1>   0.0800 
 36 H       -3.6990    -8.7120     1.5270 H     1 <1>   0.0800 
 37 H       -1.5320    -8.3750    -1.7250 H     1 <1>   0.0800 
 38 H       -1.5340    -7.1790    -2.9830 H     1 <1>   0.0800 
 39 H       -3.0410    -7.6370    -2.2490 H     1 <1>   0.0800 
@<TRIPOS>BOND
  1   1   2  2   
  2   2   3  am  
  3   2   4  1   
  4   3   5  1   
  5   3  20  1   
  6   4   6  1   
  7   4  21  1   
  8   4  22  1   
  9   5   7  ar  
 10   5   8  ar  
 11   6   7  1   
 12   6   9  am  
 13   7  10  ar  
 14   8  11  ar  
 15   8  23  1   
 16   9  12  2   
 17   9  13  1   
 18  10  14  ar  
 19  10  24  1   
 20  11  14  ar  
 21  11  25  1   
 22  13  15  1   
 23  13  26  1   
 24  13  27  1   
 25  14  28  1   
 26  15  16  1   
 27  15  17  1   
 28  15  29  1   
 29  16  18  1   
 30  16  30  1   
 31  16  31  1   
 32  17  19  1   
 33  17  32  1   
 34  17  33  1   
 35  18  34  1   
 36  18  35  1   
 37  18  36  1   
 38  19  37  1   
 39  19  38  1   
 40  19  39  1   
@<TRIPOS>SUBSTRUCTURE
  1 ****   6 GROUP 4 **** **** 0

# MOE 2024.06 (io_trps.svl 2023.06)
