@<TRIPOS>MOLECULE
NONAME
44 46 1 0 0 
SMALL
USER_CHARGES


@<TRIPOS>ATOM
  1 F       -1.6140     0.9000     0.8390 F     1 <1>  -0.1900 
  2 C       -1.0050     2.0020     0.4930 C.ar  1 <1>   0.1900 
  3 C       -1.5880     2.8050    -0.4700 C.ar  1 <1>  -0.1440 
  4 C        0.1890     2.3260     1.1160 C.ar  1 <1>  -0.1500 
  5 C       -0.9200     3.9740    -0.7870 C.ar  1 <1>   0.1900 
  6 C       -2.8840     2.4200    -1.1470 C.3   1 <1>   0.4860 
  7 C        0.8320     3.5050     0.7680 C.ar  1 <1>  -0.1500 
  8 F       -1.4470     4.7720    -1.6760 F     1 <1>  -0.1900 
  9 C        0.2750     4.3390    -0.1910 C.ar  1 <1>  -0.1500 
 10 N       -4.0060     2.5750    -0.1830 N.4   1 <1>  -0.9590 
 11 C       -5.2800     1.9720    -0.7180 C.3   1 <1>   0.3430 
 12 C       -4.2160     4.0210     0.2060 C.3   1 <1>   0.3430 
 13 C       -6.4580     2.1060     0.2680 C.3   1 <1>   0.2090 
 14 C       -5.3840     4.2110     1.1970 C.3   1 <1>   0.2090 
 15 N       -6.6190     3.5190     0.7210 N.pl3 1 <1>  -0.8380 
 16 C       -7.7130     4.2430     0.2420 C.ar  1 <1>   0.1000 
 17 C       -8.9990     3.8210     0.5500 C.ar  1 <1>  -0.1500 
 18 C       -7.5620     5.3760    -0.5520 C.ar  1 <1>  -0.1500 
 19 C      -10.1110     4.4930     0.0780 C.ar  1 <1>   0.0830 
 20 C       -8.6660     6.0610    -1.0260 C.ar  1 <1>  -0.1500 
 21 O      -11.3230     3.9920     0.4300 O.3   1 <1>  -0.3620 
 22 C       -9.9430     5.6240    -0.7170 C.ar  1 <1>  -0.1500 
 23 C      -12.5180     4.6310     0.0430 C.3   1 <1>   0.0400 
 24 H        0.6090     1.6690     1.8590 H     1 <1>   0.1500 
 25 H       -2.8170     1.3930    -1.4700 H     1 <1>   0.0800 
 26 H       -3.0490     3.0380    -2.0140 H     1 <1>   0.0800 
 27 H        1.7640     3.7720     1.2400 H     1 <1>   0.1500 
 28 H        0.7620     5.2570    -0.4720 H     1 <1>   0.1500 
 29 H       -3.7460     2.0570     0.6680 H     1 <1>   0.4500 
 30 H       -5.1300     0.9290    -0.9410 H     1 <1>   0.0800 
 31 H       -5.5590     2.4690    -1.6330 H     1 <1>   0.0800 
 32 H       -4.4290     4.6020    -0.6760 H     1 <1>   0.0800 
 33 H       -3.3170     4.4180     0.6490 H     1 <1>   0.0800 
 34 H       -6.2960     1.4760     1.1260 H     1 <1>   0.0800 
 35 H       -7.3620     1.7730    -0.2150 H     1 <1>   0.0800 
 36 H       -5.5820     5.2610     1.3310 H     1 <1>   0.0800 
 37 H       -5.1110     3.8120     2.1590 H     1 <1>   0.0800 
 38 H       -9.1410     2.9600     1.1740 H     1 <1>   0.1500 
 39 H       -6.5830     5.7290    -0.8100 H     1 <1>   0.1500 
 40 H       -8.5370     6.9370    -1.6390 H     1 <1>   0.1500 
 41 H      -10.7840     6.1710    -1.0980 H     1 <1>   0.1500 
 42 H      -13.3420     4.0720     0.4480 H     1 <1>   0.0800 
 43 H      -12.5770     4.6420    -1.0310 H     1 <1>   0.0800 
 44 H      -12.5250     5.6310     0.4400 H     1 <1>   0.0800 
@<TRIPOS>BOND
  1   1   2  1   
  2   2   3  ar  
  3   2   4  ar  
  4   3   5  ar  
  5   3   6  1   
  6   4   7  ar  
  7   4  24  1   
  8   5   8  1   
  9   5   9  ar  
 10   6  10  1   
 11   6  25  1   
 12   6  26  1   
 13   7   9  ar  
 14   7  27  1   
 15   9  28  1   
 16  10  11  1   
 17  10  12  1   
 18  10  29  1   
 19  11  13  1   
 20  11  30  1   
 21  11  31  1   
 22  12  14  1   
 23  12  32  1   
 24  12  33  1   
 25  13  15  1   
 26  13  34  1   
 27  13  35  1   
 28  14  15  1   
 29  14  36  1   
 30  14  37  1   
 31  15  16  1   
 32  16  17  ar  
 33  16  18  ar  
 34  17  19  ar  
 35  17  38  1   
 36  18  20  ar  
 37  18  39  1   
 38  19  21  1   
 39  19  22  ar  
 40  20  22  ar  
 41  20  40  1   
 42  21  23  1   
 43  22  41  1   
 44  23  42  1   
 45  23  43  1   
 46  23  44  1   
@<TRIPOS>SUBSTRUCTURE
  1 ****  12 GROUP 4 **** **** 0

# MOE 2024.06 (io_trps.svl 2023.06)
