@<TRIPOS>MOLECULE
NONAME
46 48 1 0 0 
SMALL
USER_CHARGES


@<TRIPOS>ATOM
  1 CL      -2.2830     0.6480     3.3020 Cl    1 <1>  -0.1770 
  2 C       -2.8810     1.2790     1.7840 C.ar  1 <1>   0.1770 
  3 C       -2.1520     2.2080     1.0600 C.ar  1 <1>   0.1900 
  4 C       -4.1010     0.8380     1.3080 C.ar  1 <1>  -0.1500 
  5 F       -0.9960     2.6280     1.5080 F     1 <1>  -0.1900 
  6 C       -2.6240     2.7110    -0.1370 C.ar  1 <1>  -0.1500 
  7 C       -4.6000     1.3250     0.1030 C.ar  1 <1>   0.1170 
  8 C       -3.8500     2.2660    -0.6060 C.ar  1 <1>  -0.1500 
  9 N       -5.8480     0.8600    -0.3410 N.am  1 <1>  -0.5470 
 10 C       -6.3900     0.8080    -1.6000 C.2   1 <1>   0.5690 
 11 O       -5.7810     1.1350    -2.5900 O.2   1 <1>  -0.5700 
 12 C       -7.8080     0.2410    -1.7640 C.3   1 <1>   0.1710 
 13 N       -8.9350     1.1380    -1.3720 N.3   1 <1>  -0.8100 
 14 C       -9.0080     1.4110     0.0820 C.3   1 <1>   0.1100 
 15 C      -10.2190     0.5940    -1.8700 C.3   1 <1>   0.1100 
 16 C      -10.1790     2.3430     0.4380 C.3   1 <1>   0.1400 
 17 C      -11.4120     1.5080    -1.5400 C.3   1 <1>   0.1400 
 18 N      -11.4650     1.7900    -0.0750 N.am  1 <1>  -0.6600 
 19 C      -12.5620     1.6100     0.7370 C.2   1 <1>   0.5690 
 20 O      -12.4920     1.8630     1.9220 O.2   1 <1>  -0.5700 
 21 C      -13.8950     1.0520     0.1700 C.3   1 <1>   0.2610 
 22 O      -14.4100     1.8780    -0.8410 O.3   1 <1>  -0.5600 
 23 C      -15.0570     0.9710     1.1620 C.3   1 <1>  -0.1600 
 24 C      -15.1770     2.8930    -0.2760 C.3   1 <1>   0.1200 
 25 C      -15.7180     2.3360     1.0390 C.3   1 <1>  -0.1600 
 26 H       -4.6530     0.1150     1.8770 H     1 <1>   0.1500 
 27 H       -2.0460     3.4330    -0.6860 H     1 <1>   0.1500 
 28 H       -4.2230     2.6610    -1.5350 H     1 <1>   0.1500 
 29 H       -6.4500     0.4860     0.3880 H     1 <1>   0.3700 
 30 H       -7.8770    -0.6820    -1.2160 H     1 <1>   0.0800 
 31 H       -7.9170    -0.0010    -2.8070 H     1 <1>   0.0800 
 32 H       -8.1040     1.8940     0.4050 H     1 <1>   0.0800 
 33 H       -9.1210     0.4900     0.6270 H     1 <1>   0.0800 
 34 H      -10.3960    -0.3770    -1.4400 H     1 <1>   0.0800 
 35 H      -10.1650     0.4810    -2.9390 H     1 <1>   0.0800 
 36 H      -10.0100     3.3090    -0.0040 H     1 <1>   0.0800 
 37 H      -10.2180     2.4710     1.5060 H     1 <1>   0.0800 
 38 H      -12.3150     1.0380    -1.8810 H     1 <1>   0.0800 
 39 H      -11.3040     2.4360    -2.0730 H     1 <1>   0.0800 
 40 H      -13.7040     0.0840    -0.2540 H     1 <1>   0.0800 
 41 H      -14.7400     0.7490     2.1660 H     1 <1>   0.0800 
 42 H      -15.7360     0.2040     0.8360 H     1 <1>   0.0800 
 43 H      -15.9620     3.1550    -0.9640 H     1 <1>   0.0800 
 44 H      -14.5360     3.7420    -0.1040 H     1 <1>   0.0800 
 45 H      -15.4240     2.9790     1.8500 H     1 <1>   0.0800 
 46 H      -16.7910     2.2580     1.0200 H     1 <1>   0.0800 
@<TRIPOS>BOND
  1   1   2  1   
  2   2   3  ar  
  3   2   4  ar  
  4   3   5  1   
  5   3   6  ar  
  6   4   7  ar  
  7   4  26  1   
  8   6   8  ar  
  9   6  27  1   
 10   7   8  ar  
 11   7   9  1   
 12   8  28  1   
 13   9  10  am  
 14   9  29  1   
 15  10  11  2   
 16  10  12  1   
 17  12  13  1   
 18  12  30  1   
 19  12  31  1   
 20  13  14  1   
 21  13  15  1   
 22  14  16  1   
 23  14  32  1   
 24  14  33  1   
 25  15  17  1   
 26  15  34  1   
 27  15  35  1   
 28  16  18  1   
 29  16  36  1   
 30  16  37  1   
 31  17  18  1   
 32  17  38  1   
 33  17  39  1   
 34  18  19  am  
 35  19  20  2   
 36  19  21  1   
 37  21  22  1   
 38  21  23  1   
 39  21  40  1   
 40  22  24  1   
 41  23  25  1   
 42  23  41  1   
 43  23  42  1   
 44  24  25  1   
 45  24  43  1   
 46  24  44  1   
 47  25  45  1   
 48  25  46  1   
@<TRIPOS>SUBSTRUCTURE
  1 ****  14 GROUP 4 **** **** 0

# MOE 2024.06 (io_trps.svl 2023.06)
