@<TRIPOS>MOLECULE
NONAME
52 53 1 0 0 
SMALL
USER_CHARGES


@<TRIPOS>ATOM
  1 O       -0.0610    -0.7700    -0.1260 O.3   1 <1>  -0.3630 
  2 C       -1.3610    -1.0870    -0.3640 C.ar  1 <1>   0.0830 
  3 C        0.8080    -0.9800    -1.2170 C.3   1 <1>   0.0400 
  4 C       -2.2040    -0.1690    -1.0030 C.ar  1 <1>   0.0830 
  5 C       -1.8640    -2.3490    -0.0170 C.ar  1 <1>   0.0830 
  6 O       -1.8520     1.1000    -1.3440 O.3   1 <1>  -0.3630 
  7 C       -3.4960    -0.5350    -1.3410 C.ar  1 <1>  -0.1500 
  8 O       -1.1840    -3.3230     0.6490 O.3   1 <1>  -0.3630 
  9 C       -3.1610    -2.6900    -0.3660 C.ar  1 <1>  -0.1500 
 10 C       -1.1260     1.8940    -0.4280 C.3   1 <1>   0.0400 
 11 C       -3.9850    -1.7920    -1.0250 C.ar  1 <1>  -0.1430 
 12 C       -0.1950    -3.0030     1.6050 C.3   1 <1>   0.0400 
 13 C       -5.4050    -2.1770    -1.3850 C.3   1 <1>   0.4860 
 14 N       -6.2180    -2.2230    -0.1250 N.4   1 <1>  -0.9590 
 15 C       -7.5390    -2.9250    -0.2740 C.3   1 <1>   0.4230 
 16 C       -6.3260    -0.8200     0.4160 C.3   1 <1>   0.2630 
 17 C       -8.3200    -2.8970     1.0500 C.3   1 <1>  -0.1600 
 18 C       -7.3290    -4.3840    -0.7120 C.3   1 <1>  -0.1600 
 19 C       -9.6250    -3.6920     0.9670 C.3   1 <1>   0.3430 
 20 C       -8.6460    -5.1620    -0.7710 C.3   1 <1>   0.3430 
 21 N       -9.3450    -5.0900     0.5410 N.4   1 <1>  -0.9590 
 22 C      -10.6200    -5.8810     0.4940 C.3   1 <1>   0.2630 
 23 H        1.8020    -0.7050    -0.9160 H     1 <1>   0.0800 
 24 H        0.7790    -2.0210    -1.4890 H     1 <1>   0.0800 
 25 H        0.4890    -0.3680    -2.0420 H     1 <1>   0.0800 
 26 H       -4.1020     0.1900    -1.8570 H     1 <1>   0.1500 
 27 H       -3.4970    -3.6790    -0.1110 H     1 <1>   0.1500 
 28 H       -1.3090     2.9270    -0.6600 H     1 <1>   0.0800 
 29 H       -0.0770     1.6830    -0.5330 H     1 <1>   0.0800 
 30 H       -1.4560     1.6760     0.5730 H     1 <1>   0.0800 
 31 H       -0.0630    -3.8520     2.2500 H     1 <1>   0.0800 
 32 H        0.7280    -2.7910     1.0960 H     1 <1>   0.0800 
 33 H       -0.5170    -2.1510     2.1780 H     1 <1>   0.0800 
 34 H       -5.3780    -3.1410    -1.8650 H     1 <1>   0.0800 
 35 H       -5.8190    -1.4620    -2.0780 H     1 <1>   0.0800 
 36 H       -5.6320    -2.7450     0.5430 H     1 <1>   0.4500 
 37 H       -8.1220    -2.4170    -1.0270 H     1 <1>   0.0800 
 38 H       -6.9170    -0.2040    -0.2410 H     1 <1>   0.0800 
 39 H       -5.3460    -0.3760     0.5090 H     1 <1>   0.0800 
 40 H       -6.7770    -0.8200     1.3940 H     1 <1>   0.0800 
 41 H       -8.5910    -1.8870     1.3020 H     1 <1>   0.0800 
 42 H       -7.7210    -3.2950     1.8500 H     1 <1>   0.0800 
 43 H       -6.6600    -4.8880    -0.0360 H     1 <1>   0.0800 
 44 H       -6.9040    -4.4240    -1.6970 H     1 <1>   0.0800 
 45 H      -10.2930    -3.2240     0.2610 H     1 <1>   0.0800 
 46 H      -10.1090    -3.6920     1.9320 H     1 <1>   0.0800 
 47 H       -8.4450    -6.1930    -1.0230 H     1 <1>   0.0800 
 48 H       -9.2790    -4.7500    -1.5420 H     1 <1>   0.0800 
 49 H       -8.7490    -5.5390     1.2570 H     1 <1>   0.4500 
 50 H      -11.2960    -5.4670    -0.2370 H     1 <1>   0.0800 
 51 H      -11.1070    -5.8690     1.4560 H     1 <1>   0.0800 
 52 H      -10.4170    -6.9070     0.2300 H     1 <1>   0.0800 
@<TRIPOS>BOND
  1   1   2  1   
  2   1   3  1   
  3   2   4  ar  
  4   2   5  ar  
  5   3  23  1   
  6   3  24  1   
  7   3  25  1   
  8   4   6  1   
  9   4   7  ar  
 10   5   8  1   
 11   5   9  ar  
 12   6  10  1   
 13   7  11  ar  
 14   7  26  1   
 15   8  12  1   
 16   9  11  ar  
 17   9  27  1   
 18  10  28  1   
 19  10  29  1   
 20  10  30  1   
 21  11  13  1   
 22  12  31  1   
 23  12  32  1   
 24  12  33  1   
 25  13  14  1   
 26  13  34  1   
 27  13  35  1   
 28  14  15  1   
 29  14  16  1   
 30  14  36  1   
 31  15  17  1   
 32  15  18  1   
 33  15  37  1   
 34  16  38  1   
 35  16  39  1   
 36  16  40  1   
 37  17  19  1   
 38  17  41  1   
 39  17  42  1   
 40  18  20  1   
 41  18  43  1   
 42  18  44  1   
 43  19  21  1   
 44  19  45  1   
 45  19  46  1   
 46  20  21  1   
 47  20  47  1   
 48  20  48  1   
 49  21  22  1   
 50  21  49  1   
 51  22  50  1   
 52  22  51  1   
 53  22  52  1   
@<TRIPOS>SUBSTRUCTURE
  1 ****  11 GROUP 4 **** **** 0

# MOE 2024.06 (io_trps.svl 2023.06)
