@<TRIPOS>MOLECULE
NONAME
32 33 1 0 0 
SMALL
USER_CHARGES


@<TRIPOS>ATOM
  1 O       -0.7390    -1.2280     1.6640 O.2   1 <1>  -0.5700 
  2 C       -1.1560    -1.5340     0.5730 C.2   1 <1>   0.5770 
  3 N       -2.1970    -0.8780     0.0050 N.am  1 <1>  -0.7300 
  4 C       -0.5170    -2.6800    -0.2030 C.3   1 <1>   0.0530 
  5 C       -2.9790     0.1710     0.6630 C.3   1 <1>   0.3640 
  6 C       -0.3360    -4.0040     0.5880 C.3   1 <1>   0.0000 
  7 C        1.0310    -2.6270    -0.3190 C.3   1 <1>   0.0000 
  8 C       -4.4090     0.0900     0.1400 C.ar  1 <1>  -0.1440 
  9 C       -2.3340     1.5250     0.3790 C.3   1 <1>  -0.2400 
 10 C        1.0160    -4.1690    -0.1540 C.3   1 <1>   0.0000 
 11 C       -4.7120     0.3460    -1.1920 C.ar  1 <1>  -0.1500 
 12 C       -5.4360    -0.2570     1.0060 C.ar  1 <1>  -0.1500 
 13 C       -6.0160     0.2600    -1.6460 C.ar  1 <1>  -0.1500 
 14 C       -6.7410    -0.3440     0.5540 C.ar  1 <1>  -0.1500 
 15 C       -7.0320    -0.0850    -0.7730 C.ar  1 <1>  -0.1500 
 16 H       -2.5960    -1.1960    -0.8770 H     1 <1>   0.3700 
 17 H       -0.9780    -2.8530    -1.1620 H     1 <1>   0.0000 
 18 H       -2.9720     0.0010     1.7270 H     1 <1>   0.0800 
 19 H       -1.0610    -4.7590     0.3430 H     1 <1>   0.0000 
 20 H       -0.2070    -3.8610     1.6470 H     1 <1>   0.0000 
 21 H        1.5100    -2.1320     0.5090 H     1 <1>   0.0000 
 22 H        1.3840    -2.2960    -1.2790 H     1 <1>   0.0000 
 23 H       -2.2450     1.7010    -0.6770 H     1 <1>   0.0800 
 24 H       -1.3570     1.5610     0.8270 H     1 <1>   0.0800 
 25 H       -2.9340     2.3060     0.8100 H     1 <1>   0.0800 
 26 H        0.9140    -4.6860    -1.0930 H     1 <1>   0.0000 
 27 H        1.8090    -4.5490     0.4650 H     1 <1>   0.0000 
 28 H       -3.9350     0.6170    -1.8850 H     1 <1>   0.1500 
 29 H       -5.2250    -0.4650     2.0410 H     1 <1>   0.1500 
 30 H       -6.2420     0.4630    -2.6790 H     1 <1>   0.1500 
 31 H       -7.5300    -0.6130     1.2340 H     1 <1>   0.1500 
 32 H       -8.0470    -0.1510    -1.1260 H     1 <1>   0.1500 
@<TRIPOS>BOND
  1   1   2  2   
  2   2   3  am  
  3   2   4  1   
  4   3   5  1   
  5   3  16  1   
  6   4   6  1   
  7   4   7  1   
  8   4  17  1   
  9   5   8  1   
 10   5   9  1   
 11   5  18  1   
 12   6  10  1   
 13   6  19  1   
 14   6  20  1   
 15   7  10  1   
 16   7  21  1   
 17   7  22  1   
 18   8  11  ar  
 19   8  12  ar  
 20   9  23  1   
 21   9  24  1   
 22   9  25  1   
 23  10  26  1   
 24  10  27  1   
 25  11  13  ar  
 26  11  28  1   
 27  12  14  ar  
 28  12  29  1   
 29  13  15  ar  
 30  13  30  1   
 31  14  15  ar  
 32  14  31  1   
 33  15  32  1   
@<TRIPOS>SUBSTRUCTURE
  1 ****   3 GROUP 4 **** **** 0

# MOE 2024.06 (io_trps.svl 2023.06)
