@<TRIPOS>MOLECULE
NONAME
42 43 1 0 0 
SMALL
USER_CHARGES


@<TRIPOS>ATOM
  1 O       -1.6790    -0.0160     1.5980 O.3   1 <1>  -0.3630 
  2 C       -2.1470     0.7720     0.5880 C.ar  1 <1>   0.0830 
  3 C       -0.3350    -0.0040     2.0240 C.3   1 <1>   0.0400 
  4 C       -1.5160     1.8990     0.0310 C.ar  1 <1>   0.0830 
  5 C       -3.3810     0.3750     0.1020 C.ar  1 <1>  -0.1500 
  6 O       -0.3100     2.3210     0.5110 O.3   1 <1>  -0.3630 
  7 C       -2.1520     2.5770    -1.0070 C.ar  1 <1>  -0.1500 
  8 C       -4.0140     1.0650    -0.9190 C.ar  1 <1>  -0.1430 
  9 C        0.3920     3.4140    -0.0420 C.3   1 <1>   0.0400 
 10 C       -3.3870     2.1660    -1.4780 C.ar  1 <1>  -0.1500 
 11 C       -5.3810     0.6190    -1.4020 C.3   1 <1>   0.4860 
 12 N       -6.3740     0.8390    -0.3090 N.4   1 <1>  -0.9590 
 13 C       -7.7150     0.2500    -0.5850 C.3   1 <1>   0.4230 
 14 C       -6.4490     2.2930     0.0330 C.3   1 <1>   0.3430 
 15 C       -8.6210     0.4450     0.6400 C.3   1 <1>  -0.1600 
 16 C       -7.5960    -1.2430    -0.8950 C.3   1 <1>  -0.2400 
 17 C       -7.3290     2.5030     1.2640 C.3   1 <1>  -0.1600 
 18 C       -8.7270     1.9160     1.0590 C.3   1 <1>  -0.1600 
 19 H       -0.1860    -0.8360     2.6890 H     1 <1>   0.0800 
 20 H       -0.1420     0.9160     2.5460 H     1 <1>   0.0800 
 21 H        0.3060    -0.1010     1.1660 H     1 <1>   0.0800 
 22 H       -3.8310    -0.4950     0.5460 H     1 <1>   0.1500 
 23 H       -1.7020     3.4360    -1.4670 H     1 <1>   0.1500 
 24 H        1.3160     3.5220     0.4970 H     1 <1>   0.0800 
 25 H       -0.2000     4.3040     0.0710 H     1 <1>   0.0800 
 26 H        0.5980     3.2110    -1.0780 H     1 <1>   0.0800 
 27 H       -3.8450     2.7170    -2.2820 H     1 <1>   0.1500 
 28 H       -5.3260    -0.4260    -1.6580 H     1 <1>   0.0800 
 29 H       -5.6630     1.1730    -2.2810 H     1 <1>   0.0800 
 30 H       -6.0000     0.3670     0.5210 H     1 <1>   0.4500 
 31 H       -8.1630     0.7530    -1.4280 H     1 <1>   0.0800 
 32 H       -6.8600     2.8430    -0.7980 H     1 <1>   0.0800 
 33 H       -5.4630     2.6790     0.2390 H     1 <1>   0.0800 
 34 H       -8.2460    -0.1370     1.4650 H     1 <1>   0.0800 
 35 H       -9.6080     0.0790     0.4140 H     1 <1>   0.0800 
 36 H       -7.0560    -1.7590    -0.1200 H     1 <1>   0.0800 
 37 H       -7.1240    -1.4130    -1.8440 H     1 <1>   0.0800 
 38 H       -8.5790    -1.6770    -0.9570 H     1 <1>   0.0800 
 39 H       -7.4100     3.5590     1.4620 H     1 <1>   0.0800 
 40 H       -6.8580     2.0520     2.1210 H     1 <1>   0.0800 
 41 H       -9.2960     1.9970     1.9710 H     1 <1>   0.0800 
 42 H       -9.2470     2.4730     0.2970 H     1 <1>   0.0800 
@<TRIPOS>BOND
  1   1   2  1   
  2   1   3  1   
  3   2   4  ar  
  4   2   5  ar  
  5   3  19  1   
  6   3  20  1   
  7   3  21  1   
  8   4   6  1   
  9   4   7  ar  
 10   5   8  ar  
 11   5  22  1   
 12   6   9  1   
 13   7  10  ar  
 14   7  23  1   
 15   8  10  ar  
 16   8  11  1   
 17   9  24  1   
 18   9  25  1   
 19   9  26  1   
 20  10  27  1   
 21  11  12  1   
 22  11  28  1   
 23  11  29  1   
 24  12  13  1   
 25  12  14  1   
 26  12  30  1   
 27  13  15  1   
 28  13  16  1   
 29  13  31  1   
 30  14  17  1   
 31  14  32  1   
 32  14  33  1   
 33  15  18  1   
 34  15  34  1   
 35  15  35  1   
 36  16  36  1   
 37  16  37  1   
 38  16  38  1   
 39  17  18  1   
 40  17  39  1   
 41  17  40  1   
 42  18  41  1   
 43  18  42  1   
@<TRIPOS>SUBSTRUCTURE
  1 ****   8 GROUP 4 **** **** 0

# MOE 2024.06 (io_trps.svl 2023.06)
