@<TRIPOS>MOLECULE
NONAME
35 36 1 0 0 
SMALL
USER_CHARGES


@<TRIPOS>ATOM
  1 O       -0.0870     0.5040     1.4800 O.2   1 <1>  -0.5700 
  2 C       -0.0030     1.6020     0.9550 C.2   1 <1>   0.6160 
  3 N        1.1920     1.9790     0.4100 N.am  1 <1>  -0.7300 
  4 C       -1.1410     2.4480     0.8760 C.2   1 <1>  -0.1360 
  5 C        2.4220     1.1540     0.3320 C.3   1 <1>   0.0600 
  6 C       -1.2380     3.7820     0.5950 C.2   1 <1>   0.0720 
  7 N       -0.0900     4.5450     0.4220 N.pl3 1 <1>  -0.8690 
  8 C       -2.5160     4.4740     0.4660 C.ar  1 <1>   0.0280 
  9 C       -0.1030     5.9510    -0.0030 C.3   1 <1>   0.3690 
 10 C       -2.5970     5.6570    -0.2750 C.ar  1 <1>  -0.1430 
 11 C       -3.6900     4.0210     1.0720 C.ar  1 <1>  -0.1500 
 12 C       -1.3230     6.1950    -0.9100 C.3   1 <1>  -0.0170 
 13 C        1.1970     6.2020    -0.7640 C.3   1 <1>  -0.2400 
 14 C       -0.1460     6.8120     1.2600 C.3   1 <1>  -0.2400 
 15 C       -3.7960     6.3320    -0.4280 C.ar  1 <1>  -0.1500 
 16 C       -4.8890     4.6920     0.9230 C.ar  1 <1>  -0.1500 
 17 C       -4.9460     5.8490     0.1690 C.ar  1 <1>  -0.1500 
 18 H        1.1470     2.8260    -0.1690 H     1 <1>   0.3700 
 19 H       -2.0380     1.8950     1.0570 H     1 <1>   0.1500 
 20 H        2.3340     0.2910     0.9710 H     1 <1>   0.0800 
 21 H        3.2700     1.7350     0.6490 H     1 <1>   0.0800 
 22 H        2.5740     0.8230    -0.6800 H     1 <1>   0.0800 
 23 H        0.7150     4.3100     1.0140 H     1 <1>   0.4000 
 24 H       -3.6760     3.1360     1.6780 H     1 <1>   0.1500 
 25 H       -1.4180     7.2460    -1.1110 H     1 <1>   0.0800 
 26 H       -1.1750     5.6920    -1.8480 H     1 <1>   0.0800 
 27 H        1.2360     7.2210    -1.1030 H     1 <1>   0.0800 
 28 H        1.2570     5.5560    -1.6210 H     1 <1>   0.0800 
 29 H        2.0470     6.0230    -0.1310 H     1 <1>   0.0800 
 30 H       -1.0380     6.6060     1.8240 H     1 <1>   0.0800 
 31 H       -0.1480     7.8540     0.9980 H     1 <1>   0.0800 
 32 H        0.7090     6.6180     1.8800 H     1 <1>   0.0800 
 33 H       -3.8430     7.2360    -1.0090 H     1 <1>   0.1500 
 34 H       -5.7790     4.3170     1.3960 H     1 <1>   0.1500 
 35 H       -5.8790     6.3720     0.0490 H     1 <1>   0.1500 
@<TRIPOS>BOND
  1   1   2  2   
  2   2   3  am  
  3   2   4  1   
  4   3   5  1   
  5   3  18  1   
  6   4   6  2   
  7   4  19  1   
  8   5  20  1   
  9   5  21  1   
 10   5  22  1   
 11   6   7  1   
 12   6   8  1   
 13   7   9  1   
 14   7  23  1   
 15   8  10  ar  
 16   8  11  ar  
 17   9  12  1   
 18   9  13  1   
 19   9  14  1   
 20  10  12  1   
 21  10  15  ar  
 22  11  16  ar  
 23  11  24  1   
 24  12  25  1   
 25  12  26  1   
 26  13  27  1   
 27  13  28  1   
 28  13  29  1   
 29  14  30  1   
 30  14  31  1   
 31  14  32  1   
 32  15  17  ar  
 33  15  33  1   
 34  16  17  ar  
 35  16  34  1   
 36  17  35  1   
@<TRIPOS>SUBSTRUCTURE
  1 ****   6 GROUP 4 **** **** 0

# MOE 2024.06 (io_trps.svl 2023.06)
