@<TRIPOS>MOLECULE
NONAME
36 36 1 0 0 
SMALL
USER_CHARGES


@<TRIPOS>ATOM
  1 F       -1.1060     0.3390     1.8180 F     1 <1>  -0.3400 
  2 C        0.0420     0.9960     1.6940 C.3   1 <1>   1.0200 
  3 F        0.1650     1.7390     2.7890 F     1 <1>  -0.3400 
  4 F        0.9880     0.0670     1.8210 F     1 <1>  -0.3400 
  5 C        0.1970     1.7830     0.3530 C.3   1 <1>   0.3000 
  6 N        1.6860     2.0880     0.1060 N.am  1 <1>  -0.7300 
  7 C       -0.7070     3.0550     0.5430 C.3   1 <1>   1.0200 
  8 C       -0.3050     0.9360    -0.8670 C.3   1 <1>  -0.1600 
  9 C        2.2110     2.9160    -0.8160 C.2   1 <1>   0.6900 
 10 F       -0.1410     3.9920     1.2990 F     1 <1>  -0.3400 
 11 F       -1.8820     2.7990     1.1090 F     1 <1>  -0.3400 
 12 F       -1.0260     3.6630    -0.5920 F     1 <1>  -0.3400 
 13 C        0.4560    -0.3720    -1.1610 C.3   1 <1>  -0.2400 
 14 O        1.5170     3.4390    -1.6570 O.2   1 <1>  -0.5700 
 15 N        3.5360     3.1350    -0.7680 N.am  1 <1>  -0.7300 
 16 C        4.2200     4.1650    -1.5650 C.3   1 <1>   0.2840 
 17 C        5.2300     4.8380    -0.6560 C.ar  1 <1>  -0.1440 
 18 C        4.8240     5.8500     0.2010 C.ar  1 <1>  -0.1500 
 19 C        6.5590     4.4420    -0.6600 C.ar  1 <1>  -0.1500 
 20 C        5.7350     6.4610     1.0440 C.ar  1 <1>  -0.1500 
 21 C        7.4720     5.0520     0.1840 C.ar  1 <1>  -0.1500 
 22 C        7.0600     6.0620     1.0360 C.ar  1 <1>  -0.1500 
 23 H        2.3420     1.5020     0.6230 H     1 <1>   0.3700 
 24 H       -0.2560     1.5440    -1.7550 H     1 <1>   0.0800 
 25 H       -1.3460     0.6950    -0.7300 H     1 <1>   0.0800 
 26 H        1.5030    -0.1840    -1.3220 H     1 <1>   0.0800 
 27 H        0.0630    -0.8210    -2.0560 H     1 <1>   0.0800 
 28 H        0.3450    -1.0840    -0.3620 H     1 <1>   0.0800 
 29 H        4.0430     2.8960     0.0820 H     1 <1>   0.3700 
 30 H        3.5140     4.8890    -1.9360 H     1 <1>   0.0800 
 31 H        4.7110     3.7040    -2.4040 H     1 <1>   0.0800 
 32 H        3.7930     6.1630     0.2160 H     1 <1>   0.1500 
 33 H        6.8910     3.6580    -1.3180 H     1 <1>   0.1500 
 34 H        5.4140     7.2460     1.7060 H     1 <1>   0.1500 
 35 H        8.5020     4.7420     0.1770 H     1 <1>   0.1500 
 36 H        7.7690     6.5360     1.6920 H     1 <1>   0.1500 
@<TRIPOS>BOND
  1   1   2  1   
  2   2   3  1   
  3   2   4  1   
  4   2   5  1   
  5   5   6  1   
  6   5   7  1   
  7   5   8  1   
  8   6   9  am  
  9   6  23  1   
 10   7  10  1   
 11   7  11  1   
 12   7  12  1   
 13   8  13  1   
 14   8  24  1   
 15   8  25  1   
 16   9  14  2   
 17   9  15  am  
 18  13  26  1   
 19  13  27  1   
 20  13  28  1   
 21  15  16  1   
 22  15  29  1   
 23  16  17  1   
 24  16  30  1   
 25  16  31  1   
 26  17  18  ar  
 27  17  19  ar  
 28  18  20  ar  
 29  18  32  1   
 30  19  21  ar  
 31  19  33  1   
 32  20  22  ar  
 33  20  34  1   
 34  21  22  ar  
 35  21  35  1   
 36  22  36  1   
@<TRIPOS>SUBSTRUCTURE
  1 ****   9 GROUP 4 **** **** 0

# MOE 2024.06 (io_trps.svl 2023.06)
