@<TRIPOS>MOLECULE
NONAME
39 40 1 0 0 
SMALL
USER_CHARGES


@<TRIPOS>ATOM
  1 S        0.4470    -0.4900     1.1750 S.o2  1 <1>   1.3330 
  2 O        0.9600    -1.8210     0.9580 O.2   1 <1>  -0.6500 
  3 O        0.1250    -0.0310     2.5050 O.2   1 <1>  -0.6500 
  4 N        1.6600     0.5470     0.5940 N.am  1 <1>  -0.8490 
  5 C       -0.9870    -0.2760     0.1060 C.3   1 <1>  -0.0550 
  6 C        1.6580     1.9450     1.0490 C.3   1 <1>   0.1960 
  7 C        2.1510     0.3120    -0.7660 C.3   1 <1>   0.1960 
  8 C       -1.6040     1.1330     0.0730 C.3   1 <1>  -0.1600 
  9 C        3.0540     2.5760     0.8620 C.3   1 <1>   0.3430 
 10 C        3.5490     0.9430    -0.9550 C.3   1 <1>   0.3430 
 11 C       -2.9150     1.1410    -0.7200 C.3   1 <1>  -0.2400 
 12 N        3.5930     2.3920    -0.5380 N.4   1 <1>  -0.9590 
 13 C        4.9610     2.9580    -0.6780 C.3   1 <1>   0.5240 
 14 C        4.8710     4.4570    -0.4880 C.2   1 <1>  -0.1810 
 15 C        4.5450     5.3440    -1.4500 C.2   1 <1>  -0.1100 
 16 C        5.1390     5.0710     0.7820 C.2   1 <1>  -0.1500 
 17 S        4.5320     6.9770    -0.8140 S.3   1 <1>  -0.0800 
 18 C        5.0000     6.4090     0.7770 C.2   1 <1>  -0.1100 
 19 H       -1.7440    -0.9590     0.4440 H     1 <1>   0.0800 
 20 H       -0.7310    -0.5690    -0.8930 H     1 <1>   0.0800 
 21 H        1.4080     1.9910     2.0960 H     1 <1>   0.0800 
 22 H        0.9270     2.5190     0.5100 H     1 <1>   0.0800 
 23 H        1.4600     0.7180    -1.4840 H     1 <1>   0.0800 
 24 H        2.2310    -0.7490    -0.9440 H     1 <1>   0.0800 
 25 H       -0.9230     1.8230    -0.3880 H     1 <1>   0.0800 
 26 H       -1.8000     1.4640     1.0800 H     1 <1>   0.0800 
 27 H        3.7230     2.1140     1.5700 H     1 <1>   0.0800 
 28 H        2.9950     3.6250     1.1010 H     1 <1>   0.0800 
 29 H        3.8420     0.8450    -1.9880 H     1 <1>   0.0800 
 30 H        4.2470     0.3770    -0.3600 H     1 <1>   0.0800 
 31 H       -2.7500     0.8260    -1.7360 H     1 <1>   0.0800 
 32 H       -3.3320     2.1330    -0.7360 H     1 <1>   0.0800 
 33 H       -3.6350     0.4810    -0.2670 H     1 <1>   0.0800 
 34 H        2.9930     2.9400    -1.1660 H     1 <1>   0.4500 
 35 H        5.3430     2.7520    -1.6650 H     1 <1>   0.0800 
 36 H        5.6320     2.5270     0.0470 H     1 <1>   0.0800 
 37 H        4.3000     5.2370    -2.4930 H     1 <1>   0.1500 
 38 H        5.4340     4.4980     1.6460 H     1 <1>   0.1500 
 39 H        5.1280     7.1520     1.5460 H     1 <1>   0.1500 
@<TRIPOS>BOND
  1   1   2  2   
  2   1   3  2   
  3   1   4  am  
  4   1   5  1   
  5   4   6  1   
  6   4   7  1   
  7   5   8  1   
  8   5  19  1   
  9   5  20  1   
 10   6   9  1   
 11   6  21  1   
 12   6  22  1   
 13   7  10  1   
 14   7  23  1   
 15   7  24  1   
 16   8  11  1   
 17   8  25  1   
 18   8  26  1   
 19   9  12  1   
 20   9  27  1   
 21   9  28  1   
 22  10  12  1   
 23  10  29  1   
 24  10  30  1   
 25  11  31  1   
 26  11  32  1   
 27  11  33  1   
 28  12  13  1   
 29  12  34  1   
 30  13  14  1   
 31  13  35  1   
 32  13  36  1   
 33  14  15  2   
 34  14  16  1   
 35  15  17  1   
 36  15  37  1   
 37  16  18  2   
 38  16  38  1   
 39  17  18  1   
 40  18  39  1   
@<TRIPOS>SUBSTRUCTURE
  1 ****   6 GROUP 4 **** **** 0

# MOE 2024.06 (io_trps.svl 2023.06)
