@<TRIPOS>MOLECULE
NONAME
33 36 1 0 0 
SMALL
USER_CHARGES


@<TRIPOS>ATOM
  1 CL      -0.1670     0.2160    -0.5310 Cl    1 <1>  -0.1770 
  2 C       -1.7090     1.0300    -0.4450 C.ar  1 <1>   0.1770 
  3 C       -2.8430     0.3860    -0.9000 C.ar  1 <1>  -0.1500 
  4 C       -1.7750     2.3070     0.0770 C.ar  1 <1>  -0.1500 
  5 C       -4.0640     1.0340    -0.8290 C.ar  1 <1>  -0.1500 
  6 C       -3.0000     2.9480     0.1450 C.ar  1 <1>  -0.1500 
  7 C       -4.1630     2.3230    -0.3050 C.ar  1 <1>   0.1170 
  8 N       -5.4130     2.9800    -0.2320 N.am  1 <1>  -0.2370 
  9 C       -6.6320     2.3790     0.0430 C.2   1 <1>   0.5690 
 10 C       -5.6320     4.3400    -0.4090 C.2   1 <1>   0.5690 
 11 O       -6.8600     1.2730     0.4620 O.2   1 <1>  -0.5700 
 12 C       -7.6990     3.3590    -0.3220 C.3   1 <1>  -0.0190 
 13 O       -4.8890     5.1670    -0.8680 O.2   1 <1>  -0.5700 
 14 C       -7.0000     4.6350     0.1240 C.3   1 <1>  -0.0190 
 15 C       -9.1510     3.6750     0.0740 C.3   1 <1>   0.4180 
 16 C       -8.1770     5.6060     0.1190 C.3   1 <1>   0.3380 
 17 O       -8.9960     4.7900     0.9020 O.3   1 <1>  -0.5600 
 18 C       -9.6900     4.4310    -1.1260 C.2   1 <1>  -0.2880 
 19 C      -10.0030     2.5490     0.6930 C.3   1 <1>   0.1200 
 20 C       -9.0420     5.5940    -1.1320 C.2   1 <1>  -0.2880 
 21 O       -9.3400     1.8950     1.7350 O.3   1 <1>  -0.6800 
 22 H       -2.7680    -0.6090    -1.3010 H     1 <1>   0.1500 
 23 H       -0.8790     2.7900     0.4230 H     1 <1>   0.1500 
 24 H       -4.9450     0.5260    -1.1820 H     1 <1>   0.1500 
 25 H       -3.0460     3.9440     0.5500 H     1 <1>   0.1500 
 26 H       -7.6980     3.2870    -1.3990 H     1 <1>   0.0800 
 27 H       -6.7890     4.5800     1.1830 H     1 <1>   0.0800 
 28 H       -8.0330     6.5580     0.6010 H     1 <1>   0.0800 
 29 H      -10.4160     3.9970    -1.7910 H     1 <1>   0.1500 
 30 H      -10.2400     1.8130    -0.0540 H     1 <1>   0.0800 
 31 H      -10.9190     2.9590     1.0810 H     1 <1>   0.0800 
 32 H       -9.0560     6.4330    -1.8070 H     1 <1>   0.1500 
 33 H       -8.5300     1.4290     1.4160 H     1 <1>   0.4000 
@<TRIPOS>BOND
  1   1   2  1   
  2   2   3  ar  
  3   2   4  ar  
  4   3   5  ar  
  5   3  22  1   
  6   4   6  ar  
  7   4  23  1   
  8   5   7  ar  
  9   5  24  1   
 10   6   7  ar  
 11   6  25  1   
 12   7   8  1   
 13   8   9  am  
 14   8  10  am  
 15   9  11  2   
 16   9  12  1   
 17  10  13  2   
 18  10  14  1   
 19  12  14  1   
 20  12  15  1   
 21  12  26  1   
 22  14  16  1   
 23  14  27  1   
 24  15  17  1   
 25  15  18  1   
 26  15  19  1   
 27  16  17  1   
 28  16  20  1   
 29  16  28  1   
 30  18  20  2   
 31  18  29  1   
 32  19  21  1   
 33  19  30  1   
 34  19  31  1   
 35  20  32  1   
 36  21  33  1   
@<TRIPOS>SUBSTRUCTURE
  1 ****   8 GROUP 4 **** **** 0

# MOE 2024.06 (io_trps.svl 2023.06)
