@<TRIPOS>MOLECULE
NONAME
23 23 1 0 0 
SMALL
USER_CHARGES


@<TRIPOS>ATOM
  1 O        0.3970    -2.7760     1.6190 O.2   1 <1>  -0.5700 
  2 C        0.1440    -2.3680     0.5150 C.2   1 <1>   0.6590 
  3 O        0.9190    -1.4960    -0.1160 O.3   1 <1>  -0.4300 
  4 C       -1.0870    -2.8330    -0.2370 C.3   1 <1>   0.0440 
  5 C        2.0730    -0.9670     0.4920 C.3   1 <1>   0.1200 
  6 C       -2.2010    -1.7970    -0.1840 C.ar  1 <1>  -0.1440 
  7 C        2.7230     0.0030    -0.4890 C.3   1 <1>  -0.2400 
  8 C       -2.8330    -1.5120     1.0190 C.ar  1 <1>   0.1600 
  9 C       -2.6000    -1.1220    -1.3200 C.ar  1 <1>  -0.1500 
 10 N       -3.8120    -0.6330     1.1720 N.ar  1 <1>  -0.6200 
 11 C       -3.6170    -0.2020    -1.1780 C.ar  1 <1>  -0.1500 
 12 C       -4.1790     0.0000     0.0710 C.ar  1 <1>   0.1600 
 13 H       -1.4330    -3.7500     0.2030 H     1 <1>   0.0800 
 14 H       -0.8100    -3.0390    -1.2540 H     1 <1>   0.0800 
 15 H        2.7380    -1.7810     0.7310 H     1 <1>   0.0800 
 16 H        1.7800    -0.4630     1.3980 H     1 <1>   0.0800 
 17 H        3.0010    -0.5110    -1.3910 H     1 <1>   0.0800 
 18 H        3.6080     0.4250    -0.0490 H     1 <1>   0.0800 
 19 H        2.0430     0.8020    -0.7240 H     1 <1>   0.0800 
 20 H       -2.5170    -2.0340     1.9080 H     1 <1>   0.1500 
 21 H       -2.1430    -1.2980    -2.2790 H     1 <1>   0.1500 
 22 H       -3.9720     0.3560    -2.0250 H     1 <1>   0.1500 
 23 H       -4.9730     0.7210     0.1690 H     1 <1>   0.1500 
@<TRIPOS>BOND
  1   1   2  2   
  2   2   3  1   
  3   2   4  1   
  4   3   5  1   
  5   4   6  1   
  6   4  13  1   
  7   4  14  1   
  8   5   7  1   
  9   5  15  1   
 10   5  16  1   
 11   6   8  ar  
 12   6   9  ar  
 13   7  17  1   
 14   7  18  1   
 15   7  19  1   
 16   8  10  ar  
 17   8  20  1   
 18   9  11  ar  
 19   9  21  1   
 20  10  12  ar  
 21  11  12  ar  
 22  11  22  1   
 23  12  23  1   
@<TRIPOS>SUBSTRUCTURE
  1 ****   6 GROUP 4 **** **** 0

# MOE 2024.06 (io_trps.svl 2023.06)
