@<TRIPOS>MOLECULE
NONAME
43 44 1 0 0 
SMALL
USER_CHARGES


@<TRIPOS>ATOM
  1 CL       3.2660     1.4170     2.0590 Cl    1 <1>  -0.1770 
  2 C        2.1270     2.1540     0.9550 C.ar  1 <1>   0.1770 
  3 C        1.9310     1.6380    -0.3160 C.ar  1 <1>   0.1900 
  4 C        1.4210     3.2690     1.3610 C.ar  1 <1>  -0.1500 
  5 F        2.6030     0.5840    -0.7080 F     1 <1>  -0.1900 
  6 C        1.0340     2.2170    -1.1940 C.ar  1 <1>  -0.1500 
  7 C        0.5180     3.8750     0.4940 C.ar  1 <1>   0.1990 
  8 C        0.3290     3.3350    -0.7790 C.ar  1 <1>  -0.1500 
  9 N       -0.1870     4.9950     0.9200 N.am  1 <1>  -0.6930 
 10 S       -0.0840     6.5140     0.0950 S.o2  1 <1>   1.3330 
 11 C       -1.4110     4.7550     1.7570 C.3   1 <1>   0.2570 
 12 O       -0.8050     7.4710     0.8970 O.2   1 <1>  -0.6500 
 13 O       -0.4600     6.2910    -1.2790 O.2   1 <1>  -0.6500 
 14 C        1.6530     6.8870     0.2030 C.3   1 <1>  -0.1350 
 15 C       -2.3360     3.6580     1.2120 C.2   1 <1>   0.5690 
 16 O       -2.2660     2.5770     1.7540 O.2   1 <1>  -0.5700 
 17 N       -3.1950     3.8770     0.1580 N.am  1 <1>  -0.6600 
 18 C       -3.9920     2.7610    -0.4280 C.3   1 <1>   0.1400 
 19 C       -3.3890     5.1830    -0.5370 C.3   1 <1>   0.1400 
 20 C       -5.4800     3.1220    -0.4250 C.3   1 <1>  -0.1600 
 21 C       -4.8740     5.5580    -0.5470 C.3   1 <1>  -0.1600 
 22 C       -5.7400     4.4470    -1.1580 C.3   1 <1>  -0.0800 
 23 C       -7.2250     4.8190    -1.0920 C.3   1 <1>  -0.2400 
 24 H        1.5680     3.6640     2.3490 H     1 <1>   0.1500 
 25 H        0.8900     1.7980    -2.1750 H     1 <1>   0.1500 
 26 H       -0.3850     3.7880    -1.4460 H     1 <1>   0.1500 
 27 H       -1.9820     5.6550     1.8850 H     1 <1>   0.0800 
 28 H       -1.0900     4.4530     2.7370 H     1 <1>   0.0800 
 29 H        1.9590     6.9300     1.2300 H     1 <1>   0.0800 
 30 H        1.8530     7.8360    -0.2560 H     1 <1>   0.0800 
 31 H        2.2270     6.1350    -0.3000 H     1 <1>   0.0800 
 32 H       -3.8450     1.8510     0.1290 H     1 <1>   0.0800 
 33 H       -3.6600     2.5890    -1.4370 H     1 <1>   0.0800 
 34 H       -3.0240     5.1010    -1.5480 H     1 <1>   0.0800 
 35 H       -2.8450     5.9710    -0.0540 H     1 <1>   0.0800 
 36 H       -5.8150     3.1910     0.5960 H     1 <1>   0.0800 
 37 H       -6.0330     2.3300    -0.8980 H     1 <1>   0.0800 
 38 H       -5.0000     6.4660    -1.1100 H     1 <1>   0.0800 
 39 H       -5.1860     5.7540     0.4640 H     1 <1>   0.0800 
 40 H       -5.4640     4.3260    -2.1930 H     1 <1>   0.0800 
 41 H       -7.5390     4.9480    -0.0710 H     1 <1>   0.0800 
 42 H       -7.8240     4.0470    -1.5410 H     1 <1>   0.0800 
 43 H       -7.4030     5.7370    -1.6240 H     1 <1>   0.0800 
@<TRIPOS>BOND
  1   1   2  1   
  2   2   3  ar  
  3   2   4  ar  
  4   3   5  1   
  5   3   6  ar  
  6   4   7  ar  
  7   4  24  1   
  8   6   8  ar  
  9   6  25  1   
 10   7   8  ar  
 11   7   9  1   
 12   8  26  1   
 13   9  10  am  
 14   9  11  1   
 15  10  12  2   
 16  10  13  2   
 17  10  14  1   
 18  11  15  1   
 19  11  27  1   
 20  11  28  1   
 21  14  29  1   
 22  14  30  1   
 23  14  31  1   
 24  15  16  2   
 25  15  17  am  
 26  17  18  1   
 27  17  19  1   
 28  18  20  1   
 29  18  32  1   
 30  18  33  1   
 31  19  21  1   
 32  19  34  1   
 33  19  35  1   
 34  20  22  1   
 35  20  36  1   
 36  20  37  1   
 37  21  22  1   
 38  21  38  1   
 39  21  39  1   
 40  22  23  1   
 41  22  40  1   
 42  23  41  1   
 43  23  42  1   
 44  23  43  1   
@<TRIPOS>SUBSTRUCTURE
  1 ****   9 GROUP 4 **** **** 0

# MOE 2024.06 (io_trps.svl 2023.06)
