@<TRIPOS>MOLECULE
NONAME
36 37 1 0 0 
SMALL
USER_CHARGES


@<TRIPOS>ATOM
  1 O       -8.0770     0.7600     0.3160 O.3   1 <1>  -0.3630 
  2 C       -6.8480     1.2960     0.1310 C.ar  1 <1>   0.0830 
  3 C       -9.2480     1.4330    -0.0770 C.3   1 <1>   0.1200 
  4 C       -6.6180     2.5310    -0.4680 C.ar  1 <1>  -0.1500 
  5 C       -5.7690     0.5480     0.5740 C.ar  1 <1>  -0.1500 
  6 C      -10.4320     0.5290     0.2830 C.3   1 <1>   0.3430 
  7 C       -5.3240     2.9980    -0.6140 C.ar  1 <1>  -0.1500 
  8 C       -4.4780     1.0220     0.4250 C.ar  1 <1>  -0.1500 
  9 N      -11.7580     1.1090    -0.1150 N.4   1 <1>  -0.9590 
 10 C       -4.2340     2.2540    -0.1720 C.ar  1 <1>   0.0730 
 11 C      -12.1090     2.3280     0.6780 C.3   1 <1>   0.3430 
 12 C      -12.8220     0.0670     0.0030 C.3   1 <1>   0.3430 
 13 C       -2.8940     2.7450    -0.3270 C.1   1 <1>   0.4840 
 14 C      -13.4150     2.9270     0.1520 C.3   1 <1>  -0.1600 
 15 C      -14.1440     0.6150    -0.5390 C.3   1 <1>  -0.1600 
 16 N       -1.8310     3.1380    -0.4510 N.1   1 <1>  -0.5570 
 17 C      -14.5590     1.9060     0.1770 C.3   1 <1>  -0.1600 
 18 H       -9.1980     1.5970    -1.1390 H     1 <1>   0.0800 
 19 H       -9.2880     2.3650     0.4580 H     1 <1>   0.0800 
 20 H       -7.4240     3.1420    -0.8270 H     1 <1>   0.1500 
 21 H       -5.9430    -0.4070     1.0380 H     1 <1>   0.1500 
 22 H      -10.4230     0.3490     1.3460 H     1 <1>   0.0800 
 23 H      -10.2930    -0.4140    -0.2190 H     1 <1>   0.0800 
 24 H       -5.1530     3.9550    -1.0790 H     1 <1>   0.1500 
 25 H       -3.6500     0.4270     0.7750 H     1 <1>   0.1500 
 26 H      -11.7240     1.3800    -1.1070 H     1 <1>   0.4500 
 27 H      -11.3260     3.0640     0.6020 H     1 <1>   0.0800 
 28 H      -12.2280     2.0650     1.7170 H     1 <1>   0.0800 
 29 H      -12.9460    -0.2130     1.0370 H     1 <1>   0.0800 
 30 H      -12.5440    -0.8130    -0.5550 H     1 <1>   0.0800 
 31 H      -13.2650     3.2870    -0.8520 H     1 <1>   0.0800 
 32 H      -13.6820     3.7740     0.7590 H     1 <1>   0.0800 
 33 H      -14.9120    -0.1270    -0.4060 H     1 <1>   0.0800 
 34 H      -14.0510     0.7930    -1.5960 H     1 <1>   0.0800 
 35 H      -15.4330     2.3230    -0.2970 H     1 <1>   0.0800 
 36 H      -14.8190     1.6830     1.1990 H     1 <1>   0.0800 
@<TRIPOS>BOND
  1   1   2  1   
  2   1   3  1   
  3   2   4  ar  
  4   2   5  ar  
  5   3   6  1   
  6   3  18  1   
  7   3  19  1   
  8   4   7  ar  
  9   4  20  1   
 10   5   8  ar  
 11   5  21  1   
 12   6   9  1   
 13   6  22  1   
 14   6  23  1   
 15   7  10  ar  
 16   7  24  1   
 17   8  10  ar  
 18   8  25  1   
 19   9  11  1   
 20   9  12  1   
 21   9  26  1   
 22  10  13  1   
 23  11  14  1   
 24  11  27  1   
 25  11  28  1   
 26  12  15  1   
 27  12  29  1   
 28  12  30  1   
 29  13  16  3   
 30  14  17  1   
 31  14  31  1   
 32  14  32  1   
 33  15  17  1   
 34  15  33  1   
 35  15  34  1   
 36  17  35  1   
 37  17  36  1   
@<TRIPOS>SUBSTRUCTURE
  1 ****   3 GROUP 4 **** **** 0

# MOE 2024.06 (io_trps.svl 2023.06)
