@<TRIPOS>MOLECULE
NONAME
45 46 1 0 0 
SMALL
USER_CHARGES


@<TRIPOS>ATOM
  1 O        1.6220     1.1250    -0.0980 O.2   1 <1>  -0.5700 
  2 C        0.9800     1.9730     0.4910 C.2   1 <1>   0.5440 
  3 N        1.4420     2.3800     1.7130 N.am  1 <1>  -0.7300 
  4 C       -0.2000     2.5730    -0.1100 C.ar  1 <1>   0.0860 
  5 C        2.4460     1.6570     2.5280 C.3   1 <1>   0.1400 
  6 C       -0.9010     1.9080    -1.1160 C.ar  1 <1>  -0.1500 
  7 C       -0.6700     3.8310     0.2760 C.ar  1 <1>  -0.1500 
  8 C        3.8590     2.1850     2.2550 C.3   1 <1>  -0.1600 
  9 C       -2.0190     2.4620    -1.7120 C.ar  1 <1>  -0.1430 
 10 C       -1.7870     4.3990    -0.3120 C.ar  1 <1>  -0.1430 
 11 C        4.4440     1.6530     0.9400 C.3   1 <1>   0.3430 
 12 C       -2.4580     3.7090    -1.3060 C.ar  1 <1>  -0.1500 
 13 C       -2.7640     1.7180    -2.8070 C.3   1 <1>  -0.0970 
 14 C       -2.2900     5.7660     0.1170 C.3   1 <1>  -0.0970 
 15 N        4.8360     2.7640     0.0260 N.4   1 <1>  -0.9590 
 16 C        3.6270     3.3970    -0.6070 C.3   1 <1>   0.3430 
 17 C        5.7480     2.2690    -1.0580 C.3   1 <1>   0.3430 
 18 C        4.0260     4.4750    -1.6330 C.3   1 <1>   0.1200 
 19 C        6.0820     3.3900    -2.0630 C.3   1 <1>   0.1200 
 20 O        4.9090     3.9470    -2.5820 O.3   1 <1>  -0.5600 
 21 H        0.8140     2.9750     2.2620 H     1 <1>   0.3700 
 22 H        2.3910     0.6000     2.3210 H     1 <1>   0.0800 
 23 H        2.2050     1.7990     3.5690 H     1 <1>   0.0800 
 24 H       -0.5570     0.9380    -1.4320 H     1 <1>   0.1500 
 25 H       -0.1560     4.3810     1.0410 H     1 <1>   0.1500 
 26 H        4.4880     1.8250     3.0490 H     1 <1>   0.0800 
 27 H        3.8650     3.2590     2.3040 H     1 <1>   0.0800 
 28 H        3.7380     1.0040     0.4490 H     1 <1>   0.0800 
 29 H        5.3140     1.0610     1.1720 H     1 <1>   0.0800 
 30 H       -3.3270     4.1460    -1.7680 H     1 <1>   0.1500 
 31 H       -2.4680     0.6850    -2.8380 H     1 <1>   0.0800 
 32 H       -2.5530     2.1670    -3.7610 H     1 <1>   0.0800 
 33 H       -3.8230     1.7620    -2.6280 H     1 <1>   0.0800 
 34 H       -1.6180     6.2260     0.8190 H     1 <1>   0.0800 
 35 H       -3.2560     5.6700     0.5790 H     1 <1>   0.0800 
 36 H       -2.3790     6.4090    -0.7400 H     1 <1>   0.0800 
 37 H        5.3320     3.4820     0.5650 H     1 <1>   0.4500 
 38 H        2.9990     3.8340     0.1510 H     1 <1>   0.0800 
 39 H        3.0510     2.6440    -1.1180 H     1 <1>   0.0800 
 40 H        5.2730     1.4630    -1.5930 H     1 <1>   0.0800 
 41 H        6.6620     1.8910    -0.6290 H     1 <1>   0.0800 
 42 H        4.4940     5.3150    -1.1520 H     1 <1>   0.0800 
 43 H        3.1530     4.8220    -2.1580 H     1 <1>   0.0800 
 44 H        6.6450     2.9910    -2.8890 H     1 <1>   0.0800 
 45 H        6.6600     4.1700    -1.5990 H     1 <1>   0.0800 
@<TRIPOS>BOND
  1   1   2  2   
  2   2   3  am  
  3   2   4  1   
  4   3   5  1   
  5   3  21  1   
  6   4   6  ar  
  7   4   7  ar  
  8   5   8  1   
  9   5  22  1   
 10   5  23  1   
 11   6   9  ar  
 12   6  24  1   
 13   7  10  ar  
 14   7  25  1   
 15   8  11  1   
 16   8  26  1   
 17   8  27  1   
 18   9  12  ar  
 19   9  13  1   
 20  10  12  ar  
 21  10  14  1   
 22  11  15  1   
 23  11  28  1   
 24  11  29  1   
 25  12  30  1   
 26  13  31  1   
 27  13  32  1   
 28  13  33  1   
 29  14  34  1   
 30  14  35  1   
 31  14  36  1   
 32  15  16  1   
 33  15  17  1   
 34  15  37  1   
 35  16  18  1   
 36  16  38  1   
 37  16  39  1   
 38  17  19  1   
 39  17  40  1   
 40  17  41  1   
 41  18  20  1   
 42  18  42  1   
 43  18  43  1   
 44  19  20  1   
 45  19  44  1   
 46  19  45  1   
@<TRIPOS>SUBSTRUCTURE
  1 ****   2 GROUP 4 **** **** 0

# MOE 2024.06 (io_trps.svl 2023.06)
