@<TRIPOS>MOLECULE
Structure2403
30 31 1 0 0 
SMALL
USER_CHARGES


@<TRIPOS>ATOM
  1 CL       0.1250    -1.4520     1.8310 Cl    1 <1>  -0.1770 
  2 C       -1.0250    -2.0860     0.6800 C.ar  1 <1>   0.1770 
  3 C       -2.3740    -1.8880     0.8910 C.ar  1 <1>  -0.1500 
  4 C       -0.5600    -2.7780    -0.4240 C.ar  1 <1>  -0.1500 
  5 C       -3.2940    -2.3880    -0.0180 C.ar  1 <1>   0.1000 
  6 C       -1.4750    -3.2810    -1.3360 C.ar  1 <1>  -0.1500 
  7 N       -4.6500    -2.1830     0.2000 N.pl3 1 <1>  -0.8380 
  8 C       -2.8300    -3.0850    -1.1310 C.ar  1 <1>  -0.1500 
  9 C       -5.3280    -1.2400    -0.7390 C.3   1 <1>   0.2090 
 10 C       -5.4690    -3.4070     0.4680 C.3   1 <1>   0.2090 
 11 C       -6.7360    -0.8650    -0.2390 C.3   1 <1>   0.1400 
 12 C       -6.8690    -3.0330     0.9810 C.3   1 <1>   0.1400 
 13 N       -7.5490    -2.0900     0.0400 N.am  1 <1>  -0.6600 
 14 C       -8.5290    -2.5350    -0.7970 C.2   1 <1>   0.6900 
 15 O       -8.7820    -3.7140    -0.9220 O.2   1 <1>  -0.5700 
 16 N       -9.2600    -1.6610    -1.4960 N.am  1 <1>  -0.8000 
 17 H       -2.7180    -1.3500     1.7530 H     1 <1>   0.1500 
 18 H        0.4960    -2.9180    -0.5640 H     1 <1>   0.1500 
 19 H       -1.1320    -3.8220    -2.2010 H     1 <1>   0.1500 
 20 H       -3.5410    -3.4750    -1.8360 H     1 <1>   0.1500 
 21 H       -5.4090    -1.6950    -1.7100 H     1 <1>   0.0800 
 22 H       -4.7340    -0.3480    -0.8360 H     1 <1>   0.0800 
 23 H       -4.9690    -4.0160     1.2010 H     1 <1>   0.0800 
 24 H       -5.5690    -3.9840    -0.4350 H     1 <1>   0.0800 
 25 H       -7.2150    -0.2490    -0.9770 H     1 <1>   0.0800 
 26 H       -6.6440    -0.2910     0.6660 H     1 <1>   0.0800 
 27 H       -6.7760    -2.5640     1.9440 H     1 <1>   0.0800 
 28 H       -7.4540    -3.9270     1.1060 H     1 <1>   0.0800 
 29 H      -10.0540    -2.0440    -2.0050 H     1 <1>   0.3700 
 30 H       -9.3660    -0.7120    -1.1520 H     1 <1>   0.3700 
@<TRIPOS>BOND
  1   1   2  1   
  2   2   3  ar  
  3   2   4  ar  
  4   3   5  ar  
  5   3  17  1   
  6   4   6  ar  
  7   4  18  1   
  8   5   7  1   
  9   5   8  ar  
 10   6   8  ar  
 11   6  19  1   
 12   7   9  1   
 13   7  10  1   
 14   8  20  1   
 15   9  11  1   
 16   9  21  1   
 17   9  22  1   
 18  10  12  1   
 19  10  23  1   
 20  10  24  1   
 21  11  13  1   
 22  11  25  1   
 23  11  26  1   
 24  12  13  1   
 25  12  27  1   
 26  12  28  1   
 27  13  14  am  
 28  14  15  2   
 29  14  16  am  
 30  16  29  1   
 31  16  30  1   
@<TRIPOS>SUBSTRUCTURE
  1 ****   7 GROUP 4 **** **** 0

# MOE 2024.06 (io_trps.svl 2023.06)
