@<TRIPOS>MOLECULE
NONAME
55 57 1 0 0 
SMALL
USER_CHARGES


@<TRIPOS>ATOM
  1 O       -5.6190    -9.5120    -1.4540 O.3   1 <1>  -0.3630 
  2 C       -6.6480    -8.9160    -0.8070 C.ar  1 <1>   0.0820 
  3 C       -4.2750    -9.2270    -1.0850 C.3   1 <1>   0.1200 
  4 C       -7.5790    -8.2240    -1.5650 C.ar  1 <1>  -0.1500 
  5 C       -6.7830    -8.9780     0.5730 C.ar  1 <1>  -0.1500 
  6 C       -3.9670    -7.7210    -1.2290 C.3   1 <1>   0.2000 
  7 C       -8.6090    -7.5370    -0.9470 C.ar  1 <1>  -0.1500 
  8 C       -7.8090    -8.2840     1.1920 C.ar  1 <1>  -0.1500 
  9 O       -2.6860    -7.5550    -1.7460 O.3   1 <1>  -0.6800 
 10 C       -4.0810    -6.9510     0.1110 C.3   1 <1>   0.1100 
 11 C       -8.7110    -7.5440     0.4420 C.ar  1 <1>   0.0820 
 12 N       -4.5060    -5.5360    -0.0240 N.3   1 <1>  -0.8100 
 13 O       -9.6500    -6.8450     1.1300 O.3   1 <1>  -0.3620 
 14 C       -4.2910    -4.8180     1.2510 C.3   1 <1>   0.1100 
 15 C       -5.9220    -5.4630    -0.4530 C.3   1 <1>   0.1100 
 16 C      -10.7550    -6.2680     0.4680 C.3   1 <1>   0.0400 
 17 C       -4.8260    -3.3700     1.2080 C.3   1 <1>   0.3430 
 18 C       -6.4520    -4.0230    -0.5090 C.3   1 <1>   0.3430 
 19 N       -6.2720    -3.3420     0.8150 N.4   1 <1>  -0.9590 
 20 C       -6.8600    -1.9790     0.8190 C.3   1 <1>   0.4860 
 21 C       -8.3570    -2.1180     0.6120 C.ar  1 <1>  -0.1430 
 22 C       -8.9310    -1.7620    -0.6010 C.ar  1 <1>  -0.1500 
 23 C       -9.1630    -2.6150     1.6270 C.ar  1 <1>  -0.1500 
 24 C      -10.2920    -1.9120    -0.7980 C.ar  1 <1>  -0.1500 
 25 C      -10.5240    -2.7640     1.4270 C.ar  1 <1>  -0.1500 
 26 C      -11.0890    -2.4140     0.2150 C.ar  1 <1>  -0.1500 
 27 H       -3.6540    -9.7900    -1.7600 H     1 <1>   0.0800 
 28 H       -4.1110    -9.5770    -0.0830 H     1 <1>   0.0800 
 29 H       -7.4850    -8.2260    -2.6370 H     1 <1>   0.1500 
 30 H       -6.0960    -9.5620     1.1580 H     1 <1>   0.1500 
 31 H       -4.6340    -7.3190    -1.9680 H     1 <1>   0.0800 
 32 H       -9.3140    -7.0040    -1.5580 H     1 <1>   0.1500 
 33 H       -7.9190    -8.3160     2.2610 H     1 <1>   0.1500 
 34 H       -2.0030    -7.7800    -1.0870 H     1 <1>   0.4000 
 35 H       -3.1250    -6.9940     0.6050 H     1 <1>   0.0800 
 36 H       -4.7810    -7.4500     0.7540 H     1 <1>   0.0800 
 37 H       -3.2350    -4.7880     1.4610 H     1 <1>   0.0800 
 38 H       -4.7720    -5.3480     2.0560 H     1 <1>   0.0800 
 39 H       -6.5350    -6.0280     0.2240 H     1 <1>   0.0800 
 40 H       -6.0310    -5.8890    -1.4340 H     1 <1>   0.0800 
 41 H      -11.4180    -5.8660     1.2130 H     1 <1>   0.0800 
 42 H      -11.2630    -7.0320    -0.0940 H     1 <1>   0.0800 
 43 H      -10.4100    -5.4790    -0.1750 H     1 <1>   0.0800 
 44 H       -4.2410    -2.8110     0.4950 H     1 <1>   0.0800 
 45 H       -4.6970    -2.9170     2.1770 H     1 <1>   0.0800 
 46 H       -7.4970    -4.0470    -0.7740 H     1 <1>   0.0800 
 47 H       -5.9200    -3.4870    -1.2770 H     1 <1>   0.0800 
 48 H       -6.8060    -3.8990     1.4920 H     1 <1>   0.4500 
 49 H       -6.4290    -1.3810     0.0330 H     1 <1>   0.0800 
 50 H       -6.6750    -1.4950     1.7640 H     1 <1>   0.0800 
 51 H       -8.3320    -1.3630    -1.4030 H     1 <1>   0.1500 
 52 H       -8.7500    -2.8900     2.5830 H     1 <1>   0.1500 
 53 H      -10.7380    -1.6320    -1.7390 H     1 <1>   0.1500 
 54 H      -11.1480    -3.1480     2.2180 H     1 <1>   0.1500 
 55 H      -12.1490    -2.5260     0.0610 H     1 <1>   0.1500 
@<TRIPOS>BOND
  1   1   2  1   
  2   1   3  1   
  3   2   4  ar  
  4   2   5  ar  
  5   3   6  1   
  6   3  27  1   
  7   3  28  1   
  8   4   7  ar  
  9   4  29  1   
 10   5   8  ar  
 11   5  30  1   
 12   6   9  1   
 13   6  10  1   
 14   6  31  1   
 15   7  11  ar  
 16   7  32  1   
 17   8  11  ar  
 18   8  33  1   
 19   9  34  1   
 20  10  12  1   
 21  10  35  1   
 22  10  36  1   
 23  11  13  1   
 24  12  14  1   
 25  12  15  1   
 26  13  16  1   
 27  14  17  1   
 28  14  37  1   
 29  14  38  1   
 30  15  18  1   
 31  15  39  1   
 32  15  40  1   
 33  16  41  1   
 34  16  42  1   
 35  16  43  1   
 36  17  19  1   
 37  17  44  1   
 38  17  45  1   
 39  18  19  1   
 40  18  46  1   
 41  18  47  1   
 42  19  20  1   
 43  19  48  1   
 44  20  21  1   
 45  20  49  1   
 46  20  50  1   
 47  21  22  ar  
 48  21  23  ar  
 49  22  24  ar  
 50  22  51  1   
 51  23  25  ar  
 52  23  52  1   
 53  24  26  ar  
 54  24  53  1   
 55  25  26  ar  
 56  25  54  1   
 57  26  55  1   
@<TRIPOS>SUBSTRUCTURE
  1 ****  15 GROUP 4 **** **** 0

# MOE 2024.06 (io_trps.svl 2023.06)
