@<TRIPOS>MOLECULE
NONAME
37 38 1 0 0 
SMALL
USER_CHARGES


@<TRIPOS>ATOM
  1 CL      -2.2270    -1.0270    -2.7070 Cl    1 <1>  -0.1770 
  2 C       -2.3740    -1.6960    -1.0940 C.ar  1 <1>   0.1770 
  3 C       -1.2880    -2.3450    -0.5090 C.ar  1 <1>   0.1990 
  4 C       -3.5780    -1.5620    -0.4330 C.ar  1 <1>  -0.1500 
  5 N       -0.0660    -2.4800    -1.1670 N.am  1 <1>  -0.6930 
  6 C       -1.4500    -2.8590     0.7730 C.ar  1 <1>  -0.1500 
  7 C       -3.7160    -2.0820     0.8430 C.ar  1 <1>  -0.1500 
  8 S        0.4000    -3.9810    -1.8900 S.o2  1 <1>   1.3330 
  9 C        1.0100    -1.4860    -0.8610 C.3   1 <1>   0.2570 
 10 C       -2.6540    -2.7380     1.4620 C.ar  1 <1>  -0.1440 
 11 O       -0.1450    -5.0360    -1.0760 O.2   1 <1>  -0.6500 
 12 O        1.8240    -3.8970    -2.1200 O.2   1 <1>  -0.6500 
 13 C       -0.4410    -3.9280    -3.4570 C.3   1 <1>  -0.1350 
 14 C        1.8220    -1.8280     0.3910 C.2   1 <1>   0.5690 
 15 C       -2.8370    -3.3090     2.8790 C.3   1 <1>   1.1640 
 16 O        1.6570    -1.1600     1.3860 O.2   1 <1>  -0.5700 
 17 N        2.6970    -2.8690     0.3490 N.am  1 <1>  -0.5790 
 18 F       -3.1590    -2.3650     3.7540 F     1 <1>  -0.3400 
 19 F       -1.7550    -3.9100     3.3580 F     1 <1>  -0.3400 
 20 F       -3.8130    -4.2060     2.9270 F     1 <1>  -0.3400 
 21 C        3.5000    -3.3740     1.4670 C.3   1 <1>   0.0490 
 22 C        4.7810    -4.0720     1.1500 C.3   1 <1>  -0.2000 
 23 C        3.5960    -4.8530     1.6340 C.3   1 <1>  -0.2000 
 24 H       -4.3980    -1.0550    -0.9110 H     1 <1>   0.1500 
 25 H       -0.6100    -3.3630     1.2230 H     1 <1>   0.1500 
 26 H       -4.6600    -1.9750     1.3560 H     1 <1>   0.1500 
 27 H        0.5590    -0.5210    -0.7120 H     1 <1>   0.0800 
 28 H        1.6770    -1.4040    -1.7000 H     1 <1>   0.0800 
 29 H       -0.1390    -3.0620    -4.0130 H     1 <1>   0.0800 
 30 H       -1.5020    -3.8890    -3.3060 H     1 <1>   0.0800 
 31 H       -0.2090    -4.8040    -4.0290 H     1 <1>   0.0800 
 32 H        2.7430    -3.4350    -0.5110 H     1 <1>   0.3700 
 33 H        3.4460    -2.7550     2.3490 H     1 <1>   0.1000 
 34 H        5.6150    -3.9480     1.8170 H     1 <1>   0.1000 
 35 H        5.0820    -4.1650     0.1210 H     1 <1>   0.1000 
 36 H        3.0630    -5.4850     0.9450 H     1 <1>   0.1000 
 37 H        3.6230    -5.2570     2.6310 H     1 <1>   0.1000 
@<TRIPOS>BOND
  1   1   2  1   
  2   2   3  ar  
  3   2   4  ar  
  4   3   5  1   
  5   3   6  ar  
  6   4   7  ar  
  7   4  24  1   
  8   5   8  am  
  9   5   9  1   
 10   6  10  ar  
 11   6  25  1   
 12   7  10  ar  
 13   7  26  1   
 14   8  11  2   
 15   8  12  2   
 16   8  13  1   
 17   9  14  1   
 18   9  27  1   
 19   9  28  1   
 20  10  15  1   
 21  13  29  1   
 22  13  30  1   
 23  13  31  1   
 24  14  16  2   
 25  14  17  am  
 26  15  18  1   
 27  15  19  1   
 28  15  20  1   
 29  17  21  1   
 30  17  32  1   
 31  21  22  1   
 32  21  23  1   
 33  21  33  1   
 34  22  23  1   
 35  22  34  1   
 36  22  35  1   
 37  23  36  1   
 38  23  37  1   
@<TRIPOS>SUBSTRUCTURE
  1 ****   6 GROUP 4 **** **** 0

# MOE 2024.06 (io_trps.svl 2023.06)
