@<TRIPOS>MOLECULE
Structure1634
26 26 1 0 0 
SMALL
USER_CHARGES


@<TRIPOS>ATOM
  1 F       -0.3690     0.4730    -0.9270 F     1 <1>  -0.3400 
  2 C        0.1080     1.5670    -0.3450 C.3   1 <1>   1.1640 
  3 F       -0.4290     1.6050     0.8690 F     1 <1>  -0.3400 
  4 F       -0.3950     2.5970    -1.0100 F     1 <1>  -0.3400 
  5 C        1.6440     1.6010    -0.3090 C.ar  1 <1>  -0.1440 
  6 C        2.3980     0.9240    -1.2610 C.ar  1 <1>  -0.1500 
  7 C        2.3110     2.3250     0.6730 C.ar  1 <1>  -0.1500 
  8 C        3.7800     0.9650    -1.2300 C.ar  1 <1>  -0.1500 
  9 C        3.6930     2.3670     0.7060 C.ar  1 <1>  -0.1500 
 10 C        4.4400     1.6840    -0.2450 C.ar  1 <1>  -0.1430 
 11 C        5.9580     1.7010    -0.2370 C.3   1 <1>   0.5670 
 12 N        6.4030     0.9570     0.9440 N.4   1 <1>  -0.8530 
 13 C        6.5320     3.0960    -0.1980 C.3   1 <1>  -0.2660 
 14 C        7.9820     2.8350    -0.3110 C.2   1 <1>   0.9060 
 15 O        8.4430     2.6690    -1.4290 O.co2 1 <1>  -0.9000 
 16 O        8.5460     2.4870     0.7300 O.co2 1 <1>  -0.9000 
 17 H        1.9110     0.3610    -2.0420 H     1 <1>   0.1500 
 18 H        1.7530     2.8680     1.4190 H     1 <1>   0.1500 
 19 H        4.3330     0.4340    -1.9870 H     1 <1>   0.1500 
 20 H        4.1710     2.9470     1.4770 H     1 <1>   0.1500 
 21 H        6.3310     1.2150    -1.1270 H     1 <1>   0.0800 
 22 H        5.8650     1.2290     1.7620 H     1 <1>   0.4500 
 23 H        7.3950     1.2680     1.0950 H     1 <1>   0.4500 
 24 H        6.3880    -0.0480     0.7870 H     1 <1>   0.4500 
 25 H        6.3120     3.6250     0.7080 H     1 <1>   0.0800 
 26 H        6.2080     3.6660    -1.0480 H     1 <1>   0.0800 
@<TRIPOS>BOND
  1   1   2  1   
  2   2   3  1   
  3   2   4  1   
  4   2   5  1   
  5   5   6  ar  
  6   5   7  ar  
  7   6   8  ar  
  8   6  17  1   
  9   7   9  ar  
 10   7  18  1   
 11   8  10  ar  
 12   8  19  1   
 13   9  10  ar  
 14   9  20  1   
 15  10  11  1   
 16  11  12  1   
 17  11  13  1   
 18  11  21  1   
 19  12  22  1   
 20  12  23  1   
 21  12  24  1   
 22  13  14  1   
 23  13  25  1   
 24  13  26  1   
 25  14  15  ar  
 26  14  16  ar  
@<TRIPOS>SUBSTRUCTURE
  1 ****  10 GROUP 4 **** **** 0

# MOE 2024.06 (io_trps.svl 2023.06)
