@<TRIPOS>MOLECULE
NONAME
35 36 1 0 0 
SMALL
USER_CHARGES


@<TRIPOS>ATOM
  1 BR       0.4120    -0.0780     0.0420 Br    1 <1>  -0.1110 
  2 C       -1.1670     1.0180     0.1770 C.ar  1 <1>   0.1110 
  3 C       -1.2420     2.2660    -0.4300 C.ar  1 <1>  -0.0090 
  4 C       -2.2010     0.4890     0.9250 C.ar  1 <1>  -0.1500 
  5 S        0.1240     2.9730    -1.3860 S.o2  1 <1>   1.4470 
  6 C       -2.4190     2.9790    -0.2340 C.ar  1 <1>  -0.1500 
  7 C       -3.3530     1.2280     1.0940 C.ar  1 <1>  -0.1500 
  8 O       -0.2780     4.2450    -1.9450 O.2   1 <1>  -0.6500 
  9 O        0.6610     1.9810    -2.2950 O.2   1 <1>  -0.6500 
 10 N        1.2790     3.2770    -0.1730 N.am  1 <1>  -0.8490 
 11 C       -3.4890     2.4950     0.5250 C.ar  1 <1>  -0.1790 
 12 C        1.1070     4.4780     0.6470 C.3   1 <1>   0.1960 
 13 C        2.6240     2.7310    -0.3390 C.3   1 <1>   0.1960 
 14 C       -4.6980     3.2850     0.7250 C.2   1 <1>   0.9790 
 15 C        1.6670     5.7440    -0.0170 C.3   1 <1>  -0.1600 
 16 C        3.5980     3.7160    -0.9930 C.3   1 <1>  -0.1600 
 17 O       -5.6680     2.8100     1.3410 O.co2 1 <1>  -0.9000 
 18 O       -4.7710     4.4480     0.2930 O.co2 1 <1>  -0.9000 
 19 C        3.1710     5.9920     0.1820 C.3   1 <1>  -0.1600 
 20 C        4.1000     4.7840    -0.0070 C.3   1 <1>  -0.1600 
 21 H       -2.1060    -0.4840     1.3720 H     1 <1>   0.1500 
 22 H       -2.5250     3.9570    -0.6800 H     1 <1>   0.1500 
 23 H       -4.1720     0.8340     1.6760 H     1 <1>   0.1500 
 24 H        1.5780     4.3310     1.6030 H     1 <1>   0.0800 
 25 H        0.0530     4.6200     0.8260 H     1 <1>   0.0800 
 26 H        2.5850     1.8310    -0.9290 H     1 <1>   0.0800 
 27 H        3.0010     2.4440     0.6280 H     1 <1>   0.0800 
 28 H        1.1430     6.5890     0.3940 H     1 <1>   0.0800 
 29 H        1.4490     5.7390    -1.0680 H     1 <1>   0.0800 
 30 H        3.1640     4.1560    -1.8740 H     1 <1>   0.0800 
 31 H        4.4510     3.1450    -1.3140 H     1 <1>   0.0800 
 32 H        3.3330     6.3900     1.1700 H     1 <1>   0.0800 
 33 H        3.4640     6.7590    -0.5140 H     1 <1>   0.0800 
 34 H        5.0520     5.1510    -0.3510 H     1 <1>   0.0800 
 35 H        4.2760     4.3220     0.9500 H     1 <1>   0.0800 
@<TRIPOS>BOND
  1   1   2  1   
  2   2   3  ar  
  3   2   4  ar  
  4   3   5  1   
  5   3   6  ar  
  6   4   7  ar  
  7   4  21  1   
  8   5   8  2   
  9   5   9  2   
 10   5  10  am  
 11   6  11  ar  
 12   6  22  1   
 13   7  11  ar  
 14   7  23  1   
 15  10  12  1   
 16  10  13  1   
 17  11  14  1   
 18  12  15  1   
 19  12  24  1   
 20  12  25  1   
 21  13  16  1   
 22  13  26  1   
 23  13  27  1   
 24  14  17  ar  
 25  14  18  ar  
 26  15  19  1   
 27  15  28  1   
 28  15  29  1   
 29  16  20  1   
 30  16  30  1   
 31  16  31  1   
 32  19  20  1   
 33  19  32  1   
 34  19  33  1   
 35  20  34  1   
 36  20  35  1   
@<TRIPOS>SUBSTRUCTURE
  1 ****   3 GROUP 4 **** **** 0

# MOE 2024.06 (io_trps.svl 2023.06)
