@<TRIPOS>MOLECULE
NONAME
40 41 1 0 0 
SMALL
USER_CHARGES


@<TRIPOS>ATOM
  1 F       -2.3050     2.3410    -2.9770 F     1 <1>  -0.1900 
  2 C       -2.6430     2.2940    -1.7180 C.ar  1 <1>   0.1900 
  3 C       -3.5680     1.3490    -1.3170 C.ar  1 <1>  -0.1500 
  4 C       -2.0680     3.1890    -0.8370 C.ar  1 <1>  -0.1500 
  5 C       -3.9400     1.3000     0.0200 C.ar  1 <1>  -0.1440 
  6 C       -2.4350     3.1300     0.4960 C.ar  1 <1>  -0.1500 
  7 C       -3.3650     2.1910     0.9210 C.ar  1 <1>  -0.1500 
  8 C       -4.9670     0.2880     0.4930 C.3   1 <1>   0.4870 
  9 N       -6.3080     0.6870    -0.0190 N.4   1 <1>  -0.9590 
 10 C       -6.7360     2.0120     0.5210 C.3   1 <1>   0.3430 
 11 C       -7.3200    -0.3780     0.2230 C.3   1 <1>   0.3430 
 12 C       -8.0410     2.4400    -0.1480 C.3   1 <1>  -0.1600 
 13 C       -8.6320     0.0050    -0.4570 C.3   1 <1>  -0.1600 
 14 C       -9.1470     1.3820     0.0110 C.3   1 <1>  -0.0190 
 15 C      -10.4130     1.8120    -0.7280 C.2   1 <1>   0.6590 
 16 O      -10.6540     1.4350    -1.8450 O.2   1 <1>  -0.5700 
 17 O      -11.2080     2.6350    -0.0640 O.3   1 <1>  -0.4300 
 18 C      -12.4050     3.1180    -0.6320 C.3   1 <1>   0.1200 
 19 C      -13.0720     4.0400     0.3820 C.3   1 <1>  -0.2400 
 20 H       -3.9690     0.6760    -2.0530 H     1 <1>   0.1500 
 21 H       -1.3490     3.9080    -1.1890 H     1 <1>   0.1500 
 22 H       -1.9930     3.8150     1.2020 H     1 <1>   0.1500 
 23 H       -3.6270     2.1670     1.9660 H     1 <1>   0.1500 
 24 H       -4.9750     0.2470     1.5700 H     1 <1>   0.0800 
 25 H       -4.7010    -0.6860     0.1170 H     1 <1>   0.0800 
 26 H       -6.2070     0.8050    -1.0360 H     1 <1>   0.4500 
 27 H       -5.9780     2.7550     0.3280 H     1 <1>   0.0800 
 28 H       -6.8800     1.9440     1.5880 H     1 <1>   0.0800 
 29 H       -7.4830    -0.4960     1.2830 H     1 <1>   0.0800 
 30 H       -6.9740    -1.3190    -0.1750 H     1 <1>   0.0800 
 31 H       -7.8600     2.6280    -1.1930 H     1 <1>   0.0800 
 32 H       -8.3690     3.3680     0.2900 H     1 <1>   0.0800 
 33 H       -9.3740    -0.7440    -0.2380 H     1 <1>   0.0800 
 34 H       -8.4880     0.0050    -1.5240 H     1 <1>   0.0800 
 35 H       -9.4030     1.3080     1.0540 H     1 <1>   0.0800 
 36 H      -13.0370     2.2770    -0.8650 H     1 <1>   0.0800 
 37 H      -12.1650     3.6490    -1.5380 H     1 <1>   0.0800 
 38 H      -13.2990     3.5000     1.2840 H     1 <1>   0.0800 
 39 H      -13.9900     4.4220    -0.0260 H     1 <1>   0.0800 
 40 H      -12.4290     4.8710     0.6110 H     1 <1>   0.0800 
@<TRIPOS>BOND
  1   1   2  1   
  2   2   3  ar  
  3   2   4  ar  
  4   3   5  ar  
  5   3  20  1   
  6   4   6  ar  
  7   4  21  1   
  8   5   7  ar  
  9   5   8  1   
 10   6   7  ar  
 11   6  22  1   
 12   7  23  1   
 13   8   9  1   
 14   8  24  1   
 15   8  25  1   
 16   9  10  1   
 17   9  11  1   
 18   9  26  1   
 19  10  12  1   
 20  10  27  1   
 21  10  28  1   
 22  11  13  1   
 23  11  29  1   
 24  11  30  1   
 25  12  14  1   
 26  12  31  1   
 27  12  32  1   
 28  13  14  1   
 29  13  33  1   
 30  13  34  1   
 31  14  15  1   
 32  14  35  1   
 33  15  16  2   
 34  15  17  1   
 35  17  18  1   
 36  18  19  1   
 37  18  36  1   
 38  18  37  1   
 39  19  38  1   
 40  19  39  1   
 41  19  40  1   
@<TRIPOS>SUBSTRUCTURE
  1 ****  10 GROUP 4 **** **** 0

# MOE 2024.06 (io_trps.svl 2023.06)
