@<TRIPOS>MOLECULE
NONAME
42 42 1 0 0 
SMALL
USER_CHARGES


@<TRIPOS>ATOM
  1 BR      -2.3080     0.5410     1.9450 Br    1 <1>  -0.1110 
  2 C       -1.1160     1.8000     1.0990 C.ar  1 <1>   0.1110 
  3 C       -1.4350     2.3130    -0.1500 C.ar  1 <1>  -0.1440 
  4 C        0.0310     2.1620     1.7800 C.ar  1 <1>  -0.1500 
  5 C       -0.5550     3.2180    -0.7290 C.ar  1 <1>  -0.1500 
  6 C       -2.7030     1.8920    -0.8610 C.3   1 <1>   0.4870 
  7 C        0.8930     3.0690     1.1910 C.ar  1 <1>  -0.1500 
  8 C        0.5990     3.5920    -0.0580 C.ar  1 <1>  -0.1500 
  9 N       -3.8670     2.4950    -0.1370 N.4   1 <1>  -0.9590 
 10 C       -5.1400     1.7480    -0.4440 C.3   1 <1>   0.3430 
 11 C       -3.9290     3.9730    -0.4070 C.3   1 <1>   0.2630 
 12 C       -6.3290     2.0970     0.4990 C.3   1 <1>   0.3430 
 13 N       -7.5980     1.3150     0.2520 N.4   1 <1>  -0.9590 
 14 C       -8.7070     1.8860     1.0750 C.3   1 <1>   0.3430 
 15 C       -7.4630    -0.1490     0.5270 C.3   1 <1>   0.3430 
 16 C      -10.0470     1.4910     0.4640 C.3   1 <1>  -0.2400 
 17 C       -7.3170    -0.8870    -0.7970 C.3   1 <1>  -0.2400 
 18 H        0.2490     1.7440     2.7480 H     1 <1>   0.1500 
 19 H       -0.7450     3.6390    -1.7020 H     1 <1>   0.1500 
 20 H       -2.7650     0.8160    -0.8450 H     1 <1>   0.0800 
 21 H       -2.6820     2.2180    -1.8890 H     1 <1>   0.0800 
 22 H        1.7950     3.3660     1.7010 H     1 <1>   0.1500 
 23 H        1.2810     4.2940    -0.5110 H     1 <1>   0.1500 
 24 H       -3.6120     2.3690     0.8580 H     1 <1>   0.4500 
 25 H       -4.9440     0.6920    -0.3540 H     1 <1>   0.0800 
 26 H       -5.4290     1.9490    -1.4630 H     1 <1>   0.0800 
 27 H       -4.1270     4.1600    -1.4510 H     1 <1>   0.0800 
 28 H       -2.9880     4.4370    -0.1530 H     1 <1>   0.0800 
 29 H       -4.7010     4.4390     0.1830 H     1 <1>   0.0800 
 30 H       -6.5470     3.1470     0.3860 H     1 <1>   0.0800 
 31 H       -6.0180     1.9330     1.5180 H     1 <1>   0.0800 
 32 H       -7.9090     1.4170    -0.7260 H     1 <1>   0.4500 
 33 H       -8.6420     2.9630     1.0880 H     1 <1>   0.0800 
 34 H       -8.6440     1.5330     2.0940 H     1 <1>   0.0800 
 35 H       -8.3450    -0.5170     1.0280 H     1 <1>   0.0800 
 36 H       -6.6170    -0.3440     1.1660 H     1 <1>   0.0800 
 37 H      -10.1320     1.8520    -0.5460 H     1 <1>   0.0800 
 38 H      -10.8390     1.9400     1.0380 H     1 <1>   0.0800 
 39 H      -10.1980     0.4270     0.4830 H     1 <1>   0.0800 
 40 H       -8.1850    -0.7360    -1.4140 H     1 <1>   0.0800 
 41 H       -7.2430    -1.9430    -0.6010 H     1 <1>   0.0800 
 42 H       -6.4350    -0.5930    -1.3340 H     1 <1>   0.0800 
@<TRIPOS>BOND
  1   1   2  1   
  2   2   3  ar  
  3   2   4  ar  
  4   3   5  ar  
  5   3   6  1   
  6   4   7  ar  
  7   4  18  1   
  8   5   8  ar  
  9   5  19  1   
 10   6   9  1   
 11   6  20  1   
 12   6  21  1   
 13   7   8  ar  
 14   7  22  1   
 15   8  23  1   
 16   9  10  1   
 17   9  11  1   
 18   9  24  1   
 19  10  12  1   
 20  10  25  1   
 21  10  26  1   
 22  11  27  1   
 23  11  28  1   
 24  11  29  1   
 25  12  13  1   
 26  12  30  1   
 27  12  31  1   
 28  13  14  1   
 29  13  15  1   
 30  13  32  1   
 31  14  16  1   
 32  14  33  1   
 33  14  34  1   
 34  15  17  1   
 35  15  35  1   
 36  15  36  1   
 37  16  37  1   
 38  16  38  1   
 39  16  39  1   
 40  17  40  1   
 41  17  41  1   
 42  17  42  1   
@<TRIPOS>SUBSTRUCTURE
  1 ****   9 GROUP 4 **** **** 0

# MOE 2024.06 (io_trps.svl 2023.06)
