@<TRIPOS>MOLECULE
NONAME
51 52 1 0 0 
SMALL
USER_CHARGES


@<TRIPOS>ATOM
  1 O       -0.3490    -0.5930    -0.0740 O.2   1 <1>  -0.5700 
  2 C       -1.2640    -1.1060     0.5280 C.2   1 <1>   0.5690 
  3 N       -2.4070    -0.4030     0.8200 N.am  1 <1>  -0.6600 
  4 C       -1.0950    -2.5570     0.9700 C.3   1 <1>  -0.0990 
  5 C       -3.4260    -0.7750     1.8490 C.3   1 <1>   0.1400 
  6 C       -2.7130     0.8520     0.0690 C.3   1 <1>   0.1400 
  7 C       -0.2980    -3.4100    -0.0330 C.3   1 <1>  -0.1600 
  8 C       -4.8760    -0.7330     1.3040 C.3   1 <1>   0.0000 
  9 C       -4.1650     0.8840    -0.4670 C.3   1 <1>   0.0000 
 10 C       -0.2390    -4.8790     0.3970 C.3   1 <1>  -0.2400 
 11 C       -5.1300    -1.8240     0.2360 C.3   1 <1>   0.1400 
 12 C       -5.1470     0.6500     0.6910 C.3   1 <1>  -0.1600 
 13 C       -5.8480    -0.9550     2.4770 C.3   1 <1>  -0.2400 
 14 C       -4.3860    -0.1910    -1.5600 C.3   1 <1>   0.1400 
 15 C       -4.4330     2.2710    -1.0770 C.3   1 <1>  -0.2400 
 16 N       -4.3900    -1.6010    -1.0470 N.am  1 <1>  -0.6600 
 17 C       -3.8270    -2.5980    -1.8100 C.2   1 <1>   0.5690 
 18 O       -3.3400    -2.3730    -2.8930 O.2   1 <1>  -0.5700 
 19 C       -3.8100    -4.0500    -1.3510 C.3   1 <1>  -0.0990 
 20 C       -5.1500    -4.7620    -1.5970 C.3   1 <1>  -0.1600 
 21 C       -5.1030    -6.2170    -1.1190 C.3   1 <1>  -0.2400 
 22 H       -2.0580    -3.0090     1.0860 H     1 <1>   0.0800 
 23 H       -0.5980    -2.5610     1.9220 H     1 <1>   0.0800 
 24 H       -3.3410    -0.0670     2.6540 H     1 <1>   0.0800 
 25 H       -3.2260    -1.7440     2.2650 H     1 <1>   0.0800 
 26 H       -2.0350     0.9610    -0.7600 H     1 <1>   0.0800 
 27 H       -2.5530     1.6850     0.7310 H     1 <1>   0.0800 
 28 H        0.7030    -3.0210    -0.1170 H     1 <1>   0.0800 
 29 H       -0.7580    -3.3370    -1.0050 H     1 <1>   0.0800 
 30 H        0.2380    -4.9710     1.3570 H     1 <1>   0.0800 
 31 H        0.3280    -5.4460    -0.3210 H     1 <1>   0.0800 
 32 H       -1.2280    -5.2980     0.4560 H     1 <1>   0.0800 
 33 H       -6.1810    -1.8410     0.0020 H     1 <1>   0.0800 
 34 H       -4.8810    -2.7780     0.6590 H     1 <1>   0.0800 
 35 H       -5.0200     1.4150     1.4370 H     1 <1>   0.0800 
 36 H       -6.1590     0.7000     0.3290 H     1 <1>   0.0800 
 37 H       -5.6850    -1.9190     2.9270 H     1 <1>   0.0800 
 38 H       -6.8690    -0.9080     2.1380 H     1 <1>   0.0800 
 39 H       -5.7110    -0.2010     3.2320 H     1 <1>   0.0800 
 40 H       -5.3330    -0.0180    -2.0400 H     1 <1>   0.0800 
 41 H       -3.6210    -0.0770    -2.3100 H     1 <1>   0.0800 
 42 H       -3.7580     2.4580    -1.8940 H     1 <1>   0.0800 
 43 H       -4.2940     3.0430    -0.3400 H     1 <1>   0.0800 
 44 H       -5.4410     2.3350    -1.4480 H     1 <1>   0.0800 
 45 H       -3.5370    -4.1050    -0.3170 H     1 <1>   0.0800 
 46 H       -3.0400    -4.5590    -1.9030 H     1 <1>   0.0800 
 47 H       -5.3700    -4.7390    -2.6510 H     1 <1>   0.0800 
 48 H       -5.9420    -4.2440    -1.0850 H     1 <1>   0.0800 
 49 H       -4.3340    -6.7590    -1.6420 H     1 <1>   0.0800 
 50 H       -6.0470    -6.6960    -1.3100 H     1 <1>   0.0800 
 51 H       -4.9030    -6.2620    -0.0630 H     1 <1>   0.0800 
@<TRIPOS>BOND
  1   1   2  2   
  2   2   3  am  
  3   2   4  1   
  4   3   5  1   
  5   3   6  1   
  6   4   7  1   
  7   4  22  1   
  8   4  23  1   
  9   5   8  1   
 10   5  24  1   
 11   5  25  1   
 12   6   9  1   
 13   6  26  1   
 14   6  27  1   
 15   7  10  1   
 16   7  28  1   
 17   7  29  1   
 18   8  11  1   
 19   8  12  1   
 20   8  13  1   
 21   9  12  1   
 22   9  14  1   
 23   9  15  1   
 24  10  30  1   
 25  10  31  1   
 26  10  32  1   
 27  11  16  1   
 28  11  33  1   
 29  11  34  1   
 30  12  35  1   
 31  12  36  1   
 32  13  37  1   
 33  13  38  1   
 34  13  39  1   
 35  14  16  1   
 36  14  40  1   
 37  14  41  1   
 38  15  42  1   
 39  15  43  1   
 40  15  44  1   
 41  16  17  am  
 42  17  18  2   
 43  17  19  1   
 44  19  20  1   
 45  19  45  1   
 46  19  46  1   
 47  20  21  1   
 48  20  47  1   
 49  20  48  1   
 50  21  49  1   
 51  21  50  1   
 52  21  51  1   
@<TRIPOS>SUBSTRUCTURE
  1 ****  16 GROUP 4 **** **** 0

# MOE 2024.06 (io_trps.svl 2023.06)
