@<TRIPOS>MOLECULE
NONAME
56 58 1 0 0 
SMALL
USER_CHARGES


@<TRIPOS>ATOM
  1 S        0.4680     0.6650    -1.9380 S.o2  1 <1>   1.4470 
  2 O        1.8930     0.4760    -2.1180 O.2   1 <1>  -0.6500 
  3 O       -0.3750     0.7160    -3.1100 O.2   1 <1>  -0.6500 
  4 N        0.2880     2.1750    -1.1030 N.am  1 <1>  -0.6930 
  5 C       -0.1720    -0.5550    -0.7540 C.ar  1 <1>  -0.0090 
  6 C       -0.9430     2.6150    -0.6260 C.ar  1 <1>   0.1990 
  7 C        1.5100     2.9620    -0.7590 C.3   1 <1>   0.2570 
  8 C       -1.2070    -1.4130    -1.1100 C.ar  1 <1>  -0.1500 
  9 C        0.3460    -0.6720     0.5320 C.ar  1 <1>  -0.1500 
 10 C       -1.8830     3.2510    -1.4420 C.ar  1 <1>  -0.1430 
 11 C       -1.2430     2.4260     0.7180 C.ar  1 <1>  -0.1500 
 12 C        2.3570     2.3730     0.3750 C.2   1 <1>   0.5690 
 13 C       -1.7060    -2.3510    -0.2220 C.ar  1 <1>  -0.1500 
 14 C       -0.1450    -1.6060     1.4270 C.ar  1 <1>  -0.1500 
 15 C       -3.0970     3.6510    -0.9050 C.ar  1 <1>  -0.1500 
 16 C       -1.6270     3.5350    -2.9170 C.3   1 <1>  -0.0960 
 17 C       -2.4540     2.8310     1.2440 C.ar  1 <1>  -0.1500 
 18 O        2.1770     2.7580     1.5060 O.2   1 <1>  -0.5700 
 19 N        3.2930     1.4310     0.0850 N.am  1 <1>  -0.7300 
 20 C       -1.1730    -2.4490     1.0490 C.ar  1 <1>  -0.1500 
 21 C       -3.3930     3.4420     0.4320 C.ar  1 <1>  -0.1430 
 22 C        4.2230     0.8090     1.0380 C.3   1 <1>   0.2200 
 23 C       -4.7270     3.8870     1.0000 C.3   1 <1>  -0.0970 
 24 C        5.6160     1.4090     0.8280 C.3   1 <1>  -0.1600 
 25 C        4.2310    -0.7060     0.8070 C.3   1 <1>  -0.1600 
 26 C        6.6600     0.7220     1.7200 C.3   1 <1>  -0.1600 
 27 C        5.2730    -1.3990     1.6990 C.3   1 <1>  -0.1600 
 28 C        6.6690    -0.7960     1.4930 C.3   1 <1>  -0.1600 
 29 H        1.2120     3.9530    -0.4650 H     1 <1>   0.0800 
 30 H        2.1230     3.0570    -1.6360 H     1 <1>   0.0800 
 31 H       -1.6340    -1.3450    -2.0970 H     1 <1>   0.1500 
 32 H        1.1410    -0.0220     0.8480 H     1 <1>   0.1500 
 33 H       -0.5190     1.9600     1.3610 H     1 <1>   0.1500 
 34 H       -2.5080    -3.0030    -0.5220 H     1 <1>   0.1500 
 35 H        0.2720    -1.6750     2.4170 H     1 <1>   0.1500 
 36 H       -3.8240     4.1320    -1.5350 H     1 <1>   0.1500 
 37 H       -2.0130     2.7280    -3.5140 H     1 <1>   0.0800 
 38 H       -0.5770     3.6410    -3.1180 H     1 <1>   0.0800 
 39 H       -2.1150     4.4450    -3.2150 H     1 <1>   0.0800 
 40 H       -2.6610     2.6700     2.2870 H     1 <1>   0.1500 
 41 H        3.2980     1.0220    -0.8610 H     1 <1>   0.3700 
 42 H       -1.5580    -3.1780     1.7420 H     1 <1>   0.1500 
 43 H        3.9000     1.0140     2.0470 H     1 <1>   0.0800 
 44 H       -4.6630     4.9120     1.3180 H     1 <1>   0.0800 
 45 H       -4.9990     3.2780     1.8430 H     1 <1>   0.0800 
 46 H       -5.4990     3.8010     0.2570 H     1 <1>   0.0800 
 47 H        5.5880     2.4590     1.0590 H     1 <1>   0.0800 
 48 H        5.9050     1.2940    -0.2020 H     1 <1>   0.0800 
 49 H        4.4630    -0.9120    -0.2240 H     1 <1>   0.0800 
 50 H        3.2600    -1.1110     1.0250 H     1 <1>   0.0800 
 51 H        6.4350     0.9260     2.7530 H     1 <1>   0.0800 
 52 H        7.6360     1.1240     1.5100 H     1 <1>   0.0800 
 53 H        5.2980    -2.4510     1.4730 H     1 <1>   0.0800 
 54 H        4.9870    -1.2900     2.7310 H     1 <1>   0.0800 
 55 H        7.3650    -1.2580     2.1720 H     1 <1>   0.0800 
 56 H        7.0020    -1.0040     0.4900 H     1 <1>   0.0800 
@<TRIPOS>BOND
  1   1   2  2   
  2   1   3  2   
  3   1   4  am  
  4   1   5  1   
  5   4   6  1   
  6   4   7  1   
  7   5   8  ar  
  8   5   9  ar  
  9   6  10  ar  
 10   6  11  ar  
 11   7  12  1   
 12   7  29  1   
 13   7  30  1   
 14   8  13  ar  
 15   8  31  1   
 16   9  14  ar  
 17   9  32  1   
 18  10  15  ar  
 19  10  16  1   
 20  11  17  ar  
 21  11  33  1   
 22  12  18  2   
 23  12  19  am  
 24  13  20  ar  
 25  13  34  1   
 26  14  20  ar  
 27  14  35  1   
 28  15  21  ar  
 29  15  36  1   
 30  16  37  1   
 31  16  38  1   
 32  16  39  1   
 33  17  21  ar  
 34  17  40  1   
 35  19  22  1   
 36  19  41  1   
 37  20  42  1   
 38  21  23  1   
 39  22  24  1   
 40  22  25  1   
 41  22  43  1   
 42  23  44  1   
 43  23  45  1   
 44  23  46  1   
 45  24  26  1   
 46  24  47  1   
 47  24  48  1   
 48  25  27  1   
 49  25  49  1   
 50  25  50  1   
 51  26  28  1   
 52  26  51  1   
 53  26  52  1   
 54  27  28  1   
 55  27  53  1   
 56  27  54  1   
 57  28  55  1   
 58  28  56  1   
@<TRIPOS>SUBSTRUCTURE
  1 ****   4 GROUP 4 **** **** 0

# MOE 2024.06 (io_trps.svl 2023.06)
