@<TRIPOS>MOLECULE
NONAME
50 51 1 0 0 
SMALL
USER_CHARGES


@<TRIPOS>ATOM
  1 S        0.3400     0.6830     1.2440 S.o2  1 <1>   1.3330 
  2 O        0.1670    -0.1340     0.0710 O.2   1 <1>  -0.6500 
  3 O        1.5280     0.5420     2.0540 O.2   1 <1>  -0.6500 
  4 N        0.2870     2.3400     0.7560 N.am  1 <1>  -0.6930 
  5 C       -1.0910     0.5530     2.2920 C.3   1 <1>  -0.1350 
  6 C       -0.6130     2.7690    -0.2090 C.ar  1 <1>   0.1990 
  7 C        1.5010     3.1800     1.0000 C.3   1 <1>   0.2570 
  8 C       -1.7890     3.3990     0.1680 C.ar  1 <1>  -0.1500 
  9 C       -0.3530     2.5840    -1.5610 C.ar  1 <1>  -0.1500 
 10 C        2.6970     2.8590     0.0980 C.2   1 <1>   0.5690 
 11 C       -2.7010     3.8310    -0.7780 C.ar  1 <1>   0.0830 
 12 C       -1.2550     3.0150    -2.5170 C.ar  1 <1>  -0.1500 
 13 O        2.9440     3.6140    -0.8120 O.2   1 <1>  -0.5700 
 14 N        3.4490     1.7490     0.3670 N.am  1 <1>  -0.5470 
 15 O       -3.8250     4.4300    -0.3110 O.3   1 <1>  -0.3630 
 16 C       -2.4300     3.6370    -2.1310 C.ar  1 <1>  -0.1500 
 17 C        4.5740     1.2630    -0.3180 C.ar  1 <1>   0.1170 
 18 C       -4.8090     4.9250    -1.1920 C.3   1 <1>   0.0400 
 19 C        5.7810     1.9700    -0.3350 C.ar  1 <1>  -0.1430 
 20 C        4.4960     0.0320    -0.9720 C.ar  1 <1>  -0.1430 
 21 C        6.8740     1.4480    -1.0070 C.ar  1 <1>  -0.1500 
 22 C        5.9400     3.3090     0.3740 C.3   1 <1>  -0.0970 
 23 C        5.6030    -0.4720    -1.6330 C.ar  1 <1>  -0.1500 
 24 C        3.2020    -0.7720    -0.9850 C.3   1 <1>  -0.0970 
 25 C        6.7940     0.2300    -1.6580 C.ar  1 <1>  -0.1430 
 26 C        8.0000    -0.3310    -2.3890 C.3   1 <1>  -0.0970 
 27 H       -1.1640    -0.4390     2.6930 H     1 <1>   0.0800 
 28 H       -1.9800     0.7610     1.7290 H     1 <1>   0.0800 
 29 H       -1.0230     1.2490     3.1040 H     1 <1>   0.0800 
 30 H        1.8050     3.0790     2.0260 H     1 <1>   0.0800 
 31 H        1.2410     4.2120     0.8430 H     1 <1>   0.0800 
 32 H       -2.0010     3.5580     1.2080 H     1 <1>   0.1500 
 33 H        0.5600     2.0990    -1.8620 H     1 <1>   0.1500 
 34 H       -1.0400     2.8640    -3.5610 H     1 <1>   0.1500 
 35 H        3.0490     1.0960     1.0530 H     1 <1>   0.3700 
 36 H       -3.1150     3.9610    -2.8920 H     1 <1>   0.1500 
 37 H       -5.5960     5.3600    -0.6030 H     1 <1>   0.0800 
 38 H       -5.1970     4.1100    -1.7760 H     1 <1>   0.0800 
 39 H       -4.3670     5.6760    -1.8220 H     1 <1>   0.0800 
 40 H        7.8000     1.9940    -1.0250 H     1 <1>   0.1500 
 41 H        5.4790     4.0840    -0.2110 H     1 <1>   0.0800 
 42 H        6.9780     3.5530     0.5050 H     1 <1>   0.0800 
 43 H        5.4790     3.2770     1.3430 H     1 <1>   0.0800 
 44 H        5.5400    -1.4200    -2.1370 H     1 <1>   0.1500 
 45 H        3.3100    -1.6760    -1.5560 H     1 <1>   0.0800 
 46 H        2.9200    -1.0380     0.0180 H     1 <1>   0.0800 
 47 H        2.4150    -0.1880    -1.4270 H     1 <1>   0.0800 
 48 H        8.6230     0.4660    -2.7530 H     1 <1>   0.0800 
 49 H        7.6870    -0.9260    -3.2280 H     1 <1>   0.0800 
 50 H        8.5760    -0.9450    -1.7210 H     1 <1>   0.0800 
@<TRIPOS>BOND
  1   1   2  2   
  2   1   3  2   
  3   1   4  am  
  4   1   5  1   
  5   4   6  1   
  6   4   7  1   
  7   5  27  1   
  8   5  28  1   
  9   5  29  1   
 10   6   8  ar  
 11   6   9  ar  
 12   7  10  1   
 13   7  30  1   
 14   7  31  1   
 15   8  11  ar  
 16   8  32  1   
 17   9  12  ar  
 18   9  33  1   
 19  10  13  2   
 20  10  14  am  
 21  11  15  1   
 22  11  16  ar  
 23  12  16  ar  
 24  12  34  1   
 25  14  17  1   
 26  14  35  1   
 27  15  18  1   
 28  16  36  1   
 29  17  19  ar  
 30  17  20  ar  
 31  18  37  1   
 32  18  38  1   
 33  18  39  1   
 34  19  21  ar  
 35  19  22  1   
 36  20  23  ar  
 37  20  24  1   
 38  21  25  ar  
 39  21  40  1   
 40  22  41  1   
 41  22  42  1   
 42  22  43  1   
 43  23  25  ar  
 44  23  44  1   
 45  24  45  1   
 46  24  46  1   
 47  24  47  1   
 48  25  26  1   
 49  26  48  1   
 50  26  49  1   
 51  26  50  1   
@<TRIPOS>SUBSTRUCTURE
  1 ****  10 GROUP 4 **** **** 0

# MOE 2024.06 (io_trps.svl 2023.06)
