@<TRIPOS>MOLECULE
NONAME
36 37 1 0 0 
SMALL
USER_CHARGES


@<TRIPOS>ATOM
  1 O       -0.6880    -0.8380    -1.2280 O.2   1 <1>  -0.5700 
  2 C       -1.2820    -1.6270    -0.5300 C.2   1 <1>   0.5690 
  3 N       -0.7920    -2.8960    -0.3040 N.am  1 <1>  -0.6600 
  4 C       -2.5530    -1.1210     0.1070 C.3   1 <1>   0.1570 
  5 C       -1.4170    -3.9060     0.5990 C.3   1 <1>   0.1400 
  6 C        0.3600    -3.3940    -1.1110 C.3   1 <1>   0.1400 
  7 N       -3.7150    -1.7290    -0.5390 N.pl3 1 <1>   0.5800 
  8 C       -0.9920    -3.6650     2.0470 C.3   1 <1>  -0.2400 
  9 C        1.6610    -3.2470    -0.3270 C.3   1 <1>  -0.2400 
 10 N       -4.0240    -1.5700    -1.8130 N.2   1 <1>  -0.4180 
 11 N       -4.5950    -2.4500     0.1250 N.2   1 <1>  -0.7070 
 12 N       -5.1090    -2.2080    -1.9890 N.2   1 <1>  -0.2270 
 13 C       -5.4470    -2.7370    -0.8070 C.2   1 <1>   0.4620 
 14 C       -6.6440    -3.5400    -0.6170 C.ar  1 <1>   0.0540 
 15 C       -7.4950    -3.8580    -1.6790 C.ar  1 <1>  -0.1500 
 16 C       -6.9940    -4.0300     0.6440 C.ar  1 <1>  -0.1500 
 17 C       -8.6330    -4.6220    -1.4940 C.ar  1 <1>  -0.1500 
 18 C       -8.1310    -4.7950     0.8360 C.ar  1 <1>  -0.1500 
 19 C       -8.9540    -5.0930    -0.2340 C.ar  1 <1>  -0.1500 
 20 H       -2.6180    -0.0580    -0.0190 H     1 <1>   0.0800 
 21 H       -2.5710    -1.3480     1.1530 H     1 <1>   0.0800 
 22 H       -1.1160    -4.8960     0.3020 H     1 <1>   0.0800 
 23 H       -2.4870    -3.8680     0.5210 H     1 <1>   0.0800 
 24 H        0.4350    -2.8280    -2.0260 H     1 <1>   0.0800 
 25 H        0.2040    -4.4230    -1.3850 H     1 <1>   0.0800 
 26 H        0.0710    -3.7720     2.1550 H     1 <1>   0.0800 
 27 H       -1.4670    -4.3900     2.6830 H     1 <1>   0.0800 
 28 H       -1.2810    -2.6860     2.3810 H     1 <1>   0.0800 
 29 H        1.7860    -2.2280    -0.0080 H     1 <1>   0.0800 
 30 H        2.4910    -3.5100    -0.9580 H     1 <1>   0.0800 
 31 H        1.6690    -3.8990     0.5260 H     1 <1>   0.0800 
 32 H       -7.2650    -3.5020    -2.6680 H     1 <1>   0.1500 
 33 H       -6.3650    -3.8060     1.4870 H     1 <1>   0.1500 
 34 H       -9.2710    -4.8510    -2.3300 H     1 <1>   0.1500 
 35 H       -8.3750    -5.1590     1.8200 H     1 <1>   0.1500 
 36 H       -9.8390    -5.6880    -0.0870 H     1 <1>   0.1500 
@<TRIPOS>BOND
  1   1   2  2   
  2   2   3  am  
  3   2   4  1   
  4   3   5  1   
  5   3   6  1   
  6   4   7  1   
  7   4  20  1   
  8   4  21  1   
  9   5   8  1   
 10   5  22  1   
 11   5  23  1   
 12   6   9  1   
 13   6  24  1   
 14   6  25  1   
 15   7  10  1   
 16   7  11  1   
 17   8  26  1   
 18   8  27  1   
 19   8  28  1   
 20   9  29  1   
 21   9  30  1   
 22   9  31  1   
 23  10  12  2   
 24  11  13  2   
 25  12  13  1   
 26  13  14  1   
 27  14  15  ar  
 28  14  16  ar  
 29  15  17  ar  
 30  15  32  1   
 31  16  18  ar  
 32  16  33  1   
 33  17  19  ar  
 34  17  34  1   
 35  18  19  ar  
 36  18  35  1   
 37  19  36  1   
@<TRIPOS>SUBSTRUCTURE
  1 ****  11 GROUP 4 **** **** 0

# MOE 2024.06 (io_trps.svl 2023.06)
