@<TRIPOS>MOLECULE
NONAME
48 50 1 0 0 
SMALL
USER_CHARGES


@<TRIPOS>ATOM
  1 CL      -0.1970    -0.0890     0.1480 Cl    1 <1>  -0.1840 
  2 C       -0.4240    -1.8150     0.2870 C.ar  1 <1>   0.1700 
  3 C       -0.4700    -2.5870    -0.8590 C.ar  1 <1>  -0.1580 
  4 C       -0.5550    -2.3830     1.5410 C.ar  1 <1>  -0.1580 
  5 C       -0.6510    -3.9560    -0.7520 C.ar  1 <1>  -0.1580 
  6 C       -0.7350    -3.7520     1.6450 C.ar  1 <1>  -0.1580 
  7 C       -0.7860    -4.5430     0.5060 C.ar  1 <1>   0.0740 
  8 O       -0.9690    -5.8740     0.6990 O.3   1 <1>  -0.3690 
  9 C       -1.1280    -6.7580    -0.3920 C.3   1 <1>   0.1120 
 10 C       -1.3730    -8.1720     0.1540 C.3   1 <1>   0.1930 
 11 O       -0.3830    -8.4480     1.0970 O.3   1 <1>  -0.6840 
 12 C       -1.3680    -9.2340    -0.9660 C.3   1 <1>   0.3480 
 13 N       -1.8200   -10.5850    -0.5130 N.pl3 1 <1>  -0.7670 
 14 C       -1.1640   -11.4550     0.2570 C.cat 1 <1>   1.0690 
 15 C       -2.9490   -11.2410    -0.9930 C.ar  1 <1>   0.3030 
 16 N       -0.0510   -11.1850     0.8900 N.pl3 1 <1>  -0.8390 
 17 N       -1.7820   -12.6320     0.3020 N.pl3 1 <1>  -0.7670 
 18 C       -2.9200   -12.5280    -0.4850 C.ar  1 <1>   0.3030 
 19 C       -3.9900   -10.8330    -1.8220 C.ar  1 <1>  -0.1170 
 20 C       -1.3920   -13.8490     1.0430 C.3   1 <1>   0.3480 
 21 C       -3.9210   -13.4420    -0.7990 C.ar  1 <1>  -0.1170 
 22 C       -4.9870   -11.7390    -2.1330 C.ar  1 <1>  -0.1580 
 23 C       -0.5510   -14.7480     0.1350 C.3   1 <1>  -0.1680 
 24 C       -4.9520   -13.0380    -1.6250 C.ar  1 <1>  -0.1580 
 25 C       -0.0970   -16.0190     0.8630 C.3   1 <1>  -0.2470 
 26 H       -0.3650    -2.1160    -1.8200 H     1 <1>   0.1420 
 27 H       -0.5150    -1.7610     2.4170 H     1 <1>   0.1420 
 28 H       -0.6810    -4.5370    -1.6540 H     1 <1>   0.1420 
 29 H       -0.8400    -4.2090     2.6120 H     1 <1>   0.1420 
 30 H       -0.2320    -6.7280    -0.9870 H     1 <1>   0.0720 
 31 H       -1.9690    -6.4270    -0.9770 H     1 <1>   0.0720 
 32 H       -2.3260    -8.1850     0.6560 H     1 <1>   0.0720 
 33 H       -0.2620    -7.6320     1.6410 H     1 <1>   0.3940 
 34 H       -0.3770    -9.3080    -1.3810 H     1 <1>   0.0720 
 35 H       -2.0160    -8.8990    -1.7560 H     1 <1>   0.0720 
 36 H        0.4460   -11.8470     1.4730 H     1 <1>   0.4450 
 37 H        0.2150   -10.1970     0.9980 H     1 <1>   0.4450 
 38 H       -4.0240    -9.8340    -2.2150 H     1 <1>   0.1420 
 39 H       -2.2740   -14.3750     1.3670 H     1 <1>   0.0720 
 40 H       -0.8280   -13.5830     1.9200 H     1 <1>   0.0720 
 41 H       -3.8910   -14.4420    -0.4080 H     1 <1>   0.1420 
 42 H       -5.8040   -11.4470    -2.7740 H     1 <1>   0.1420 
 43 H        0.3190   -14.2130    -0.2030 H     1 <1>   0.0720 
 44 H       -1.1310   -15.0320    -0.7270 H     1 <1>   0.0720 
 45 H       -5.7400   -13.7270    -1.8830 H     1 <1>   0.1420 
 46 H        0.5090   -15.7750     1.7190 H     1 <1>   0.0720 
 47 H        0.4880   -16.6320     0.1990 H     1 <1>   0.0720 
 48 H       -0.9460   -16.5940     1.1910 H     1 <1>   0.0720 
@<TRIPOS>BOND
  1   1   2  1   
  2   2   3  ar  
  3   2   4  ar  
  4   3   5  ar  
  5   3  26  1   
  6   4   6  ar  
  7   4  27  1   
  8   5   7  ar  
  9   5  28  1   
 10   6   7  ar  
 11   6  29  1   
 12   7   8  1   
 13   8   9  1   
 14   9  10  1   
 15   9  30  1   
 16   9  31  1   
 17  10  11  1   
 18  10  12  1   
 19  10  32  1   
 20  11  33  1   
 21  12  13  1   
 22  12  34  1   
 23  12  35  1   
 24  13  14  ar  
 25  13  15  1   
 26  14  16  ar  
 27  14  17  ar  
 28  15  18  ar  
 29  15  19  ar  
 30  16  36  1   
 31  16  37  1   
 32  17  18  1   
 33  17  20  1   
 34  18  21  ar  
 35  19  22  ar  
 36  19  38  1   
 37  20  23  1   
 38  20  39  1   
 39  20  40  1   
 40  21  24  ar  
 41  21  41  1   
 42  22  24  ar  
 43  22  42  1   
 44  23  25  1   
 45  23  43  1   
 46  23  44  1   
 47  24  45  1   
 48  25  46  1   
 49  25  47  1   
 50  25  48  1   
@<TRIPOS>SUBSTRUCTURE
  1 ****  10 GROUP 4 **** **** 0

# MOE 2024.06 (io_trps.svl 2023.06)
