@<TRIPOS>MOLECULE
NONAME
40 42 1 0 0 
SMALL
USER_CHARGES


@<TRIPOS>ATOM
  1 F       -2.2520     0.2400     2.8560 F     1 <1>  -0.1900 
  2 C       -2.5250     0.8300     1.7210 C.ar  1 <1>   0.1900 
  3 C       -1.7370     1.8700     1.2610 C.ar  1 <1>   0.1900 
  4 C       -3.6190     0.3930     0.9970 C.ar  1 <1>  -0.1500 
  5 F       -0.7060     2.2800     1.9520 F     1 <1>  -0.1900 
  6 C       -2.0280     2.4950     0.0620 C.ar  1 <1>  -0.1500 
  7 C       -3.9280     1.0200    -0.2070 C.ar  1 <1>  -0.1440 
  8 C       -3.1270     2.0640    -0.6690 C.ar  1 <1>  -0.1500 
  9 C       -5.1330     0.5670    -1.0150 C.3   1 <1>   0.4870 
 10 N       -6.3720     1.0350    -0.3370 N.4   1 <1>  -0.9590 
 11 C       -7.6090     0.4530    -0.9820 C.3   1 <1>   0.3430 
 12 C       -6.4490     2.5460    -0.2860 C.3   1 <1>   0.3430 
 13 C       -8.9150     0.9480    -0.3220 C.3   1 <1>   0.2090 
 14 C       -7.7460     3.0560     0.3770 C.3   1 <1>   0.2090 
 15 N       -8.9420     2.4370    -0.2650 N.pl3 1 <1>  -0.8380 
 16 C      -10.1700     3.0190     0.0290 C.ar  1 <1>   0.1000 
 17 C      -10.8490     3.7150    -0.9660 C.ar  1 <1>  -0.1500 
 18 C      -10.7340     2.9200     1.3000 C.ar  1 <1>  -0.1500 
 19 C      -12.0730     4.3060    -0.7060 C.ar  1 <1>  -0.1500 
 20 C      -11.9580     3.5050     1.5750 C.ar  1 <1>  -0.1500 
 21 C      -12.6050     4.1890     0.5630 C.ar  1 <1>   0.1900 
 22 F      -13.7630     4.7440     0.8170 F     1 <1>  -0.1900 
 23 H       -4.2000    -0.4260     1.3850 H     1 <1>   0.1500 
 24 H       -1.4020     3.2990    -0.2860 H     1 <1>   0.1500 
 25 H       -3.3430     2.5530    -1.6050 H     1 <1>   0.1500 
 26 H       -5.1290    -0.5090    -1.0830 H     1 <1>   0.0800 
 27 H       -5.0790     0.9700    -2.0140 H     1 <1>   0.0800 
 28 H       -6.3330     0.7070     0.6350 H     1 <1>   0.4500 
 29 H       -7.5800    -0.6230    -0.9330 H     1 <1>   0.0800 
 30 H       -7.6400     0.7350    -2.0210 H     1 <1>   0.0800 
 31 H       -6.4130     2.9420    -1.2870 H     1 <1>   0.0800 
 32 H       -5.6040     2.9400     0.2550 H     1 <1>   0.0800 
 33 H       -9.0020     0.5440     0.6720 H     1 <1>   0.0800 
 34 H       -9.7590     0.6010    -0.8950 H     1 <1>   0.0800 
 35 H       -7.8040     4.1270     0.2740 H     1 <1>   0.0800 
 36 H       -7.7370     2.8260     1.4290 H     1 <1>   0.0800 
 37 H      -10.4100     3.7900    -1.9440 H     1 <1>   0.1500 
 38 H      -10.2170     2.3850     2.0740 H     1 <1>   0.1500 
 39 H      -12.6080     4.8460    -1.4670 H     1 <1>   0.1500 
 40 H      -12.4070     3.4380     2.5500 H     1 <1>   0.1500 
@<TRIPOS>BOND
  1   1   2  1   
  2   2   3  ar  
  3   2   4  ar  
  4   3   5  1   
  5   3   6  ar  
  6   4   7  ar  
  7   4  23  1   
  8   6   8  ar  
  9   6  24  1   
 10   7   8  ar  
 11   7   9  1   
 12   8  25  1   
 13   9  10  1   
 14   9  26  1   
 15   9  27  1   
 16  10  11  1   
 17  10  12  1   
 18  10  28  1   
 19  11  13  1   
 20  11  29  1   
 21  11  30  1   
 22  12  14  1   
 23  12  31  1   
 24  12  32  1   
 25  13  15  1   
 26  13  33  1   
 27  13  34  1   
 28  14  15  1   
 29  14  35  1   
 30  14  36  1   
 31  15  16  1   
 32  16  17  ar  
 33  16  18  ar  
 34  17  19  ar  
 35  17  37  1   
 36  18  20  ar  
 37  18  38  1   
 38  19  21  ar  
 39  19  39  1   
 40  20  21  ar  
 41  20  40  1   
 42  21  22  1   
@<TRIPOS>SUBSTRUCTURE
  1 ****  12 GROUP 4 **** **** 0

# MOE 2024.06 (io_trps.svl 2023.06)
