@<TRIPOS>MOLECULE
NONAME
60 63 1 0 0 
SMALL
USER_CHARGES


@<TRIPOS>ATOM
  1 O        1.1200    -0.4680    -1.4660 O.2   1 <1>  -0.5700 
  2 C        0.6110    -1.5690    -1.4330 C.2   1 <1>   0.6900 
  3 N       -0.5320    -1.9020    -2.1050 N.am  1 <1>  -0.4200 
  4 N        1.1090    -2.6310    -0.7390 N.am  1 <1>  -0.6600 
  5 C       -0.8120    -3.2200    -1.9100 C.2   1 <1>   0.5690 
  6 C       -1.2780    -0.9680    -2.9800 C.3   1 <1>   0.0600 
  7 C        0.2630    -3.8250    -1.0010 C.3   1 <1>   0.2810 
  8 C        2.4710    -2.7270    -0.1560 C.3   1 <1>   0.0600 
  9 O       -1.7660    -3.8120    -2.3590 O.2   1 <1>  -0.5700 
 10 C       -0.2830    -4.3830     0.3160 C.3   1 <1>  -0.0990 
 11 C       -0.9980    -5.6910     0.0450 C.2   1 <1>   0.5690 
 12 O       -0.2830    -6.6480    -0.1160 O.2   1 <1>  -0.5700 
 13 N       -2.3650    -5.8090    -0.0450 N.am  1 <1>  -0.6600 
 14 C       -2.9440    -7.0410    -0.6770 C.3   1 <1>   0.1400 
 15 C       -3.3610    -4.7110     0.1860 C.3   1 <1>   0.1400 
 16 C       -4.2020    -7.5260     0.0600 C.3   1 <1>   0.3430 
 17 C       -4.6210    -5.2300     0.9040 C.3   1 <1>   0.3430 
 18 N       -5.2150    -6.4250     0.2120 N.4   1 <1>  -0.9590 
 19 C       -6.4530    -6.9080     0.8770 C.3   1 <1>   0.7100 
 20 C       -7.0620    -8.0720     0.0960 C.ar  1 <1>  -0.1440 
 21 C       -7.4220    -5.7450     1.0670 C.ar  1 <1>  -0.1440 
 22 C       -7.1550    -8.0870    -1.2940 C.ar  1 <1>  -0.1500 
 23 C       -7.5280    -9.1690     0.8090 C.ar  1 <1>  -0.1500 
 24 C       -7.6990    -5.3100     2.3580 C.ar  1 <1>  -0.1500 
 25 C       -8.0220    -5.0910    -0.0050 C.ar  1 <1>  -0.1500 
 26 C       -7.6960    -9.1790    -1.9500 C.ar  1 <1>  -0.1500 
 27 C       -8.0680   -10.2600     0.1520 C.ar  1 <1>  -0.1500 
 28 C       -8.5460    -4.2370     2.5730 C.ar  1 <1>  -0.1500 
 29 C       -8.8690    -4.0190     0.2120 C.ar  1 <1>  -0.1500 
 30 C       -8.1510   -10.2670    -1.2280 C.ar  1 <1>  -0.1500 
 31 C       -9.1280    -3.5900     1.5000 C.ar  1 <1>  -0.1500 
 32 H       -0.6580    -0.6880    -3.8130 H     1 <1>   0.0800 
 33 H       -1.5370    -0.0840    -2.4240 H     1 <1>   0.0800 
 34 H       -2.1750    -1.4360    -3.3460 H     1 <1>   0.0800 
 35 H        0.8280    -4.5660    -1.5390 H     1 <1>   0.0800 
 36 H        2.9780    -1.7810    -0.2480 H     1 <1>   0.0800 
 37 H        3.0410    -3.4780    -0.6730 H     1 <1>   0.0800 
 38 H        2.4070    -2.9830     0.8870 H     1 <1>   0.0800 
 39 H       -0.9020    -3.6590     0.8020 H     1 <1>   0.0800 
 40 H        0.5410    -4.6010     0.9700 H     1 <1>   0.0800 
 41 H       -2.2260    -7.8430    -0.6810 H     1 <1>   0.0800 
 42 H       -3.1850    -6.8260    -1.7040 H     1 <1>   0.0800 
 43 H       -3.6460    -4.2860    -0.7610 H     1 <1>   0.0800 
 44 H       -2.9410    -3.9250     0.7830 H     1 <1>   0.0800 
 45 H       -3.9080    -7.8920     1.0300 H     1 <1>   0.0800 
 46 H       -4.6280    -8.3530    -0.4870 H     1 <1>   0.0800 
 47 H       -5.3450    -4.4310     0.9500 H     1 <1>   0.0800 
 48 H       -4.3550    -5.4910     1.9150 H     1 <1>   0.0800 
 49 H       -5.5080    -6.1280    -0.7220 H     1 <1>   0.4500 
 50 H       -6.1900    -7.2760     1.8550 H     1 <1>   0.0800 
 51 H       -6.8190    -7.2620    -1.8950 H     1 <1>   0.1500 
 52 H       -7.4830    -9.1930     1.8850 H     1 <1>   0.1500 
 53 H       -7.2660    -5.7980     3.2160 H     1 <1>   0.1500 
 54 H       -7.8530    -5.4010    -1.0200 H     1 <1>   0.1500 
 55 H       -7.7680    -9.1870    -3.0250 H     1 <1>   0.1500 
 56 H       -8.4290   -11.1070     0.7120 H     1 <1>   0.1500 
 57 H       -8.7590    -3.9050     3.5760 H     1 <1>   0.1500 
 58 H       -9.3340    -3.5170    -0.6200 H     1 <1>   0.1500 
 59 H       -8.5730   -11.1160    -1.7390 H     1 <1>   0.1500 
 60 H       -9.7890    -2.7560     1.6680 H     1 <1>   0.1500 
@<TRIPOS>BOND
  1   1   2  2   
  2   2   3  am  
  3   2   4  am  
  4   3   5  am  
  5   3   6  1   
  6   4   7  1   
  7   4   8  1   
  8   5   7  1   
  9   5   9  2   
 10   6  32  1   
 11   6  33  1   
 12   6  34  1   
 13   7  10  1   
 14   7  35  1   
 15   8  36  1   
 16   8  37  1   
 17   8  38  1   
 18  10  11  1   
 19  10  39  1   
 20  10  40  1   
 21  11  12  2   
 22  11  13  am  
 23  13  14  1   
 24  13  15  1   
 25  14  16  1   
 26  14  41  1   
 27  14  42  1   
 28  15  17  1   
 29  15  43  1   
 30  15  44  1   
 31  16  18  1   
 32  16  45  1   
 33  16  46  1   
 34  17  18  1   
 35  17  47  1   
 36  17  48  1   
 37  18  19  1   
 38  18  49  1   
 39  19  20  1   
 40  19  21  1   
 41  19  50  1   
 42  20  22  ar  
 43  20  23  ar  
 44  21  24  ar  
 45  21  25  ar  
 46  22  26  ar  
 47  22  51  1   
 48  23  27  ar  
 49  23  52  1   
 50  24  28  ar  
 51  24  53  1   
 52  25  29  ar  
 53  25  54  1   
 54  26  30  ar  
 55  26  55  1   
 56  27  30  ar  
 57  27  56  1   
 58  28  31  ar  
 59  28  57  1   
 60  29  31  ar  
 61  29  58  1   
 62  30  59  1   
 63  31  60  1   
@<TRIPOS>SUBSTRUCTURE
  1 ****  15 GROUP 4 **** **** 0

# MOE 2024.06 (io_trps.svl 2023.06)
