@<TRIPOS>MOLECULE
NONAME
55 58 1 0 0 
SMALL
USER_CHARGES


@<TRIPOS>ATOM
  1 F       -9.7360     5.1650    -1.3840 F     1 <1>  -0.1900 
  2 C       -9.7180     4.0490    -0.7120 C.ar  1 <1>   0.1900 
  3 C       -9.9430     4.0810     0.6500 C.ar  1 <1>  -0.1500 
  4 C       -9.4730     2.8670    -1.3810 C.ar  1 <1>  -0.1500 
  5 C       -9.9220     2.8900     1.3540 C.ar  1 <1>  -0.1500 
  6 C       -9.4560     1.6860    -0.6600 C.ar  1 <1>  -0.1500 
  7 C       -9.6800     1.6630     0.7240 C.ar  1 <1>   0.0860 
  8 C       -9.6680     0.4240     1.4950 C.2   1 <1>   0.5440 
  9 O       -9.8630     0.4480     2.6960 O.2   1 <1>  -0.5700 
 10 N       -9.4090    -0.8030     0.9170 N.am  1 <1>  -0.6600 
 11 C      -10.2180    -2.0200     1.3120 C.3   1 <1>   0.2200 
 12 C       -7.9680    -1.1000     0.5720 C.3   1 <1>   0.1400 
 13 C      -10.1500    -3.1410     0.2380 C.3   1 <1>  -0.1600 
 14 C      -11.7070    -1.7210     1.6510 C.3   1 <1>  -0.1600 
 15 C       -6.9300    -0.1570     1.2000 C.3   1 <1>  -0.0170 
 16 C      -11.2580    -3.0820    -0.8310 C.3   1 <1>   0.4230 
 17 C      -12.6780    -1.7890     0.4600 C.3   1 <1>   0.4230 
 18 C       -5.5360    -0.6360     0.8360 C.ar  1 <1>  -0.1440 
 19 N      -12.5840    -3.1170    -0.1810 N.4   1 <1>  -0.9590 
 20 C      -11.3050    -1.7300    -1.5420 C.3   1 <1>  -0.1600 
 21 C      -12.2590    -0.8740    -0.6910 C.3   1 <1>  -0.1600 
 22 C       -4.9210    -0.1850    -0.3220 C.ar  1 <1>  -0.1500 
 23 C       -4.8690    -1.5350     1.6550 C.ar  1 <1>  -0.1500 
 24 C      -12.8930    -4.3050     0.6800 C.3   1 <1>   0.2630 
 25 C       -3.6560    -0.6320    -0.6610 C.ar  1 <1>  -0.1500 
 26 C       -3.6030    -1.9820     1.3160 C.ar  1 <1>  -0.1500 
 27 C       -2.9970    -1.5320     0.1570 C.ar  1 <1>  -0.1500 
 28 H      -10.1300     5.0190     1.1430 H     1 <1>   0.1500 
 29 H       -9.3000     2.8810    -2.4430 H     1 <1>   0.1500 
 30 H      -10.0940     2.9100     2.4170 H     1 <1>   0.1500 
 31 H       -9.2640     0.7700    -1.1850 H     1 <1>   0.1500 
 32 H       -9.7570    -2.3930     2.2120 H     1 <1>   0.0800 
 33 H       -7.8520    -1.0850    -0.4970 H     1 <1>   0.0800 
 34 H       -7.7190    -2.0900     0.9140 H     1 <1>   0.0800 
 35 H      -10.2150    -4.0890     0.7390 H     1 <1>   0.0800 
 36 H       -9.2040    -3.1580    -0.2660 H     1 <1>   0.0800 
 37 H      -12.0270    -2.4340     2.3870 H     1 <1>   0.0800 
 38 H      -11.8360    -0.7720     2.1310 H     1 <1>   0.0800 
 39 H       -7.0380    -0.1520     2.2710 H     1 <1>   0.0800 
 40 H       -7.0530     0.8480     0.8390 H     1 <1>   0.0800 
 41 H      -11.1440    -3.8900    -1.5370 H     1 <1>   0.0800 
 42 H      -13.6850    -1.5740     0.7820 H     1 <1>   0.0800 
 43 H      -13.2700    -3.1010    -0.9460 H     1 <1>   0.4500 
 44 H      -11.7020    -1.8560    -2.5350 H     1 <1>   0.0800 
 45 H      -10.3260    -1.2950    -1.6280 H     1 <1>   0.0800 
 46 H      -11.8010     0.0300    -0.3330 H     1 <1>   0.0800 
 47 H      -13.1260    -0.5990    -1.2660 H     1 <1>   0.0800 
 48 H       -5.4210     0.5170    -0.9660 H     1 <1>   0.1500 
 49 H       -5.3280    -1.8900     2.5610 H     1 <1>   0.1500 
 50 H      -12.8240    -5.2120     0.1010 H     1 <1>   0.0800 
 51 H      -13.8920    -4.2270     1.0770 H     1 <1>   0.0800 
 52 H      -12.2020    -4.3710     1.5040 H     1 <1>   0.0800 
 53 H       -3.1820    -0.2790    -1.5610 H     1 <1>   0.1500 
 54 H       -3.0900    -2.6790     1.9560 H     1 <1>   0.1500 
 55 H       -2.0130    -1.8790    -0.1060 H     1 <1>   0.1500 
@<TRIPOS>BOND
  1   1   2  1   
  2   2   3  ar  
  3   2   4  ar  
  4   3   5  ar  
  5   3  28  1   
  6   4   6  ar  
  7   4  29  1   
  8   5   7  ar  
  9   5  30  1   
 10   6   7  ar  
 11   6  31  1   
 12   7   8  1   
 13   8   9  2   
 14   8  10  am  
 15  10  11  1   
 16  10  12  1   
 17  11  13  1   
 18  11  14  1   
 19  11  32  1   
 20  12  15  1   
 21  12  33  1   
 22  12  34  1   
 23  13  16  1   
 24  13  35  1   
 25  13  36  1   
 26  14  17  1   
 27  14  37  1   
 28  14  38  1   
 29  15  18  1   
 30  15  39  1   
 31  15  40  1   
 32  16  19  1   
 33  16  20  1   
 34  16  41  1   
 35  17  19  1   
 36  17  21  1   
 37  17  42  1   
 38  18  22  ar  
 39  18  23  ar  
 40  19  24  1   
 41  19  43  1   
 42  20  21  1   
 43  20  44  1   
 44  20  45  1   
 45  21  46  1   
 46  21  47  1   
 47  22  25  ar  
 48  22  48  1   
 49  23  26  ar  
 50  23  49  1   
 51  24  50  1   
 52  24  51  1   
 53  24  52  1   
 54  25  27  ar  
 55  25  53  1   
 56  26  27  ar  
 57  26  54  1   
 58  27  55  1   
@<TRIPOS>SUBSTRUCTURE
  1 ****  10 GROUP 4 **** **** 0

# MOE 2024.06 (io_trps.svl 2023.06)
