@<TRIPOS>MOLECULE
NONAME
38 41 1 0 0 
SMALL
USER_CHARGES


@<TRIPOS>ATOM
  1 CL      -0.4330    -0.9290    -1.2910 Cl    1 <1>  -0.1770 
  2 C        1.2760    -0.6830    -0.9950 C.ar  1 <1>   0.1770 
  3 C        1.8080     0.6040    -1.0450 C.ar  1 <1>   0.1170 
  4 C        2.0630    -1.7820    -0.7160 C.ar  1 <1>  -0.1500 
  5 N        0.9860     1.7120    -1.3160 N.am  1 <1>  -0.5470 
  6 C        3.1740     0.7470    -0.8360 C.ar  1 <1>  -0.1500 
  7 C        3.4160    -1.6090    -0.4850 C.ar  1 <1>  -0.1500 
  8 C        0.9140     2.9460    -0.7500 C.2   1 <1>   0.5690 
  9 C        3.9910    -0.3400    -0.5410 C.ar  1 <1>   0.1170 
 10 O        0.1200     3.7470    -1.1680 O.2   1 <1>  -0.5700 
 11 C        1.7910     3.3380     0.4170 C.3   1 <1>  -0.1790 
 12 N        5.3740    -0.1560    -0.3000 N.am  1 <1>  -0.2370 
 13 C        5.9150     0.9290     0.3900 C.2   1 <1>   0.5690 
 14 C        6.3800    -1.0330    -0.7050 C.2   1 <1>   0.5690 
 15 O        5.3320     1.7430     1.0600 O.2   1 <1>  -0.5700 
 16 C        7.3950     0.9550     0.1280 C.3   1 <1>  -0.0190 
 17 O        6.2960    -1.9440    -1.4860 O.2   1 <1>  -0.5700 
 18 C        7.6330    -0.6830     0.0520 C.3   1 <1>  -0.0190 
 19 C        8.8070     1.6150     0.6500 C.3   1 <1>   0.0580 
 20 C        9.2710    -0.9530     0.0710 C.3   1 <1>   0.0580 
 21 C       10.3960     1.2450     0.6530 C.2   1 <1>  -0.2880 
 22 C        9.0130     0.3140     0.3870 C.3   1 <1>  -0.1600 
 23 C       10.6460    -0.1070     0.3730 C.2   1 <1>  -0.2880 
 24 H        1.6200    -2.7620    -0.6820 H     1 <1>   0.1500 
 25 H        0.2130     1.5460    -1.9630 H     1 <1>   0.3700 
 26 H        3.6080     1.7260    -0.9090 H     1 <1>   0.1500 
 27 H        4.0250    -2.4690    -0.2660 H     1 <1>   0.1500 
 28 H        1.3150     4.1240     0.9730 H     1 <1>   0.0800 
 29 H        1.9460     2.5020     1.0730 H     1 <1>   0.0800 
 30 H        2.7370     3.6960     0.0590 H     1 <1>   0.0800 
 31 H        7.3320     1.3590    -0.8800 H     1 <1>   0.0800 
 32 H        7.3200    -1.1190     1.0010 H     1 <1>   0.0800 
 33 H        8.6010     1.9290     1.6660 H     1 <1>   0.0800 
 34 H        9.3520    -1.7300     0.8170 H     1 <1>   0.0800 
 35 H       11.1050     2.0270     0.8740 H     1 <1>   0.1500 
 36 H        9.1470     0.5240    -0.8100 H     1 <1>   0.0800 
 37 H        8.9030     0.0610     1.5320 H     1 <1>   0.0800 
 38 H       11.5920    -0.6220     0.3220 H     1 <1>   0.1500 
@<TRIPOS>BOND
  1   1   2  1   
  2   2   3  ar  
  3   2   4  ar  
  4   3   5  1   
  5   3   6  ar  
  6   4   7  ar  
  7   4  24  1   
  8   5   8  am  
  9   5  25  1   
 10   6   9  ar  
 11   6  26  1   
 12   7   9  ar  
 13   7  27  1   
 14   8  10  2   
 15   8  11  1   
 16   9  12  1   
 17  11  28  1   
 18  11  29  1   
 19  11  30  1   
 20  12  13  am  
 21  12  14  am  
 22  13  15  2   
 23  13  16  1   
 24  14  17  2   
 25  14  18  1   
 26  16  18  1   
 27  16  19  1   
 28  16  31  1   
 29  18  20  1   
 30  18  32  1   
 31  19  21  1   
 32  19  22  1   
 33  19  33  1   
 34  20  22  1   
 35  20  23  1   
 36  20  34  1   
 37  21  23  2   
 38  21  35  1   
 39  22  36  1   
 40  22  37  1   
 41  23  38  1   
@<TRIPOS>SUBSTRUCTURE
  1 ****  12 GROUP 4 **** **** 0

# MOE 2024.06 (io_trps.svl 2023.06)
