@<TRIPOS>MOLECULE
NONAME
47 48 1 0 0 
SMALL
USER_CHARGES


@<TRIPOS>ATOM
  1 O       -0.5830     0.1100     0.2540 O.3   1 <1>  -0.5320 
  2 C       -1.6760     0.8850     0.1910 C.ar  1 <1>   0.0830 
  3 C       -2.2310     1.1700    -1.0420 C.ar  1 <1>  -0.1500 
  4 C       -2.2400     1.3940     1.3490 C.ar  1 <1>  -0.1500 
  5 C       -3.3580     1.9690    -1.1210 C.ar  1 <1>  -0.1500 
  6 C       -3.3690     2.1920     1.2660 C.ar  1 <1>  -0.1500 
  7 C       -3.9350     2.4830     0.0320 C.ar  1 <1>  -0.1430 
  8 C       -5.1770     3.3510    -0.0600 C.3   1 <1>  -0.0170 
  9 C       -6.4250     2.4560    -0.1400 C.3   1 <1>  -0.1600 
 10 C       -7.7690     3.2090    -0.0430 C.3   1 <1>   0.4230 
 11 N       -8.9360     2.2790    -0.2070 N.4   1 <1>  -0.9590 
 12 C       -7.8690     4.2840    -1.1320 C.3   1 <1>  -0.2400 
 13 C      -10.2170     2.9350     0.2270 C.3   1 <1>   0.3430 
 14 C       -8.7820     0.9620     0.5040 C.3   1 <1>   0.2630 
 15 C      -11.4510     2.2380    -0.3510 C.3   1 <1>  -0.0170 
 16 C      -12.6770     3.0390     0.0420 C.ar  1 <1>  -0.1430 
 17 C      -13.1390     4.0570    -0.7780 C.ar  1 <1>  -0.1500 
 18 C      -13.3380     2.7680     1.2310 C.ar  1 <1>  -0.1500 
 19 C      -14.2470     4.8000    -0.4100 C.ar  1 <1>  -0.1500 
 20 C      -14.4450     3.5120     1.5990 C.ar  1 <1>  -0.1500 
 21 C      -14.8990     4.5290     0.7790 C.ar  1 <1>  -0.1500 
 22 H       -0.2550    -0.0190     1.1610 H     1 <1>   0.4500 
 23 H       -1.7770     0.7680    -1.9300 H     1 <1>   0.1500 
 24 H       -1.8080     1.1750     2.3080 H     1 <1>   0.1500 
 25 H       -3.7780     2.1870    -2.0870 H     1 <1>   0.1500 
 26 H       -3.7990     2.5860     2.1700 H     1 <1>   0.1500 
 27 H       -5.0920     3.9750    -0.9330 H     1 <1>   0.0800 
 28 H       -5.2300     3.9930     0.8030 H     1 <1>   0.0800 
 29 H       -6.3440     1.7650     0.6800 H     1 <1>   0.0800 
 30 H       -6.3830     1.8990    -1.0590 H     1 <1>   0.0800 
 31 H       -7.8250     3.6810     0.9260 H     1 <1>   0.0800 
 32 H       -9.0020     2.0900    -1.2160 H     1 <1>   0.4500 
 33 H       -7.7290     3.8550    -2.1080 H     1 <1>   0.0800 
 34 H       -7.1090     5.0300    -0.9860 H     1 <1>   0.0800 
 35 H       -8.8060     4.8080    -1.1080 H     1 <1>   0.0800 
 36 H      -10.2410     3.9600    -0.0980 H     1 <1>   0.0800 
 37 H      -10.2820     2.9400     1.3040 H     1 <1>   0.0800 
 38 H       -8.6520     1.1210     1.5620 H     1 <1>   0.0800 
 39 H       -7.9260     0.4260     0.1270 H     1 <1>   0.0800 
 40 H       -9.6520     0.3450     0.3520 H     1 <1>   0.0800 
 41 H      -11.5470     1.2390     0.0320 H     1 <1>   0.0800 
 42 H      -11.3860     2.1940    -1.4230 H     1 <1>   0.0800 
 43 H      -12.6510     4.2820    -1.7100 H     1 <1>   0.1500 
 44 H      -13.0050     1.9780     1.8820 H     1 <1>   0.1500 
 45 H      -14.6050     5.5890    -1.0490 H     1 <1>   0.1500 
 46 H      -14.9580     3.3000     2.5210 H     1 <1>   0.1500 
 47 H      -15.7620     5.1070     1.0650 H     1 <1>   0.1500 
@<TRIPOS>BOND
  1   1   2  1   
  2   1  22  1   
  3   2   3  ar  
  4   2   4  ar  
  5   3   5  ar  
  6   3  23  1   
  7   4   6  ar  
  8   4  24  1   
  9   5   7  ar  
 10   5  25  1   
 11   6   7  ar  
 12   6  26  1   
 13   7   8  1   
 14   8   9  1   
 15   8  27  1   
 16   8  28  1   
 17   9  10  1   
 18   9  29  1   
 19   9  30  1   
 20  10  11  1   
 21  10  12  1   
 22  10  31  1   
 23  11  13  1   
 24  11  14  1   
 25  11  32  1   
 26  12  33  1   
 27  12  34  1   
 28  12  35  1   
 29  13  15  1   
 30  13  36  1   
 31  13  37  1   
 32  14  38  1   
 33  14  39  1   
 34  14  40  1   
 35  15  16  1   
 36  15  41  1   
 37  15  42  1   
 38  16  17  ar  
 39  16  18  ar  
 40  17  19  ar  
 41  17  43  1   
 42  18  20  ar  
 43  18  44  1   
 44  19  21  ar  
 45  19  45  1   
 46  20  21  ar  
 47  20  46  1   
 48  21  47  1   
@<TRIPOS>SUBSTRUCTURE
  1 ****  10 GROUP 4 **** **** 0

# MOE 2024.06 (io_trps.svl 2023.06)
