@<TRIPOS>MOLECULE
NONAME
37 38 1 0 0 
SMALL
USER_CHARGES


@<TRIPOS>ATOM
  1 O        0.5640     0.4210    -0.9390 O.2   1 <1>  -0.5700 
  2 C        0.8880     1.4250    -0.3330 C.2   1 <1>   0.6900 
  3 N        2.1700     1.6100     0.1050 N.am  1 <1>  -0.6600 
  4 N        0.0030     2.4260    -0.0640 N.am  1 <1>  -0.5470 
  5 C        3.0120     0.5150     0.6640 C.3   1 <1>   0.2200 
  6 C        2.9740     2.6870    -0.5290 C.3   1 <1>   0.1400 
  7 C       -1.3390     2.6300    -0.4230 C.ar  1 <1>   0.1170 
  8 C        3.8190    -0.1310    -0.4690 C.3   1 <1>  -0.1600 
  9 C        2.1980    -0.5090     1.4590 C.3   1 <1>  -0.2400 
 10 C        3.8050     2.0930    -1.6740 C.3   1 <1>  -0.1600 
 11 C       -2.1460     3.4580     0.3620 C.ar  1 <1>  -0.1440 
 12 C       -1.8890     2.0440    -1.5590 C.ar  1 <1>  -0.1500 
 13 C        4.6720     0.9140    -1.2060 C.3   1 <1>  -0.1600 
 14 C       -3.4660     3.6800     0.0020 C.ar  1 <1>  -0.1500 
 15 C       -1.6050     4.1260     1.6200 C.3   1 <1>  -0.0970 
 16 C       -3.2060     2.2670    -1.9110 C.ar  1 <1>  -0.1500 
 17 C       -3.9980     3.0880    -1.1300 C.ar  1 <1>  -0.1500 
 18 H        0.3730     3.0790     0.6150 H     1 <1>   0.3700 
 19 H        3.7070     0.9650     1.3520 H     1 <1>   0.0800 
 20 H        3.6220     3.1280     0.2090 H     1 <1>   0.0800 
 21 H        2.3270     3.4560    -0.9160 H     1 <1>   0.0800 
 22 H        3.1400    -0.6010    -1.1600 H     1 <1>   0.0800 
 23 H        4.4590    -0.8960    -0.0660 H     1 <1>   0.0800 
 24 H        1.5670    -1.0920     0.8120 H     1 <1>   0.0800 
 25 H        1.5930    -0.0120     2.1950 H     1 <1>   0.0800 
 26 H        2.8640    -1.1840     1.9650 H     1 <1>   0.0800 
 27 H        4.4310     2.8590    -2.0960 H     1 <1>   0.0800 
 28 H        3.1330     1.7580    -2.4460 H     1 <1>   0.0800 
 29 H       -1.2840     1.4080    -2.1790 H     1 <1>   0.1500 
 30 H        5.1530     0.4570    -2.0540 H     1 <1>   0.0800 
 31 H        5.4390     1.2770    -0.5450 H     1 <1>   0.0800 
 32 H       -4.0940     4.3150     0.6010 H     1 <1>   0.1500 
 33 H       -0.8250     4.8210     1.3630 H     1 <1>   0.0800 
 34 H       -1.2120     3.3830     2.2910 H     1 <1>   0.0800 
 35 H       -2.3800     4.6640     2.1350 H     1 <1>   0.0800 
 36 H       -3.6130     1.8030    -2.7920 H     1 <1>   0.1500 
 37 H       -5.0240     3.2640    -1.4010 H     1 <1>   0.1500 
@<TRIPOS>BOND
  1   1   2  2   
  2   2   3  am  
  3   2   4  am  
  4   3   5  1   
  5   3   6  1   
  6   4   7  1   
  7   4  18  1   
  8   5   8  1   
  9   5   9  1   
 10   5  19  1   
 11   6  10  1   
 12   6  20  1   
 13   6  21  1   
 14   7  11  ar  
 15   7  12  ar  
 16   8  13  1   
 17   8  22  1   
 18   8  23  1   
 19   9  24  1   
 20   9  25  1   
 21   9  26  1   
 22  10  13  1   
 23  10  27  1   
 24  10  28  1   
 25  11  14  ar  
 26  11  15  1   
 27  12  16  ar  
 28  12  29  1   
 29  13  30  1   
 30  13  31  1   
 31  14  17  ar  
 32  14  32  1   
 33  15  33  1   
 34  15  34  1   
 35  15  35  1   
 36  16  17  ar  
 37  16  36  1   
 38  17  37  1   
@<TRIPOS>SUBSTRUCTURE
  1 ****   4 GROUP 4 **** **** 0

# MOE 2024.06 (io_trps.svl 2023.06)
