@<TRIPOS>MOLECULE
NONAME
41 43 1 0 0 
SMALL
USER_CHARGES


@<TRIPOS>ATOM
  1 O       -0.2400     0.5020    -0.0830 O.2   1 <1>  -0.5700 
  2 C       -0.1760     1.6970    -0.2600 C.2   1 <1>   0.5690 
  3 N        1.0210     2.3200    -0.5040 N.am  1 <1>  -0.6600 
  4 C       -1.4600     2.5110    -0.2070 C.3   1 <1>  -0.0990 
  5 C        1.2190     3.7910    -0.6840 C.3   1 <1>   0.1400 
  6 C        2.2990     1.5510    -0.5830 C.3   1 <1>   0.1400 
  7 C       -2.7360     1.6610    -0.0420 C.3   1 <1>  -0.0160 
  8 C        2.3530     4.2980     0.2240 C.3   1 <1>   0.1200 
  9 C        3.3720     2.1870     0.3160 C.3   1 <1>   0.1200 
 10 C       -4.0360     2.4680     0.0030 C.ar  1 <1>   0.1660 
 11 O        3.5180     3.5490     0.0260 O.3   1 <1>  -0.5600 
 12 N       -3.9720     3.7640    -0.0810 N.ar  1 <1>  -0.6200 
 13 C       -5.2630     1.7520     0.1370 C.ar  1 <1>   0.3930 
 14 C       -5.1760     4.3920    -0.0330 C.ar  1 <1>   0.3100 
 15 O       -5.1960     0.4050     0.2160 O.3   1 <1>  -0.3630 
 16 N       -6.4340     2.3240     0.1870 N.ar  1 <1>  -0.6200 
 17 C       -6.3920     3.6760     0.1000 C.ar  1 <1>   0.3100 
 18 C       -5.2220     5.7920    -0.1160 C.ar  1 <1>  -0.1500 
 19 C       -6.3580    -0.3890     0.3520 C.3   1 <1>   0.0400 
 20 C       -7.5950     4.3980     0.1430 C.ar  1 <1>  -0.1500 
 21 C       -6.4120     6.4720    -0.0710 C.ar  1 <1>  -0.1500 
 22 C       -7.6110     5.7670     0.0600 C.ar  1 <1>  -0.1500 
 23 H       -1.5410     3.0760    -1.1170 H     1 <1>   0.0800 
 24 H       -1.3920     3.1940     0.6190 H     1 <1>   0.0800 
 25 H        0.3230     4.3390    -0.4570 H     1 <1>   0.0800 
 26 H        1.4780     3.9880    -1.7100 H     1 <1>   0.0800 
 27 H        2.6470     1.5460    -1.6010 H     1 <1>   0.0800 
 28 H        2.1490     0.5290    -0.2820 H     1 <1>   0.0800 
 29 H       -2.6580     1.0910     0.8680 H     1 <1>   0.0800 
 30 H       -2.7950     0.9640    -0.8590 H     1 <1>   0.0800 
 31 H        2.0700     4.2280     1.2600 H     1 <1>   0.0800 
 32 H        2.5810     5.3240    -0.0040 H     1 <1>   0.0800 
 33 H        4.3230     1.7120     0.1500 H     1 <1>   0.0800 
 34 H        3.1070     2.0790     1.3530 H     1 <1>   0.0800 
 35 H       -4.2890     6.3160    -0.2160 H     1 <1>   0.1500 
 36 H       -6.0600    -1.4210     0.3950 H     1 <1>   0.0800 
 37 H       -6.9940    -0.2210    -0.4990 H     1 <1>   0.0800 
 38 H       -6.8640    -0.1110     1.2600 H     1 <1>   0.0800 
 39 H       -8.5080     3.8400     0.2440 H     1 <1>   0.1500 
 40 H       -6.4370     7.5470    -0.1360 H     1 <1>   0.1500 
 41 H       -8.5410     6.3100     0.0940 H     1 <1>   0.1500 
@<TRIPOS>BOND
  1   1   2  2   
  2   2   3  am  
  3   2   4  1   
  4   3   5  1   
  5   3   6  1   
  6   4   7  1   
  7   4  23  1   
  8   4  24  1   
  9   5   8  1   
 10   5  25  1   
 11   5  26  1   
 12   6   9  1   
 13   6  27  1   
 14   6  28  1   
 15   7  10  1   
 16   7  29  1   
 17   7  30  1   
 18   8  11  1   
 19   8  31  1   
 20   8  32  1   
 21   9  11  1   
 22   9  33  1   
 23   9  34  1   
 24  10  12  ar  
 25  10  13  ar  
 26  12  14  ar  
 27  13  15  1   
 28  13  16  ar  
 29  14  17  ar  
 30  14  18  ar  
 31  15  19  1   
 32  16  17  ar  
 33  17  20  ar  
 34  18  21  ar  
 35  18  35  1   
 36  19  36  1   
 37  19  37  1   
 38  19  38  1   
 39  20  22  ar  
 40  20  39  1   
 41  21  22  ar  
 42  21  40  1   
 43  22  41  1   
@<TRIPOS>SUBSTRUCTURE
  1 ****   7 GROUP 4 **** **** 0

# MOE 2024.06 (io_trps.svl 2023.06)
