@<TRIPOS>MOLECULE
NONAME
47 48 1 0 0 
SMALL
USER_CHARGES


@<TRIPOS>ATOM
  1 O        3.7050    -5.7130     0.6730 O.3   1 <1>  -0.3630 
  2 C        4.9530    -5.2910     0.3700 C.ar  1 <1>   0.0830 
  3 C        2.8210    -5.8050    -0.4120 C.3   1 <1>   0.1200 
  4 C        5.9300    -6.2100    -0.0170 C.ar  1 <1>  -0.1440 
  5 C        5.2380    -3.9300     0.4510 C.ar  1 <1>  -0.1440 
  6 C        1.4750    -6.2740     0.1350 C.3   1 <1>  -0.1600 
  7 C        7.1910    -5.7450    -0.3800 C.ar  1 <1>  -0.1430 
  8 C        5.6290    -7.7080    -0.0370 C.3   1 <1>  -0.0960 
  9 C        6.4990    -3.4880     0.0950 C.ar  1 <1>  -0.1500 
 10 C        4.2020    -2.9210     0.9260 C.3   1 <1>  -0.0970 
 11 C        0.4550    -6.4100    -0.9930 C.3   1 <1>   0.3430 
 12 C        7.4630    -4.3870    -0.3210 C.ar  1 <1>  -0.1500 
 13 C        8.2990    -6.6830    -0.8400 C.3   1 <1>  -0.0970 
 14 N       -0.8860    -6.7550    -0.4450 N.4   1 <1>  -0.9590 
 15 C       -0.9440    -8.1520     0.0860 C.3   1 <1>   0.3430 
 16 C       -1.9480    -6.5200    -1.4680 C.3   1 <1>   0.3430 
 17 C       -2.3020    -8.3990     0.7460 C.3   1 <1>  -0.1600 
 18 C       -3.3270    -6.7290    -0.8400 C.3   1 <1>  -0.1600 
 19 C       -3.4620    -8.1260    -0.2200 C.3   1 <1>  -0.1600 
 20 H        3.2290    -6.5070    -1.1190 H     1 <1>   0.0800 
 21 H        2.7470    -4.8320    -0.8690 H     1 <1>   0.0800 
 22 H        1.1310    -5.5500     0.8530 H     1 <1>   0.0800 
 23 H        1.6260    -7.2210     0.6210 H     1 <1>   0.0800 
 24 H        4.7650    -7.9450     0.5550 H     1 <1>   0.0800 
 25 H        6.4530    -8.2630     0.3730 H     1 <1>   0.0800 
 26 H        5.4580    -8.0330    -1.0470 H     1 <1>   0.0800 
 27 H        6.7410    -2.4410     0.1420 H     1 <1>   0.1500 
 28 H        3.5140    -2.7000     0.1320 H     1 <1>   0.0800 
 29 H        4.6760    -2.0080     1.2360 H     1 <1>   0.0800 
 30 H        3.6580    -3.3170     1.7640 H     1 <1>   0.0800 
 31 H        0.7760    -7.1660    -1.6930 H     1 <1>   0.0800 
 32 H        0.3960    -5.4690    -1.5190 H     1 <1>   0.0800 
 33 H        8.4350    -4.0170    -0.5950 H     1 <1>   0.1500 
 34 H        7.9360    -7.3420    -1.6080 H     1 <1>   0.0800 
 35 H        8.6510    -7.2690    -0.0090 H     1 <1>   0.0800 
 36 H        9.1300    -6.1320    -1.2410 H     1 <1>   0.0800 
 37 H       -1.0830    -6.1240     0.3430 H     1 <1>   0.4500 
 38 H       -0.1650    -8.3090     0.8150 H     1 <1>   0.0800 
 39 H       -0.8020    -8.8550    -0.7190 H     1 <1>   0.0800 
 40 H       -1.8200    -7.2050    -2.2910 H     1 <1>   0.0800 
 41 H       -1.8790    -5.5130    -1.8490 H     1 <1>   0.0800 
 42 H       -2.3950    -7.7750     1.6170 H     1 <1>   0.0800 
 43 H       -2.3510    -9.4220     1.0780 H     1 <1>   0.0800 
 44 H       -4.0810    -6.6030    -1.5980 H     1 <1>   0.0800 
 45 H       -3.4980    -5.9760    -0.0900 H     1 <1>   0.0800 
 46 H       -4.4010    -8.2050     0.3030 H     1 <1>   0.0800 
 47 H       -3.4610    -8.8680    -1.0020 H     1 <1>   0.0800 
@<TRIPOS>BOND
  1   1   2  1   
  2   1   3  1   
  3   2   4  ar  
  4   2   5  ar  
  5   3   6  1   
  6   3  20  1   
  7   3  21  1   
  8   4   7  ar  
  9   4   8  1   
 10   5   9  ar  
 11   5  10  1   
 12   6  11  1   
 13   6  22  1   
 14   6  23  1   
 15   7  12  ar  
 16   7  13  1   
 17   8  24  1   
 18   8  25  1   
 19   8  26  1   
 20   9  12  ar  
 21   9  27  1   
 22  10  28  1   
 23  10  29  1   
 24  10  30  1   
 25  11  14  1   
 26  11  31  1   
 27  11  32  1   
 28  12  33  1   
 29  13  34  1   
 30  13  35  1   
 31  13  36  1   
 32  14  15  1   
 33  14  16  1   
 34  14  37  1   
 35  15  17  1   
 36  15  38  1   
 37  15  39  1   
 38  16  18  1   
 39  16  40  1   
 40  16  41  1   
 41  17  19  1   
 42  17  42  1   
 43  17  43  1   
 44  18  19  1   
 45  18  44  1   
 46  18  45  1   
 47  19  46  1   
 48  19  47  1   
@<TRIPOS>SUBSTRUCTURE
  1 ****   3 GROUP 4 **** **** 0

# MOE 2024.06 (io_trps.svl 2023.06)
