@<TRIPOS>MOLECULE
NONAME
34 34 1 0 0 
SMALL
USER_CHARGES


@<TRIPOS>ATOM
  1 O        0.7530    -0.0330    -0.7690 O.3   1 <1>  -0.5600 
  2 C        1.5750     0.6540     0.1040 C.3   1 <1>   0.1200 
  3 C       -0.6070     0.2150    -0.5950 C.3   1 <1>   0.0400 
  4 C        3.0050     0.2500    -0.2460 C.3   1 <1>  -0.1600 
  5 C        4.0080     0.9460     0.6630 C.3   1 <1>   0.3430 
  6 N        5.3720     0.5170     0.2760 N.4   1 <1>  -0.9060 
  7 C        6.4510     1.1140     1.0860 C.3   1 <1>   0.4230 
  8 C        6.6710     2.5650     0.6680 C.3   1 <1>  -0.1600 
  9 C        7.7620     0.4470     0.6890 C.3   1 <1>  -0.1600 
 10 C        7.4720     2.4960    -0.6380 C.3   1 <1>  -0.0800 
 11 C        8.2460     1.1700    -0.5760 C.3   1 <1>  -0.1600 
 12 C        8.3900     3.7090    -0.8180 C.3   1 <1>  -0.2400 
 13 H        1.3200     0.3680     1.1120 H     1 <1>   0.0800 
 14 H        1.4180     1.7110    -0.0360 H     1 <1>   0.0800 
 15 H       -1.1480    -0.3660    -1.3200 H     1 <1>   0.0800 
 16 H       -0.8030     1.2620    -0.7520 H     1 <1>   0.0800 
 17 H       -0.9010    -0.0830     0.3970 H     1 <1>   0.0800 
 18 H        3.1900     0.5210    -1.2710 H     1 <1>   0.0800 
 19 H        3.0900    -0.8170    -0.1360 H     1 <1>   0.0800 
 20 H        3.8140     0.6810     1.6900 H     1 <1>   0.0800 
 21 H        3.9100     2.0150     0.5580 H     1 <1>   0.0800 
 22 H        5.5540     0.7610    -0.7050 H     1 <1>   0.4500 
 23 H        5.4390    -0.5050     0.3380 H     1 <1>   0.4500 
 24 H        6.2490     1.0120     2.1410 H     1 <1>   0.0800 
 25 H        7.2710     3.0380     1.4270 H     1 <1>   0.0800 
 26 H        5.7630     3.1320     0.5650 H     1 <1>   0.0800 
 27 H        7.6770    -0.6170     0.5530 H     1 <1>   0.0800 
 28 H        8.4780     0.6250     1.4740 H     1 <1>   0.0800 
 29 H        6.7880     2.4610    -1.4710 H     1 <1>   0.0800 
 30 H        8.0390     0.5830    -1.4550 H     1 <1>   0.0800 
 31 H        9.3110     1.3300    -0.5250 H     1 <1>   0.0800 
 32 H        9.1030     3.7770    -0.0150 H     1 <1>   0.0800 
 33 H        7.8130     4.6170    -0.8410 H     1 <1>   0.0800 
 34 H        8.9310     3.6310    -1.7450 H     1 <1>   0.0800 
@<TRIPOS>BOND
  1   1   2  1   
  2   1   3  1   
  3   2   4  1   
  4   2  13  1   
  5   2  14  1   
  6   3  15  1   
  7   3  16  1   
  8   3  17  1   
  9   4   5  1   
 10   4  18  1   
 11   4  19  1   
 12   5   6  1   
 13   5  20  1   
 14   5  21  1   
 15   6   7  1   
 16   6  22  1   
 17   6  23  1   
 18   7   8  1   
 19   7   9  1   
 20   7  24  1   
 21   8  10  1   
 22   8  25  1   
 23   8  26  1   
 24   9  11  1   
 25   9  27  1   
 26   9  28  1   
 27  10  11  1   
 28  10  12  1   
 29  10  29  1   
 30  11  30  1   
 31  11  31  1   
 32  12  32  1   
 33  12  33  1   
 34  12  34  1   
@<TRIPOS>SUBSTRUCTURE
  1 ****   6 GROUP 4 **** **** 0

# MOE 2024.06 (io_trps.svl 2023.06)
