@<TRIPOS>MOLECULE
NONAME
46 47 1 0 0 
SMALL
USER_CHARGES


@<TRIPOS>ATOM
  1 O       -0.8570     3.7850     1.4970 O.2   1 <1>  -0.5700 
  2 C        0.0220     2.9750     1.3130 C.2   1 <1>   0.5690 
  3 N       -0.1710     1.8330     0.5860 N.am  1 <1>  -0.5470 
  4 C        1.3990     3.2490     1.9400 C.3   1 <1>   0.2610 
  5 C       -1.3320     1.3940    -0.0630 C.ar  1 <1>   0.1170 
  6 O        2.4340     2.4850     1.3330 O.3   1 <1>  -0.3630 
  7 C        1.4230     2.9060     3.4330 C.3   1 <1>  -0.2400 
  8 C       -2.0700     0.3320     0.4680 C.ar  1 <1>  -0.1440 
  9 C       -1.7430     1.9890    -1.2580 C.ar  1 <1>  -0.1430 
 10 C        2.7140     2.6930     0.0210 C.ar  1 <1>   0.0830 
 11 C       -3.1990    -0.1170    -0.1960 C.ar  1 <1>  -0.1500 
 12 C       -1.6680    -0.3520     1.7710 C.3   1 <1>  -0.0170 
 13 C       -2.8770     1.5280    -1.9030 C.ar  1 <1>  -0.1500 
 14 C       -0.9620     3.1440    -1.8750 C.3   1 <1>  -0.0970 
 15 C        2.6350     1.6230    -0.8720 C.ar  1 <1>   0.0830 
 16 C        3.0660     3.9520    -0.4440 C.ar  1 <1>  -0.1500 
 17 C       -3.6050     0.4770    -1.3760 C.ar  1 <1>  -0.1500 
 18 C       -0.6150    -1.4340     1.5180 C.3   1 <1>  -0.2400 
 19 O        2.2790     0.3850    -0.4550 O.3   1 <1>  -0.3630 
 20 C        2.8780     1.8240    -2.2190 C.ar  1 <1>  -0.1500 
 21 C        3.3170     4.1460    -1.7930 C.ar  1 <1>  -0.1500 
 22 C        3.2650    -0.3380     0.2480 C.3   1 <1>   0.0400 
 23 C        3.2200     3.0850    -2.6800 C.ar  1 <1>  -0.1500 
 24 H        0.6700     1.2710     0.4080 H     1 <1>   0.3700 
 25 H        1.6300     4.2900     1.8150 H     1 <1>   0.0800 
 26 H        1.2030     1.8640     3.5780 H     1 <1>   0.0800 
 27 H        0.6780     3.4870     3.9480 H     1 <1>   0.0800 
 28 H        2.3860     3.1360     3.8510 H     1 <1>   0.0800 
 29 H       -3.7720    -0.9350     0.2040 H     1 <1>   0.1500 
 30 H       -2.5340    -0.8000     2.2260 H     1 <1>   0.0800 
 31 H       -1.2880     0.3750     2.4680 H     1 <1>   0.0800 
 32 H       -3.2030     1.9830    -2.8210 H     1 <1>   0.1500 
 33 H       -1.0540     4.0160    -1.2520 H     1 <1>   0.0800 
 34 H       -1.3330     3.3840    -2.8540 H     1 <1>   0.0800 
 35 H        0.0770     2.8860    -1.9610 H     1 <1>   0.0800 
 36 H        3.1520     4.7800     0.2360 H     1 <1>   0.1500 
 37 H       -4.4840     0.1230    -1.8830 H     1 <1>   0.1500 
 38 H       -1.0020    -2.1740     0.8400 H     1 <1>   0.0800 
 39 H       -0.3460    -1.9140     2.4410 H     1 <1>   0.0800 
 40 H        0.2670    -1.0000     1.0830 H     1 <1>   0.0800 
 41 H        2.7970     0.9960    -2.9000 H     1 <1>   0.1500 
 42 H        3.5870     5.1230    -2.1540 H     1 <1>   0.1500 
 43 H        2.8790    -1.3190     0.4570 H     1 <1>   0.0800 
 44 H        3.4910     0.1720     1.1670 H     1 <1>   0.0800 
 45 H        4.1460    -0.4100    -0.3660 H     1 <1>   0.0800 
 46 H        3.4120     3.2400    -3.7280 H     1 <1>   0.1500 
@<TRIPOS>BOND
  1   1   2  2   
  2   2   3  am  
  3   2   4  1   
  4   3   5  1   
  5   3  24  1   
  6   4   6  1   
  7   4   7  1   
  8   4  25  1   
  9   5   8  ar  
 10   5   9  ar  
 11   6  10  1   
 12   7  26  1   
 13   7  27  1   
 14   7  28  1   
 15   8  11  ar  
 16   8  12  1   
 17   9  13  ar  
 18   9  14  1   
 19  10  15  ar  
 20  10  16  ar  
 21  11  17  ar  
 22  11  29  1   
 23  12  18  1   
 24  12  30  1   
 25  12  31  1   
 26  13  17  ar  
 27  13  32  1   
 28  14  33  1   
 29  14  34  1   
 30  14  35  1   
 31  15  19  1   
 32  15  20  ar  
 33  16  21  ar  
 34  16  36  1   
 35  17  37  1   
 36  18  38  1   
 37  18  39  1   
 38  18  40  1   
 39  19  22  1   
 40  20  23  ar  
 41  20  41  1   
 42  21  23  ar  
 43  21  42  1   
 44  22  43  1   
 45  22  44  1   
 46  22  45  1   
 47  23  46  1   
@<TRIPOS>SUBSTRUCTURE
  1 ****   3 GROUP 4 **** **** 0

# MOE 2024.06 (io_trps.svl 2023.06)
