@<TRIPOS>MOLECULE
NONAME
45 47 1 0 0 
SMALL
USER_CHARGES


@<TRIPOS>ATOM
  1 O        0.5490    -0.5640    -1.7670 O.2   1 <1>  -0.5700 
  2 C        0.1180    -1.6760    -1.9950 C.2   1 <1>   0.5440 
  3 N        0.6450    -2.6840    -1.2490 N.am  1 <1>  -0.7300 
  4 C       -0.9240    -1.8870    -2.9700 C.ar  1 <1>   0.0860 
  5 C       -0.0170    -3.9740    -0.9020 C.3   1 <1>   0.1400 
  6 C       -2.1210    -1.1530    -2.9030 C.ar  1 <1>   0.4100 
  7 C       -0.7860    -2.8240    -3.9850 C.ar  1 <1>  -0.1500 
  8 C       -0.8460    -3.8540     0.3860 C.3   1 <1>   0.2000 
  9 N       -3.1360    -1.3230    -3.7490 N.ar  1 <1>  -0.6200 
 10 N       -2.2710    -0.1890    -1.9200 N.pl3 1 <1>  -0.6000 
 11 C       -1.8330    -2.9890    -4.8620 C.ar  1 <1>  -0.1500 
 12 O       -1.4010    -5.0920     0.6840 O.3   1 <1>  -0.5600 
 13 C       -2.0450    -2.9190     0.3000 C.3   1 <1>  -0.1600 
 14 C       -2.9730    -2.2220    -4.6990 C.ar  1 <1>   0.1600 
 15 C       -3.3930     0.2710    -1.2170 C.ar  1 <1>   0.1000 
 16 C       -2.5390    -4.9450     1.4780 C.3   1 <1>   0.1200 
 17 C       -2.9840    -3.4900     1.3450 C.3   1 <1>  -0.1600 
 18 C       -3.2930     1.4590    -0.5050 C.ar  1 <1>  -0.1500 
 19 C       -4.5960    -0.4270    -1.1740 C.ar  1 <1>  -0.1500 
 20 C       -4.3640     1.9400     0.2270 C.ar  1 <1>  -0.1500 
 21 C       -5.6720     0.0490    -0.4450 C.ar  1 <1>  -0.1500 
 22 C       -5.5600     1.2420     0.2630 C.ar  1 <1>   0.0830 
 23 O       -6.5650     1.7840     1.0020 O.3   1 <1>  -0.3620 
 24 C       -7.8460     1.1940     1.0220 C.3   1 <1>   0.0400 
 25 H        1.3910    -2.3900    -0.6130 H     1 <1>   0.3700 
 26 H        0.7410    -4.7250    -0.7610 H     1 <1>   0.0800 
 27 H       -0.6600    -4.2890    -1.7040 H     1 <1>   0.0800 
 28 H        0.1190    -3.4000    -4.0780 H     1 <1>   0.1500 
 29 H       -0.2140    -3.5830     1.2150 H     1 <1>   0.0800 
 30 H       -1.3710     0.2030    -1.6110 H     1 <1>   0.4000 
 31 H       -1.7730    -3.7020    -5.6650 H     1 <1>   0.1500 
 32 H       -2.4970    -2.9910    -0.6730 H     1 <1>   0.0800 
 33 H       -1.7780    -1.8960     0.4960 H     1 <1>   0.0800 
 34 H       -3.7900    -2.3560    -5.3880 H     1 <1>   0.1500 
 35 H       -2.2800    -5.1870     2.4950 H     1 <1>   0.0800 
 36 H       -3.2890    -5.6270     1.1170 H     1 <1>   0.0800 
 37 H       -4.0140    -3.4130     1.0450 H     1 <1>   0.0800 
 38 H       -2.8550    -2.9870     2.2870 H     1 <1>   0.0800 
 39 H       -2.3730     2.0140    -0.5250 H     1 <1>   0.1500 
 40 H       -4.6910    -1.3500    -1.7130 H     1 <1>   0.1500 
 41 H       -4.2810     2.8610     0.7740 H     1 <1>   0.1500 
 42 H       -6.5810    -0.5210    -0.4420 H     1 <1>   0.1500 
 43 H       -8.4840     1.8030     1.6350 H     1 <1>   0.0800 
 44 H       -7.7690     0.2070     1.4410 H     1 <1>   0.0800 
 45 H       -8.2290     1.1590     0.0170 H     1 <1>   0.0800 
@<TRIPOS>BOND
  1   1   2  2   
  2   2   3  am  
  3   2   4  1   
  4   3   5  1   
  5   3  25  1   
  6   4   6  ar  
  7   4   7  ar  
  8   5   8  1   
  9   5  26  1   
 10   5  27  1   
 11   6   9  ar  
 12   6  10  1   
 13   7  11  ar  
 14   7  28  1   
 15   8  12  1   
 16   8  13  1   
 17   8  29  1   
 18   9  14  ar  
 19  10  15  1   
 20  10  30  1   
 21  11  14  ar  
 22  11  31  1   
 23  12  16  1   
 24  13  17  1   
 25  13  32  1   
 26  13  33  1   
 27  14  34  1   
 28  15  18  ar  
 29  15  19  ar  
 30  16  17  1   
 31  16  35  1   
 32  16  36  1   
 33  17  37  1   
 34  17  38  1   
 35  18  20  ar  
 36  18  39  1   
 37  19  21  ar  
 38  19  40  1   
 39  20  22  ar  
 40  20  41  1   
 41  21  22  ar  
 42  21  42  1   
 43  22  23  1   
 44  23  24  1   
 45  24  43  1   
 46  24  44  1   
 47  24  45  1   
@<TRIPOS>SUBSTRUCTURE
  1 ****  10 GROUP 4 **** **** 0

# MOE 2024.06 (io_trps.svl 2023.06)
