@<TRIPOS>MOLECULE
NONAME
34 34 1 0 0 
SMALL
USER_CHARGES


@<TRIPOS>ATOM
  1 S        1.8820     0.8970    -2.3690 S.3   1 <1>  -0.0800 
  2 C        2.2540     0.9600    -0.6420 C.2   1 <1>  -0.0450 
  3 C        0.2160     1.3580    -2.1050 C.2   1 <1>  -0.1100 
  4 C        3.5940     0.6530    -0.2130 C.2   1 <1>   0.7150 
  5 C        1.1260     1.3180     0.0280 C.2   1 <1>  -0.1500 
  6 C       -0.0170     1.5410    -0.7940 C.2   1 <1>  -0.1500 
  7 O        4.4590     0.3230    -1.0040 O.2   1 <1>  -0.5700 
  8 N        3.9230     0.7500     1.1120 N.am  1 <1>  -0.7300 
  9 C        5.1990     0.4100     1.7980 C.3   1 <1>   0.1400 
 10 C        6.4150     1.1190     1.1650 C.3   1 <1>  -0.0800 
 11 C        7.1180     0.1760     0.1710 C.3   1 <1>   0.3430 
 12 C        7.4020     1.5860     2.2490 C.3   1 <1>  -0.2400 
 13 N        7.9420     0.9370    -0.8160 N.4   1 <1>  -0.9590 
 14 C        7.0600     1.5200    -1.8790 C.3   1 <1>   0.2630 
 15 C        8.9700     0.0510    -1.4350 C.3   1 <1>   0.2630 
 16 H       -0.4200     1.4450    -2.9690 H     1 <1>   0.1500 
 17 H        1.0480     1.4370     1.0940 H     1 <1>   0.1500 
 18 H       -0.9630     1.8290    -0.3670 H     1 <1>   0.1500 
 19 H        3.1590     0.9980     1.7440 H     1 <1>   0.3700 
 20 H        5.3330    -0.6590     1.7960 H     1 <1>   0.0800 
 21 H        5.1040     0.7190     2.8260 H     1 <1>   0.0800 
 22 H        6.0500     1.9940     0.6550 H     1 <1>   0.0800 
 23 H        6.3940    -0.4220    -0.3560 H     1 <1>   0.0800 
 24 H        7.7470    -0.5000     0.7280 H     1 <1>   0.0800 
 25 H        7.7770     0.7500     2.8150 H     1 <1>   0.0800 
 26 H        6.9130     2.2620     2.9310 H     1 <1>   0.0800 
 27 H        8.2360     2.1090     1.8150 H     1 <1>   0.0800 
 28 H        8.4110     1.7040    -0.3130 H     1 <1>   0.4500 
 29 H        6.5270     0.7350    -2.3930 H     1 <1>   0.0800 
 30 H        7.6440     2.0720    -2.5960 H     1 <1>   0.0800 
 31 H        6.3310     2.1840    -1.4430 H     1 <1>   0.0800 
 32 H        8.4940    -0.7620    -1.9610 H     1 <1>   0.0800 
 33 H        9.6170    -0.3600    -0.6770 H     1 <1>   0.0800 
 34 H        9.5710     0.6080    -2.1350 H     1 <1>   0.0800 
@<TRIPOS>BOND
  1   1   2  1   
  2   1   3  1   
  3   2   4  1   
  4   2   5  2   
  5   3   6  2   
  6   3  16  1   
  7   4   7  2   
  8   4   8  am  
  9   5   6  1   
 10   5  17  1   
 11   6  18  1   
 12   8   9  1   
 13   8  19  1   
 14   9  10  1   
 15   9  20  1   
 16   9  21  1   
 17  10  11  1   
 18  10  12  1   
 19  10  22  1   
 20  11  13  1   
 21  11  23  1   
 22  11  24  1   
 23  12  25  1   
 24  12  26  1   
 25  12  27  1   
 26  13  14  1   
 27  13  15  1   
 28  13  28  1   
 29  14  29  1   
 30  14  30  1   
 31  14  31  1   
 32  15  32  1   
 33  15  33  1   
 34  15  34  1   
@<TRIPOS>SUBSTRUCTURE
  1 ****   7 GROUP 4 **** **** 0

# MOE 2024.06 (io_trps.svl 2023.06)
