@<TRIPOS>MOLECULE
NONAME
41 42 1 0 0 
SMALL
USER_CHARGES


@<TRIPOS>ATOM
  1 CL      -0.1240     0.3730    -0.2710 Cl    1 <1>  -0.1770 
  2 C        1.5310     0.9430    -0.2570 C.ar  1 <1>   0.1770 
  3 C        2.5720     0.0650     0.0140 C.ar  1 <1>  -0.1440 
  4 C        1.7630     2.2800    -0.5210 C.ar  1 <1>  -0.1500 
  5 C        3.8710     0.5540     0.0160 C.ar  1 <1>  -0.1500 
  6 C        2.3010    -1.4050     0.3020 C.3   1 <1>  -0.0960 
  7 C        3.0620     2.7560    -0.5160 C.ar  1 <1>  -0.1500 
  8 C        4.1190     1.9000    -0.2490 C.ar  1 <1>   0.0830 
  9 O        5.3590     2.4500    -0.2640 O.3   1 <1>  -0.3630 
 10 C        6.5090     1.6820    -0.0100 C.3   1 <1>   0.1200 
 11 C        7.7170     2.6170    -0.1110 C.3   1 <1>  -0.1600 
 12 C        9.0380     1.8780     0.1430 C.3   1 <1>  -0.1600 
 13 C       10.2190     2.8460     0.0410 C.3   1 <1>   0.3430 
 14 N       11.4940     2.1480     0.3580 N.4   1 <1>  -0.9590 
 15 C       12.6350     3.0850     0.5050 C.3   1 <1>   0.3430 
 16 C       11.9190     1.1560    -0.6620 C.3   1 <1>   0.3430 
 17 C       13.8680     2.2040     0.3610 C.3   1 <1>  -0.1600 
 18 C       13.4070     0.9600    -0.4050 C.3   1 <1>  -0.1600 
 19 H        0.9370     2.9350    -0.7270 H     1 <1>   0.1500 
 20 H        4.6760    -0.1230     0.2250 H     1 <1>   0.1500 
 21 H        1.8060    -1.8580    -0.5380 H     1 <1>   0.0800 
 22 H        1.6680    -1.4970     1.1670 H     1 <1>   0.0800 
 23 H        3.2140    -1.9400     0.4900 H     1 <1>   0.0800 
 24 H        3.2630     3.7930    -0.7190 H     1 <1>   0.1500 
 25 H        6.5620     0.9000    -0.7480 H     1 <1>   0.0800 
 26 H        6.4250     1.2630     0.9780 H     1 <1>   0.0800 
 27 H        7.5960     3.4060     0.6130 H     1 <1>   0.0800 
 28 H        7.7280     3.0540    -1.0950 H     1 <1>   0.0800 
 29 H        9.1390     1.0920    -0.5840 H     1 <1>   0.0800 
 30 H        9.0120     1.4440     1.1280 H     1 <1>   0.0800 
 31 H       10.0670     3.6550     0.7390 H     1 <1>   0.0800 
 32 H       10.2630     3.2650    -0.9520 H     1 <1>   0.0800 
 33 H       11.3920     1.6510     1.2530 H     1 <1>   0.4500 
 34 H       12.6170     3.5950     1.4550 H     1 <1>   0.0800 
 35 H       12.6180     3.8100    -0.2930 H     1 <1>   0.0800 
 36 H       11.7760     1.5650    -1.6500 H     1 <1>   0.0800 
 37 H       11.3730     0.2300    -0.5740 H     1 <1>   0.0800 
 38 H       14.2360     1.9290     1.3350 H     1 <1>   0.0800 
 39 H       14.6480     2.7300    -0.1620 H     1 <1>   0.0800 
 40 H       13.9350     0.8450    -1.3360 H     1 <1>   0.0800 
 41 H       13.5630     0.0740     0.1860 H     1 <1>   0.0800 
@<TRIPOS>BOND
  1   1   2  1   
  2   2   3  ar  
  3   2   4  ar  
  4   3   5  ar  
  5   3   6  1   
  6   4   7  ar  
  7   4  19  1   
  8   5   8  ar  
  9   5  20  1   
 10   6  21  1   
 11   6  22  1   
 12   6  23  1   
 13   7   8  ar  
 14   7  24  1   
 15   8   9  1   
 16   9  10  1   
 17  10  11  1   
 18  10  25  1   
 19  10  26  1   
 20  11  12  1   
 21  11  27  1   
 22  11  28  1   
 23  12  13  1   
 24  12  29  1   
 25  12  30  1   
 26  13  14  1   
 27  13  31  1   
 28  13  32  1   
 29  14  15  1   
 30  14  16  1   
 31  14  33  1   
 32  15  17  1   
 33  15  34  1   
 34  15  35  1   
 35  16  18  1   
 36  16  36  1   
 37  16  37  1   
 38  17  18  1   
 39  17  38  1   
 40  17  39  1   
 41  18  40  1   
 42  18  41  1   
@<TRIPOS>SUBSTRUCTURE
  1 ****  10 GROUP 4 **** **** 0

# MOE 2024.06 (io_trps.svl 2023.06)
