@<TRIPOS>MOLECULE
NONAME
47 49 1 0 0 
SMALL
USER_CHARGES


@<TRIPOS>ATOM
  1 S       -0.0240    -0.2590    -1.6480 S.o2  1 <1>   1.4470 
  2 O        0.3540     0.9100    -2.4140 O.2   1 <1>  -0.6500 
  3 O       -0.6640    -1.3680    -2.3220 O.2   1 <1>  -0.6500 
  4 N       -1.0740     0.2710    -0.4270 N.am  1 <1>  -0.8490 
  5 C        1.4050    -0.8870    -0.7210 C.ar  1 <1>  -0.0090 
  6 C       -0.5810     1.4830     0.2380 C.3   1 <1>   0.1960 
  7 C       -2.4290     0.4740    -0.9470 C.3   1 <1>   0.1960 
  8 C        2.5740    -0.1490    -0.6080 C.ar  1 <1>  -0.1500 
  9 C        1.3530    -2.1130    -0.0740 C.ar  1 <1>  -0.1500 
 10 C       -1.4760     1.8370     1.4290 C.3   1 <1>  -0.1600 
 11 C       -3.3960     0.8020     0.1960 C.3   1 <1>  -0.1600 
 12 C        3.6780    -0.5920     0.1160 C.ar  1 <1>   0.0860 
 13 C        2.4280    -2.5790     0.6590 C.ar  1 <1>  -0.1500 
 14 C       -2.9330     2.0270     0.9920 C.3   1 <1>  -0.1600 
 15 C        3.5860    -1.8280     0.7660 C.ar  1 <1>  -0.1440 
 16 C        4.8610     0.2420     0.1640 C.2   1 <1>   0.5440 
 17 C        4.7310    -2.3690     1.6160 C.3   1 <1>  -0.0970 
 18 O        4.7920     1.3640     0.6210 O.2   1 <1>  -0.5700 
 19 N        6.0380    -0.2420    -0.3560 N.am  1 <1>  -0.5470 
 20 C        7.3370     0.2870    -0.3730 C.ar  1 <1>   0.1170 
 21 C        7.7790     1.2490     0.5300 C.ar  1 <1>  -0.1500 
 22 C        8.2350    -0.1860    -1.3240 C.ar  1 <1>  -0.1500 
 23 C        9.0770     1.7260     0.4820 C.ar  1 <1>  -0.1500 
 24 C        9.5340     0.2870    -1.3750 C.ar  1 <1>  -0.1500 
 25 C        9.9580     1.2450    -0.4700 C.ar  1 <1>  -0.1500 
 26 H       -0.5620     2.3050    -0.4600 H     1 <1>   0.0800 
 27 H        0.4220     1.3230     0.5960 H     1 <1>   0.0800 
 28 H       -2.7710    -0.4230    -1.4370 H     1 <1>   0.0800 
 29 H       -2.4270     1.2720    -1.6730 H     1 <1>   0.0800 
 30 H        2.6380     0.8100    -1.0980 H     1 <1>   0.1500 
 31 H        0.4550    -2.7060    -0.1440 H     1 <1>   0.1500 
 32 H       -1.1160     2.7380     1.8910 H     1 <1>   0.0800 
 33 H       -1.4140     1.0460     2.1560 H     1 <1>   0.0800 
 34 H       -3.4600    -0.0520     0.8470 H     1 <1>   0.0800 
 35 H       -4.3770     0.9810    -0.2080 H     1 <1>   0.0800 
 36 H        2.3490    -3.5330     1.1520 H     1 <1>   0.1500 
 37 H       -3.0100     2.9060     0.3740 H     1 <1>   0.0800 
 38 H       -3.5620     2.1670     1.8540 H     1 <1>   0.0800 
 39 H        5.1450    -1.5880     2.2310 H     1 <1>   0.0800 
 40 H        5.5080    -2.7660     0.9880 H     1 <1>   0.0800 
 41 H        4.3880    -3.1520     2.2680 H     1 <1>   0.0800 
 42 H        5.9360    -1.1220    -0.8550 H     1 <1>   0.3700 
 43 H        7.1100     1.6300     1.2800 H     1 <1>   0.1500 
 44 H        7.9190    -0.9270    -2.0340 H     1 <1>   0.1500 
 45 H        9.4000     2.4710     1.1880 H     1 <1>   0.1500 
 46 H       10.2170    -0.0880    -2.1170 H     1 <1>   0.1500 
 47 H       10.9670     1.6160    -0.5080 H     1 <1>   0.1500 
@<TRIPOS>BOND
  1   1   2  2   
  2   1   3  2   
  3   1   4  am  
  4   1   5  1   
  5   4   6  1   
  6   4   7  1   
  7   5   8  ar  
  8   5   9  ar  
  9   6  10  1   
 10   6  26  1   
 11   6  27  1   
 12   7  11  1   
 13   7  28  1   
 14   7  29  1   
 15   8  12  ar  
 16   8  30  1   
 17   9  13  ar  
 18   9  31  1   
 19  10  14  1   
 20  10  32  1   
 21  10  33  1   
 22  11  14  1   
 23  11  34  1   
 24  11  35  1   
 25  12  15  ar  
 26  12  16  1   
 27  13  15  ar  
 28  13  36  1   
 29  14  37  1   
 30  14  38  1   
 31  15  17  1   
 32  16  18  2   
 33  16  19  am  
 34  17  39  1   
 35  17  40  1   
 36  17  41  1   
 37  19  20  1   
 38  19  42  1   
 39  20  21  ar  
 40  20  22  ar  
 41  21  23  ar  
 42  21  43  1   
 43  22  24  ar  
 44  22  44  1   
 45  23  25  ar  
 46  23  45  1   
 47  24  25  ar  
 48  24  46  1   
 49  25  47  1   
@<TRIPOS>SUBSTRUCTURE
  1 ****   8 GROUP 4 **** **** 0

# MOE 2024.06 (io_trps.svl 2023.06)
