@<TRIPOS>MOLECULE
NONAME
34 35 1 0 0 
SMALL
USER_CHARGES


@<TRIPOS>ATOM
  1 F        4.4230     1.3310    -0.7340 F     1 <1>  -0.3400 
  2 C        5.3890     0.4340    -0.5780 C.3   1 <1>   1.1640 
  3 F        6.0040     0.3430    -1.7500 F     1 <1>  -0.3400 
  4 F        6.2630     0.9710     0.2650 F     1 <1>  -0.3400 
  5 C        4.8390    -0.9250    -0.1120 C.ar  1 <1>  -0.1440 
  6 C        3.7360    -1.4830    -0.7500 C.ar  1 <1>  -0.1500 
  7 C        5.4220    -1.6250     0.9390 C.ar  1 <1>  -0.1500 
  8 C        3.2180    -2.7060    -0.3510 C.ar  1 <1>  -0.1440 
  9 C        4.9150    -2.8480     1.3380 C.ar  1 <1>  -0.1500 
 10 C        3.8170    -3.3890     0.6950 C.ar  1 <1>  -0.1500 
 11 C        2.0030    -3.2980    -1.0490 C.3   1 <1>  -0.0160 
 12 C        0.7410    -3.1460    -0.1860 C.3   1 <1>   0.4230 
 13 N       -0.3980    -3.8550    -0.8280 N.4   1 <1>  -0.9060 
 14 C        0.3520    -1.6750     0.0330 C.3   1 <1>  -0.1600 
 15 C       -1.6400    -3.8240    -0.0080 C.3   1 <1>   0.3430 
 16 C       -0.9470    -1.5380     0.8400 C.3   1 <1>  -0.1600 
 17 C       -2.0690    -2.3720     0.2090 C.3   1 <1>  -0.1600 
 18 H        3.2810    -0.9500    -1.5690 H     1 <1>   0.1500 
 19 H        6.2810    -1.2270     1.4570 H     1 <1>   0.1500 
 20 H        5.3810    -3.3800     2.1510 H     1 <1>   0.1500 
 21 H        3.4470    -4.3450     1.0200 H     1 <1>   0.1500 
 22 H        2.1980    -4.3410    -1.2290 H     1 <1>   0.0800 
 23 H        1.8640    -2.8150    -2.0000 H     1 <1>   0.0800 
 24 H        0.9350    -3.5930     0.7770 H     1 <1>   0.0800 
 25 H       -0.1360    -4.8290    -1.0190 H     1 <1>   0.4500 
 26 H       -0.5920    -3.4050    -1.7290 H     1 <1>   0.4500 
 27 H        0.2450    -1.1790    -0.9160 H     1 <1>   0.0800 
 28 H        1.1390    -1.1720     0.5690 H     1 <1>   0.0800 
 29 H       -1.4600    -4.2910     0.9480 H     1 <1>   0.0800 
 30 H       -2.4300    -4.3640    -0.5060 H     1 <1>   0.0800 
 31 H       -1.2420    -0.5020     0.8840 H     1 <1>   0.0800 
 32 H       -0.7770    -1.8700     1.8510 H     1 <1>   0.0800 
 33 H       -2.9310    -2.3530     0.8550 H     1 <1>   0.0800 
 34 H       -2.3660    -1.9400    -0.7310 H     1 <1>   0.0800 
@<TRIPOS>BOND
  1   1   2  1   
  2   2   3  1   
  3   2   4  1   
  4   2   5  1   
  5   5   6  ar  
  6   5   7  ar  
  7   6   8  ar  
  8   6  18  1   
  9   7   9  ar  
 10   7  19  1   
 11   8  10  ar  
 12   8  11  1   
 13   9  10  ar  
 14   9  20  1   
 15  10  21  1   
 16  11  12  1   
 17  11  22  1   
 18  11  23  1   
 19  12  13  1   
 20  12  14  1   
 21  12  24  1   
 22  13  15  1   
 23  13  25  1   
 24  13  26  1   
 25  14  16  1   
 26  14  27  1   
 27  14  28  1   
 28  15  17  1   
 29  15  29  1   
 30  15  30  1   
 31  16  17  1   
 32  16  31  1   
 33  16  32  1   
 34  17  33  1   
 35  17  34  1   
@<TRIPOS>SUBSTRUCTURE
  1 ****   8 GROUP 4 **** **** 0

# MOE 2024.06 (io_trps.svl 2023.06)
