@<TRIPOS>MOLECULE
NONAME
41 43 1 0 0 
SMALL
USER_CHARGES


@<TRIPOS>ATOM
  1 S       -0.5220     0.2010     0.1770 S.o2  1 <1>   1.3830 
  2 O       -0.0270     0.3760     1.5250 O.2   1 <1>  -0.6500 
  3 O       -1.9550     0.2520    -0.0140 O.2   1 <1>  -0.6500 
  4 N        0.1330     1.3340    -0.8750 N.2   1 <1>  -0.6380 
  5 C       -0.0080    -1.4020    -0.4730 C.3   1 <1>   0.0890 
  6 C        1.3170     1.7550    -0.7600 C.2   1 <1>   0.6410 
  7 C        1.4920    -1.6100    -0.6450 C.ar  1 <1>  -0.1440 
  8 S        2.5430     1.3590     0.4390 S.3   1 <1>  -0.2820 
  9 N        1.9240     2.6420    -1.6100 N.pl3 1 <1>  -0.4080 
 10 C        2.2640    -2.0360     0.4250 C.ar  1 <1>  -0.1500 
 11 C        2.0970    -1.3730    -1.8700 C.ar  1 <1>  -0.1500 
 12 C        3.7270     2.3880    -0.3810 C.2   1 <1>   0.5300 
 13 N        3.2550     2.9780    -1.4040 N.2   1 <1>  -0.4920 
 14 C        3.6260    -2.2260     0.2710 C.ar  1 <1>  -0.1500 
 15 C        3.4600    -1.5590    -2.0240 C.ar  1 <1>  -0.1500 
 16 C        5.1240     2.4340     0.2340 C.3   1 <1>  -0.0190 
 17 C        4.2250    -1.9890    -0.9540 C.ar  1 <1>  -0.1500 
 18 C        5.9790     3.5700    -0.3640 C.3   1 <1>  -0.1600 
 19 C        5.8440     1.0790     0.0750 C.3   1 <1>  -0.1600 
 20 C        7.3880     3.6000     0.2430 C.3   1 <1>  -0.1600 
 21 C        7.2570     1.1100     0.6740 C.3   1 <1>  -0.1600 
 22 C        8.0910     2.2480     0.0720 C.3   1 <1>  -0.1600 
 23 H       -0.4770    -1.5450    -1.4270 H     1 <1>   0.0800 
 24 H       -0.3860    -2.1690     0.1730 H     1 <1>   0.0800 
 25 H        1.3820     3.0420    -2.3820 H     1 <1>   0.4000 
 26 H        1.8130    -2.2160     1.3870 H     1 <1>   0.1500 
 27 H        1.5160    -1.0400    -2.7140 H     1 <1>   0.1500 
 28 H        4.2200    -2.5570     1.1050 H     1 <1>   0.1500 
 29 H        3.9260    -1.3720    -2.9760 H     1 <1>   0.1500 
 30 H        5.0010     2.6300     1.2850 H     1 <1>   0.0800 
 31 H        5.2840    -2.1370    -1.0740 H     1 <1>   0.1500 
 32 H        5.4950     4.5160    -0.1890 H     1 <1>   0.0800 
 33 H        6.0580     3.4350    -1.4290 H     1 <1>   0.0800 
 34 H        5.9060     0.8300    -0.9700 H     1 <1>   0.0800 
 35 H        5.2760     0.3060     0.5640 H     1 <1>   0.0800 
 36 H        7.3230     3.8390     1.2910 H     1 <1>   0.0800 
 37 H        7.9690     4.3700    -0.2350 H     1 <1>   0.0800 
 38 H        7.7470     0.1700     0.4910 H     1 <1>   0.0800 
 39 H        7.1900     1.2440     1.7400 H     1 <1>   0.0800 
 40 H        9.0550     2.2790     0.5500 H     1 <1>   0.0800 
 41 H        8.2490     2.0580    -0.9760 H     1 <1>   0.0800 
@<TRIPOS>BOND
  1   1   2  2   
  2   1   3  2   
  3   1   4  1   
  4   1   5  1   
  5   4   6  2   
  6   5   7  1   
  7   5  23  1   
  8   5  24  1   
  9   6   8  1   
 10   6   9  1   
 11   7  10  ar  
 12   7  11  ar  
 13   8  12  1   
 14   9  13  1   
 15   9  25  1   
 16  10  14  ar  
 17  10  26  1   
 18  11  15  ar  
 19  11  27  1   
 20  12  13  2   
 21  12  16  1   
 22  14  17  ar  
 23  14  28  1   
 24  15  17  ar  
 25  15  29  1   
 26  16  18  1   
 27  16  19  1   
 28  16  30  1   
 29  17  31  1   
 30  18  20  1   
 31  18  32  1   
 32  18  33  1   
 33  19  21  1   
 34  19  34  1   
 35  19  35  1   
 36  20  22  1   
 37  20  36  1   
 38  20  37  1   
 39  21  22  1   
 40  21  38  1   
 41  21  39  1   
 42  22  40  1   
 43  22  41  1   
@<TRIPOS>SUBSTRUCTURE
  1 ****   8 GROUP 4 **** **** 0

# MOE 2024.06 (io_trps.svl 2023.06)
