@<TRIPOS>MOLECULE
NONAME
53 56 1 0 0 
SMALL
USER_CHARGES


@<TRIPOS>ATOM
  1 O       -7.9700    -2.5680     1.2470 O.2   1 <1>  -0.5700 
  2 C       -7.3030    -1.8330     0.5390 C.2   1 <1>   0.5440 
  3 N       -7.9340    -0.7600    -0.0840 N.am  1 <1>  -0.4690 
  4 C       -5.8800    -2.0750     0.3990 C.ar  1 <1>   0.0860 
  5 C       -9.3290    -0.7070    -0.2130 C.2   1 <1>  -0.0290 
  6 C       -7.1450     0.3810    -0.6350 C.3   1 <1>   0.1400 
  7 C       -5.3000    -2.3350    -0.8430 C.ar  1 <1>  -0.1500 
  8 C       -5.0410    -2.0490     1.5120 C.ar  1 <1>  -0.1500 
  9 C      -10.0590    -1.6380    -0.8570 C.2   1 <1>  -0.2880 
 10 C      -10.0640     0.4310     0.5290 C.3   1 <1>  -0.0220 
 11 C       -6.5730     1.2600     0.4820 C.3   1 <1>  -0.0170 
 12 C       -3.9370    -2.5320    -0.9720 C.ar  1 <1>  -0.1500 
 13 C       -3.6770    -2.2450     1.3890 C.ar  1 <1>  -0.1500 
 14 C      -11.5530    -1.4480    -0.9030 C.3   1 <1>   0.5610 
 15 C      -11.5930     0.1460     0.7310 C.3   1 <1>   0.4230 
 16 C       -5.6280     2.2850    -0.1160 C.ar  1 <1>  -0.1440 
 17 C       -3.1230    -2.4830     0.1440 C.ar  1 <1>  -0.1500 
 18 N      -11.8370    -1.2930     0.5580 N.4   1 <1>  -0.9590 
 19 C      -12.7410    -0.5840    -1.3010 C.3   1 <1>  -0.1600 
 20 C      -12.5260     0.6550    -0.3880 C.3   1 <1>  -0.1600 
 21 C       -6.0620     3.5720    -0.3960 C.ar  1 <1>  -0.1500 
 22 C       -4.3170     1.9310    -0.3960 C.ar  1 <1>  -0.1500 
 23 C      -11.1720    -2.2240     1.5480 C.3   1 <1>   0.2630 
 24 C       -5.1930     4.4950    -0.9520 C.ar  1 <1>  -0.1500 
 25 C       -3.4480     2.8540    -0.9520 C.ar  1 <1>  -0.1500 
 26 C       -3.8860     4.1360    -1.2310 C.ar  1 <1>  -0.1500 
 27 H       -7.7710     0.9800    -1.2730 H     1 <1>   0.0800 
 28 H       -6.3420     0.0090    -1.2450 H     1 <1>   0.0800 
 29 H       -5.9270    -2.3850    -1.7160 H     1 <1>   0.1500 
 30 H       -5.4680    -1.8740     2.4840 H     1 <1>   0.1500 
 31 H       -9.6710    -2.5050    -1.3620 H     1 <1>   0.1500 
 32 H       -9.9140     1.3720     0.0320 H     1 <1>   0.0800 
 33 H       -9.6270     0.5200     1.5080 H     1 <1>   0.0800 
 34 H       -7.3690     1.7570     1.0050 H     1 <1>   0.0800 
 35 H       -6.0280     0.6630     1.1900 H     1 <1>   0.0800 
 36 H       -3.5080    -2.7270    -1.9410 H     1 <1>   0.1500 
 37 H       -3.0470    -2.2160     2.2620 H     1 <1>   0.1500 
 38 H      -11.1270    -0.5950    -1.4050 H     1 <1>   0.0800 
 39 H      -11.9230     0.4960     1.6960 H     1 <1>   0.0800 
 40 H       -2.0610    -2.6360     0.0460 H     1 <1>   0.1500 
 41 H      -12.8460    -1.4360     0.6510 H     1 <1>   0.4500 
 42 H      -13.6730    -1.0870    -1.1020 H     1 <1>   0.0800 
 43 H      -12.7130    -0.3220    -2.3460 H     1 <1>   0.0800 
 44 H      -12.0720     1.4720    -0.9240 H     1 <1>   0.0800 
 45 H      -13.4620     0.9960     0.0200 H     1 <1>   0.0800 
 46 H       -7.0740     3.8670    -0.1840 H     1 <1>   0.1500 
 47 H       -3.9640     0.9360    -0.1820 H     1 <1>   0.1500 
 48 H      -10.1150    -2.0340     1.6100 H     1 <1>   0.0800 
 49 H      -11.3130    -3.2490     1.2490 H     1 <1>   0.0800 
 50 H      -11.5940    -2.0890     2.5300 H     1 <1>   0.0800 
 51 H       -5.5320     5.4930    -1.1680 H     1 <1>   0.1500 
 52 H       -2.4320     2.5740    -1.1660 H     1 <1>   0.1500 
 53 H       -3.2100     4.8540    -1.6630 H     1 <1>   0.1500 
@<TRIPOS>BOND
  1   1   2  2   
  2   2   3  am  
  3   2   4  1   
  4   3   5  1   
  5   3   6  1   
  6   4   7  ar  
  7   4   8  ar  
  8   5   9  2   
  9   5  10  1   
 10   6  11  1   
 11   6  27  1   
 12   6  28  1   
 13   7  12  ar  
 14   7  29  1   
 15   8  13  ar  
 16   8  30  1   
 17   9  14  1   
 18   9  31  1   
 19  10  15  1   
 20  10  32  1   
 21  10  33  1   
 22  11  16  1   
 23  11  34  1   
 24  11  35  1   
 25  12  17  ar  
 26  12  36  1   
 27  13  17  ar  
 28  13  37  1   
 29  14  18  1   
 30  14  19  1   
 31  14  38  1   
 32  15  18  1   
 33  15  20  1   
 34  15  39  1   
 35  16  21  ar  
 36  16  22  ar  
 37  17  40  1   
 38  18  23  1   
 39  18  41  1   
 40  19  20  1   
 41  19  42  1   
 42  19  43  1   
 43  20  44  1   
 44  20  45  1   
 45  21  24  ar  
 46  21  46  1   
 47  22  25  ar  
 48  22  47  1   
 49  23  48  1   
 50  23  49  1   
 51  23  50  1   
 52  24  26  ar  
 53  24  51  1   
 54  25  26  ar  
 55  25  52  1   
 56  26  53  1   
@<TRIPOS>SUBSTRUCTURE
  1 ****   3 GROUP 4 **** **** 0

# MOE 2024.06 (io_trps.svl 2023.06)
