@<TRIPOS>MOLECULE
NONAME
50 52 1 0 0 
SMALL
USER_CHARGES


@<TRIPOS>ATOM
  1 O        0.4770    -1.2350     1.4230 O.2   1 <1>  -0.5700 
  2 C        1.0030    -1.6400     0.4060 C.2   1 <1>   0.6340 
  3 O        0.2650    -2.3440    -0.4600 O.3   1 <1>  -0.4300 
  4 C        2.3970    -1.4000     0.0800 C.ar  1 <1>   0.0860 
  5 C       -1.1000    -2.6240    -0.2200 C.3   1 <1>   0.0400 
  6 C        3.2210    -0.6650     0.9380 C.ar  1 <1>  -0.1500 
  7 C        2.9810    -1.8890    -1.0940 C.ar  1 <1>  -0.1500 
  8 C        4.5500    -0.4240     0.6440 C.ar  1 <1>  -0.1500 
  9 C        4.3100    -1.6520    -1.3960 C.ar  1 <1>  -0.1500 
 10 C        5.1030    -0.9120    -0.5340 C.ar  1 <1>   0.0830 
 11 O        6.4020    -0.7210    -0.8700 O.3   1 <1>  -0.1650 
 12 C        7.1080     0.4120    -0.6750 C.ar  1 <1>   0.7020 
 13 N        8.4020     0.2570    -0.6720 N.ar  1 <1>  -0.6200 
 14 N        6.4610     1.5370    -0.5210 N.ar  1 <1>  -0.6200 
 15 C        9.0770     1.3660    -0.4850 C.ar  1 <1>   0.7200 
 16 C        7.2460     2.5630    -0.3430 C.ar  1 <1>   0.7200 
 17 N        8.5450     2.5480    -0.3140 N.ar  1 <1>  -0.6200 
 18 N       10.4520     1.2750    -0.4680 N.pl3 1 <1>  -0.8380 
 19 N        6.6910     3.7810    -0.1640 N.pl3 1 <1>  -0.8690 
 20 C       11.3570     2.4540    -0.2840 C.3   1 <1>   0.2090 
 21 C       11.2030     0.0000    -0.7010 C.3   1 <1>   0.2090 
 22 C        5.2820     4.1460    -0.3200 C.3   1 <1>   0.2890 
 23 C       12.4730     2.1360     0.7260 C.3   1 <1>   0.1200 
 24 C       12.3300    -0.1700     0.3340 C.3   1 <1>   0.1200 
 25 C        5.1560     5.0070    -1.5700 C.3   1 <1>  -0.2400 
 26 C        4.8580     4.9110     0.9270 C.3   1 <1>  -0.2400 
 27 O       13.1540     0.9630     0.3740 O.3   1 <1>  -0.5600 
 28 H       -1.4810    -3.1980    -1.0460 H     1 <1>   0.0800 
 29 H       -1.6360    -1.6950    -0.1350 H     1 <1>   0.0800 
 30 H       -1.1850    -3.1860     0.6940 H     1 <1>   0.0800 
 31 H        2.8060    -0.2770     1.8530 H     1 <1>   0.1500 
 32 H        2.3860    -2.4640    -1.7820 H     1 <1>   0.1500 
 33 H        5.1550     0.1400     1.3320 H     1 <1>   0.1500 
 34 H        4.7380    -2.0400    -2.3040 H     1 <1>   0.1500 
 35 H        7.3570     4.5470    -0.1070 H     1 <1>   0.4000 
 36 H       10.8150     3.3140     0.0680 H     1 <1>   0.0800 
 37 H       11.7990     2.7090    -1.2310 H     1 <1>   0.0800 
 38 H       11.6310     0.0200    -1.6880 H     1 <1>   0.0800 
 39 H       10.5550    -0.8560    -0.6420 H     1 <1>   0.0800 
 40 H        4.6690     3.2650    -0.4240 H     1 <1>   0.0800 
 41 H       12.0600     2.0120     1.7120 H     1 <1>   0.0800 
 42 H       13.1900     2.9370     0.7490 H     1 <1>   0.0800 
 43 H       12.9430    -1.0140     0.0760 H     1 <1>   0.0800 
 44 H       11.9140    -0.3290     1.3130 H     1 <1>   0.0800 
 45 H        5.7530     5.8960    -1.4850 H     1 <1>   0.0800 
 46 H        4.1300     5.2930    -1.7140 H     1 <1>   0.0800 
 47 H        5.4730     4.4450    -2.4300 H     1 <1>   0.0800 
 48 H        5.4500     5.8000     1.0500 H     1 <1>   0.0800 
 49 H        4.9730     4.2840     1.7930 H     1 <1>   0.0800 
 50 H        3.8240     5.1930     0.8490 H     1 <1>   0.0800 
@<TRIPOS>BOND
  1   1   2  2   
  2   2   3  1   
  3   2   4  1   
  4   3   5  1   
  5   4   6  ar  
  6   4   7  ar  
  7   5  28  1   
  8   5  29  1   
  9   5  30  1   
 10   6   8  ar  
 11   6  31  1   
 12   7   9  ar  
 13   7  32  1   
 14   8  10  ar  
 15   8  33  1   
 16   9  10  ar  
 17   9  34  1   
 18  10  11  1   
 19  11  12  1   
 20  12  13  ar  
 21  12  14  ar  
 22  13  15  ar  
 23  14  16  ar  
 24  15  17  ar  
 25  15  18  1   
 26  16  17  ar  
 27  16  19  1   
 28  18  20  1   
 29  18  21  1   
 30  19  22  1   
 31  19  35  1   
 32  20  23  1   
 33  20  36  1   
 34  20  37  1   
 35  21  24  1   
 36  21  38  1   
 37  21  39  1   
 38  22  25  1   
 39  22  26  1   
 40  22  40  1   
 41  23  27  1   
 42  23  41  1   
 43  23  42  1   
 44  24  27  1   
 45  24  43  1   
 46  24  44  1   
 47  25  45  1   
 48  25  46  1   
 49  25  47  1   
 50  26  48  1   
 51  26  49  1   
 52  26  50  1   
@<TRIPOS>SUBSTRUCTURE
  1 ****  14 GROUP 4 **** **** 0

# MOE 2024.06 (io_trps.svl 2023.06)
