@<TRIPOS>MOLECULE
NONAME
52 54 1 0 0 
SMALL
USER_CHARGES


@<TRIPOS>ATOM
  1 O        0.9290    -2.3700    -1.0250 O.2   1 <1>  -0.5700 
  2 C        0.0930    -2.0850    -0.1890 C.2   1 <1>   0.5440 
  3 N        0.4160    -1.1750     0.7870 N.am  1 <1>  -0.7300 
  4 C       -1.2180    -2.7100    -0.2110 C.ar  1 <1>   0.0860 
  5 C        1.6840    -0.4340     0.9560 C.3   1 <1>   0.2200 
  6 C       -2.3500    -2.0610     0.2840 C.ar  1 <1>  -0.1500 
  7 C       -1.3920    -3.9920    -0.7360 C.ar  1 <1>  -0.1500 
  8 C        1.9390     0.4610    -0.2650 C.3   1 <1>  -0.1600 
  9 C        2.8340    -1.4120     1.2310 C.3   1 <1>  -0.1600 
 10 C       -3.5940    -2.6680     0.2660 C.ar  1 <1>   0.0820 
 11 C       -2.6300    -4.6090    -0.7520 C.ar  1 <1>  -0.1500 
 12 C        3.3290     1.0830    -0.2270 C.3   1 <1>   0.3430 
 13 C        4.1880    -0.7150     1.2060 C.3   1 <1>   0.3430 
 14 O       -4.6470    -1.9790     0.7710 O.3   1 <1>  -0.1650 
 15 C       -3.7350    -3.9510    -0.2450 C.ar  1 <1>  -0.1500 
 16 N        4.3440     0.0040    -0.0910 N.4   1 <1>  -0.9590 
 17 C       -5.8740    -2.0350     0.1950 C.ar  1 <1>   0.0820 
 18 C        5.7180     0.5390    -0.2930 C.3   1 <1>   0.3430 
 19 C       -6.9870    -2.0330     1.0220 C.ar  1 <1>  -0.1500 
 20 C       -6.0380    -2.0760    -1.1850 C.ar  1 <1>  -0.1500 
 21 C        6.6990    -0.6020    -0.5710 C.3   1 <1>  -0.1600 
 22 C       -8.2570    -2.0870     0.4760 C.ar  1 <1>  -0.1500 
 23 C       -7.3090    -2.1310    -1.7290 C.ar  1 <1>  -0.1500 
 24 C        8.0940    -0.0560    -0.8960 C.3   1 <1>  -0.2400 
 25 C       -8.4180    -2.1380    -0.8980 C.ar  1 <1>  -0.1500 
 26 H       -0.2670    -1.0340     1.5340 H     1 <1>   0.3700 
 27 H        1.5800     0.2050     1.8180 H     1 <1>   0.0800 
 28 H       -2.2760    -1.0660     0.6800 H     1 <1>   0.1500 
 29 H       -0.5380    -4.5110    -1.1370 H     1 <1>   0.1500 
 30 H        1.2040     1.2450    -0.2890 H     1 <1>   0.0800 
 31 H        1.8510    -0.0960    -1.1790 H     1 <1>   0.0800 
 32 H        2.8550    -2.2000     0.5010 H     1 <1>   0.0800 
 33 H        2.6910    -1.8660     2.1950 H     1 <1>   0.0800 
 34 H       -2.7340    -5.6010    -1.1570 H     1 <1>   0.1500 
 35 H        3.4040     1.7670     0.6030 H     1 <1>   0.0800 
 36 H        3.4950     1.6350    -1.1400 H     1 <1>   0.0800 
 37 H        4.9650    -1.4530     1.3210 H     1 <1>   0.0800 
 38 H        4.2580    -0.0170     2.0240 H     1 <1>   0.0800 
 39 H       -4.6980    -4.4320    -0.2460 H     1 <1>   0.1500 
 40 H        4.1540    -0.6790    -0.8410 H     1 <1>   0.4500 
 41 H        6.0350     1.0940     0.5760 H     1 <1>   0.0800 
 42 H        5.7230     1.2070    -1.1390 H     1 <1>   0.0800 
 43 H       -6.8540    -1.9920     2.0890 H     1 <1>   0.1500 
 44 H       -5.1800    -2.0600    -1.8330 H     1 <1>   0.1500 
 45 H        6.3550    -1.1820    -1.4110 H     1 <1>   0.0800 
 46 H        6.7810    -1.2470     0.2850 H     1 <1>   0.0800 
 47 H       -9.1200    -2.0890     1.1190 H     1 <1>   0.1500 
 48 H       -7.4370    -2.1650    -2.7970 H     1 <1>   0.1500 
 49 H        8.0660     0.5730    -1.7690 H     1 <1>   0.0800 
 50 H        8.7710    -0.8710    -1.0920 H     1 <1>   0.0800 
 51 H        8.4860     0.5130    -0.0700 H     1 <1>   0.0800 
 52 H       -9.4060    -2.1800    -1.3220 H     1 <1>   0.1500 
@<TRIPOS>BOND
  1   1   2  2   
  2   2   3  am  
  3   2   4  1   
  4   3   5  1   
  5   3  26  1   
  6   4   6  ar  
  7   4   7  ar  
  8   5   8  1   
  9   5   9  1   
 10   5  27  1   
 11   6  10  ar  
 12   6  28  1   
 13   7  11  ar  
 14   7  29  1   
 15   8  12  1   
 16   8  30  1   
 17   8  31  1   
 18   9  13  1   
 19   9  32  1   
 20   9  33  1   
 21  10  14  1   
 22  10  15  ar  
 23  11  15  ar  
 24  11  34  1   
 25  12  16  1   
 26  12  35  1   
 27  12  36  1   
 28  13  16  1   
 29  13  37  1   
 30  13  38  1   
 31  14  17  1   
 32  15  39  1   
 33  16  18  1   
 34  16  40  1   
 35  17  19  ar  
 36  17  20  ar  
 37  18  21  1   
 38  18  41  1   
 39  18  42  1   
 40  19  22  ar  
 41  19  43  1   
 42  20  23  ar  
 43  20  44  1   
 44  21  24  1   
 45  21  45  1   
 46  21  46  1   
 47  22  25  ar  
 48  22  47  1   
 49  23  25  ar  
 50  23  48  1   
 51  24  49  1   
 52  24  50  1   
 53  24  51  1   
 54  25  52  1   
@<TRIPOS>SUBSTRUCTURE
  1 ****   2 GROUP 4 **** **** 0

# MOE 2024.06 (io_trps.svl 2023.06)
