@<TRIPOS>MOLECULE
NONAME
31 33 1 0 0 
SMALL
USER_CHARGES


@<TRIPOS>ATOM
  1 O       -0.1080    -0.1920    -0.3190 O.3   1 <1>  -0.3630 
  2 C       -0.3130    -1.5060    -0.1730 C.ar  1 <1>   0.0830 
  3 C        1.2820     0.0770    -0.3990 C.3   1 <1>   0.2000 
  4 C       -1.5570    -2.1480    -0.0880 C.ar  1 <1>   0.0000 
  5 C        0.8260    -2.2220    -0.1090 C.ar  1 <1>  -0.1440 
  6 C        1.9930    -1.2820    -0.2190 C.3   1 <1>  -0.0170 
  7 C        1.6320     1.1000     0.6820 C.3   1 <1>  -0.2400 
  8 C       -1.5280    -3.5540     0.0620 C.ar  1 <1>   0.3100 
  9 C       -2.7910    -1.4740    -0.1450 C.ar  1 <1>  -0.1500 
 10 C        0.7680    -3.6100     0.0410 C.ar  1 <1>   0.1660 
 11 N       -0.3570    -4.2590     0.1230 N.ar  1 <1>  -0.6200 
 12 C       -2.7640    -4.2390     0.1500 C.ar  1 <1>  -0.1430 
 13 C       -3.9680    -2.1630    -0.0560 C.ar  1 <1>  -0.1500 
 14 C        2.0510    -4.4090     0.1130 C.3   1 <1>  -0.0970 
 15 C       -3.9520    -3.5530     0.0920 C.ar  1 <1>  -0.1500 
 16 C       -2.7760    -5.7540     0.3120 C.3   1 <1>  -0.0970 
 17 H        1.4760     0.4760    -1.3800 H     1 <1>   0.0800 
 18 H        2.5930    -1.3060     0.6720 H     1 <1>   0.0800 
 19 H        2.6010    -1.5110    -1.0750 H     1 <1>   0.0800 
 20 H        1.3870     0.7130     1.6550 H     1 <1>   0.0800 
 21 H        1.0830     2.0090     0.5140 H     1 <1>   0.0800 
 22 H        2.6820     1.3240     0.6520 H     1 <1>   0.0800 
 23 H       -2.7820    -0.4040    -0.2580 H     1 <1>   0.1500 
 24 H       -4.9120    -1.6500    -0.0990 H     1 <1>   0.1500 
 25 H        2.6510    -4.0640     0.9340 H     1 <1>   0.0800 
 26 H        2.6000    -4.3000    -0.8030 H     1 <1>   0.0800 
 27 H        1.8330    -5.4520     0.2620 H     1 <1>   0.0800 
 28 H       -4.8930    -4.0700     0.1580 H     1 <1>   0.1500 
 29 H       -2.2570    -6.0270     1.2130 H     1 <1>   0.0800 
 30 H       -2.2770    -6.2120    -0.5230 H     1 <1>   0.0800 
 31 H       -3.7800    -6.1350     0.3640 H     1 <1>   0.0800 
@<TRIPOS>BOND
  1   1   2  1   
  2   1   3  1   
  3   2   4  ar  
  4   2   5  ar  
  5   3   6  1   
  6   3   7  1   
  7   3  17  1   
  8   4   8  ar  
  9   4   9  ar  
 10   5   6  1   
 11   5  10  ar  
 12   6  18  1   
 13   6  19  1   
 14   7  20  1   
 15   7  21  1   
 16   7  22  1   
 17   8  11  ar  
 18   8  12  ar  
 19   9  13  ar  
 20   9  23  1   
 21  10  11  ar  
 22  10  14  1   
 23  12  15  ar  
 24  12  16  1   
 25  13  15  ar  
 26  13  24  1   
 27  14  25  1   
 28  14  26  1   
 29  14  27  1   
 30  15  28  1   
 31  16  29  1   
 32  16  30  1   
 33  16  31  1   
@<TRIPOS>SUBSTRUCTURE
  1 ****   4 GROUP 4 **** **** 0

# MOE 2024.06 (io_trps.svl 2023.06)
