@<TRIPOS>MOLECULE
NONAME
32 33 1 0 0 
SMALL
USER_CHARGES


@<TRIPOS>ATOM
  1 S       -0.0880    -0.4550     0.6090 S.3   1 <1>  -0.2860 
  2 C        1.5600     0.0890     0.1480 C.2   1 <1>   0.2420 
  3 C       -1.0960     1.0960     0.4060 C.3   1 <1>   0.1310 
  4 N        1.8270     1.2820    -0.2500 N.2   1 <1>  -0.3380 
  5 N        2.6230    -0.7130     0.1850 N.pl3 1 <1>   0.0480 
  6 C       -2.5670     0.8540     0.7090 C.2   1 <1>   0.5690 
  7 N        3.1410     1.2930    -0.4990 N.2   1 <1>  -0.3380 
  8 C        3.5940     0.1100    -0.2350 C.2   1 <1>   0.1010 
  9 C        2.7030    -2.1340     0.5860 C.3   1 <1>   0.0960 
 10 O       -3.2760     1.7890     0.9780 O.2   1 <1>  -0.5700 
 11 N       -3.0880    -0.3890     0.6720 N.am  1 <1>  -0.8000 
 12 C        5.0460    -0.3140    -0.3860 C.3   1 <1>  -0.0150 
 13 C        2.5000    -3.0490    -0.6290 C.3   1 <1>  -0.1600 
 14 C        5.8930    -0.5390     0.8300 C.3   1 <1>  -0.2000 
 15 C        6.1510     0.6420    -0.0530 C.3   1 <1>  -0.2000 
 16 C        2.6010    -4.5260    -0.2330 C.3   1 <1>  -0.2400 
 17 H       -0.9740     1.4280    -0.6090 H     1 <1>   0.0800 
 18 H       -0.6910     1.8290     1.0780 H     1 <1>   0.0800 
 19 H        1.9480    -2.3310     1.3270 H     1 <1>   0.0800 
 20 H        3.6640    -2.3170     1.0300 H     1 <1>   0.0800 
 21 H       -4.0750    -0.5320     0.8880 H     1 <1>   0.3700 
 22 H       -2.5220    -1.2200     0.4960 H     1 <1>   0.3700 
 23 H        5.2000    -0.9500    -1.2390 H     1 <1>   0.1000 
 24 H        3.2480    -2.8330    -1.3730 H     1 <1>   0.0800 
 25 H        1.5300    -2.8660    -1.0580 H     1 <1>   0.0800 
 26 H        6.6020    -1.3480     0.8290 H     1 <1>   0.1000 
 27 H        5.4740    -0.3550     1.8050 H     1 <1>   0.1000 
 28 H        5.8850     1.6250     0.2950 H     1 <1>   0.1000 
 29 H        7.0260     0.6490    -0.6790 H     1 <1>   0.1000 
 30 H        3.5710    -4.7430     0.1800 H     1 <1>   0.0800 
 31 H        2.4550    -5.1490    -1.0990 H     1 <1>   0.0800 
 32 H        1.8490    -4.7760     0.4950 H     1 <1>   0.0800 
@<TRIPOS>BOND
  1   1   2  1   
  2   1   3  1   
  3   2   4  2   
  4   2   5  1   
  5   3   6  1   
  6   3  17  1   
  7   3  18  1   
  8   4   7  1   
  9   5   8  1   
 10   5   9  1   
 11   6  10  2   
 12   6  11  am  
 13   7   8  2   
 14   8  12  1   
 15   9  13  1   
 16   9  19  1   
 17   9  20  1   
 18  11  21  1   
 19  11  22  1   
 20  12  14  1   
 21  12  15  1   
 22  12  23  1   
 23  13  16  1   
 24  13  24  1   
 25  13  25  1   
 26  14  15  1   
 27  14  26  1   
 28  14  27  1   
 29  15  28  1   
 30  15  29  1   
 31  16  30  1   
 32  16  31  1   
 33  16  32  1   
@<TRIPOS>SUBSTRUCTURE
  1 ****   2 GROUP 4 **** **** 0

# MOE 2024.06 (io_trps.svl 2023.06)
