@<TRIPOS>MOLECULE
NONAME
34 34 1 0 0 
SMALL
USER_CHARGES


@<TRIPOS>ATOM
  1 S       -0.9260    -1.4970    -0.5410 S.3   1 <1>  -0.0800 
  2 C        0.7480    -1.2120    -0.0520 C.2   1 <1>  -0.0450 
  3 C       -1.4260     0.1000    -0.0370 C.2   1 <1>  -0.1100 
  4 C        1.7040    -2.2650    -0.2430 C.2   1 <1>   0.5940 
  5 C        0.8390     0.0470     0.4550 C.2   1 <1>  -0.1500 
  6 C       -0.3810     0.7830     0.4630 C.2   1 <1>  -0.1500 
  7 O        1.4470    -3.3490    -0.7020 O.2   1 <1>  -0.5700 
  8 C        3.1450    -2.0130     0.1590 C.3   1 <1>  -0.0990 
  9 C        4.0160    -3.2110    -0.2300 C.3   1 <1>   0.3430 
 10 N        5.4620    -3.0070     0.0900 N.4   1 <1>  -0.9590 
 11 C        6.2940    -4.0200    -0.5920 C.3   1 <1>   0.4810 
 12 C        5.7450    -2.9550     1.5430 C.3   1 <1>   0.4810 
 13 C        7.6710    -3.4190    -0.7470 C.2   1 <1>  -0.2880 
 14 C        5.8790    -1.5030     1.9680 C.2   1 <1>  -0.2880 
 15 C        8.1970    -2.9920    -1.9000 C.2   1 <1>  -0.3000 
 16 C        5.9700    -0.3940     1.2190 C.2   1 <1>  -0.3000 
 17 H       -2.4610     0.3640    -0.1690 H     1 <1>   0.1500 
 18 H        1.7360     0.5040     0.8360 H     1 <1>   0.1500 
 19 H       -0.4260     1.7900     0.8430 H     1 <1>   0.1500 
 20 H        3.1680    -1.8550     1.2210 H     1 <1>   0.0800 
 21 H        3.4890    -1.1290    -0.3460 H     1 <1>   0.0800 
 22 H        3.9040    -3.3740    -1.2910 H     1 <1>   0.0800 
 23 H        3.6490    -4.0940     0.2700 H     1 <1>   0.0800 
 24 H        5.7810    -2.1050    -0.2830 H     1 <1>   0.4500 
 25 H        5.8920    -4.2240    -1.5720 H     1 <1>   0.0800 
 26 H        6.3300    -4.9420    -0.0350 H     1 <1>   0.0800 
 27 H        6.6650    -3.4710     1.7700 H     1 <1>   0.0800 
 28 H        4.9480    -3.4310     2.0930 H     1 <1>   0.0800 
 29 H        8.2200    -3.3630     0.1780 H     1 <1>   0.1500 
 30 H        5.9110    -1.4330     3.0430 H     1 <1>   0.1500 
 31 H        9.1860    -2.5700    -1.9870 H     1 <1>   0.1500 
 32 H        7.7050    -3.0250    -2.8590 H     1 <1>   0.1500 
 33 H        6.0690     0.5910     1.6510 H     1 <1>   0.1500 
 34 H        5.9680    -0.3290     0.1450 H     1 <1>   0.1500 
@<TRIPOS>BOND
  1   1   2  1   
  2   1   3  1   
  3   2   4  1   
  4   2   5  2   
  5   3   6  2   
  6   3  17  1   
  7   4   7  2   
  8   4   8  1   
  9   5   6  1   
 10   5  18  1   
 11   6  19  1   
 12   8   9  1   
 13   8  20  1   
 14   8  21  1   
 15   9  10  1   
 16   9  22  1   
 17   9  23  1   
 18  10  11  1   
 19  10  12  1   
 20  10  24  1   
 21  11  13  1   
 22  11  25  1   
 23  11  26  1   
 24  12  14  1   
 25  12  27  1   
 26  12  28  1   
 27  13  15  2   
 28  13  29  1   
 29  14  16  2   
 30  14  30  1   
 31  15  31  1   
 32  15  32  1   
 33  16  33  1   
 34  16  34  1   
@<TRIPOS>SUBSTRUCTURE
  1 ****   8 GROUP 4 **** **** 0

# MOE 2024.06 (io_trps.svl 2023.06)
