@<TRIPOS>MOLECULE
NONAME
52 53 1 0 0 
SMALL
USER_CHARGES


@<TRIPOS>ATOM
  1 O      -13.3260     4.7410    -0.2130 O.3   1 <1>  -0.3630 
  2 C      -12.1300     4.2090     0.1510 C.ar  1 <1>   0.0820 
  3 C      -14.3360     4.6470     0.7670 C.3   1 <1>   0.0400 
  4 C      -11.1760     4.9940     0.8130 C.ar  1 <1>   0.0820 
  5 C      -11.8540     2.8560    -0.0880 C.ar  1 <1>   0.0820 
  6 O      -11.2910     6.3270     1.0660 O.3   1 <1>  -0.3630 
  7 C      -10.0070     4.4130     1.2750 C.ar  1 <1>  -0.1500 
  8 O      -12.6660     1.9930    -0.7590 O.3   1 <1>  -0.3630 
  9 C      -10.6780     2.2990     0.3850 C.ar  1 <1>  -0.1500 
 10 C      -11.9070     7.1870     0.1290 C.3   1 <1>   0.0400 
 11 C       -9.7480     3.0680     1.0660 C.ar  1 <1>  -0.1430 
 12 C      -13.4150     2.4290    -1.8750 C.3   1 <1>   0.0400 
 13 C       -8.4610     2.4550     1.5550 C.3   1 <1>   0.4860 
 14 N       -7.4930     2.6250     0.4440 N.4   1 <1>  -0.9060 
 15 C       -6.1140     2.0960     0.7480 C.3   1 <1>   0.3430 
 16 C       -5.0700     2.2970    -0.4010 C.3   1 <1>   0.4230 
 17 N       -3.6660     1.8950    -0.0700 N.4   1 <1>  -0.9590 
 18 C       -4.9210     3.7570    -0.8260 C.3   1 <1>  -0.1600 
 19 C       -2.8040     2.5620    -1.0920 C.3   1 <1>   0.3430 
 20 C       -3.4230     0.4230    -0.0240 C.3   1 <1>   0.3430 
 21 C       -3.5150     3.8690    -1.4190 C.3   1 <1>  -0.1600 
 22 C       -2.0670     0.1550     0.6180 C.3   1 <1>  -0.2400 
 23 H      -15.2300     5.0950     0.3750 H     1 <1>   0.0800 
 24 H      -14.0150     5.1720     1.6500 H     1 <1>   0.0800 
 25 H      -14.5100     3.6090     0.9900 H     1 <1>   0.0800 
 26 H       -9.3160     5.0460     1.8050 H     1 <1>   0.1500 
 27 H      -10.5190     1.2490     0.2060 H     1 <1>   0.1500 
 28 H      -11.5480     8.1850     0.3030 H     1 <1>   0.0800 
 29 H      -12.9720     7.1580     0.2740 H     1 <1>   0.0800 
 30 H      -11.6520     6.8710    -0.8670 H     1 <1>   0.0800 
 31 H      -13.6440     1.5720    -2.4820 H     1 <1>   0.0800 
 32 H      -12.8340     3.1370    -2.4400 H     1 <1>   0.0800 
 33 H      -14.3280     2.8790    -1.5300 H     1 <1>   0.0800 
 34 H       -8.6120     1.4110     1.7820 H     1 <1>   0.0800 
 35 H       -8.1250     2.9660     2.4440 H     1 <1>   0.0800 
 36 H       -7.4940     3.6330     0.2300 H     1 <1>   0.4500 
 37 H       -7.9270     2.1740    -0.3750 H     1 <1>   0.4500 
 38 H       -6.1850     1.0430     0.9640 H     1 <1>   0.0800 
 39 H       -5.7430     2.5930     1.6300 H     1 <1>   0.0800 
 40 H       -5.3850     1.7250    -1.2590 H     1 <1>   0.0800 
 41 H       -3.3840     2.2990     0.8340 H     1 <1>   0.4500 
 42 H       -5.0010     4.4100     0.0270 H     1 <1>   0.0800 
 43 H       -5.6710     4.0360    -1.5470 H     1 <1>   0.0800 
 44 H       -2.7450     1.9540    -1.9810 H     1 <1>   0.0800 
 45 H       -1.8070     2.7360    -0.7180 H     1 <1>   0.0800 
 46 H       -3.4460     0.0060    -1.0190 H     1 <1>   0.0800 
 47 H       -4.1840    -0.0640     0.5650 H     1 <1>   0.0800 
 48 H       -2.9810     4.7020    -0.9930 H     1 <1>   0.0800 
 49 H       -3.5460     4.0050    -2.4880 H     1 <1>   0.0800 
 50 H       -1.2620     0.5490     0.0230 H     1 <1>   0.0800 
 51 H       -1.9180    -0.9080     0.6950 H     1 <1>   0.0800 
 52 H       -2.0180     0.5650     1.6110 H     1 <1>   0.0800 
@<TRIPOS>BOND
  1   1   2  1   
  2   1   3  1   
  3   2   4  ar  
  4   2   5  ar  
  5   3  23  1   
  6   3  24  1   
  7   3  25  1   
  8   4   6  1   
  9   4   7  ar  
 10   5   8  1   
 11   5   9  ar  
 12   6  10  1   
 13   7  11  ar  
 14   7  26  1   
 15   8  12  1   
 16   9  11  ar  
 17   9  27  1   
 18  10  28  1   
 19  10  29  1   
 20  10  30  1   
 21  11  13  1   
 22  12  31  1   
 23  12  32  1   
 24  12  33  1   
 25  13  14  1   
 26  13  34  1   
 27  13  35  1   
 28  14  15  1   
 29  14  36  1   
 30  14  37  1   
 31  15  16  1   
 32  15  38  1   
 33  15  39  1   
 34  16  17  1   
 35  16  18  1   
 36  16  40  1   
 37  17  19  1   
 38  17  20  1   
 39  17  41  1   
 40  18  21  1   
 41  18  42  1   
 42  18  43  1   
 43  19  21  1   
 44  19  44  1   
 45  19  45  1   
 46  20  22  1   
 47  20  46  1   
 48  20  47  1   
 49  21  48  1   
 50  21  49  1   
 51  22  50  1   
 52  22  51  1   
 53  22  52  1   
@<TRIPOS>SUBSTRUCTURE
  1 ****  14 GROUP 4 **** **** 0

# MOE 2024.06 (io_trps.svl 2023.06)
