@<TRIPOS>MOLECULE
NONAME
37 39 1 0 0 
SMALL
USER_CHARGES


@<TRIPOS>ATOM
  1 O       -0.2860     0.5590    -1.2710 O.2   1 <1>  -0.5700 
  2 C       -1.1720     1.2960    -0.9180 C.2   1 <1>   0.5690 
  3 N       -1.0340     2.5950    -0.5040 N.am  1 <1>  -0.2370 
  4 C       -2.6200     0.8510    -0.8950 C.3   1 <1>  -0.0190 
  5 C        0.1960     3.2880    -0.4060 C.ar  1 <1>   0.1170 
  6 C       -2.2630     3.1220    -0.2000 C.2   1 <1>   0.5690 
  7 C       -3.3700     2.1060    -0.3890 C.3   1 <1>  -0.0190 
  8 C       -2.8180    -0.4450    -0.0830 C.3   1 <1>  -0.0220 
  9 C        1.2980     2.7000     0.2090 C.ar  1 <1>  -0.1500 
 10 C        0.3370     4.5730    -0.9210 C.ar  1 <1>  -0.1500 
 11 O       -2.4900     4.2470     0.1660 O.2   1 <1>  -0.5700 
 12 C       -4.2200     1.9330     0.8850 C.3   1 <1>  -0.0220 
 13 C       -4.2210    -0.5240     0.4850 C.2   1 <1>  -0.2880 
 14 C        2.5050     3.3690     0.3070 C.ar  1 <1>  -0.1500 
 15 C        1.5410     5.2470    -0.8250 C.ar  1 <1>  -0.1500 
 16 C       -4.8600     0.5600     0.9260 C.2   1 <1>  -0.2880 
 17 C        2.6320     4.6530    -0.2130 C.ar  1 <1>   0.0830 
 18 O        3.7760     5.3830    -0.1640 O.3   1 <1>  -0.3630 
 19 C        4.9480     4.8590     0.4160 C.3   1 <1>   0.1200 
 20 C        6.0440     5.9140     0.3000 C.3   1 <1>  -0.2400 
 21 H       -2.9250     0.6600    -1.9080 H     1 <1>   0.0800 
 22 H       -4.0140     2.4570    -1.1760 H     1 <1>   0.0800 
 23 H       -2.1180    -0.4900     0.7340 H     1 <1>   0.0800 
 24 H       -2.6290    -1.2900    -0.7220 H     1 <1>   0.0800 
 25 H        1.2140     1.7060     0.6110 H     1 <1>   0.1500 
 26 H       -0.4990     5.0540    -1.3960 H     1 <1>   0.1500 
 27 H       -4.9800     2.6960     0.9050 H     1 <1>   0.0800 
 28 H       -3.6120     2.0520     1.7660 H     1 <1>   0.0800 
 29 H       -4.6320    -1.5200     0.5190 H     1 <1>   0.1500 
 30 H        3.3280     2.8760     0.7870 H     1 <1>   0.1500 
 31 H        1.6420     6.2400    -1.2230 H     1 <1>   0.1500 
 32 H       -5.8470     0.5410     1.3590 H     1 <1>   0.1500 
 33 H        5.2220     3.9650    -0.1170 H     1 <1>   0.0800 
 34 H        4.7460     4.6340     1.4490 H     1 <1>   0.0800 
 35 H        6.2250     6.1440    -0.7350 H     1 <1>   0.0800 
 36 H        6.9540     5.5440     0.7350 H     1 <1>   0.0800 
 37 H        5.7510     6.8080     0.8200 H     1 <1>   0.0800 
@<TRIPOS>BOND
  1   1   2  2   
  2   2   3  am  
  3   2   4  1   
  4   3   5  1   
  5   3   6  am  
  6   4   7  1   
  7   4   8  1   
  8   4  21  1   
  9   5   9  ar  
 10   5  10  ar  
 11   6   7  1   
 12   6  11  2   
 13   7  12  1   
 14   7  22  1   
 15   8  13  1   
 16   8  23  1   
 17   8  24  1   
 18   9  14  ar  
 19   9  25  1   
 20  10  15  ar  
 21  10  26  1   
 22  12  16  1   
 23  12  27  1   
 24  12  28  1   
 25  13  16  2   
 26  13  29  1   
 27  14  17  ar  
 28  14  30  1   
 29  15  17  ar  
 30  15  31  1   
 31  16  32  1   
 32  17  18  1   
 33  18  19  1   
 34  19  20  1   
 35  19  33  1   
 36  19  34  1   
 37  20  35  1   
 38  20  36  1   
 39  20  37  1   
@<TRIPOS>SUBSTRUCTURE
  1 ****   5 GROUP 4 **** **** 0

# MOE 2024.06 (io_trps.svl 2023.06)
