@<TRIPOS>MOLECULE
NONAME
42 43 1 0 0 
SMALL
USER_CHARGES


@<TRIPOS>ATOM
  1 O        0.6090     0.0160    -2.0450 O.2   1 <1>  -0.5700 
  2 C        0.7360    -0.7430    -1.1030 C.2   1 <1>   0.5440 
  3 N        1.6640    -0.4380    -0.1250 N.am  1 <1>  -0.6600 
  4 C       -0.0730    -1.9450    -1.0490 C.ar  1 <1>   0.0860 
  5 C        2.2870    -1.4560     0.7710 C.3   1 <1>   0.1400 
  6 C        2.2740     0.9170    -0.0210 C.3   1 <1>   0.1400 
  7 C       -0.7680    -2.3140     0.1050 C.ar  1 <1>  -0.1500 
  8 C       -0.1930    -2.7780    -2.1620 C.ar  1 <1>  -0.1500 
  9 C        3.7850    -1.5820     0.4510 C.3   1 <1>  -0.0190 
 10 C        3.7730     0.8320    -0.3250 C.3   1 <1>  -0.1600 
 11 C       -1.5270    -3.4680     0.1580 C.ar  1 <1>  -0.1500 
 12 C       -0.9500    -3.9330    -2.1190 C.ar  1 <1>  -0.1500 
 13 C        4.4380    -2.6150     1.3730 C.2   1 <1>   0.6590 
 14 C        4.4760    -0.2070     0.5630 C.3   1 <1>  -0.1600 
 15 C       -1.6200    -4.2920    -0.9610 C.ar  1 <1>   0.0820 
 16 O        3.9900    -2.8240     2.4680 O.2   1 <1>  -0.5700 
 17 O        5.5200    -3.2780     0.9720 O.3   1 <1>  -0.4300 
 18 O       -2.3350    -5.4390    -0.9950 O.3   1 <1>  -0.3630 
 19 C        6.0750    -3.2700    -0.3230 C.3   1 <1>   0.1200 
 20 C       -3.0640    -5.8940     0.1230 C.3   1 <1>   0.0400 
 21 C        7.3070    -4.1680    -0.3060 C.3   1 <1>  -0.2400 
 22 H        1.8210    -2.4180     0.6460 H     1 <1>   0.0800 
 23 H        2.1510    -1.1510     1.7950 H     1 <1>   0.0800 
 24 H        2.1230     1.2910     0.9770 H     1 <1>   0.0800 
 25 H        1.8010     1.6020    -0.7050 H     1 <1>   0.0800 
 26 H       -0.7070    -1.6770     0.9700 H     1 <1>   0.1500 
 27 H        0.3170    -2.5040    -3.0700 H     1 <1>   0.1500 
 28 H        3.8490    -1.9290    -0.5630 H     1 <1>   0.0800 
 29 H        4.2190     1.8000    -0.1750 H     1 <1>   0.0800 
 30 H        3.8970     0.5740    -1.3630 H     1 <1>   0.0800 
 31 H       -2.0400    -3.7100     1.0690 H     1 <1>   0.1500 
 32 H       -1.0300    -4.5660    -2.9850 H     1 <1>   0.1500 
 33 H        5.5100    -0.2830     0.2760 H     1 <1>   0.0800 
 34 H        4.4430     0.1230     1.5880 H     1 <1>   0.0800 
 35 H        6.3480    -2.2620    -0.5820 H     1 <1>   0.0800 
 36 H        5.3420    -3.6490    -1.0140 H     1 <1>   0.0800 
 37 H       -3.5460    -6.8170    -0.1470 H     1 <1>   0.0800 
 38 H       -3.8040    -5.1570     0.3800 H     1 <1>   0.0800 
 39 H       -2.3840    -6.0610     0.9390 H     1 <1>   0.0800 
 40 H        8.0300    -3.7930     0.3970 H     1 <1>   0.0800 
 41 H        7.7570    -4.1900    -1.2820 H     1 <1>   0.0800 
 42 H        7.0310    -5.1710    -0.0340 H     1 <1>   0.0800 
@<TRIPOS>BOND
  1   1   2  2   
  2   2   3  am  
  3   2   4  1   
  4   3   5  1   
  5   3   6  1   
  6   4   7  ar  
  7   4   8  ar  
  8   5   9  1   
  9   5  22  1   
 10   5  23  1   
 11   6  10  1   
 12   6  24  1   
 13   6  25  1   
 14   7  11  ar  
 15   7  26  1   
 16   8  12  ar  
 17   8  27  1   
 18   9  13  1   
 19   9  14  1   
 20   9  28  1   
 21  10  14  1   
 22  10  29  1   
 23  10  30  1   
 24  11  15  ar  
 25  11  31  1   
 26  12  15  ar  
 27  12  32  1   
 28  13  16  2   
 29  13  17  1   
 30  14  33  1   
 31  14  34  1   
 32  15  18  1   
 33  17  19  1   
 34  18  20  1   
 35  19  21  1   
 36  19  35  1   
 37  19  36  1   
 38  20  37  1   
 39  20  38  1   
 40  20  39  1   
 41  21  40  1   
 42  21  41  1   
 43  21  42  1   
@<TRIPOS>SUBSTRUCTURE
  1 ****   5 GROUP 4 **** **** 0

# MOE 2024.06 (io_trps.svl 2023.06)
