@<TRIPOS>MOLECULE
NONAME
48 50 1 0 0 
SMALL
USER_CHARGES


@<TRIPOS>ATOM
  1 O        0.2750     0.9220    -0.1150 O.2   1 <1>  -0.5700 
  2 C        0.9060     1.9540    -0.2500 C.2   1 <1>   0.5440 
  3 N        0.2180     3.1130    -0.5410 N.am  1 <1>  -0.6600 
  4 C        2.3480     1.9360    -0.0870 C.ar  1 <1>   0.0860 
  5 C        0.6840     4.4720    -0.1210 C.3   1 <1>   0.1400 
  6 C       -1.2100     3.0840    -0.9840 C.3   1 <1>   0.1400 
  7 C        2.9390     1.2710     0.9860 C.ar  1 <1>  -0.1500 
  8 C        3.1970     2.5720    -0.9950 C.ar  1 <1>  -0.1500 
  9 C       -0.2410     5.0470     0.9640 C.3   1 <1>   0.1400 
 10 C       -2.1330     3.6580     0.1020 C.3   1 <1>   0.1400 
 11 C        4.3110     1.2560     1.1550 C.ar  1 <1>  -0.1500 
 12 C        4.5710     2.5610    -0.8350 C.ar  1 <1>  -0.1500 
 13 N       -1.6700     5.0180     0.5220 N.am  1 <1>  -0.6600 
 14 C        5.1390     1.9000     0.2510 C.ar  1 <1>   0.0830 
 15 C       -2.3460     6.1760     0.1910 C.2   1 <1>   0.7150 
 16 O        6.4680     1.8370     0.4870 O.3   1 <1>  -0.3630 
 17 O       -1.6940     7.1930     0.0240 O.2   1 <1>  -0.5700 
 18 C       -3.7870     6.1940     0.0480 C.2   1 <1>   0.0550 
 19 C        7.4110     2.3890    -0.4050 C.3   1 <1>   0.2580 
 20 O       -4.3790     6.9460    -0.8780 O.3   1 <1>  -0.2800 
 21 C       -4.7590     5.5320     0.7410 C.2   1 <1>  -0.1500 
 22 C        8.8130     2.1130     0.1230 C.2   1 <1>  -0.2760 
 23 C       -5.6790     6.7820    -0.7960 C.2   1 <1>  -0.0100 
 24 C       -5.9830     5.9130     0.1910 C.2   1 <1>  -0.1500 
 25 C        9.6720     3.0790     0.4650 C.2   1 <1>  -0.3000 
 26 C        9.1600     0.6350     0.2270 C.3   1 <1>  -0.1020 
 27 H        0.6800     5.1300    -0.9730 H     1 <1>   0.0800 
 28 H        1.6860     4.4320     0.2650 H     1 <1>   0.0800 
 29 H       -1.5140     2.0780    -1.2160 H     1 <1>   0.0800 
 30 H       -1.3110     3.6690    -1.8810 H     1 <1>   0.0800 
 31 H        2.3070     0.7580     1.6910 H     1 <1>   0.1500 
 32 H        2.7640     3.0770    -1.8410 H     1 <1>   0.1500 
 33 H        0.0640     6.0530     1.1980 H     1 <1>   0.0800 
 34 H       -0.1390     4.4610     1.8610 H     1 <1>   0.0800 
 35 H       -2.1270     3.0000     0.9530 H     1 <1>   0.0800 
 36 H       -3.1350     3.6950    -0.2850 H     1 <1>   0.0800 
 37 H        4.7520     0.7400     1.9900 H     1 <1>   0.1500 
 38 H        5.1790     3.0660    -1.5600 H     1 <1>   0.1500 
 39 H        7.2330     3.4480    -0.4680 H     1 <1>   0.0800 
 40 H        7.2760     1.9350    -1.3710 H     1 <1>   0.0800 
 41 H       -4.6290     4.8500     1.5620 H     1 <1>   0.1500 
 42 H       -6.3160     7.3210    -1.4750 H     1 <1>   0.1500 
 43 H       -6.9530     5.5730     0.5100 H     1 <1>   0.1500 
 44 H       10.6650     2.8980     0.8380 H     1 <1>   0.1500 
 45 H        9.4580     4.1310     0.4050 H     1 <1>   0.1500 
 46 H        8.4880     0.1430     0.9090 H     1 <1>   0.0800 
 47 H       10.1640     0.5040     0.5880 H     1 <1>   0.0800 
 48 H        9.0800     0.1640    -0.7370 H     1 <1>   0.0800 
@<TRIPOS>BOND
  1   1   2  2   
  2   2   3  am  
  3   2   4  1   
  4   3   5  1   
  5   3   6  1   
  6   4   7  ar  
  7   4   8  ar  
  8   5   9  1   
  9   5  27  1   
 10   5  28  1   
 11   6  10  1   
 12   6  29  1   
 13   6  30  1   
 14   7  11  ar  
 15   7  31  1   
 16   8  12  ar  
 17   8  32  1   
 18   9  13  1   
 19   9  33  1   
 20   9  34  1   
 21  10  13  1   
 22  10  35  1   
 23  10  36  1   
 24  11  14  ar  
 25  11  37  1   
 26  12  14  ar  
 27  12  38  1   
 28  13  15  am  
 29  14  16  1   
 30  15  17  2   
 31  15  18  1   
 32  16  19  1   
 33  18  20  1   
 34  18  21  2   
 35  19  22  1   
 36  19  39  1   
 37  19  40  1   
 38  20  23  1   
 39  21  24  1   
 40  21  41  1   
 41  22  25  2   
 42  22  26  1   
 43  23  24  2   
 44  23  42  1   
 45  24  43  1   
 46  25  44  1   
 47  25  45  1   
 48  26  46  1   
 49  26  47  1   
 50  26  48  1   
@<TRIPOS>SUBSTRUCTURE
  1 ****   5 GROUP 4 **** **** 0

# MOE 2024.06 (io_trps.svl 2023.06)
