@<TRIPOS>MOLECULE
NONAME
51 53 1 0 0 
SMALL
USER_CHARGES


@<TRIPOS>ATOM
  1 S        0.1150    -0.4650    -1.7410 S.o2  1 <1>   1.4470 
  2 O        0.6020    -0.6800    -3.0870 O.2   1 <1>  -0.6500 
  3 O       -0.4360     0.8250    -1.3910 O.2   1 <1>  -0.6500 
  4 N        1.4110    -0.7710    -0.6920 N.am  1 <1>  -0.8490 
  5 C       -1.0940    -1.7520    -1.3170 C.ar  1 <1>  -0.0090 
  6 C        2.3110     0.3780    -0.5960 C.3   1 <1>   0.1960 
  7 C        2.1460    -1.9850    -1.0590 C.3   1 <1>   0.1960 
  8 C       -1.2560    -2.1950    -0.0130 C.ar  1 <1>  -0.1500 
  9 C       -1.9050    -2.3170    -2.2910 C.ar  1 <1>  -0.1500 
 10 C        3.3570     0.1340     0.4970 C.3   1 <1>  -0.1600 
 11 C        3.1740    -2.3200     0.0230 C.3   1 <1>  -0.1600 
 12 C       -2.1730    -3.1820     0.3580 C.ar  1 <1>   0.0860 
 13 C       -2.8300    -3.2910    -1.9720 C.ar  1 <1>  -0.1500 
 14 C        4.1540    -1.1550     0.2450 C.3   1 <1>  -0.0800 
 15 C       -2.9720    -3.7340    -0.6590 C.ar  1 <1>   0.0820 
 16 C       -2.2410    -3.5790     1.7570 C.2   1 <1>   0.5440 
 17 C        5.1260    -1.4330     1.4050 C.3   1 <1>  -0.0160 
 18 O       -3.8700    -4.7020    -0.3410 O.3   1 <1>  -0.3630 
 19 O       -1.3060    -3.4010     2.5100 O.2   1 <1>  -0.5700 
 20 N       -3.3320    -4.1510     2.3110 N.am  1 <1>  -0.8000 
 21 C        5.9760    -2.6690     1.1500 C.ar  1 <1>  -0.1440 
 22 C       -4.6590    -5.3720    -1.3020 C.3   1 <1>   0.0400 
 23 C        7.0450    -2.6090     0.2690 C.ar  1 <1>  -0.1500 
 24 C        5.6900    -3.8650     1.7910 C.ar  1 <1>  -0.1500 
 25 C        7.8160    -3.7330     0.0280 C.ar  1 <1>  -0.1500 
 26 C        6.4600    -4.9890     1.5500 C.ar  1 <1>  -0.1500 
 27 C        7.5240    -4.9240     0.6680 C.ar  1 <1>  -0.1500 
 28 H        1.7500     1.2620    -0.3400 H     1 <1>   0.0800 
 29 H        2.7930     0.5470    -1.5450 H     1 <1>   0.0800 
 30 H        2.6430    -1.8450    -2.0060 H     1 <1>   0.0800 
 31 H        1.4640    -2.8130    -1.1570 H     1 <1>   0.0800 
 32 H       -0.6390    -1.7560     0.7550 H     1 <1>   0.1500 
 33 H       -1.8070    -1.9860    -3.3130 H     1 <1>   0.1500 
 34 H        2.8490     0.0750     1.4440 H     1 <1>   0.0800 
 35 H        4.0260     0.9750     0.5350 H     1 <1>   0.0800 
 36 H        3.7130    -3.2010    -0.2760 H     1 <1>   0.0800 
 37 H        2.6520    -2.5470     0.9370 H     1 <1>   0.0800 
 38 H       -3.4300    -3.6910    -2.7670 H     1 <1>   0.1500 
 39 H        4.7300    -1.0250    -0.6560 H     1 <1>   0.0800 
 40 H        4.5710    -1.5560     2.3200 H     1 <1>   0.0800 
 41 H        5.7780    -0.5870     1.5380 H     1 <1>   0.0800 
 42 H       -3.2970    -4.4650     3.2800 H     1 <1>   0.3700 
 43 H       -4.0900    -4.5030     1.7220 H     1 <1>   0.3700 
 44 H       -5.2530    -6.1100    -0.7930 H     1 <1>   0.0800 
 45 H       -4.0110    -5.8550    -2.0130 H     1 <1>   0.0800 
 46 H       -5.3020    -4.6590    -1.7870 H     1 <1>   0.0800 
 47 H        7.2800    -1.6880    -0.2330 H     1 <1>   0.1500 
 48 H        4.8630    -3.9270     2.4770 H     1 <1>   0.1500 
 49 H        8.6440    -3.6800    -0.6580 H     1 <1>   0.1500 
 50 H        6.2320    -5.9140     2.0500 H     1 <1>   0.1500 
 51 H        8.1230    -5.7980     0.4810 H     1 <1>   0.1500 
@<TRIPOS>BOND
  1   1   2  2   
  2   1   3  2   
  3   1   4  am  
  4   1   5  1   
  5   4   6  1   
  6   4   7  1   
  7   5   8  ar  
  8   5   9  ar  
  9   6  10  1   
 10   6  28  1   
 11   6  29  1   
 12   7  11  1   
 13   7  30  1   
 14   7  31  1   
 15   8  12  ar  
 16   8  32  1   
 17   9  13  ar  
 18   9  33  1   
 19  10  14  1   
 20  10  34  1   
 21  10  35  1   
 22  11  14  1   
 23  11  36  1   
 24  11  37  1   
 25  12  15  ar  
 26  12  16  1   
 27  13  15  ar  
 28  13  38  1   
 29  14  17  1   
 30  14  39  1   
 31  15  18  1   
 32  16  19  2   
 33  16  20  am  
 34  17  21  1   
 35  17  40  1   
 36  17  41  1   
 37  18  22  1   
 38  20  42  1   
 39  20  43  1   
 40  21  23  ar  
 41  21  24  ar  
 42  22  44  1   
 43  22  45  1   
 44  22  46  1   
 45  23  25  ar  
 46  23  47  1   
 47  24  26  ar  
 48  24  48  1   
 49  25  27  ar  
 50  25  49  1   
 51  26  27  ar  
 52  26  50  1   
 53  27  51  1   
@<TRIPOS>SUBSTRUCTURE
  1 ****   7 GROUP 4 **** **** 0

# MOE 2024.06 (io_trps.svl 2023.06)
