@<TRIPOS>MOLECULE
NONAME
44 45 1 0 0 
SMALL
USER_CHARGES


@<TRIPOS>ATOM
  1 O       -0.6100     0.3840    -0.6950 O.3   1 <1>  -0.3630 
  2 C       -1.6670    -0.2650    -0.1360 C.ar  1 <1>   0.0830 
  3 C        0.6600     0.0350    -0.1920 C.3   1 <1>   0.0400 
  4 C       -2.4730     0.3570     0.8280 C.ar  1 <1>   0.0830 
  5 C       -1.9490    -1.5750    -0.5340 C.ar  1 <1>   0.0830 
  6 O       -2.3380     1.6310     1.2920 O.3   1 <1>  -0.3630 
  7 C       -3.5210    -0.3480     1.3930 C.ar  1 <1>  -0.1500 
  8 O       -1.1560    -2.1460    -1.4860 O.3   1 <1>  -0.3630 
  9 C       -3.0210    -2.2570     0.0380 C.ar  1 <1>  -0.1500 
 10 C       -1.7550     2.6490     0.5060 C.3   1 <1>   0.0400 
 11 C       -3.8120    -1.6440     0.9980 C.ar  1 <1>  -0.1430 
 12 C       -1.1840    -3.5270    -1.7710 C.3   1 <1>   0.0400 
 13 C       -4.9990    -2.3660     1.6030 C.3   1 <1>   0.4860 
 14 N       -6.1310    -2.3050     0.6360 N.4   1 <1>  -0.9590 
 15 C       -6.5890    -0.8960     0.4180 C.3   1 <1>   0.3430 
 16 C       -7.2420    -3.2130     1.0480 C.3   1 <1>   0.3430 
 17 C       -7.6780    -0.8600    -0.6510 C.3   1 <1>  -0.1600 
 18 C       -8.3360    -3.2120    -0.0160 C.3   1 <1>  -0.1600 
 19 C       -8.8250    -1.7880    -0.2640 C.3   1 <1>   0.2000 
 20 O       -9.7400    -1.8100    -1.2870 O.3   1 <1>  -0.6800 
 21 H        0.8540    -1.0010    -0.4060 H     1 <1>   0.0800 
 22 H        1.3950     0.6520    -0.6770 H     1 <1>   0.0800 
 23 H        0.6740     0.2090     0.8700 H     1 <1>   0.0800 
 24 H       -4.1060     0.1500     2.1470 H     1 <1>   0.1500 
 25 H       -3.2400    -3.2630    -0.2650 H     1 <1>   0.1500 
 26 H       -2.0390     3.5990     0.9210 H     1 <1>   0.0800 
 27 H       -2.1140     2.5660    -0.5050 H     1 <1>   0.0800 
 28 H       -0.6860     2.5470     0.5400 H     1 <1>   0.0800 
 29 H       -1.0180    -4.0760    -0.8610 H     1 <1>   0.0800 
 30 H       -2.1320    -3.7760    -2.2120 H     1 <1>   0.0800 
 31 H       -0.3950    -3.7370    -2.4700 H     1 <1>   0.0800 
 32 H       -5.2760    -1.9040     2.5370 H     1 <1>   0.0800 
 33 H       -4.7280    -3.3920     1.7960 H     1 <1>   0.0800 
 34 H       -5.7550    -2.6320    -0.2630 H     1 <1>   0.4500 
 35 H       -5.7620    -0.2800     0.0980 H     1 <1>   0.0800 
 36 H       -6.9760    -0.4890     1.3380 H     1 <1>   0.0800 
 37 H       -7.6560    -2.8810     1.9860 H     1 <1>   0.0800 
 38 H       -6.8720    -4.2180     1.1780 H     1 <1>   0.0800 
 39 H       -7.2560    -1.1480    -1.5980 H     1 <1>   0.0800 
 40 H       -8.0480     0.1460    -0.7380 H     1 <1>   0.0800 
 41 H       -9.1590    -3.8140     0.3280 H     1 <1>   0.0800 
 42 H       -7.9550    -3.6470    -0.9230 H     1 <1>   0.0800 
 43 H       -9.3330    -1.4100     0.6090 H     1 <1>   0.0800 
 44 H       -9.3450    -2.1100    -2.1290 H     1 <1>   0.4000 
@<TRIPOS>BOND
  1   1   2  1   
  2   1   3  1   
  3   2   4  ar  
  4   2   5  ar  
  5   3  21  1   
  6   3  22  1   
  7   3  23  1   
  8   4   6  1   
  9   4   7  ar  
 10   5   8  1   
 11   5   9  ar  
 12   6  10  1   
 13   7  11  ar  
 14   7  24  1   
 15   8  12  1   
 16   9  11  ar  
 17   9  25  1   
 18  10  26  1   
 19  10  27  1   
 20  10  28  1   
 21  11  13  1   
 22  12  29  1   
 23  12  30  1   
 24  12  31  1   
 25  13  14  1   
 26  13  32  1   
 27  13  33  1   
 28  14  15  1   
 29  14  16  1   
 30  14  34  1   
 31  15  17  1   
 32  15  35  1   
 33  15  36  1   
 34  16  18  1   
 35  16  37  1   
 36  16  38  1   
 37  17  19  1   
 38  17  39  1   
 39  17  40  1   
 40  18  19  1   
 41  18  41  1   
 42  18  42  1   
 43  19  20  1   
 44  19  43  1   
 45  20  44  1   
@<TRIPOS>SUBSTRUCTURE
  1 ****  11 GROUP 4 **** **** 0

# MOE 2024.06 (io_trps.svl 2023.06)
