@<TRIPOS>MOLECULE
NONAME
45 47 1 0 0 
SMALL
USER_CHARGES


@<TRIPOS>ATOM
  1 BR       1.1730    -0.8490    -2.5780 Br    1 <1>  -0.1110 
  2 C        0.4190    -2.1820    -1.4050 C.ar  1 <1>   0.1110 
  3 C        1.0620    -2.5190    -0.2250 C.ar  1 <1>   0.0820 
  4 C       -0.7720    -2.7710    -1.7830 C.ar  1 <1>  -0.1500 
  5 O        2.2210    -1.9330     0.1380 O.3   1 <1>  -0.5330 
  6 C        0.4980    -3.4860     0.6000 C.ar  1 <1>   0.0830 
  7 C       -1.3490    -3.7240    -0.9520 C.ar  1 <1>  -0.1430 
  8 O        1.1700    -3.7960     1.7450 O.3   1 <1>  -0.3630 
  9 C       -0.7080    -4.0830     0.2310 C.ar  1 <1>  -0.1500 
 10 C       -2.6720    -4.3600    -1.3380 C.3   1 <1>   0.4860 
 11 C        0.8560    -4.9470     2.5010 C.3   1 <1>   0.0400 
 12 N       -3.7590    -3.7120    -0.5540 N.4   1 <1>  -0.9590 
 13 C       -5.0760    -4.4310    -0.7320 C.3   1 <1>   0.3430 
 14 C       -3.8970    -2.2410    -0.8920 C.3   1 <1>   0.3430 
 15 C       -6.2310    -3.7610     0.0440 C.3   1 <1>   0.2090 
 16 C       -5.0450    -1.5560    -0.1210 C.3   1 <1>   0.2090 
 17 N       -6.3200    -2.3110    -0.2930 N.pl3 1 <1>  -0.8380 
 18 C       -7.4810    -1.6590     0.1050 C.ar  1 <1>   0.1000 
 19 C       -7.7360    -1.3850     1.4480 C.ar  1 <1>  -0.1500 
 20 C       -8.4090    -1.2720    -0.8580 C.ar  1 <1>  -0.1500 
 21 C       -8.8980    -0.7350     1.8260 C.ar  1 <1>  -0.1500 
 22 C       -9.5750    -0.6220    -0.4950 C.ar  1 <1>  -0.1500 
 23 C       -9.7980    -0.3650     0.8440 C.ar  1 <1>   0.1900 
 24 F      -10.8980     0.2490     1.1960 F     1 <1>  -0.1900 
 25 H       -1.2220    -2.4750    -2.7150 H     1 <1>   0.1500 
 26 H        2.5350    -2.3030     0.9880 H     1 <1>   0.4500 
 27 H       -1.1470    -4.8300     0.8660 H     1 <1>   0.1500 
 28 H       -2.6360    -5.4150    -1.1220 H     1 <1>   0.0800 
 29 H       -2.8480    -4.2340    -2.3950 H     1 <1>   0.0800 
 30 H        1.5900    -5.0430     3.2810 H     1 <1>   0.0800 
 31 H        0.8940    -5.8100     1.8600 H     1 <1>   0.0800 
 32 H       -0.1190    -4.8270     2.9370 H     1 <1>   0.0800 
 33 H       -3.4930    -3.7620     0.4360 H     1 <1>   0.4500 
 34 H       -4.9860    -5.4540    -0.4070 H     1 <1>   0.0800 
 35 H       -5.3440    -4.4380    -1.7760 H     1 <1>   0.0800 
 36 H       -4.0940    -2.1310    -1.9460 H     1 <1>   0.0800 
 37 H       -2.9760    -1.7250    -0.6730 H     1 <1>   0.0800 
 38 H       -6.0820    -3.8800     1.1030 H     1 <1>   0.0800 
 39 H       -7.1610    -4.2400    -0.2150 H     1 <1>   0.0800 
 40 H       -5.1750    -0.5530    -0.4930 H     1 <1>   0.0800 
 41 H       -4.7970    -1.4900     0.9240 H     1 <1>   0.0800 
 42 H       -7.0260    -1.6800     2.1980 H     1 <1>   0.1500 
 43 H       -8.2090    -1.4850    -1.8920 H     1 <1>   0.1500 
 44 H       -9.1100    -0.5160     2.8570 H     1 <1>   0.1500 
 45 H      -10.2990    -0.3180    -1.2300 H     1 <1>   0.1500 
@<TRIPOS>BOND
  1   1   2  1   
  2   2   3  ar  
  3   2   4  ar  
  4   3   5  1   
  5   3   6  ar  
  6   4   7  ar  
  7   4  25  1   
  8   5  26  1   
  9   6   8  1   
 10   6   9  ar  
 11   7   9  ar  
 12   7  10  1   
 13   8  11  1   
 14   9  27  1   
 15  10  12  1   
 16  10  28  1   
 17  10  29  1   
 18  11  30  1   
 19  11  31  1   
 20  11  32  1   
 21  12  13  1   
 22  12  14  1   
 23  12  33  1   
 24  13  15  1   
 25  13  34  1   
 26  13  35  1   
 27  14  16  1   
 28  14  36  1   
 29  14  37  1   
 30  15  17  1   
 31  15  38  1   
 32  15  39  1   
 33  16  17  1   
 34  16  40  1   
 35  16  41  1   
 36  17  18  1   
 37  18  19  ar  
 38  18  20  ar  
 39  19  21  ar  
 40  19  42  1   
 41  20  22  ar  
 42  20  43  1   
 43  21  23  ar  
 44  21  44  1   
 45  22  23  ar  
 46  22  45  1   
 47  23  24  1   
@<TRIPOS>SUBSTRUCTURE
  1 ****  14 GROUP 4 **** **** 0

# MOE 2024.06 (io_trps.svl 2023.06)
