@<TRIPOS>MOLECULE
NONAME
53 55 1 0 0 
SMALL
USER_CHARGES


@<TRIPOS>ATOM
  1 O        0.2650     2.9740     1.0940 O.2   1 <1>  -0.5700 
  2 C        0.0070     3.2830    -0.0540 C.2   1 <1>   0.6900 
  3 N        0.8720     4.1020    -0.7170 N.am  1 <1>  -0.6600 
  4 N       -1.0720     2.8180    -0.7370 N.am  1 <1>  -0.5470 
  5 C        1.4840     5.2230     0.0560 C.3   1 <1>   0.1400 
  6 C        1.8400     3.4370    -1.6320 C.3   1 <1>   0.1400 
  7 C       -2.0580     1.8730    -0.4160 C.ar  1 <1>   0.1170 
  8 C        2.6970     4.7210     0.8670 C.3   1 <1>   0.3430 
  9 C        3.0450     2.9120    -0.8230 C.3   1 <1>   0.3430 
 10 C       -3.2060     1.8220    -1.1980 C.ar  1 <1>  -0.1500 
 11 C       -1.9420     0.9690     0.6340 C.ar  1 <1>  -0.1500 
 12 N        3.6970     3.9920     0.0070 N.4   1 <1>  -0.9590 
 13 C       -4.2150     0.9060    -0.9520 C.ar  1 <1>  -0.1440 
 14 C       -2.9430     0.0520     0.8890 C.ar  1 <1>  -0.1500 
 15 C        4.7990     3.4300     0.8360 C.3   1 <1>   0.4860 
 16 C       -4.0840     0.0100     0.1030 C.ar  1 <1>  -0.1440 
 17 C       -5.4490     0.9020    -1.8440 C.3   1 <1>  -0.0970 
 18 C        5.8290     2.8030    -0.0870 C.ar  1 <1>  -0.1440 
 19 C       -5.1620    -1.0160     0.4190 C.3   1 <1>  -0.0970 
 20 C        6.0010     1.4230    -0.1580 C.ar  1 <1>  -0.1440 
 21 C        6.6070     3.6360    -0.8830 C.ar  1 <1>  -0.1500 
 22 C        6.9320     0.9010    -1.0430 C.ar  1 <1>  -0.1500 
 23 C        5.2100     0.4540     0.7150 C.3   1 <1>  -0.0970 
 24 C        7.5330     3.1030    -1.7590 C.ar  1 <1>  -0.1500 
 25 C        7.6930     1.7340    -1.8420 C.ar  1 <1>  -0.1500 
 26 H       -1.2300     3.3200    -1.6050 H     1 <1>   0.3700 
 27 H        0.7510     5.6300     0.7330 H     1 <1>   0.0800 
 28 H        1.7820     6.0080    -0.6170 H     1 <1>   0.0800 
 29 H        2.1700     4.1330    -2.3840 H     1 <1>   0.0800 
 30 H        1.3620     2.6110    -2.1310 H     1 <1>   0.0800 
 31 H        2.3300     4.0560     1.6340 H     1 <1>   0.0800 
 32 H        3.1680     5.5580     1.3550 H     1 <1>   0.0800 
 33 H        3.7660     2.4820    -1.5010 H     1 <1>   0.0800 
 34 H        2.6930     2.1260    -0.1750 H     1 <1>   0.0800 
 35 H       -3.3110     2.5150    -2.0120 H     1 <1>   0.1500 
 36 H       -1.0720     0.9720     1.2610 H     1 <1>   0.1500 
 37 H        4.1280     4.6550    -0.6470 H     1 <1>   0.4500 
 38 H       -2.8260    -0.6330     1.7100 H     1 <1>   0.1500 
 39 H        4.4100     2.6930     1.5180 H     1 <1>   0.0800 
 40 H        5.2680     4.2100     1.4120 H     1 <1>   0.0800 
 41 H       -5.3820     1.6600    -2.6030 H     1 <1>   0.0800 
 42 H       -6.3280     1.0930    -1.2550 H     1 <1>   0.0800 
 43 H       -5.5500    -0.0520    -2.3280 H     1 <1>   0.0800 
 44 H       -5.3110    -1.6650    -0.4240 H     1 <1>   0.0800 
 45 H       -6.0870    -0.5190     0.6500 H     1 <1>   0.0800 
 46 H       -4.8840    -1.6200     1.2640 H     1 <1>   0.0800 
 47 H        6.5100     4.7060    -0.8310 H     1 <1>   0.1500 
 48 H        7.0810    -0.1630    -1.1170 H     1 <1>   0.1500 
 49 H        5.5120    -0.5620     0.5280 H     1 <1>   0.0800 
 50 H        5.3900     0.6600     1.7550 H     1 <1>   0.0800 
 51 H        4.1580     0.5260     0.5150 H     1 <1>   0.0800 
 52 H        8.1360     3.7500    -2.3760 H     1 <1>   0.1500 
 53 H        8.4140     1.3150    -2.5240 H     1 <1>   0.1500 
@<TRIPOS>BOND
  1   1   2  2   
  2   2   3  am  
  3   2   4  am  
  4   3   5  1   
  5   3   6  1   
  6   4   7  1   
  7   4  26  1   
  8   5   8  1   
  9   5  27  1   
 10   5  28  1   
 11   6   9  1   
 12   6  29  1   
 13   6  30  1   
 14   7  10  ar  
 15   7  11  ar  
 16   8  12  1   
 17   8  31  1   
 18   8  32  1   
 19   9  12  1   
 20   9  33  1   
 21   9  34  1   
 22  10  13  ar  
 23  10  35  1   
 24  11  14  ar  
 25  11  36  1   
 26  12  15  1   
 27  12  37  1   
 28  13  16  ar  
 29  13  17  1   
 30  14  16  ar  
 31  14  38  1   
 32  15  18  1   
 33  15  39  1   
 34  15  40  1   
 35  16  19  1   
 36  17  41  1   
 37  17  42  1   
 38  17  43  1   
 39  18  20  ar  
 40  18  21  ar  
 41  19  44  1   
 42  19  45  1   
 43  19  46  1   
 44  20  22  ar  
 45  20  23  1   
 46  21  24  ar  
 47  21  47  1   
 48  22  25  ar  
 49  22  48  1   
 50  23  49  1   
 51  23  50  1   
 52  23  51  1   
 53  24  25  ar  
 54  24  52  1   
 55  25  53  1   
@<TRIPOS>SUBSTRUCTURE
  1 ****   2 GROUP 4 **** **** 0

# MOE 2024.06 (io_trps.svl 2023.06)
