@<TRIPOS>MOLECULE
NONAME
39 41 1 0 0 
SMALL
USER_CHARGES


@<TRIPOS>ATOM
  1 CL       0.1390     0.7260     0.2860 Cl    1 <1>  -0.1770 
  2 C        1.8780     0.5310     0.2430 C.ar  1 <1>   0.1770 
  3 C        2.5420     0.4200    -0.9700 C.ar  1 <1>  -0.1440 
  4 C        2.5640     0.4910     1.4420 C.ar  1 <1>  -0.1500 
  5 C        3.9200     0.2680    -0.9570 C.ar  1 <1>  -0.1500 
  6 C        1.7820     0.4640    -2.2870 C.3   1 <1>  -0.0960 
  7 C        3.9390     0.3370     1.4360 C.ar  1 <1>  -0.1500 
  8 C        4.6370     0.2270     0.2350 C.ar  1 <1>   0.1170 
  9 N        6.0310     0.0610     0.1680 N.am  1 <1>  -0.5470 
 10 C        7.0200     0.3330     1.0780 C.2   1 <1>   0.5690 
 11 O        6.8080     0.8060     2.1660 O.2   1 <1>  -0.5700 
 12 C        8.4820     0.0440     0.7220 C.3   1 <1>   0.2110 
 13 S        8.6270    -0.8880    -0.8750 S.3   1 <1>  -0.3610 
 14 C        9.1850    -0.7950     1.7800 C.3   1 <1>  -0.0990 
 15 C       10.2240    -1.5970    -0.8610 C.cat 1 <1>   0.8400 
 16 C       10.6370    -0.9590     1.4200 C.2   1 <1>   0.8900 
 17 N       10.5790    -2.1750    -1.9740 N.pl3 1 <1>  -0.7940 
 18 N       11.0010    -1.5190     0.2100 N.pl3 1 <1>  -0.7250 
 19 O       11.4680    -0.6080     2.2070 O.2   1 <1>  -0.5700 
 20 C       11.8780    -2.8330    -2.2150 C.3   1 <1>   0.3290 
 21 C       12.4090    -2.0120     0.1190 C.3   1 <1>   0.3290 
 22 C       12.5140    -3.1770    -0.8690 C.3   1 <1>  -0.1600 
 23 H        2.0240     0.5790     2.3670 H     1 <1>   0.1500 
 24 H        4.4480     0.1840    -1.8890 H     1 <1>   0.1500 
 25 H        1.2640     1.4020    -2.3800 H     1 <1>   0.0800 
 26 H        1.0600    -0.3330    -2.3220 H     1 <1>   0.0800 
 27 H        2.4470     0.3580    -3.1250 H     1 <1>   0.0800 
 28 H        4.4590     0.3020     2.3750 H     1 <1>   0.1500 
 29 H        6.3600    -0.2840    -0.7340 H     1 <1>   0.3700 
 30 H        8.9910     0.9830     0.5840 H     1 <1>   0.0800 
 31 H        8.7190    -1.7580     1.8750 H     1 <1>   0.0800 
 32 H        9.1200    -0.3000     2.7340 H     1 <1>   0.0800 
 33 H        9.9300    -2.1730    -2.7670 H     1 <1>   0.4500 
 34 H       12.5170    -2.1660    -2.7720 H     1 <1>   0.0800 
 35 H       11.7350    -3.7320    -2.7920 H     1 <1>   0.0800 
 36 H       12.7570    -2.3490     1.0840 H     1 <1>   0.0800 
 37 H       13.0460    -1.2000    -0.1950 H     1 <1>   0.0800 
 38 H       13.5480    -3.4360    -1.0150 H     1 <1>   0.0800 
 39 H       12.0260    -4.0410    -0.4530 H     1 <1>   0.0800 
@<TRIPOS>BOND
  1   1   2  1   
  2   2   3  ar  
  3   2   4  ar  
  4   3   5  ar  
  5   3   6  1   
  6   4   7  ar  
  7   4  23  1   
  8   5   8  ar  
  9   5  24  1   
 10   6  25  1   
 11   6  26  1   
 12   6  27  1   
 13   7   8  ar  
 14   7  28  1   
 15   8   9  1   
 16   9  10  am  
 17   9  29  1   
 18  10  11  2   
 19  10  12  1   
 20  12  13  1   
 21  12  14  1   
 22  12  30  1   
 23  13  15  1   
 24  14  16  1   
 25  14  31  1   
 26  14  32  1   
 27  15  17  ar  
 28  15  18  ar  
 29  16  18  1   
 30  16  19  2   
 31  17  20  1   
 32  17  33  1   
 33  18  21  1   
 34  20  22  1   
 35  20  34  1   
 36  20  35  1   
 37  21  22  1   
 38  21  36  1   
 39  21  37  1   
 40  22  38  1   
 41  22  39  1   
@<TRIPOS>SUBSTRUCTURE
  1 ****   9 GROUP 4 **** **** 0

# MOE 2024.06 (io_trps.svl 2023.06)
