@<TRIPOS>MOLECULE
Structure2448
30 31 1 0 0 
SMALL
USER_CHARGES


@<TRIPOS>ATOM
  1 O        0.8320     1.3560     0.5020 O.3   1 <1>  -0.3630 
  2 C       -0.3730     1.9830     0.4020 C.ar  1 <1>   0.0830 
  3 C        1.2030     0.3870    -0.4560 C.3   1 <1>   0.2000 
  4 C       -1.5830     1.3380     0.1000 C.ar  1 <1>   0.0820 
  5 C       -0.3560     3.3490     0.6320 C.ar  1 <1>  -0.1500 
  6 C        1.1600    -0.9760     0.2250 C.3   1 <1>   0.3430 
  7 C        2.6890     0.5690    -0.7240 C.3   1 <1>  -0.1600 
  8 O       -1.5980    -0.0170    -0.0820 O.3   1 <1>  -0.3630 
  9 C       -2.7460     2.1030     0.0120 C.ar  1 <1>  -0.1500 
 10 C       -1.5180     4.0930     0.5460 C.ar  1 <1>  -0.1500 
 11 N        2.3730    -0.9940     1.0930 N.4   1 <1>  -0.9060 
 12 C        3.3890    -0.1070     0.4540 C.3   1 <1>   0.3430 
 13 C       -2.8070    -0.7150    -0.3110 C.3   1 <1>   0.0400 
 14 C       -2.7110     3.4690     0.2330 C.ar  1 <1>  -0.1500 
 15 H        0.5880     0.4720    -1.3360 H     1 <1>   0.0800 
 16 H        0.5720     3.8350     0.8750 H     1 <1>   0.1500 
 17 H        1.2290    -1.7490    -0.5230 H     1 <1>   0.0800 
 18 H        0.2520    -1.1040     0.7920 H     1 <1>   0.0800 
 19 H        2.9600     1.6060    -0.8200 H     1 <1>   0.0800 
 20 H        2.9590     0.0610    -1.6330 H     1 <1>   0.0800 
 21 H       -3.6960     1.6630    -0.2240 H     1 <1>   0.1500 
 22 H       -1.4950     5.1550     0.7230 H     1 <1>   0.1500 
 23 H        2.7190    -1.9440     1.2710 H     1 <1>   0.4500 
 24 H        2.1030    -0.5700     1.9910 H     1 <1>   0.4500 
 25 H        3.7190     0.6380     1.1620 H     1 <1>   0.0800 
 26 H        4.2420    -0.6720     0.1130 H     1 <1>   0.0800 
 27 H       -2.5830    -1.7630    -0.3940 H     1 <1>   0.0800 
 28 H       -3.2470    -0.3640    -1.2280 H     1 <1>   0.0800 
 29 H       -3.4700    -0.5500     0.5210 H     1 <1>   0.0800 
 30 H       -3.6160     4.0490     0.1630 H     1 <1>   0.1500 
@<TRIPOS>BOND
  1   1   2  1   
  2   1   3  1   
  3   2   4  ar  
  4   2   5  ar  
  5   3   6  1   
  6   3   7  1   
  7   3  15  1   
  8   4   8  1   
  9   4   9  ar  
 10   5  10  ar  
 11   5  16  1   
 12   6  11  1   
 13   6  17  1   
 14   6  18  1   
 15   7  12  1   
 16   7  19  1   
 17   7  20  1   
 18   8  13  1   
 19   9  14  ar  
 20   9  21  1   
 21  10  14  ar  
 22  10  22  1   
 23  11  12  1   
 24  11  23  1   
 25  11  24  1   
 26  12  25  1   
 27  12  26  1   
 28  13  27  1   
 29  13  28  1   
 30  13  29  1   
 31  14  30  1   
@<TRIPOS>SUBSTRUCTURE
  1 ****   2 GROUP 4 **** **** 0

# MOE 2024.06 (io_trps.svl 2023.06)
