@<TRIPOS>MOLECULE
NONAME
47 48 1 0 0 
SMALL
USER_CHARGES


@<TRIPOS>ATOM
  1 O        0.0810     0.7650     0.8170 O.2   1 <1>  -0.5700 
  2 C        0.0320     1.7680     0.1300 C.2   1 <1>   0.5440 
  3 N        1.1320     2.1410    -0.6260 N.am  1 <1>  -0.6600 
  4 C       -1.2010     2.5330     0.1080 C.ar  1 <1>   0.0860 
  5 C        2.5300     1.6950    -0.3490 C.3   1 <1>   0.2200 
  6 C        0.9920     2.9410    -1.8760 C.3   1 <1>   0.0600 
  7 C       -2.4320     1.8910     0.0030 C.ar  1 <1>  -0.1500 
  8 C       -1.2020     3.9230     0.1970 C.ar  1 <1>  -0.1500 
  9 C        2.7410     0.2290    -0.7490 C.3   1 <1>  -0.1600 
 10 C        2.9420     1.9540     1.1080 C.3   1 <1>  -0.1600 
 11 C       -3.6270     2.6010    -0.0230 C.ar  1 <1>   0.0830 
 12 C       -2.3720     4.6580     0.1580 C.ar  1 <1>   0.0830 
 13 C        4.1960    -0.2020    -0.5040 C.3   1 <1>  -0.1600 
 14 C        4.3980     1.5270     1.3470 C.3   1 <1>  -0.1600 
 15 O       -4.8390     1.9810    -0.1310 O.3   1 <1>  -0.3630 
 16 C       -3.6020     3.9960     0.0660 C.ar  1 <1>   0.0830 
 17 O       -2.2150     6.0100     0.2230 O.3   1 <1>  -0.3630 
 18 C        4.6140     0.0590     0.9500 C.3   1 <1>  -0.1600 
 19 C       -4.9500     0.5780    -0.2250 C.3   1 <1>   0.0400 
 20 O       -4.7700     4.6890     0.0700 O.3   1 <1>  -0.3630 
 21 C       -3.0380     6.8570    -0.5490 C.3   1 <1>   0.0400 
 22 C       -5.4730     4.7010     1.2910 C.3   1 <1>   0.0400 
 23 H        3.1900     2.2880    -0.9600 H     1 <1>   0.0800 
 24 H        1.5440     2.4720    -2.6720 H     1 <1>   0.0800 
 25 H        1.3780     3.9330    -1.7170 H     1 <1>   0.0800 
 26 H       -0.0380     3.0080    -2.1780 H     1 <1>   0.0800 
 27 H       -2.4180     0.8190    -0.0540 H     1 <1>   0.1500 
 28 H       -0.2670     4.4430     0.2970 H     1 <1>   0.1500 
 29 H        2.4980     0.1000    -1.7880 H     1 <1>   0.0800 
 30 H        2.0930    -0.4020    -0.1680 H     1 <1>   0.0800 
 31 H        2.3110     1.3940     1.7750 H     1 <1>   0.0800 
 32 H        2.8320     2.9990     1.3320 H     1 <1>   0.0800 
 33 H        4.8470     0.3420    -1.1660 H     1 <1>   0.0800 
 34 H        4.3010    -1.2500    -0.7260 H     1 <1>   0.0800 
 35 H        4.6450     1.6580     2.3860 H     1 <1>   0.0800 
 36 H        5.0560     2.1540     0.7690 H     1 <1>   0.0800 
 37 H        5.6500    -0.2020     1.0800 H     1 <1>   0.0800 
 38 H        4.0330    -0.5720     1.6030 H     1 <1>   0.0800 
 39 H       -5.9930     0.3300    -0.2990 H     1 <1>   0.0800 
 40 H       -4.5310     0.1330     0.6610 H     1 <1>   0.0800 
 41 H       -4.4320     0.2440    -1.1070 H     1 <1>   0.0800 
 42 H       -3.2270     6.3940    -1.5020 H     1 <1>   0.0800 
 43 H       -2.5250     7.7910    -0.6870 H     1 <1>   0.0800 
 44 H       -3.9590     7.0240    -0.0210 H     1 <1>   0.0800 
 45 H       -6.3480     5.3140     1.1700 H     1 <1>   0.0800 
 46 H       -4.8350     5.1120     2.0540 H     1 <1>   0.0800 
 47 H       -5.7600     3.6960     1.5430 H     1 <1>   0.0800 
@<TRIPOS>BOND
  1   1   2  2   
  2   2   3  am  
  3   2   4  1   
  4   3   5  1   
  5   3   6  1   
  6   4   7  ar  
  7   4   8  ar  
  8   5   9  1   
  9   5  10  1   
 10   5  23  1   
 11   6  24  1   
 12   6  25  1   
 13   6  26  1   
 14   7  11  ar  
 15   7  27  1   
 16   8  12  ar  
 17   8  28  1   
 18   9  13  1   
 19   9  29  1   
 20   9  30  1   
 21  10  14  1   
 22  10  31  1   
 23  10  32  1   
 24  11  15  1   
 25  11  16  ar  
 26  12  16  ar  
 27  12  17  1   
 28  13  18  1   
 29  13  33  1   
 30  13  34  1   
 31  14  18  1   
 32  14  35  1   
 33  14  36  1   
 34  15  19  1   
 35  16  20  1   
 36  17  21  1   
 37  18  37  1   
 38  18  38  1   
 39  19  39  1   
 40  19  40  1   
 41  19  41  1   
 42  20  22  1   
 43  21  42  1   
 44  21  43  1   
 45  21  44  1   
 46  22  45  1   
 47  22  46  1   
 48  22  47  1   
@<TRIPOS>SUBSTRUCTURE
  1 ****   4 GROUP 4 **** **** 0

# MOE 2024.06 (io_trps.svl 2023.06)
