@<TRIPOS>MOLECULE
NONAME
36 36 1 0 0 
SMALL
USER_CHARGES


@<TRIPOS>ATOM
  1 O       -0.0970    -0.5210    -0.6380 O.2   1 <1>  -0.5700 
  2 C       -0.4200    -1.6610    -0.3720 C.2   1 <1>   0.5440 
  3 N       -1.7340    -1.8870    -0.1050 N.am  1 <1>  -0.7300 
  4 C        0.5740    -2.7190    -0.3610 C.ar  1 <1>   0.0860 
  5 C       -2.4800    -3.1800    -0.2610 C.3   1 <1>   0.1140 
  6 C        1.4550    -2.8820    -1.4240 C.ar  1 <1>  -0.1500 
  7 C        0.6970    -3.6070     0.7030 C.ar  1 <1>  -0.1500 
  8 C       -3.6140    -3.1010    -1.3100 C.2   1 <1>   0.9060 
  9 C       -3.0280    -3.5650     1.1190 C.3   1 <1>  -0.2400 
 10 C        2.4030    -3.8890    -1.4350 C.ar  1 <1>  -0.1500 
 11 C        1.6420    -4.6170     0.6960 C.ar  1 <1>  -0.1500 
 12 O       -3.9340    -4.1270    -1.9250 O.co2 1 <1>  -0.9000 
 13 O       -4.1850    -2.0150    -1.4950 O.co2 1 <1>  -0.9000 
 14 C        2.5160    -4.7830    -0.3730 C.ar  1 <1>  -0.1430 
 15 C        3.5510    -5.9280    -0.3390 C.3   1 <1>   0.1430 
 16 C        2.8210    -7.2750    -0.2380 C.3   1 <1>  -0.2400 
 17 C        4.4420    -5.9750    -1.5930 C.3   1 <1>  -0.2400 
 18 C        4.4720    -5.7520     0.8770 C.3   1 <1>  -0.2400 
 19 H       -2.3600    -1.1070    -0.3480 H     1 <1>   0.3700 
 20 H       -1.8050    -3.9460    -0.5980 H     1 <1>   0.0800 
 21 H        1.3850    -2.2000    -2.2540 H     1 <1>   0.1500 
 22 H        0.0390    -3.4970     1.5450 H     1 <1>   0.1500 
 23 H       -3.7340    -2.8230     1.4470 H     1 <1>   0.0800 
 24 H       -2.2370    -3.6550     1.8370 H     1 <1>   0.0800 
 25 H       -3.5390    -4.5090     1.0450 H     1 <1>   0.0800 
 26 H        3.0450    -3.9530    -2.2930 H     1 <1>   0.1500 
 27 H        1.6880    -5.2770     1.5420 H     1 <1>   0.1500 
 28 H        3.5220    -8.0900    -0.2510 H     1 <1>   0.0800 
 29 H        2.1460    -7.3900    -1.0680 H     1 <1>   0.0800 
 30 H        2.2500    -7.3400     0.6690 H     1 <1>   0.0800 
 31 H        3.8450    -6.1240    -2.4750 H     1 <1>   0.0800 
 32 H        5.1450    -6.7860    -1.5270 H     1 <1>   0.0800 
 33 H        4.9980    -5.0600    -1.6950 H     1 <1>   0.0800 
 34 H        3.9170    -5.8040     1.7960 H     1 <1>   0.0800 
 35 H        4.9610    -4.7960     0.8330 H     1 <1>   0.0800 
 36 H        5.2230    -6.5210     0.8990 H     1 <1>   0.0800 
@<TRIPOS>BOND
  1   1   2  2   
  2   2   3  am  
  3   2   4  1   
  4   3   5  1   
  5   3  19  1   
  6   4   6  ar  
  7   4   7  ar  
  8   5   8  1   
  9   5   9  1   
 10   5  20  1   
 11   6  10  ar  
 12   6  21  1   
 13   7  11  ar  
 14   7  22  1   
 15   8  12  ar  
 16   8  13  ar  
 17   9  23  1   
 18   9  24  1   
 19   9  25  1   
 20  10  14  ar  
 21  10  26  1   
 22  11  14  ar  
 23  11  27  1   
 24  14  15  1   
 25  15  16  1   
 26  15  17  1   
 27  15  18  1   
 28  16  28  1   
 29  16  29  1   
 30  16  30  1   
 31  17  31  1   
 32  17  32  1   
 33  17  33  1   
 34  18  34  1   
 35  18  35  1   
 36  18  36  1   
@<TRIPOS>SUBSTRUCTURE
  1 ****   4 GROUP 4 **** **** 0

# MOE 2024.06 (io_trps.svl 2023.06)
