@<TRIPOS>MOLECULE
NONAME
49 50 1 0 0 
SMALL
USER_CHARGES


@<TRIPOS>ATOM
  1 S        1.1030     1.2740    -0.4380 S.o2  1 <1>   1.3330 
  2 O        1.6210     1.1990     0.9050 O.2   1 <1>  -0.6500 
  3 O        1.9760     1.5910    -1.5420 O.2   1 <1>  -0.6500 
  4 N       -0.1650     2.4460    -0.4610 N.am  1 <1>  -0.6930 
  5 C        0.2440    -0.2340    -0.8330 C.3   1 <1>  -0.1350 
  6 C       -1.3190     2.2120     0.2830 C.ar  1 <1>   0.1990 
  7 C        0.3090     3.8540    -0.6580 C.3   1 <1>   0.3370 
  8 C       -2.5200     1.9660    -0.3720 C.ar  1 <1>  -0.1500 
  9 C       -1.3040     2.1920     1.6730 C.ar  1 <1>  -0.1500 
 10 C        1.0220     4.4630     0.5800 C.2   1 <1>   0.5690 
 11 C       -0.8530     4.7360    -1.1410 C.3   1 <1>  -0.2400 
 12 C       -3.6770     1.7040     0.3390 C.ar  1 <1>  -0.1500 
 13 C       -2.4570     1.9310     2.3890 C.ar  1 <1>  -0.1500 
 14 O        0.3620     4.8590     1.5120 O.2   1 <1>  -0.5700 
 15 N        2.3700     4.6140     0.6580 N.am  1 <1>  -0.7300 
 16 C       -3.6460     1.6860     1.7230 C.ar  1 <1>  -0.1500 
 17 C        3.4530     4.2800    -0.2860 C.3   1 <1>   0.2200 
 18 C        4.4290     3.3420     0.4400 C.3   1 <1>  -0.1600 
 19 C        4.0480     5.5950    -0.8120 C.3   1 <1>  -0.1600 
 20 C        5.8580     3.3040    -0.1260 C.3   1 <1>  -0.1600 
 21 C        5.0290     6.3040     0.1360 C.3   1 <1>  -0.1600 
 22 C        6.7550     4.4030     0.4660 C.3   1 <1>  -0.1600 
 23 C        6.4750     5.8200    -0.0520 C.3   1 <1>  -0.1600 
 24 H        0.9410    -1.0470    -0.8920 H     1 <1>   0.0800 
 25 H       -0.2560    -0.1390    -1.7760 H     1 <1>   0.0800 
 26 H       -0.4810    -0.4590    -0.0760 H     1 <1>   0.0800 
 27 H        1.0140     3.8480    -1.4660 H     1 <1>   0.0800 
 28 H       -2.5410     1.9840    -1.4460 H     1 <1>   0.1500 
 29 H       -0.3830     2.3860     2.1950 H     1 <1>   0.1500 
 30 H       -1.5960     4.8410    -0.3690 H     1 <1>   0.0800 
 31 H       -1.3020     4.3150    -2.0210 H     1 <1>   0.0800 
 32 H       -0.4840     5.7170    -1.3800 H     1 <1>   0.0800 
 33 H       -4.6010     1.5170    -0.1800 H     1 <1>   0.1500 
 34 H       -2.4280     1.9230     3.4650 H     1 <1>   0.1500 
 35 H        2.6990     5.0110     1.5390 H     1 <1>   0.3700 
 36 H       -4.5440     1.4840     2.2820 H     1 <1>   0.1500 
 37 H        3.0550     3.7530    -1.1330 H     1 <1>   0.0800 
 38 H        4.0200     2.3490     0.3770 H     1 <1>   0.0800 
 39 H        4.4770     3.5920     1.4850 H     1 <1>   0.0800 
 40 H        3.2350     6.2620    -1.0410 H     1 <1>   0.0800 
 41 H        4.5440     5.3960    -1.7460 H     1 <1>   0.0800 
 42 H        5.8480     3.3500    -1.2010 H     1 <1>   0.0800 
 43 H        6.2890     2.3550     0.1460 H     1 <1>   0.0800 
 44 H        4.7220     6.1960     1.1610 H     1 <1>   0.0800 
 45 H        5.0070     7.3560    -0.0940 H     1 <1>   0.0800 
 46 H        7.7780     4.1630     0.2310 H     1 <1>   0.0800 
 47 H        6.6720     4.3940     1.5390 H     1 <1>   0.0800 
 48 H        7.1270     6.4970     0.4710 H     1 <1>   0.0800 
 49 H        6.7390     5.8750    -1.0940 H     1 <1>   0.0800 
@<TRIPOS>BOND
  1   1   2  2   
  2   1   3  2   
  3   1   4  am  
  4   1   5  1   
  5   4   6  1   
  6   4   7  1   
  7   5  24  1   
  8   5  25  1   
  9   5  26  1   
 10   6   8  ar  
 11   6   9  ar  
 12   7  10  1   
 13   7  11  1   
 14   7  27  1   
 15   8  12  ar  
 16   8  28  1   
 17   9  13  ar  
 18   9  29  1   
 19  10  14  2   
 20  10  15  am  
 21  11  30  1   
 22  11  31  1   
 23  11  32  1   
 24  12  16  ar  
 25  12  33  1   
 26  13  16  ar  
 27  13  34  1   
 28  15  17  1   
 29  15  35  1   
 30  16  36  1   
 31  17  18  1   
 32  17  19  1   
 33  17  37  1   
 34  18  20  1   
 35  18  38  1   
 36  18  39  1   
 37  19  21  1   
 38  19  40  1   
 39  19  41  1   
 40  20  22  1   
 41  20  42  1   
 42  20  43  1   
 43  21  23  1   
 44  21  44  1   
 45  21  45  1   
 46  22  23  1   
 47  22  46  1   
 48  22  47  1   
 49  23  48  1   
 50  23  49  1   
@<TRIPOS>SUBSTRUCTURE
  1 ****  10 GROUP 4 **** **** 0

# MOE 2024.06 (io_trps.svl 2023.06)
