@<TRIPOS>MOLECULE
NONAME
36 37 1 0 0 
SMALL
USER_CHARGES


@<TRIPOS>ATOM
  1 I       -0.0470    -1.2460    -2.0480 I     1 <1>  -0.0810 
  2 C        1.9030    -1.6700    -1.3240 C.ar  1 <1>   0.0810 
  3 C        2.6020    -0.6760    -0.6660 C.ar  1 <1>  -0.1500 
  4 C        2.4320    -2.9300    -1.5280 C.ar  1 <1>  -0.1500 
  5 C        3.8720    -0.9620    -0.1970 C.ar  1 <1>  -0.1500 
  6 C        3.7020    -3.1950    -1.0500 C.ar  1 <1>  -0.1500 
  7 C        4.4500    -2.2260    -0.3720 C.ar  1 <1>   0.0860 
  8 C        5.7800    -2.5380     0.1250 C.2   1 <1>   0.5440 
  9 O        6.4690    -3.3850    -0.4100 O.2   1 <1>  -0.5700 
 10 N        6.3120    -1.8820     1.2030 N.am  1 <1>  -0.7300 
 11 C        7.4950    -2.3190     2.0100 C.3   1 <1>   0.1400 
 12 C        8.8400    -1.9050     1.3750 C.3   1 <1>   0.3430 
 13 N        9.0310    -2.5440     0.0420 N.4   1 <1>  -0.9590 
 14 C        9.5350    -3.9560     0.1250 C.3   1 <1>   0.3430 
 15 C        9.8520    -1.7250    -0.9080 C.3   1 <1>   0.3430 
 16 C        9.7160    -4.5610    -1.2800 C.3   1 <1>   0.1200 
 17 C       10.0250    -2.4460    -2.2590 C.3   1 <1>   0.1200 
 18 O       10.5320    -3.7340    -2.0610 O.3   1 <1>  -0.5600 
 19 H        2.1620     0.2960    -0.5280 H     1 <1>   0.1500 
 20 H        1.8650    -3.6840    -2.0470 H     1 <1>   0.1500 
 21 H        4.4190    -0.1840     0.3030 H     1 <1>   0.1500 
 22 H        4.1260    -4.1740    -1.2040 H     1 <1>   0.1500 
 23 H        5.6800    -1.2450     1.7000 H     1 <1>   0.3700 
 24 H        7.4650    -3.3890     2.1350 H     1 <1>   0.0800 
 25 H        7.4240    -1.8780     2.9890 H     1 <1>   0.0800 
 26 H        9.6520    -2.1780     2.0290 H     1 <1>   0.0800 
 27 H        8.8450    -0.8330     1.2700 H     1 <1>   0.0800 
 28 H        8.0730    -2.6370    -0.3590 H     1 <1>   0.4500 
 29 H        8.8360    -4.5620     0.6780 H     1 <1>   0.0800 
 30 H       10.4830    -3.9800     0.6340 H     1 <1>   0.0800 
 31 H       10.8280    -1.5480    -0.4890 H     1 <1>   0.0800 
 32 H        9.3800    -0.7700    -1.0730 H     1 <1>   0.0800 
 33 H        8.7660    -4.6820    -1.7720 H     1 <1>   0.0800 
 34 H       10.1930    -5.5230    -1.2120 H     1 <1>   0.0800 
 35 H       10.7230    -1.9110    -2.8800 H     1 <1>   0.0800 
 36 H        9.0860    -2.5190    -2.7820 H     1 <1>   0.0800 
@<TRIPOS>BOND
  1   1   2  1   
  2   2   3  ar  
  3   2   4  ar  
  4   3   5  ar  
  5   3  19  1   
  6   4   6  ar  
  7   4  20  1   
  8   5   7  ar  
  9   5  21  1   
 10   6   7  ar  
 11   6  22  1   
 12   7   8  1   
 13   8   9  2   
 14   8  10  am  
 15  10  11  1   
 16  10  23  1   
 17  11  12  1   
 18  11  24  1   
 19  11  25  1   
 20  12  13  1   
 21  12  26  1   
 22  12  27  1   
 23  13  14  1   
 24  13  15  1   
 25  13  28  1   
 26  14  16  1   
 27  14  29  1   
 28  14  30  1   
 29  15  17  1   
 30  15  31  1   
 31  15  32  1   
 32  16  18  1   
 33  16  33  1   
 34  16  34  1   
 35  17  18  1   
 36  17  35  1   
 37  17  36  1   
@<TRIPOS>SUBSTRUCTURE
  1 ****   8 GROUP 4 **** **** 0

# MOE 2024.06 (io_trps.svl 2023.06)
