@<TRIPOS>MOLECULE
NONAME
26 26 1 0 0 
SMALL
USER_CHARGES


@<TRIPOS>ATOM
  1 CL      -0.0310     0.4630     0.3370 Cl    1 <1>  -0.1770 
  2 C        1.6990     0.2460     0.2400 C.ar  1 <1>   0.1770 
  3 C        2.5340     1.3060     0.5390 C.ar  1 <1>  -0.1500 
  4 C        2.2110    -0.9810    -0.1330 C.ar  1 <1>  -0.1500 
  5 C        3.9050     1.1300     0.4610 C.ar  1 <1>  -0.1500 
  6 C        3.5830    -1.1480    -0.2080 C.ar  1 <1>  -0.1500 
  7 C        4.4500    -0.0950     0.0850 C.ar  1 <1>   0.1170 
  8 N        5.8470    -0.2170     0.0330 N.am  1 <1>  -0.5470 
  9 C        6.6490    -1.1080    -0.6260 C.2   1 <1>   0.5690 
 10 O        6.2330    -1.9860    -1.3400 O.2   1 <1>  -0.5700 
 11 C        8.1460    -0.9700    -0.4530 C.3   1 <1>  -0.0990 
 12 C        8.7850    -2.3150    -0.1120 C.3   1 <1>   0.0700 
 13 S       10.5460    -2.0240     0.1990 S.3   1 <1>  -0.4600 
 14 C       11.1970    -3.6930     0.4720 C.3   1 <1>  -0.0100 
 15 H        2.1100     2.2520     0.8280 H     1 <1>   0.1500 
 16 H        1.5450    -1.7930    -0.3620 H     1 <1>   0.1500 
 17 H        4.5530     1.9550     0.6910 H     1 <1>   0.1500 
 18 H        3.9750    -2.1070    -0.4940 H     1 <1>   0.1500 
 19 H        6.3490     0.5090     0.5390 H     1 <1>   0.3700 
 20 H        8.3640    -0.2670     0.3290 H     1 <1>   0.0800 
 21 H        8.5640    -0.6010    -1.3720 H     1 <1>   0.0800 
 22 H        8.7050    -3.0100    -0.9310 H     1 <1>   0.0800 
 23 H        8.3640    -2.7420     0.7810 H     1 <1>   0.0800 
 24 H       12.2520    -3.6050     0.6660 H     1 <1>   0.0800 
 25 H       11.0190    -4.2700    -0.4180 H     1 <1>   0.0800 
 26 H       10.6860    -4.1170     1.3180 H     1 <1>   0.0800 
@<TRIPOS>BOND
  1   1   2  1   
  2   2   3  ar  
  3   2   4  ar  
  4   3   5  ar  
  5   3  15  1   
  6   4   6  ar  
  7   4  16  1   
  8   5   7  ar  
  9   5  17  1   
 10   6   7  ar  
 11   6  18  1   
 12   7   8  1   
 13   8   9  am  
 14   8  19  1   
 15   9  10  2   
 16   9  11  1   
 17  11  12  1   
 18  11  20  1   
 19  11  21  1   
 20  12  13  1   
 21  12  22  1   
 22  12  23  1   
 23  13  14  1   
 24  14  24  1   
 25  14  25  1   
 26  14  26  1   
@<TRIPOS>SUBSTRUCTURE
  1 ****   8 GROUP 4 **** **** 0

# MOE 2024.06 (io_trps.svl 2023.06)
