@<TRIPOS>MOLECULE
NONAME
46 45 1 0 0 
SMALL
USER_CHARGES


@<TRIPOS>ATOM
  1 P       -0.2790     0.2010    -0.5640 P.3   1 <1>   0.7000 
  2 O       -0.0370     1.3950    -1.3660 O.2   1 <1>  -0.7000 
  3 C        0.2050    -1.3040    -1.4150 C.3   1 <1>   0.1100 
  4 C       -1.9940     0.0510    -0.1160 C.3   1 <1>  -0.1600 
  5 C        0.6010     0.2240     0.9830 C.3   1 <1>  -0.1600 
  6 N        0.1090    -2.6120    -0.6900 N.3   1 <1>  -0.8100 
  7 C       -2.6110     1.3020     0.5280 C.3   1 <1>  -0.2400 
  8 C        2.1110     0.4830     0.8670 C.3   1 <1>  -0.2400 
  9 C        1.1530    -3.5550    -1.1580 C.3   1 <1>   0.1100 
 10 C       -1.2280    -3.2250    -0.8440 C.3   1 <1>   0.1100 
 11 C        2.5270    -3.2950    -0.5100 C.3   1 <1>  -0.0800 
 12 C       -1.5630    -4.1980     0.3060 C.3   1 <1>  -0.0800 
 13 C        3.5590    -4.2830    -1.0680 C.3   1 <1>  -0.2400 
 14 C        2.4740    -3.4250     1.0190 C.3   1 <1>  -0.2400 
 15 C       -2.9260    -4.8530     0.0540 C.3   1 <1>  -0.2400 
 16 C       -1.5740    -3.5080     1.6770 C.3   1 <1>  -0.2400 
 17 H        1.2280    -1.1720    -1.7120 H     1 <1>   0.0800 
 18 H       -0.3380    -1.3970    -2.3380 H     1 <1>   0.0800 
 19 H       -2.1360    -0.7630     0.5680 H     1 <1>   0.0800 
 20 H       -2.5770    -0.1690    -0.9910 H     1 <1>   0.0800 
 21 H        0.4590    -0.7030     1.5070 H     1 <1>   0.0800 
 22 H        0.2050     0.9960     1.6140 H     1 <1>   0.0800 
 23 H       -2.1250     1.5330     1.4590 H     1 <1>   0.0800 
 24 H       -3.6580     1.1460     0.7180 H     1 <1>   0.0800 
 25 H       -2.5040     2.1460    -0.1320 H     1 <1>   0.0800 
 26 H        2.5850    -0.2860     0.2870 H     1 <1>   0.0800 
 27 H        2.5610     0.5030     1.8440 H     1 <1>   0.0800 
 28 H        2.2850     1.4310     0.3870 H     1 <1>   0.0800 
 29 H        1.2360    -3.4970    -2.2300 H     1 <1>   0.0800 
 30 H        0.8720    -4.5640    -0.9160 H     1 <1>   0.0800 
 31 H       -1.2770    -3.7450    -1.7860 H     1 <1>   0.0800 
 32 H       -1.9850    -2.4650    -0.8670 H     1 <1>   0.0800 
 33 H        2.8570    -2.3060    -0.7670 H     1 <1>   0.0800 
 34 H       -0.8270    -4.9820     0.3290 H     1 <1>   0.0800 
 35 H        3.2820    -5.2960    -0.8320 H     1 <1>   0.0800 
 36 H        4.5290    -4.0860    -0.6470 H     1 <1>   0.0800 
 37 H        3.6310    -4.1860    -2.1370 H     1 <1>   0.0800 
 38 H        2.1320    -4.4040     1.3030 H     1 <1>   0.0800 
 39 H        1.7980    -2.6990     1.4300 H     1 <1>   0.0800 
 40 H        3.4460    -3.2580     1.4450 H     1 <1>   0.0800 
 41 H       -3.7060    -4.1120     0.0300 H     1 <1>   0.0800 
 42 H       -3.1500    -5.5590     0.8350 H     1 <1>   0.0800 
 43 H       -2.9210    -5.3800    -0.8840 H     1 <1>   0.0800 
 44 H       -2.3450    -2.7610     1.7240 H     1 <1>   0.0800 
 45 H       -0.6260    -3.0390     1.8670 H     1 <1>   0.0800 
 46 H       -1.7510    -4.2300     2.4540 H     1 <1>   0.0800 
@<TRIPOS>BOND
  1   1   2  2   
  2   1   3  1   
  3   1   4  1   
  4   1   5  1   
  5   3   6  1   
  6   3  17  1   
  7   3  18  1   
  8   4   7  1   
  9   4  19  1   
 10   4  20  1   
 11   5   8  1   
 12   5  21  1   
 13   5  22  1   
 14   6   9  1   
 15   6  10  1   
 16   7  23  1   
 17   7  24  1   
 18   7  25  1   
 19   8  26  1   
 20   8  27  1   
 21   8  28  1   
 22   9  11  1   
 23   9  29  1   
 24   9  30  1   
 25  10  12  1   
 26  10  31  1   
 27  10  32  1   
 28  11  13  1   
 29  11  14  1   
 30  11  33  1   
 31  12  15  1   
 32  12  16  1   
 33  12  34  1   
 34  13  35  1   
 35  13  36  1   
 36  13  37  1   
 37  14  38  1   
 38  14  39  1   
 39  14  40  1   
 40  15  41  1   
 41  15  42  1   
 42  15  43  1   
 43  16  44  1   
 44  16  45  1   
 45  16  46  1   
@<TRIPOS>SUBSTRUCTURE
  1 ****   6 GROUP 4 **** **** 0

# MOE 2024.06 (io_trps.svl 2023.06)
