@<TRIPOS>MOLECULE
NONAME
29 31 1 0 0 
SMALL
USER_CHARGES


@<TRIPOS>ATOM
  1 O       -0.1400    -0.4040    -1.2000 O.2   1 <1>  -0.5700 
  2 C       -0.0960    -1.5090    -0.7190 C.2   1 <1>   0.4230 
  3 C       -1.2620    -2.2320    -0.2550 C.ar  1 <1>   0.0860 
  4 C        1.2720    -2.1640    -0.5850 C.3   1 <1>  -0.0190 
  5 C       -1.1710    -3.5390     0.2440 C.ar  1 <1>  -0.1440 
  6 C       -2.5260    -1.6410    -0.2940 C.ar  1 <1>  -0.1500 
  7 C        1.1640    -3.6980    -0.7190 C.3   1 <1>  -0.0800 
  8 C        1.9320    -1.7230     0.7380 C.3   1 <1>  -0.0220 
  9 C       -2.3030    -4.2040     0.6850 C.ar  1 <1>  -0.1500 
 10 C        0.1730    -4.2560     0.3170 C.3   1 <1>  -0.0160 
 11 C       -3.6540    -2.3080     0.1450 C.ar  1 <1>  -0.1500 
 12 C        2.5470    -4.3690    -0.6080 C.3   1 <1>  -0.0220 
 13 C        3.1100    -2.6100     1.1080 C.2   1 <1>  -0.2880 
 14 C       -3.5430    -3.5940     0.6370 C.ar  1 <1>  -0.1500 
 15 C        3.3840    -3.7720     0.5110 C.2   1 <1>  -0.2880 
 16 H        1.8890    -1.8090    -1.3920 H     1 <1>   0.0800 
 17 H       -2.6210    -0.6380    -0.6760 H     1 <1>   0.1500 
 18 H        0.7680    -3.9230    -1.6950 H     1 <1>   0.0800 
 19 H        1.2160    -1.7520     1.5410 H     1 <1>   0.0800 
 20 H        2.2660    -0.7050     0.6350 H     1 <1>   0.0800 
 21 H       -2.2280    -5.2060     1.0720 H     1 <1>   0.1500 
 22 H        0.0290    -5.3060     0.1350 H     1 <1>   0.0800 
 23 H        0.5730    -4.1500     1.3100 H     1 <1>   0.0800 
 24 H       -4.6160    -1.8270     0.1030 H     1 <1>   0.1500 
 25 H        3.0830    -4.2390    -1.5330 H     1 <1>   0.0800 
 26 H        2.4270    -5.4260    -0.4470 H     1 <1>   0.0800 
 27 H        3.7090    -2.2070     1.9090 H     1 <1>   0.1500 
 28 H       -4.4180    -4.1180     0.9810 H     1 <1>   0.1500 
 29 H        4.2340    -4.3790     0.7760 H     1 <1>   0.1500 
@<TRIPOS>BOND
  1   1   2  2   
  2   2   3  1   
  3   2   4  1   
  4   3   5  ar  
  5   3   6  ar  
  6   4   7  1   
  7   4   8  1   
  8   4  16  1   
  9   5   9  ar  
 10   5  10  1   
 11   6  11  ar  
 12   6  17  1   
 13   7  10  1   
 14   7  12  1   
 15   7  18  1   
 16   8  13  1   
 17   8  19  1   
 18   8  20  1   
 19   9  14  ar  
 20   9  21  1   
 21  10  22  1   
 22  10  23  1   
 23  11  14  ar  
 24  11  24  1   
 25  12  15  1   
 26  12  25  1   
 27  12  26  1   
 28  13  15  2   
 29  13  27  1   
 30  14  28  1   
 31  15  29  1   
@<TRIPOS>SUBSTRUCTURE
  1 ****   3 GROUP 4 **** **** 0

# MOE 2024.06 (io_trps.svl 2023.06)
