@<TRIPOS>MOLECULE
NONAME
40 41 1 0 0 
SMALL
USER_CHARGES


@<TRIPOS>ATOM
  1 F        1.1320    -0.7120     0.5170 F     1 <1>  -0.1900 
  2 C        1.3680    -1.8980     1.0260 C.ar  1 <1>   0.1900 
  3 C        2.5050    -2.5930     0.6020 C.ar  1 <1>   0.1170 
  4 C        0.4750    -2.3930     1.9540 C.ar  1 <1>  -0.1500 
  5 N        3.3610    -2.0130    -0.3560 N.am  1 <1>  -0.5470 
  6 C        2.7210    -3.8580     1.1500 C.ar  1 <1>  -0.1500 
  7 C        0.7400    -3.6450     2.4710 C.ar  1 <1>   0.1900 
  8 C        4.6780    -2.2250    -0.6190 C.2   1 <1>   0.6900 
  9 C        1.8440    -4.3860     2.0870 C.ar  1 <1>  -0.1500 
 10 F       -0.0830    -4.1490     3.3530 F     1 <1>  -0.1900 
 11 O        5.3630    -2.9730     0.0500 O.2   1 <1>  -0.5700 
 12 N        5.2500    -1.5340    -1.6360 N.am  1 <1>  -0.7300 
 13 C        6.5990    -1.8110    -2.2180 C.3   1 <1>   0.1400 
 14 C        7.7420    -1.1720    -1.3990 C.3   1 <1>   0.3430 
 15 N        7.8380    -1.7620    -0.0310 N.4   1 <1>  -0.9590 
 16 C        8.2460    -0.7650     0.9950 C.3   1 <1>   0.3430 
 17 C        8.6640    -3.0010     0.0070 C.3   1 <1>   0.3430 
 18 C        8.1160    -1.3840     2.3880 C.3   1 <1>  -0.1600 
 19 C        8.5510    -3.6520     1.3860 C.3   1 <1>  -0.1600 
 20 C        8.9270    -2.6800     2.5110 C.3   1 <1>  -0.1600 
 21 H       -0.3870    -1.8320     2.2620 H     1 <1>   0.1500 
 22 H        2.9490    -1.2120    -0.8310 H     1 <1>   0.3700 
 23 H        3.5710    -4.4420     0.8470 H     1 <1>   0.1500 
 24 H        2.0090    -5.3600     2.5130 H     1 <1>   0.1500 
 25 H        4.6180    -1.0180    -2.2530 H     1 <1>   0.3700 
 26 H        6.6280    -1.4160    -3.2190 H     1 <1>   0.0800 
 27 H        6.7500    -2.8760    -2.2850 H     1 <1>   0.0800 
 28 H        7.5490    -0.1150    -1.3280 H     1 <1>   0.0800 
 29 H        8.6770    -1.3040    -1.9160 H     1 <1>   0.0800 
 30 H        6.8750    -2.0770     0.2150 H     1 <1>   0.4500 
 31 H        7.6150     0.1070     0.9330 H     1 <1>   0.0800 
 32 H        9.2670    -0.4630     0.8270 H     1 <1>   0.0800 
 33 H        9.6960    -2.7600    -0.1950 H     1 <1>   0.0800 
 34 H        8.3200    -3.6960    -0.7410 H     1 <1>   0.0800 
 35 H        7.0780    -1.5830     2.5910 H     1 <1>   0.0800 
 36 H        8.4590    -0.6760     3.1220 H     1 <1>   0.0800 
 37 H        9.1970    -4.5120     1.4240 H     1 <1>   0.0800 
 38 H        7.5420    -4.0020     1.5270 H     1 <1>   0.0800 
 39 H        8.7380    -3.1400     3.4680 H     1 <1>   0.0800 
 40 H        9.9800    -2.4550     2.4570 H     1 <1>   0.0800 
@<TRIPOS>BOND
  1   1   2  1   
  2   2   3  ar  
  3   2   4  ar  
  4   3   5  1   
  5   3   6  ar  
  6   4   7  ar  
  7   4  21  1   
  8   5   8  am  
  9   5  22  1   
 10   6   9  ar  
 11   6  23  1   
 12   7   9  ar  
 13   7  10  1   
 14   8  11  2   
 15   8  12  am  
 16   9  24  1   
 17  12  13  1   
 18  12  25  1   
 19  13  14  1   
 20  13  26  1   
 21  13  27  1   
 22  14  15  1   
 23  14  28  1   
 24  14  29  1   
 25  15  16  1   
 26  15  17  1   
 27  15  30  1   
 28  16  18  1   
 29  16  31  1   
 30  16  32  1   
 31  17  19  1   
 32  17  33  1   
 33  17  34  1   
 34  18  20  1   
 35  18  35  1   
 36  18  36  1   
 37  19  20  1   
 38  19  37  1   
 39  19  38  1   
 40  20  39  1   
 41  20  40  1   
@<TRIPOS>SUBSTRUCTURE
  1 ****  11 GROUP 4 **** **** 0

# MOE 2024.06 (io_trps.svl 2023.06)
