@<TRIPOS>MOLECULE
NONAME
41 43 1 0 0 
SMALL
USER_CHARGES


@<TRIPOS>ATOM
  1 S        0.0140     0.5720     1.2690 S.o2  1 <1>   1.4470 
  2 O       -0.1570     1.0560     2.6210 O.2   1 <1>  -0.6500 
  3 O       -0.4020    -0.7670     0.9220 O.2   1 <1>  -0.6500 
  4 N       -0.9450     1.6030     0.3180 N.am  1 <1>  -0.8490 
  5 C        1.6990     0.8840     0.6740 C.ar  1 <1>  -0.0090 
  6 C       -2.3730     1.2230     0.4350 C.3   1 <1>   0.1960 
  7 C       -0.7670     3.0290     0.6690 C.3   1 <1>   0.1960 
  8 C        2.6390     1.5230     1.4800 C.ar  1 <1>  -0.1500 
  9 C        2.0830     0.5020    -0.6120 C.ar  1 <1>  -0.1500 
 10 C       -3.3330     2.2020    -0.2880 C.3   1 <1>   0.3430 
 11 C       -1.5970     3.9700    -0.2420 C.3   1 <1>   0.3430 
 12 C        3.9100     1.7680     0.9990 C.ar  1 <1>  -0.1440 
 13 C        3.3580     0.7470    -1.0950 C.ar  1 <1>  -0.1500 
 14 N       -2.5830     3.2210    -1.1020 N.4   1 <1>  -0.9590 
 15 C        4.2740     1.3880    -0.2770 C.ar  1 <1>   0.1170 
 16 C        5.0970     2.4340     1.6800 C.3   1 <1>   0.0440 
 17 C       -3.4830     4.1260    -1.8770 C.3   1 <1>   0.2630 
 18 N        5.5950     1.7410    -0.5250 N.am  1 <1>  -0.4770 
 19 C        6.1330     2.3520     0.5730 C.2   1 <1>   0.5690 
 20 C        6.3230     1.4720    -1.7870 C.3   1 <1>   0.0600 
 21 O        7.2590     2.7770     0.6780 O.2   1 <1>  -0.5700 
 22 H       -2.6550     1.1640     1.4750 H     1 <1>   0.0800 
 23 H       -2.5120     0.2400     0.0160 H     1 <1>   0.0800 
 24 H        0.2730     3.2990     0.5880 H     1 <1>   0.0800 
 25 H       -1.0600     3.1950     1.6930 H     1 <1>   0.0800 
 26 H        2.3780     1.8220     2.4830 H     1 <1>   0.1500 
 27 H        1.3700    -0.0040    -1.2430 H     1 <1>   0.1500 
 28 H       -3.9390     2.7020     0.4500 H     1 <1>   0.0800 
 29 H       -3.9950     1.6360    -0.9220 H     1 <1>   0.0800 
 30 H       -0.9210     4.5250    -0.8730 H     1 <1>   0.0800 
 31 H       -2.1160     4.6820     0.3790 H     1 <1>   0.0800 
 32 H        3.6410     0.4440    -2.0870 H     1 <1>   0.1500 
 33 H       -2.0030     2.6630    -1.7500 H     1 <1>   0.4500 
 34 H        5.4250     1.8810     2.5400 H     1 <1>   0.0800 
 35 H        4.8950     3.4580     1.9290 H     1 <1>   0.0800 
 36 H       -4.0940     4.7110    -1.2090 H     1 <1>   0.0800 
 37 H       -4.1290     3.5500    -2.5200 H     1 <1>   0.0800 
 38 H       -2.9020     4.7970    -2.4890 H     1 <1>   0.0800 
 39 H        5.8090     1.9400    -2.6070 H     1 <1>   0.0800 
 40 H        6.3770     0.4110    -1.9530 H     1 <1>   0.0800 
 41 H        7.3220     1.8680    -1.7260 H     1 <1>   0.0800 
@<TRIPOS>BOND
  1   1   2  2   
  2   1   3  2   
  3   1   4  am  
  4   1   5  1   
  5   4   6  1   
  6   4   7  1   
  7   5   8  ar  
  8   5   9  ar  
  9   6  10  1   
 10   6  22  1   
 11   6  23  1   
 12   7  11  1   
 13   7  24  1   
 14   7  25  1   
 15   8  12  ar  
 16   8  26  1   
 17   9  13  ar  
 18   9  27  1   
 19  10  14  1   
 20  10  28  1   
 21  10  29  1   
 22  11  14  1   
 23  11  30  1   
 24  11  31  1   
 25  12  15  ar  
 26  12  16  1   
 27  13  15  ar  
 28  13  32  1   
 29  14  17  1   
 30  14  33  1   
 31  15  18  1   
 32  16  19  1   
 33  16  34  1   
 34  16  35  1   
 35  17  36  1   
 36  17  37  1   
 37  17  38  1   
 38  18  19  am  
 39  18  20  1   
 40  19  21  2   
 41  20  39  1   
 42  20  40  1   
 43  20  41  1   
@<TRIPOS>SUBSTRUCTURE
  1 ****   5 GROUP 4 **** **** 0

# MOE 2024.06 (io_trps.svl 2023.06)
