@<TRIPOS>MOLECULE
NONAME
40 40 1 0 0 
SMALL
USER_CHARGES


@<TRIPOS>ATOM
  1 O        0.3670    -1.5990     0.1960 O.3   1 <1>  -0.3630 
  2 C       -0.9650    -1.4430    -0.0290 C.ar  1 <1>   0.0830 
  3 C        1.3150    -0.7160    -0.3440 C.3   1 <1>   0.1200 
  4 C       -1.8270    -2.3670     0.5540 C.ar  1 <1>  -0.1440 
  5 C       -1.4860    -0.4100    -0.8080 C.ar  1 <1>  -0.1500 
  6 C        2.6890    -1.1990     0.1190 C.3   1 <1>   0.3430 
  7 C       -3.1920    -2.2470     0.3540 C.ar  1 <1>  -0.1500 
  8 C       -1.2940    -3.5080     1.4100 C.3   1 <1>  -0.0960 
  9 C       -2.8510    -0.2970    -1.0050 C.ar  1 <1>  -0.1440 
 10 N        3.7890    -0.3280    -0.3970 N.4   1 <1>  -0.9060 
 11 C       -3.7010    -1.2190    -0.4200 C.ar  1 <1>  -0.1500 
 12 C       -3.4200     0.8280    -1.8510 C.3   1 <1>  -0.0970 
 13 C        5.1220    -0.7960     0.0530 C.3   1 <1>   0.3430 
 14 C        6.1900     0.1370    -0.5100 C.3   1 <1>  -0.1600 
 15 C        7.5900    -0.3080    -0.0710 C.3   1 <1>  -0.1600 
 16 C        8.6640     0.6270    -0.6340 C.3   1 <1>  -0.2400 
 17 H        1.1010     0.2700     0.0310 H     1 <1>   0.0800 
 18 H        1.2300    -0.7520    -1.4160 H     1 <1>   0.0800 
 19 H       -0.8500     0.3180    -1.2690 H     1 <1>   0.1500 
 20 H        2.8330    -2.2090    -0.2290 H     1 <1>   0.0800 
 21 H        2.7060    -1.2030     1.1980 H     1 <1>   0.0800 
 22 H       -3.8710    -2.9530     0.7980 H     1 <1>   0.1500 
 23 H       -0.6320    -4.1220     0.8270 H     1 <1>   0.0800 
 24 H       -2.0950    -4.1240     1.7770 H     1 <1>   0.0800 
 25 H       -0.7540    -3.1120     2.2510 H     1 <1>   0.0800 
 26 H        3.6530     0.6390    -0.0760 H     1 <1>   0.4500 
 27 H        3.7740    -0.3120    -1.4250 H     1 <1>   0.4500 
 28 H       -4.7650    -1.1420    -0.5620 H     1 <1>   0.1500 
 29 H       -2.7130     1.1370    -2.6000 H     1 <1>   0.0800 
 30 H       -3.6560     1.6700    -1.2250 H     1 <1>   0.0800 
 31 H       -4.3180     0.5050    -2.3480 H     1 <1>   0.0800 
 32 H        5.3000    -1.8020    -0.2960 H     1 <1>   0.0800 
 33 H        5.1730    -0.7950     1.1310 H     1 <1>   0.0800 
 34 H        6.0200     1.1410    -0.1580 H     1 <1>   0.0800 
 35 H        6.1480     0.1330    -1.5860 H     1 <1>   0.0800 
 36 H        7.7870    -1.3100    -0.4160 H     1 <1>   0.0800 
 37 H        7.6590    -0.3080     1.0050 H     1 <1>   0.0800 
 38 H        8.6440     0.6280    -1.7100 H     1 <1>   0.0800 
 39 H        9.6390     0.3000    -0.3160 H     1 <1>   0.0800 
 40 H        8.5160     1.6340    -0.2840 H     1 <1>   0.0800 
@<TRIPOS>BOND
  1   1   2  1   
  2   1   3  1   
  3   2   4  ar  
  4   2   5  ar  
  5   3   6  1   
  6   3  17  1   
  7   3  18  1   
  8   4   7  ar  
  9   4   8  1   
 10   5   9  ar  
 11   5  19  1   
 12   6  10  1   
 13   6  20  1   
 14   6  21  1   
 15   7  11  ar  
 16   7  22  1   
 17   8  23  1   
 18   8  24  1   
 19   8  25  1   
 20   9  11  ar  
 21   9  12  1   
 22  10  13  1   
 23  10  26  1   
 24  10  27  1   
 25  11  28  1   
 26  12  29  1   
 27  12  30  1   
 28  12  31  1   
 29  13  14  1   
 30  13  32  1   
 31  13  33  1   
 32  14  15  1   
 33  14  34  1   
 34  14  35  1   
 35  15  16  1   
 36  15  36  1   
 37  15  37  1   
 38  16  38  1   
 39  16  39  1   
 40  16  40  1   
@<TRIPOS>SUBSTRUCTURE
  1 ****   3 GROUP 4 **** **** 0

# MOE 2024.06 (io_trps.svl 2023.06)
