@<TRIPOS>MOLECULE
NONAME
43 46 1 0 0 
SMALL
USER_CHARGES


@<TRIPOS>ATOM
  1 F        0.4920    -1.0770     0.2220 F     1 <1>  -0.1900 
  2 C       -0.1410    -2.1840    -0.0710 C.ar  1 <1>   0.1900 
  3 C       -1.5280    -2.1940    -0.1160 C.ar  1 <1>  -0.1440 
  4 C        0.6310    -3.3020    -0.3260 C.ar  1 <1>  -0.1500 
  5 C       -2.1590    -3.4030    -0.4230 C.ar  1 <1>   0.1170 
  6 C       -2.3250    -0.9190     0.1630 C.3   1 <1>  -0.0960 
  7 C       -0.0040    -4.4900    -0.6380 C.ar  1 <1>  -0.1500 
  8 N       -3.5520    -3.5330    -0.5000 N.am  1 <1>  -0.5470 
  9 C       -1.3870    -4.5320    -0.6840 C.ar  1 <1>  -0.1500 
 10 C       -4.4800    -3.3650     0.4920 C.2   1 <1>   0.5690 
 11 O       -4.1590    -3.0760     1.6200 O.2   1 <1>  -0.5700 
 12 C       -5.9680    -3.5630     0.1290 C.3   1 <1>   0.0610 
 13 C       -6.8940    -3.3230     1.3520 C.3   1 <1>  -0.1600 
 14 C       -6.2150    -5.0070    -0.3780 C.3   1 <1>  -0.1600 
 15 C       -6.3880    -2.5700    -0.9860 C.3   1 <1>  -0.1600 
 16 C       -8.3740    -3.5210     0.9790 C.3   1 <1>  -0.0800 
 17 C       -7.6930    -5.2110    -0.7640 C.3   1 <1>  -0.0800 
 18 C       -7.8660    -2.7670    -1.3730 C.3   1 <1>  -0.0800 
 19 C       -8.5780    -4.9590     0.4700 C.3   1 <1>  -0.1600 
 20 C       -8.7500    -2.5290    -0.1360 C.3   1 <1>  -0.1600 
 21 C       -8.0700    -4.2100    -1.8720 C.3   1 <1>  -0.1600 
 22 H        1.7030    -3.2380    -0.2790 H     1 <1>   0.1500 
 23 H       -1.7430    -0.0400    -0.0430 H     1 <1>   0.0800 
 24 H       -2.6200    -0.9000     1.1970 H     1 <1>   0.0800 
 25 H       -3.2070    -0.8780    -0.4480 H     1 <1>   0.0800 
 26 H        0.5740    -5.3750    -0.8400 H     1 <1>   0.1500 
 27 H       -3.9140    -3.8720    -1.3880 H     1 <1>   0.3700 
 28 H       -1.8760    -5.4600    -0.9180 H     1 <1>   0.1500 
 29 H       -6.7480    -2.3240     1.7270 H     1 <1>   0.0800 
 30 H       -6.6300    -4.0020     2.1450 H     1 <1>   0.0800 
 31 H       -5.9450    -5.7090     0.3920 H     1 <1>   0.0800 
 32 H       -5.6010    -5.2150    -1.2360 H     1 <1>   0.0800 
 33 H       -5.7780    -2.7060    -1.8600 H     1 <1>   0.0800 
 34 H       -6.2390    -1.5610    -0.6410 H     1 <1>   0.0800 
 35 H       -8.9930    -3.3490     1.8430 H     1 <1>   0.0800 
 36 H       -7.8420    -6.2180    -1.1160 H     1 <1>   0.0800 
 37 H       -8.1360    -2.0720    -2.1500 H     1 <1>   0.0800 
 38 H       -9.6120    -5.1120     0.2150 H     1 <1>   0.0800 
 39 H       -8.3280    -5.6600     1.2480 H     1 <1>   0.0800 
 40 H       -8.6220    -1.5200     0.2160 H     1 <1>   0.0800 
 41 H       -9.7860    -2.6530    -0.3990 H     1 <1>   0.0800 
 42 H       -9.0990    -4.3530    -2.1540 H     1 <1>   0.0800 
 43 H       -7.4670    -4.3850    -2.7450 H     1 <1>   0.0800 
@<TRIPOS>BOND
  1   1   2  1   
  2   2   3  ar  
  3   2   4  ar  
  4   3   5  ar  
  5   3   6  1   
  6   4   7  ar  
  7   4  22  1   
  8   5   8  1   
  9   5   9  ar  
 10   6  23  1   
 11   6  24  1   
 12   6  25  1   
 13   7   9  ar  
 14   7  26  1   
 15   8  10  am  
 16   8  27  1   
 17   9  28  1   
 18  10  11  2   
 19  10  12  1   
 20  12  13  1   
 21  12  14  1   
 22  12  15  1   
 23  13  16  1   
 24  13  29  1   
 25  13  30  1   
 26  14  17  1   
 27  14  31  1   
 28  14  32  1   
 29  15  18  1   
 30  15  33  1   
 31  15  34  1   
 32  16  19  1   
 33  16  20  1   
 34  16  35  1   
 35  17  19  1   
 36  17  21  1   
 37  17  36  1   
 38  18  20  1   
 39  18  21  1   
 40  18  37  1   
 41  19  38  1   
 42  19  39  1   
 43  20  40  1   
 44  20  41  1   
 45  21  42  1   
 46  21  43  1   
@<TRIPOS>SUBSTRUCTURE
  1 ****  10 GROUP 4 **** **** 0

# MOE 2024.06 (io_trps.svl 2023.06)
