@<TRIPOS>MOLECULE
NONAME
48 50 1 0 0 
SMALL
USER_CHARGES


@<TRIPOS>ATOM
  1 S       -0.1030     0.0480    -0.7670 S.o2  1 <1>   1.2040 
  2 O       -0.0370     0.3480    -2.1810 O.2   1 <1>  -0.6500 
  3 O       -0.8520    -1.1010    -0.3020 O.2   1 <1>  -0.6500 
  4 C        1.5820    -0.0550    -0.1170 C.ar  1 <1>  -0.0090 
  5 C       -0.6990     1.5030     0.1040 C.3   1 <1>   0.0890 
  6 C        2.6310     0.6130    -0.7360 C.ar  1 <1>  -0.1500 
  7 C        1.8640    -0.7730     1.0400 C.ar  1 <1>  -0.1500 
  8 C       -2.1310     1.9000    -0.2380 C.ar  1 <1>  -0.1440 
  9 C        3.9140     0.5730    -0.2170 C.ar  1 <1>  -0.1500 
 10 C        3.1440    -0.8170     1.5640 C.ar  1 <1>  -0.1500 
 11 C       -3.1940     1.1020     0.1520 C.ar  1 <1>  -0.1500 
 12 C       -2.3900     3.0620    -0.9470 C.ar  1 <1>  -0.1500 
 13 C        4.1770    -0.1430     0.9370 C.ar  1 <1>  -0.1430 
 14 C       -4.4930     1.4650    -0.1550 C.ar  1 <1>  -0.1500 
 15 C       -3.6920     3.4200    -1.2480 C.ar  1 <1>  -0.1500 
 16 C        5.5830    -0.1890     1.5090 C.3   1 <1>  -0.0970 
 17 C       -4.7790     2.6390    -0.8550 C.ar  1 <1>   0.0860 
 18 C       -6.1400     3.0430    -1.1700 C.2   1 <1>   0.5440 
 19 O       -6.3660     3.8040    -2.0900 O.2   1 <1>  -0.5700 
 20 N       -7.1920     2.5900    -0.4250 N.am  1 <1>  -0.7300 
 21 C       -8.6100     2.9220    -0.6390 C.3   1 <1>   0.2200 
 22 C       -9.1490     3.5950     0.6160 C.3   1 <1>  -0.1600 
 23 C       -9.4100     1.6270    -0.7140 C.3   1 <1>  -0.1600 
 24 C       -9.4700     2.4590     1.5940 C.3   1 <1>  -0.1600 
 25 C       -9.6480     1.1970     0.7390 C.3   1 <1>  -0.1600 
 26 H       -0.0510     2.3290    -0.1130 H     1 <1>   0.0800 
 27 H       -0.6450     1.3260     1.1610 H     1 <1>   0.0800 
 28 H        2.4480     1.1690    -1.6400 H     1 <1>   0.1500 
 29 H        1.0740    -1.3110     1.5380 H     1 <1>   0.1500 
 30 H        4.7080     1.1000    -0.7190 H     1 <1>   0.1500 
 31 H        3.3330    -1.3820     2.4610 H     1 <1>   0.1500 
 32 H       -3.0170     0.1850     0.6910 H     1 <1>   0.1500 
 33 H       -1.5840     3.6960    -1.2740 H     1 <1>   0.1500 
 34 H       -5.2950     0.8160     0.1460 H     1 <1>   0.1500 
 35 H       -3.8780     4.3250    -1.8010 H     1 <1>   0.1500 
 36 H        5.7230     0.6220     2.2000 H     1 <1>   0.0800 
 37 H        6.3120    -0.1060     0.7230 H     1 <1>   0.0800 
 38 H        5.7490    -1.1180     2.0250 H     1 <1>   0.0800 
 39 H       -7.0200     2.0300     0.4070 H     1 <1>   0.3700 
 40 H       -8.7360     3.5320    -1.5200 H     1 <1>   0.0800 
 41 H      -10.0620     4.1050     0.3610 H     1 <1>   0.0800 
 42 H       -8.4580     4.3140     1.0200 H     1 <1>   0.0800 
 43 H       -8.9090     0.8740    -1.2970 H     1 <1>   0.0800 
 44 H      -10.3580     1.8420    -1.1740 H     1 <1>   0.0800 
 45 H      -10.3580     2.6800     2.1610 H     1 <1>   0.0800 
 46 H       -8.6490     2.3220     2.2770 H     1 <1>   0.0800 
 47 H       -8.9210     0.4570     1.0270 H     1 <1>   0.0800 
 48 H      -10.6330     0.7790     0.8570 H     1 <1>   0.0800 
@<TRIPOS>BOND
  1   1   2  2   
  2   1   3  2   
  3   1   4  1   
  4   1   5  1   
  5   4   6  ar  
  6   4   7  ar  
  7   5   8  1   
  8   5  26  1   
  9   5  27  1   
 10   6   9  ar  
 11   6  28  1   
 12   7  10  ar  
 13   7  29  1   
 14   8  11  ar  
 15   8  12  ar  
 16   9  13  ar  
 17   9  30  1   
 18  10  13  ar  
 19  10  31  1   
 20  11  14  ar  
 21  11  32  1   
 22  12  15  ar  
 23  12  33  1   
 24  13  16  1   
 25  14  17  ar  
 26  14  34  1   
 27  15  17  ar  
 28  15  35  1   
 29  16  36  1   
 30  16  37  1   
 31  16  38  1   
 32  17  18  1   
 33  18  19  2   
 34  18  20  am  
 35  20  21  1   
 36  20  39  1   
 37  21  22  1   
 38  21  23  1   
 39  21  40  1   
 40  22  24  1   
 41  22  41  1   
 42  22  42  1   
 43  23  25  1   
 44  23  43  1   
 45  23  44  1   
 46  24  25  1   
 47  24  45  1   
 48  24  46  1   
 49  25  47  1   
 50  25  48  1   
@<TRIPOS>SUBSTRUCTURE
  1 ****   8 GROUP 4 **** **** 0

# MOE 2024.06 (io_trps.svl 2023.06)
