@<TRIPOS>MOLECULE
NONAME
49 51 1 0 0 
SMALL
USER_CHARGES


@<TRIPOS>ATOM
  1 F       -3.3340     2.5630    -2.2030 F     1 <1>  -0.1900 
  2 C       -2.3160     2.7050    -1.3850 C.ar  1 <1>   0.1900 
  3 C       -2.2820     1.9890    -0.1810 C.ar  1 <1>   0.1000 
  4 C       -1.3120     3.5740    -1.7670 C.ar  1 <1>  -0.1500 
  5 N       -3.2720     1.0980     0.2530 N.pl3 1 <1>  -0.8380 
  6 C       -1.1760     2.1890     0.6340 C.ar  1 <1>  -0.1500 
  7 C       -0.2230     3.7500    -0.9300 C.ar  1 <1>  -0.1500 
  8 C       -3.4140    -0.1530    -0.5510 C.3   1 <1>   0.2090 
  9 C       -4.6010     1.7060     0.5610 C.3   1 <1>   0.2090 
 10 C       -0.1590     3.0560     0.2680 C.ar  1 <1>  -0.1500 
 11 C       -4.3790    -1.1440     0.1300 C.3   1 <1>   0.1100 
 12 C       -5.5430     0.6770     1.2130 C.3   1 <1>   0.1100 
 13 N       -5.7080    -0.5400     0.3760 N.3   1 <1>  -0.8100 
 14 C       -6.6300    -1.5170     1.0310 C.3   1 <1>   0.1710 
 15 C       -8.1030    -1.1120     0.9430 C.2   1 <1>   0.5690 
 16 O       -8.8850    -1.5480     1.7540 O.2   1 <1>  -0.5700 
 17 N       -8.4210    -0.2580    -0.0720 N.am  1 <1>  -0.5470 
 18 C       -9.6000     0.3750    -0.4960 C.ar  1 <1>   0.1170 
 19 C       -9.5210     1.3810    -1.4610 C.ar  1 <1>  -0.1430 
 20 C      -10.8490     0.0290     0.0110 C.ar  1 <1>  -0.1500 
 21 C      -10.6770     2.0130    -1.8930 C.ar  1 <1>  -0.1500 
 22 C       -8.1820     1.8040    -2.0550 C.3   1 <1>  -0.0970 
 23 C      -12.0010     0.6620    -0.4200 C.ar  1 <1>  -0.1430 
 24 C      -11.9100     1.6570    -1.3770 C.ar  1 <1>  -0.1500 
 25 C      -13.3550     0.2710     0.1450 C.3   1 <1>  -0.0970 
 26 H       -1.3830     4.1010    -2.7010 H     1 <1>   0.1500 
 27 H       -1.1230     1.6530     1.5640 H     1 <1>   0.1500 
 28 H        0.5710     4.4220    -1.2090 H     1 <1>   0.1500 
 29 H       -2.4470    -0.6120    -0.6610 H     1 <1>   0.0800 
 30 H       -3.7870     0.0850    -1.5310 H     1 <1>   0.0800 
 31 H       -5.0510     2.0730    -0.3440 H     1 <1>   0.0800 
 32 H       -4.4620     2.5380     1.2290 H     1 <1>   0.0800 
 33 H        0.6870     3.1910     0.9200 H     1 <1>   0.1500 
 34 H       -3.9430    -1.4650     1.0600 H     1 <1>   0.0800 
 35 H       -4.4890    -2.0050    -0.5050 H     1 <1>   0.0800 
 36 H       -6.5000     1.1420     1.3730 H     1 <1>   0.0800 
 37 H       -5.1410     0.4080     2.1750 H     1 <1>   0.0800 
 38 H       -6.3620    -1.6440     2.0650 H     1 <1>   0.0800 
 39 H       -6.5400    -2.4720     0.5460 H     1 <1>   0.0800 
 40 H       -7.5760     0.0200    -0.5790 H     1 <1>   0.3700 
 41 H      -10.9240    -0.7470     0.7480 H     1 <1>   0.1500 
 42 H      -10.6280     2.7890    -2.6360 H     1 <1>   0.1500 
 43 H       -7.7180     0.9710    -2.5520 H     1 <1>   0.0800 
 44 H       -7.5290     2.1590    -1.2780 H     1 <1>   0.0800 
 45 H       -8.3100     2.5950    -2.7730 H     1 <1>   0.0800 
 46 H      -12.7970     2.1570    -1.7230 H     1 <1>   0.1500 
 47 H      -13.2390    -0.2680     1.0680 H     1 <1>   0.0800 
 48 H      -13.8750    -0.3540    -0.5580 H     1 <1>   0.0800 
 49 H      -13.9440     1.1490     0.3370 H     1 <1>   0.0800 
@<TRIPOS>BOND
  1   1   2  1   
  2   2   3  ar  
  3   2   4  ar  
  4   3   5  1   
  5   3   6  ar  
  6   4   7  ar  
  7   4  26  1   
  8   5   8  1   
  9   5   9  1   
 10   6  10  ar  
 11   6  27  1   
 12   7  10  ar  
 13   7  28  1   
 14   8  11  1   
 15   8  29  1   
 16   8  30  1   
 17   9  12  1   
 18   9  31  1   
 19   9  32  1   
 20  10  33  1   
 21  11  13  1   
 22  11  34  1   
 23  11  35  1   
 24  12  13  1   
 25  12  36  1   
 26  12  37  1   
 27  13  14  1   
 28  14  15  1   
 29  14  38  1   
 30  14  39  1   
 31  15  16  2   
 32  15  17  am  
 33  17  18  1   
 34  17  40  1   
 35  18  19  ar  
 36  18  20  ar  
 37  19  21  ar  
 38  19  22  1   
 39  20  23  ar  
 40  20  41  1   
 41  21  24  ar  
 42  21  42  1   
 43  22  43  1   
 44  22  44  1   
 45  22  45  1   
 46  23  24  ar  
 47  23  25  1   
 48  24  46  1   
 49  25  47  1   
 50  25  48  1   
 51  25  49  1   
@<TRIPOS>SUBSTRUCTURE
  1 ****  12 GROUP 4 **** **** 0

# MOE 2024.06 (io_trps.svl 2023.06)
