@<TRIPOS>MOLECULE
NONAME
32 33 1 0 0 
SMALL
USER_CHARGES


@<TRIPOS>ATOM
  1 CL      -0.1450     0.2920    -0.2210 Cl    1 <1>  -0.1770 
  2 C        1.4880     0.9010    -0.1280 C.ar  1 <1>   0.1770 
  3 C        1.7150     2.1580     0.3990 C.ar  1 <1>  -0.1500 
  4 C        2.5310     0.1150    -0.5830 C.ar  1 <1>  -0.1500 
  5 C        3.0120     2.6360     0.4710 C.ar  1 <1>  -0.1500 
  6 C        3.8290     0.5940    -0.5110 C.ar  1 <1>  -0.1500 
  7 C        4.0720     1.8620     0.0190 C.ar  1 <1>   0.0830 
  8 O        5.3090     2.4090     0.1280 O.3   1 <1>  -0.3630 
  9 C        6.4610     1.7140    -0.2820 C.3   1 <1>   0.1200 
 10 C        7.6600     2.6310    -0.0190 C.3   1 <1>   0.3430 
 11 N        8.9650     2.0090    -0.4180 N.4   1 <1>  -0.9590 
 12 C        9.3570     0.8310     0.3980 C.3   1 <1>   0.3430 
 13 C       10.0950     2.9640    -0.3040 C.3   1 <1>   0.3430 
 14 C       10.8580     0.7020     0.1820 C.3   1 <1>  -0.1600 
 15 C       11.3360     2.0820    -0.2790 C.3   1 <1>  -0.1600 
 16 H        0.8860     2.7500     0.7470 H     1 <1>   0.1500 
 17 H        2.3210    -0.8590    -0.9880 H     1 <1>   0.1500 
 18 H        3.2050     3.6120     0.8780 H     1 <1>   0.1500 
 19 H        4.6220    -0.0320    -0.8710 H     1 <1>   0.1500 
 20 H        6.3650     1.4980    -1.3320 H     1 <1>   0.0800 
 21 H        6.5250     0.8100     0.2960 H     1 <1>   0.0800 
 22 H        7.6840     2.8770     1.0300 H     1 <1>   0.0800 
 23 H        7.5140     3.5420    -0.5770 H     1 <1>   0.0800 
 24 H        8.9240     1.7130    -1.4030 H     1 <1>   0.4500 
 25 H        8.8330    -0.0620     0.0950 H     1 <1>   0.0800 
 26 H        9.1610     1.0260     1.4410 H     1 <1>   0.0800 
 27 H       10.0240     3.5070     0.6260 H     1 <1>   0.0800 
 28 H       10.1170     3.6620    -1.1260 H     1 <1>   0.0800 
 29 H       11.0570    -0.0370    -0.5760 H     1 <1>   0.0800 
 30 H       11.3430     0.3940     1.0920 H     1 <1>   0.0800 
 31 H       12.0760     2.4920     0.3870 H     1 <1>   0.0800 
 32 H       11.7620     2.0220    -1.2660 H     1 <1>   0.0800 
@<TRIPOS>BOND
  1   1   2  1   
  2   2   3  ar  
  3   2   4  ar  
  4   3   5  ar  
  5   3  16  1   
  6   4   6  ar  
  7   4  17  1   
  8   5   7  ar  
  9   5  18  1   
 10   6   7  ar  
 11   6  19  1   
 12   7   8  1   
 13   8   9  1   
 14   9  10  1   
 15   9  20  1   
 16   9  21  1   
 17  10  11  1   
 18  10  22  1   
 19  10  23  1   
 20  11  12  1   
 21  11  13  1   
 22  11  24  1   
 23  12  14  1   
 24  12  25  1   
 25  12  26  1   
 26  13  15  1   
 27  13  27  1   
 28  13  28  1   
 29  14  15  1   
 30  14  29  1   
 31  14  30  1   
 32  15  31  1   
 33  15  32  1   
@<TRIPOS>SUBSTRUCTURE
  1 ****   9 GROUP 4 **** **** 0

# MOE 2024.06 (io_trps.svl 2023.06)
