@<TRIPOS>MOLECULE
NONAME
41 43 1 0 0 
SMALL
USER_CHARGES


@<TRIPOS>ATOM
  1 S        3.3350    -1.8230    -1.0880 S.3   1 <1>  -0.0800 
  2 C        3.4290    -0.1370    -1.4290 C.2   1 <1>   0.4340 
  3 C        2.7550    -1.3540     0.4750 C.2   1 <1>   0.1980 
  4 S        4.0450     0.3350    -3.0320 S.3   1 <1>  -0.2860 
  5 N        3.0540     0.6220    -0.4800 N.2   1 <1>  -0.3380 
  6 N        2.6530    -0.0910     0.6200 N.2   1 <1>  -0.3380 
  7 C        2.4510    -2.4470     1.4740 C.3   1 <1>  -0.0600 
  8 C        4.1540     2.1880    -2.9300 C.3   1 <1>   0.1310 
  9 C        5.5350     2.6250    -2.4700 C.2   1 <1>   0.5690 
 10 O        6.1100     3.4510    -3.1370 O.2   1 <1>  -0.5700 
 11 N        6.0570     2.0730    -1.3350 N.am  1 <1>  -0.5470 
 12 C        7.3080     2.1710    -0.7010 C.ar  1 <1>   0.1170 
 13 C        7.5800     1.2320     0.3040 C.ar  1 <1>   0.1000 
 14 C        8.2610     3.1320    -1.0110 C.ar  1 <1>  -0.1500 
 15 N        6.6250     0.2550     0.6300 N.pl3 1 <1>  -0.8380 
 16 C        8.7980     1.2800     0.9680 C.ar  1 <1>  -0.1500 
 17 C        9.4720     3.1680    -0.3410 C.ar  1 <1>  -0.1500 
 18 C        6.9030    -1.1520     0.2080 C.3   1 <1>   0.2090 
 19 C        5.9140     0.3950     1.9400 C.3   1 <1>   0.2090 
 20 C        9.7410     2.2410     0.6500 C.ar  1 <1>  -0.1500 
 21 C        7.3060    -2.0570     1.3860 C.3   1 <1>   0.1200 
 22 C        6.3810    -0.6340     2.9860 C.3   1 <1>   0.1200 
 23 O        6.4090    -1.9280     2.4520 O.3   1 <1>  -0.5600 
 24 H        1.7330    -3.1320     1.0640 H     1 <1>   0.0800 
 25 H        2.0510    -2.0170     2.3740 H     1 <1>   0.0800 
 26 H        3.3540    -2.9780     1.7150 H     1 <1>   0.0800 
 27 H        3.3960     2.5350    -2.2530 H     1 <1>   0.0800 
 28 H        3.9580     2.5650    -3.9160 H     1 <1>   0.0800 
 29 H        5.4940     1.3590    -0.8590 H     1 <1>   0.3700 
 30 H        8.0650     3.8600    -1.7760 H     1 <1>   0.1500 
 31 H        9.0060     0.5620     1.7370 H     1 <1>   0.1500 
 32 H       10.2010     3.9180    -0.5940 H     1 <1>   0.1500 
 33 H        7.6860    -1.1580    -0.5310 H     1 <1>   0.0800 
 34 H        6.0220    -1.5570    -0.2520 H     1 <1>   0.0800 
 35 H        4.8610     0.2690     1.7820 H     1 <1>   0.0800 
 36 H        6.0620     1.3880     2.3270 H     1 <1>   0.0800 
 37 H       10.6820     2.2680     1.1710 H     1 <1>   0.1500 
 38 H        8.2930    -1.8060     1.7320 H     1 <1>   0.0800 
 39 H        7.3040    -3.0860     1.0760 H     1 <1>   0.0800 
 40 H        5.7050    -0.6380     3.8220 H     1 <1>   0.0800 
 41 H        7.3650    -0.3860     3.3420 H     1 <1>   0.0800 
@<TRIPOS>BOND
  1   1   2  1   
  2   1   3  1   
  3   2   4  1   
  4   2   5  2   
  5   3   6  2   
  6   3   7  1   
  7   4   8  1   
  8   5   6  1   
  9   7  24  1   
 10   7  25  1   
 11   7  26  1   
 12   8   9  1   
 13   8  27  1   
 14   8  28  1   
 15   9  10  2   
 16   9  11  am  
 17  11  12  1   
 18  11  29  1   
 19  12  13  ar  
 20  12  14  ar  
 21  13  15  1   
 22  13  16  ar  
 23  14  17  ar  
 24  14  30  1   
 25  15  18  1   
 26  15  19  1   
 27  16  20  ar  
 28  16  31  1   
 29  17  20  ar  
 30  17  32  1   
 31  18  21  1   
 32  18  33  1   
 33  18  34  1   
 34  19  22  1   
 35  19  35  1   
 36  19  36  1   
 37  20  37  1   
 38  21  23  1   
 39  21  38  1   
 40  21  39  1   
 41  22  23  1   
 42  22  40  1   
 43  22  41  1   
@<TRIPOS>SUBSTRUCTURE
  1 ****  15 GROUP 4 **** **** 0

# MOE 2024.06 (io_trps.svl 2023.06)
