@<TRIPOS>MOLECULE
NONAME
43 45 1 0 0 
SMALL
USER_CHARGES


@<TRIPOS>ATOM
  1 S        0.0280    -0.2310    -0.7410 S.3   1 <1>  -0.0800 
  2 C       -0.1590     1.4800    -0.3800 C.2   1 <1>   0.1040 
  3 C        1.7700    -0.0910    -0.7010 C.2   1 <1>  -0.1400 
  4 N       -1.4250     2.0330    -0.2680 N.am  1 <1>  -0.4940 
  5 C        1.0600     2.0970    -0.2510 C.2   1 <1>  -0.0860 
  6 C        2.1510     1.1590    -0.4210 C.2   1 <1>  -0.1810 
  7 C        2.6570    -1.2900    -0.9550 C.3   1 <1>   0.3000 
  8 C       -2.6900     1.5160    -0.3310 C.2   1 <1>   0.6300 
  9 C        1.1980     3.5080     0.0100 C.2   1 <1>   0.8060 
 10 C        3.6470     1.4300    -0.3270 C.3   1 <1>   0.0210 
 11 O        3.9920    -0.8620    -1.0810 O.3   1 <1>  -0.5600 
 12 O       -2.9510     0.3570    -0.5310 O.2   1 <1>  -0.5700 
 13 C       -3.8370     2.4970    -0.1360 C.3   1 <1>  -0.1000 
 14 O        0.2430     4.2360     0.2270 O.2   1 <1>  -0.5700 
 15 O        2.4180     4.0560     0.0060 O.3   1 <1>  -0.4300 
 16 C        4.4660     0.1160    -0.1910 C.3   1 <1>   0.2800 
 17 C       -3.7500     3.6610     0.8140 C.3   1 <1>  -0.2000 
 18 C       -4.6270     2.4930     1.1400 C.3   1 <1>  -0.2000 
 19 C        2.6190     5.4320     0.2390 C.3   1 <1>   0.1200 
 20 C        4.4250    -0.4480     1.2390 C.3   1 <1>  -0.2400 
 21 C        5.9230     0.3570    -0.5880 C.3   1 <1>  -0.2400 
 22 C        4.1190     5.7050     0.1710 C.3   1 <1>  -0.2400 
 23 H       -1.4140     3.0390    -0.0720 H     1 <1>   0.3700 
 24 H        2.3810    -1.7760    -1.8740 H     1 <1>   0.0800 
 25 H        2.5910    -1.9960    -0.1470 H     1 <1>   0.0800 
 26 H        3.8620     2.0500     0.5230 H     1 <1>   0.0800 
 27 H        3.9550     1.9610    -1.2090 H     1 <1>   0.0800 
 28 H       -4.3920     2.6310    -1.0470 H     1 <1>   0.1000 
 29 H       -4.2140     4.5910     0.5340 H     1 <1>   0.1000 
 30 H       -2.8710     3.8080     1.4190 H     1 <1>   0.1000 
 31 H       -4.3280     1.8130     1.9200 H     1 <1>   0.1000 
 32 H       -5.6950     2.6040     1.0800 H     1 <1>   0.1000 
 33 H        2.2260     5.6760     1.2120 H     1 <1>   0.0800 
 34 H        2.0910     5.9890    -0.5170 H     1 <1>   0.0800 
 35 H        3.4140    -0.5570     1.5870 H     1 <1>   0.0800 
 36 H        4.9280     0.2220     1.9120 H     1 <1>   0.0800 
 37 H        4.9210    -1.4010     1.2780 H     1 <1>   0.0800 
 38 H        5.9790     0.6940    -1.6070 H     1 <1>   0.0800 
 39 H        6.4890    -0.5520    -0.4930 H     1 <1>   0.0800 
 40 H        6.3660     1.1030     0.0450 H     1 <1>   0.0800 
 41 H        4.6350     5.1370     0.9250 H     1 <1>   0.0800 
 42 H        4.3050     6.7490     0.3430 H     1 <1>   0.0800 
 43 H        4.5000     5.4460    -0.8010 H     1 <1>   0.0800 
@<TRIPOS>BOND
  1   1   2  1   
  2   1   3  1   
  3   2   4  1   
  4   2   5  2   
  5   3   6  2   
  6   3   7  1   
  7   4   8  am  
  8   4  23  1   
  9   5   6  1   
 10   5   9  1   
 11   6  10  1   
 12   7  11  1   
 13   7  24  1   
 14   7  25  1   
 15   8  12  2   
 16   8  13  1   
 17   9  14  2   
 18   9  15  1   
 19  10  16  1   
 20  10  26  1   
 21  10  27  1   
 22  11  16  1   
 23  13  17  1   
 24  13  18  1   
 25  13  28  1   
 26  15  19  1   
 27  16  20  1   
 28  16  21  1   
 29  17  18  1   
 30  17  29  1   
 31  17  30  1   
 32  18  31  1   
 33  18  32  1   
 34  19  22  1   
 35  19  33  1   
 36  19  34  1   
 37  20  35  1   
 38  20  36  1   
 39  20  37  1   
 40  21  38  1   
 41  21  39  1   
 42  21  40  1   
 43  22  41  1   
 44  22  42  1   
 45  22  43  1   
@<TRIPOS>SUBSTRUCTURE
  1 ****   5 GROUP 4 **** **** 0

# MOE 2024.06 (io_trps.svl 2023.06)
