@<TRIPOS>MOLECULE
NONAME
33 34 1 0 0 
SMALL
USER_CHARGES


@<TRIPOS>ATOM
  1 N       -5.0060     0.7870    -0.6520 N.pl3 1 <1>  -0.8380 
  2 C       -6.0760     1.0160     0.2060 C.ar  1 <1>   0.1000 
  3 C       -4.7800     2.0450    -1.4380 C.3   1 <1>   0.2090 
  4 C       -4.8810    -0.5140    -1.3920 C.3   1 <1>   0.2090 
  5 C       -6.4400     2.3440     0.2340 C.ar  1 <1>  -0.1440 
  6 C       -6.7700     0.1030     0.9900 C.ar  1 <1>  -0.1500 
  7 C       -5.5780     3.1370    -0.7120 C.3   1 <1>  -0.0160 
  8 C       -3.5870    -1.2340    -0.9570 C.3   1 <1>   0.3430 
  9 C       -7.4680     2.7980     1.0360 C.ar  1 <1>  -0.1500 
 10 C       -7.8040     0.5430     1.8000 C.ar  1 <1>  -0.1500 
 11 N       -3.3000    -0.9180     0.4780 N.4   1 <1>  -0.9590 
 12 C       -8.1510     1.8860     1.8260 C.ar  1 <1>  -0.1500 
 13 C       -1.8740    -0.5590     0.7170 C.3   1 <1>   0.2630 
 14 C       -3.7890    -1.9600     1.4240 C.3   1 <1>   0.2630 
 15 H       -5.1580     1.9270    -2.4400 H     1 <1>   0.0800 
 16 H       -3.7330     2.2920    -1.4710 H     1 <1>   0.0800 
 17 H       -4.8670    -0.3470    -2.4560 H     1 <1>   0.0800 
 18 H       -5.7300    -1.1390    -1.1780 H     1 <1>   0.0800 
 19 H       -6.5200    -0.9370     0.9720 H     1 <1>   0.1500 
 20 H       -6.1690     3.7120    -1.4020 H     1 <1>   0.0800 
 21 H       -4.9210     3.7870    -0.1640 H     1 <1>   0.0800 
 22 H       -2.7830    -0.8660    -1.5720 H     1 <1>   0.0800 
 23 H       -3.6710    -2.2960    -1.1160 H     1 <1>   0.0800 
 24 H       -7.7380     3.8390     1.0480 H     1 <1>   0.1500 
 25 H       -8.3480    -0.1560     2.4110 H     1 <1>   0.1500 
 26 H       -3.8830    -0.0520     0.6090 H     1 <1>   0.4500 
 27 H       -8.9560     2.2220     2.4580 H     1 <1>   0.1500 
 28 H       -1.2370    -1.4080     0.5330 H     1 <1>   0.0800 
 29 H       -1.7390    -0.2370     1.7370 H     1 <1>   0.0800 
 30 H       -1.5800     0.2460     0.0630 H     1 <1>   0.0800 
 31 H       -3.2200    -2.8670     1.3100 H     1 <1>   0.0800 
 32 H       -4.8280    -2.1770     1.2380 H     1 <1>   0.0800 
 33 H       -3.6900    -1.6130     2.4400 H     1 <1>   0.0800 
@<TRIPOS>BOND
  1   1   2  1   
  2   1   3  1   
  3   1   4  1   
  4   2   5  ar  
  5   2   6  ar  
  6   3   7  1   
  7   3  15  1   
  8   3  16  1   
  9   4   8  1   
 10   4  17  1   
 11   4  18  1   
 12   5   7  1   
 13   5   9  ar  
 14   6  10  ar  
 15   6  19  1   
 16   7  20  1   
 17   7  21  1   
 18   8  11  1   
 19   8  22  1   
 20   8  23  1   
 21   9  12  ar  
 22   9  24  1   
 23  10  12  ar  
 24  10  25  1   
 25  11  13  1   
 26  11  14  1   
 27  11  26  1   
 28  12  27  1   
 29  13  28  1   
 30  13  29  1   
 31  13  30  1   
 32  14  31  1   
 33  14  32  1   
 34  14  33  1   
@<TRIPOS>SUBSTRUCTURE
  1 ****   2 GROUP 4 **** **** 0

# MOE 2024.06 (io_trps.svl 2023.06)
