@<TRIPOS>MOLECULE
NONAME
47 49 1 0 0 
SMALL
USER_CHARGES


@<TRIPOS>ATOM
  1 CL      -0.4690     2.1750    -2.0140 Cl    1 <1>  -0.1770 
  2 C        1.2060     2.1800    -1.5250 C.ar  1 <1>   0.1770 
  3 C        1.6340     2.8720    -0.4020 C.ar  1 <1>  -0.0090 
  4 C        2.0900     1.4620    -2.3070 C.ar  1 <1>  -0.1500 
  5 S        0.4820     3.8190     0.6190 S.o2  1 <1>   1.4470 
  6 C        2.9880     2.8120    -0.0860 C.ar  1 <1>  -0.1500 
  7 C        3.4290     1.4260    -1.9710 C.ar  1 <1>  -0.1500 
  8 O       -0.5810     2.9510     1.0730 O.2   1 <1>  -0.6500 
  9 O        1.2400     4.5560     1.6090 O.2   1 <1>  -0.6500 
 10 N       -0.1610     4.9640    -0.4530 N.am  1 <1>  -0.8490 
 11 C        3.9170     2.1020    -0.8520 C.ar  1 <1>   0.0860 
 12 C       -1.4920     5.4190    -0.0380 C.3   1 <1>   0.1960 
 13 C        0.7440     6.0950    -0.6830 C.3   1 <1>   0.1960 
 14 C        5.3310     2.0530    -0.5130 C.2   1 <1>   0.5440 
 15 C       -2.1130     6.3050    -1.1240 C.3   1 <1>  -0.1600 
 16 C        0.2010     6.9870    -1.8030 C.3   1 <1>  -0.1600 
 17 O        6.0550     1.2060    -0.9970 O.2   1 <1>  -0.5700 
 18 N        5.8920     2.9530     0.3440 N.am  1 <1>  -0.7300 
 19 C       -1.2080     7.4920    -1.4740 C.3   1 <1>  -0.1600 
 20 C        7.3200     2.9840     0.6970 C.3   1 <1>   0.2840 
 21 C        7.6010     4.3100     1.3780 C.ar  1 <1>  -0.1430 
 22 C        7.9510     5.4210     0.6250 C.ar  1 <1>  -0.1500 
 23 C        7.5030     4.4250     2.7570 C.ar  1 <1>  -0.1500 
 24 C        8.2030     6.6330     1.2440 C.ar  1 <1>  -0.1500 
 25 C        7.7560     5.6370     3.3760 C.ar  1 <1>  -0.1500 
 26 C        8.1060     6.7410     2.6200 C.ar  1 <1>  -0.1500 
 27 H        1.7270     0.9340    -3.1720 H     1 <1>   0.1500 
 28 H        3.3270     3.3310     0.7940 H     1 <1>   0.1500 
 29 H        4.1160     0.8630    -2.5830 H     1 <1>   0.1500 
 30 H       -1.4200     5.9610     0.8910 H     1 <1>   0.0800 
 31 H       -2.1380     4.5700     0.1150 H     1 <1>   0.0800 
 32 H        1.7170     5.7310    -0.9660 H     1 <1>   0.0800 
 33 H        0.8490     6.6710     0.2230 H     1 <1>   0.0800 
 34 H       -3.0680     6.6650    -0.7860 H     1 <1>   0.0800 
 35 H       -2.2800     5.7050    -2.0010 H     1 <1>   0.0800 
 36 H        0.1810     6.4210    -2.7180 H     1 <1>   0.0800 
 37 H        0.8610     7.8240    -1.9460 H     1 <1>   0.0800 
 38 H        5.3630     3.7410     0.7180 H     1 <1>   0.3700 
 39 H       -1.1610     8.1660    -0.6360 H     1 <1>   0.0800 
 40 H       -1.6140     8.0290    -2.3140 H     1 <1>   0.0800 
 41 H        7.9180     2.8800    -0.1930 H     1 <1>   0.0800 
 42 H        7.5440     2.1630     1.3570 H     1 <1>   0.0800 
 43 H        8.0270     5.3460    -0.4460 H     1 <1>   0.1500 
 44 H        7.2290     3.5720     3.3530 H     1 <1>   0.1500 
 45 H        8.4770     7.4920     0.6560 H     1 <1>   0.1500 
 46 H        7.6820     5.7210     4.4470 H     1 <1>   0.1500 
 47 H        8.3040     7.6830     3.1020 H     1 <1>   0.1500 
@<TRIPOS>BOND
  1   1   2  1   
  2   2   3  ar  
  3   2   4  ar  
  4   3   5  1   
  5   3   6  ar  
  6   4   7  ar  
  7   4  27  1   
  8   5   8  2   
  9   5   9  2   
 10   5  10  am  
 11   6  11  ar  
 12   6  28  1   
 13   7  11  ar  
 14   7  29  1   
 15  10  12  1   
 16  10  13  1   
 17  11  14  1   
 18  12  15  1   
 19  12  30  1   
 20  12  31  1   
 21  13  16  1   
 22  13  32  1   
 23  13  33  1   
 24  14  17  2   
 25  14  18  am  
 26  15  19  1   
 27  15  34  1   
 28  15  35  1   
 29  16  19  1   
 30  16  36  1   
 31  16  37  1   
 32  18  20  1   
 33  18  38  1   
 34  19  39  1   
 35  19  40  1   
 36  20  21  1   
 37  20  41  1   
 38  20  42  1   
 39  21  22  ar  
 40  21  23  ar  
 41  22  24  ar  
 42  22  43  1   
 43  23  25  ar  
 44  23  44  1   
 45  24  26  ar  
 46  24  45  1   
 47  25  26  ar  
 48  25  46  1   
 49  26  47  1   
@<TRIPOS>SUBSTRUCTURE
  1 ****   6 GROUP 4 **** **** 0

# MOE 2024.06 (io_trps.svl 2023.06)
