@<TRIPOS>MOLECULE
NONAME
34 35 1 0 0 
SMALL
USER_CHARGES


@<TRIPOS>ATOM
  1 O        1.0850    -3.2390     2.1400 O.2   1 <1>  -0.5700 
  2 C        0.7340    -3.0390     1.0150 C.2   1 <1>   0.4480 
  3 C        0.6680    -4.1530    -0.0560 C.3   1 <1>   0.0610 
  4 C        0.3460    -1.6210     0.6190 C.3   1 <1>   0.3890 
  5 C       -0.7890    -4.4020    -0.4900 C.3   1 <1>  -0.2400 
  6 C        1.2220    -5.4800     0.5020 C.3   1 <1>  -0.2400 
  7 C        1.5060    -3.7860    -1.2950 C.3   1 <1>  -0.2400 
  8 N        1.5420    -0.7190     0.5780 N.ar  1 <1>  -0.2100 
  9 C        2.2440    -0.4760     1.7080 C.ar  1 <1>   0.2110 
 10 C        1.9280    -0.1360    -0.6110 C.ar  1 <1>   0.2110 
 11 C        3.3510     0.3570     1.6780 C.ar  1 <1>   0.2270 
 12 C        3.0200     0.6930    -0.6770 C.ar  1 <1>  -0.1500 
 13 N        4.1950     0.7490     2.6610 N.2   1 <1>  -0.2270 
 14 C        3.7480     0.9440     0.4970 C.ar  1 <1>  -0.1520 
 15 N        5.0680     1.5270     2.1520 N.2   1 <1>  -0.4180 
 16 N        4.8260     1.6650     0.8380 N.pl3 1 <1>   0.3140 
 17 C        5.6680     2.5090    -0.0240 C.3   1 <1>   0.0160 
 18 H       -0.3440    -1.2450     1.3540 H     1 <1>   0.0800 
 19 H       -0.1550    -1.6180    -0.3300 H     1 <1>   0.0800 
 20 H       -0.8370    -5.2200    -1.1880 H     1 <1>   0.0800 
 21 H       -1.2220    -3.5410    -0.9660 H     1 <1>   0.0800 
 22 H       -1.3940    -4.6620     0.3620 H     1 <1>   0.0800 
 23 H        0.6530    -5.7960     1.3600 H     1 <1>   0.0800 
 24 H        2.2470    -5.3630     0.8100 H     1 <1>   0.0800 
 25 H        1.1780    -6.2620    -0.2360 H     1 <1>   0.0800 
 26 H        1.1070    -2.9340    -1.8130 H     1 <1>   0.0800 
 27 H        1.5190    -4.6080    -1.9910 H     1 <1>   0.0800 
 28 H        2.5250    -3.5810    -1.0130 H     1 <1>   0.0800 
 29 H        1.9600    -0.9250     2.6460 H     1 <1>   0.1500 
 30 H        1.3520    -0.3420    -1.5000 H     1 <1>   0.1500 
 31 H        3.3250     1.1500    -1.6040 H     1 <1>   0.1500 
 32 H        5.1340     3.4070    -0.2730 H     1 <1>   0.0800 
 33 H        5.9210     1.9710    -0.9180 H     1 <1>   0.0800 
 34 H        6.5690     2.7670     0.5040 H     1 <1>   0.0800 
@<TRIPOS>BOND
  1   1   2  2   
  2   2   3  1   
  3   2   4  1   
  4   3   5  1   
  5   3   6  1   
  6   3   7  1   
  7   4   8  1   
  8   4  18  1   
  9   4  19  1   
 10   5  20  1   
 11   5  21  1   
 12   5  22  1   
 13   6  23  1   
 14   6  24  1   
 15   6  25  1   
 16   7  26  1   
 17   7  27  1   
 18   7  28  1   
 19   8   9  ar  
 20   8  10  ar  
 21   9  11  ar  
 22   9  29  1   
 23  10  12  ar  
 24  10  30  1   
 25  11  13  1   
 26  11  14  ar  
 27  12  14  ar  
 28  12  31  1   
 29  13  15  2   
 30  14  16  1   
 31  15  16  1   
 32  16  17  1   
 33  17  32  1   
 34  17  33  1   
 35  17  34  1   
@<TRIPOS>SUBSTRUCTURE
  1 ****   8 GROUP 4 **** **** 0

# MOE 2024.06 (io_trps.svl 2023.06)
