@<TRIPOS>MOLECULE
NONAME
51 54 1 0 0 
SMALL
USER_CHARGES


@<TRIPOS>ATOM
  1 CL      -0.2190    -0.0120     2.2910 Cl    1 <1>  -0.1770 
  2 C       -0.8920     1.4450     1.6080 C.ar  1 <1>   0.1770 
  3 C       -1.8920     1.3530     0.6610 C.ar  1 <1>  -0.1500 
  4 C       -0.4160     2.6730     2.0220 C.ar  1 <1>  -0.1500 
  5 C       -2.4210     2.5140     0.1230 C.ar  1 <1>  -0.1500 
  6 C       -0.9510     3.8300     1.4780 C.ar  1 <1>  -0.1500 
  7 C       -1.9630     3.7700     0.5200 C.ar  1 <1>  -0.1430 
  8 C       -2.5940     5.0220    -0.1200 C.3   1 <1>   0.4240 
  9 O       -2.4750     4.8320    -1.4810 O.3   1 <1>  -0.6800 
 10 C       -1.8590     6.3410     0.1710 C.3   1 <1>  -0.1600 
 11 C       -4.1040     5.1270     0.1900 C.3   1 <1>  -0.1600 
 12 C       -2.6510     7.5330    -0.3690 C.3   1 <1>   0.1400 
 13 C       -4.4870     6.3870     0.9730 C.3   1 <1>   0.1400 
 14 N       -3.9900     7.6220     0.2920 N.am  1 <1>  -0.6600 
 15 C       -4.7450     8.7700     0.3340 C.2   1 <1>   0.5690 
 16 O       -5.7410     8.8410     1.0160 O.2   1 <1>  -0.5700 
 17 C       -4.3330    10.0120    -0.4500 C.3   1 <1>  -0.0190 
 18 C       -3.5160    10.9700     0.4250 C.3   1 <1>   0.1400 
 19 C       -5.4880    10.8660    -1.0150 C.3   1 <1>  -0.0990 
 20 N       -3.8640    12.2990    -0.1070 N.am  1 <1>  -0.6600 
 21 C       -4.9560    12.2660    -0.8970 C.2   1 <1>   0.5690 
 22 C       -3.1150    13.5340     0.2340 C.3   1 <1>   0.3200 
 23 O       -5.4590    13.2190    -1.4400 O.2   1 <1>  -0.5700 
 24 C       -1.6380    13.2520     0.4780 C.2   1 <1>  -0.0400 
 25 O       -0.8880    12.8020    -0.5120 O.3   1 <1>  -0.2800 
 26 C       -0.9000    13.3870     1.6020 C.2   1 <1>  -0.1500 
 27 C        0.3350    12.6450    -0.0480 C.2   1 <1>  -0.0100 
 28 C        0.3970    12.9880     1.2560 C.2   1 <1>  -0.1500 
 29 H       -2.2480     0.3870     0.3520 H     1 <1>   0.1500 
 30 H        0.3630     2.7180     2.7610 H     1 <1>   0.1500 
 31 H       -3.2020     2.4340    -0.6150 H     1 <1>   0.1500 
 32 H       -0.5540     4.7660     1.8250 H     1 <1>   0.1500 
 33 H       -1.6570     4.3240    -1.6390 H     1 <1>   0.4000 
 34 H       -0.8770     6.3190    -0.2650 H     1 <1>   0.0800 
 35 H       -1.7450     6.4840     1.2290 H     1 <1>   0.0800 
 36 H       -4.4170     4.2790     0.7710 H     1 <1>   0.0800 
 37 H       -4.6770     5.1170    -0.7200 H     1 <1>   0.0800 
 38 H       -2.7900     7.4260    -1.4320 H     1 <1>   0.0800 
 39 H       -2.0930     8.4340    -0.1850 H     1 <1>   0.0800 
 40 H       -4.0680     6.3440     1.9640 H     1 <1>   0.0800 
 41 H       -5.5590     6.4240     1.0730 H     1 <1>   0.0800 
 42 H       -3.7220     9.7290    -1.2850 H     1 <1>   0.0800 
 43 H       -2.4620    10.7700     0.3370 H     1 <1>   0.0800 
 44 H       -3.8190    10.9090     1.4580 H     1 <1>   0.0800 
 45 H       -6.3810    10.7930    -0.4210 H     1 <1>   0.0800 
 46 H       -5.7070    10.6210    -2.0380 H     1 <1>   0.0800 
 47 H       -3.5480    13.9670     1.1180 H     1 <1>   0.0800 
 48 H       -3.2130    14.2430    -0.5700 H     1 <1>   0.0800 
 49 H       -1.2080    13.7270     2.5750 H     1 <1>   0.1500 
 50 H        1.1010    12.2880    -0.7140 H     1 <1>   0.1500 
 51 H        1.2450    12.9740     1.9180 H     1 <1>   0.1500 
@<TRIPOS>BOND
  1   1   2  1   
  2   2   3  ar  
  3   2   4  ar  
  4   3   5  ar  
  5   3  29  1   
  6   4   6  ar  
  7   4  30  1   
  8   5   7  ar  
  9   5  31  1   
 10   6   7  ar  
 11   6  32  1   
 12   7   8  1   
 13   8   9  1   
 14   8  10  1   
 15   8  11  1   
 16   9  33  1   
 17  10  12  1   
 18  10  34  1   
 19  10  35  1   
 20  11  13  1   
 21  11  36  1   
 22  11  37  1   
 23  12  14  1   
 24  12  38  1   
 25  12  39  1   
 26  13  14  1   
 27  13  40  1   
 28  13  41  1   
 29  14  15  am  
 30  15  16  2   
 31  15  17  1   
 32  17  18  1   
 33  17  19  1   
 34  17  42  1   
 35  18  20  1   
 36  18  43  1   
 37  18  44  1   
 38  19  21  1   
 39  19  45  1   
 40  19  46  1   
 41  20  21  am  
 42  20  22  1   
 43  21  23  2   
 44  22  24  1   
 45  22  47  1   
 46  22  48  1   
 47  24  25  1   
 48  24  26  2   
 49  25  27  1   
 50  26  28  1   
 51  26  49  1   
 52  27  28  2   
 53  27  50  1   
 54  28  51  1   
@<TRIPOS>SUBSTRUCTURE
  1 ****  12 GROUP 4 **** **** 0

# MOE 2024.06 (io_trps.svl 2023.06)
