@<TRIPOS>MOLECULE
NONAME
33 33 1 0 0 
SMALL
USER_CHARGES


@<TRIPOS>ATOM
  1 S       -0.0710    -0.2200     0.4370 S.o2  1 <1>   1.3330 
  2 O        0.0920    -1.5680    -0.0520 O.2   1 <1>  -0.6500 
  3 O       -0.2940     0.0500     1.8350 O.2   1 <1>  -0.6500 
  4 N        1.3160     0.6450     0.0800 N.am  1 <1>  -0.9140 
  5 C       -1.3070     0.6070    -0.5380 C.3   1 <1>  -0.1350 
  6 C        2.5270    -0.1640     0.1780 C.3   1 <1>   0.1960 
  7 C        3.7520     0.7000    -0.1180 C.3   1 <1>   0.0700 
  8 S        5.2340    -0.3210     0.1000 S.3   1 <1>  -0.4600 
  9 C        6.5850     0.7780    -0.4140 C.3   1 <1>   0.2130 
 10 C        7.9050     0.0440    -0.2510 C.ar  1 <1>  -0.1430 
 11 C        8.8390     0.4700     0.6800 C.ar  1 <1>  -0.1500 
 12 C        8.1940    -1.0580    -1.0410 C.ar  1 <1>  -0.1500 
 13 C       10.0470    -0.1940     0.8150 C.ar  1 <1>  -0.1500 
 14 C        9.4020    -1.7210    -0.9060 C.ar  1 <1>  -0.1500 
 15 C       10.3360    -1.2910     0.0210 C.ar  1 <1>  -0.1430 
 16 C       11.6590    -2.0200     0.1710 C.3   1 <1>  -0.0970 
 17 H        1.3540     1.3240     0.8400 H     1 <1>   0.4200 
 18 H       -2.2660     0.1550    -0.3740 H     1 <1>   0.0800 
 19 H       -1.0650     0.5320    -1.5790 H     1 <1>   0.0800 
 20 H       -1.3630     1.6430    -0.2680 H     1 <1>   0.0800 
 21 H        2.4880    -0.9710    -0.5370 H     1 <1>   0.0800 
 22 H        2.6080    -0.5860     1.1670 H     1 <1>   0.0800 
 23 H        3.8310     1.5240     0.5680 H     1 <1>   0.0800 
 24 H        3.7440     1.0460    -1.1370 H     1 <1>   0.0800 
 25 H        6.5390     1.6560     0.2050 H     1 <1>   0.0800 
 26 H        6.4140     1.0420    -1.4430 H     1 <1>   0.0800 
 27 H        8.6330     1.3180     1.3080 H     1 <1>   0.1500 
 28 H        7.4740    -1.4070    -1.7610 H     1 <1>   0.1500 
 29 H       10.7610     0.1480     1.5430 H     1 <1>   0.1500 
 30 H        9.6080    -2.5760    -1.5250 H     1 <1>   0.1500 
 31 H       12.4280    -1.3410     0.4920 H     1 <1>   0.0800 
 32 H       11.9580    -2.4520    -0.7670 H     1 <1>   0.0800 
 33 H       11.5600    -2.8040     0.9000 H     1 <1>   0.0800 
@<TRIPOS>BOND
  1   1   2  2   
  2   1   3  2   
  3   1   4  am  
  4   1   5  1   
  5   4   6  1   
  6   4  17  1   
  7   5  18  1   
  8   5  19  1   
  9   5  20  1   
 10   6   7  1   
 11   6  21  1   
 12   6  22  1   
 13   7   8  1   
 14   7  23  1   
 15   7  24  1   
 16   8   9  1   
 17   9  10  1   
 18   9  25  1   
 19   9  26  1   
 20  10  11  ar  
 21  10  12  ar  
 22  11  13  ar  
 23  11  27  1   
 24  12  14  ar  
 25  12  28  1   
 26  13  15  ar  
 27  13  29  1   
 28  14  15  ar  
 29  14  30  1   
 30  15  16  1   
 31  16  31  1   
 32  16  32  1   
 33  16  33  1   
@<TRIPOS>SUBSTRUCTURE
  1 ****   8 GROUP 4 **** **** 0

# MOE 2024.06 (io_trps.svl 2023.06)
