@<TRIPOS>MOLECULE
NONAME
47 49 1 0 0 
SMALL
USER_CHARGES


@<TRIPOS>ATOM
  1 O       -1.6250    -0.3580     0.6750 O.3   1 <1>  -0.3630 
  2 C       -2.2380     0.4790    -0.2080 C.ar  1 <1>   0.0830 
  3 C       -0.6550    -1.2330     0.1360 C.3   1 <1>   0.0400 
  4 C       -3.5920     0.3170    -0.5510 C.ar  1 <1>   0.0830 
  5 C       -1.5040     1.5190    -0.7910 C.ar  1 <1>   0.0820 
  6 O       -4.4520    -0.6120    -0.0210 O.3   1 <1>  -0.3630 
  7 C       -4.1570     1.1570    -1.5110 C.ar  1 <1>  -0.1430 
  8 O       -0.2120     1.7770    -0.4750 O.3   1 <1>  -0.3630 
  9 C       -2.0830     2.3360    -1.7440 C.ar  1 <1>  -0.1500 
 10 C       -4.1310    -1.4460     1.0750 C.3   1 <1>   0.0400 
 11 C       -3.4030     2.1560    -2.1070 C.ar  1 <1>  -0.1500 
 12 C       -5.6100     0.9890    -1.9150 C.3   1 <1>   0.4860 
 13 C        0.0450     2.2550     0.8280 C.3   1 <1>   0.0400 
 14 N       -6.4600     1.2280    -0.7260 N.4   1 <1>  -0.9590 
 15 C       -7.8700     0.8160    -0.9300 C.3   1 <1>   0.4860 
 16 C       -6.3650     2.6150    -0.1920 C.3   1 <1>   0.3430 
 17 C       -8.6750     1.0280     0.3420 C.ar  1 <1>  -0.1430 
 18 C       -6.9390     2.6600     1.2250 C.3   1 <1>  -0.0170 
 19 C       -8.2520     1.8970     1.3440 C.ar  1 <1>  -0.1430 
 20 C       -9.8710     0.3400     0.4960 C.ar  1 <1>  -0.1500 
 21 C       -9.0260     2.0670     2.4800 C.ar  1 <1>  -0.1500 
 22 C      -10.6380     0.5150     1.6330 C.ar  1 <1>  -0.1500 
 23 C      -10.2160     1.3790     2.6250 C.ar  1 <1>  -0.1500 
 24 H       -0.3370    -1.9030     0.9130 H     1 <1>   0.0800 
 25 H        0.1850    -0.6640    -0.2200 H     1 <1>   0.0800 
 26 H       -1.0970    -1.7880    -0.6730 H     1 <1>   0.0800 
 27 H       -1.4890     3.1110    -2.1970 H     1 <1>   0.1500 
 28 H       -3.7850    -0.8390     1.8940 H     1 <1>   0.0800 
 29 H       -3.3730    -2.1460     0.7720 H     1 <1>   0.0800 
 30 H       -5.0170    -1.9810     1.3670 H     1 <1>   0.0800 
 31 H       -3.8250     2.8030    -2.8580 H     1 <1>   0.1500 
 32 H       -5.7540    -0.0180    -2.2740 H     1 <1>   0.0800 
 33 H       -5.8620     1.6780    -2.7040 H     1 <1>   0.0800 
 34 H        1.0890     2.5040     0.8940 H     1 <1>   0.0800 
 35 H       -0.1920     1.4900     1.5440 H     1 <1>   0.0800 
 36 H       -0.5540     3.1310     1.0020 H     1 <1>   0.0800 
 37 H       -6.0650     0.6000    -0.0050 H     1 <1>   0.4500 
 38 H       -7.9100    -0.2260    -1.2040 H     1 <1>   0.0800 
 39 H       -8.3120     1.3950    -1.7240 H     1 <1>   0.0800 
 40 H       -6.9220     3.2860    -0.8250 H     1 <1>   0.0800 
 41 H       -5.3370     2.9410    -0.1670 H     1 <1>   0.0800 
 42 H       -7.0870     3.6870     1.5090 H     1 <1>   0.0800 
 43 H       -6.2240     2.2350     1.9070 H     1 <1>   0.0800 
 44 H      -10.2220    -0.3370    -0.2640 H     1 <1>   0.1500 
 45 H       -8.7090     2.7340     3.2640 H     1 <1>   0.1500 
 46 H      -11.5660    -0.0210     1.7490 H     1 <1>   0.1500 
 47 H      -10.8140     1.5150     3.5110 H     1 <1>   0.1500 
@<TRIPOS>BOND
  1   1   2  1   
  2   1   3  1   
  3   2   4  ar  
  4   2   5  ar  
  5   3  24  1   
  6   3  25  1   
  7   3  26  1   
  8   4   6  1   
  9   4   7  ar  
 10   5   8  1   
 11   5   9  ar  
 12   6  10  1   
 13   7  11  ar  
 14   7  12  1   
 15   8  13  1   
 16   9  11  ar  
 17   9  27  1   
 18  10  28  1   
 19  10  29  1   
 20  10  30  1   
 21  11  31  1   
 22  12  14  1   
 23  12  32  1   
 24  12  33  1   
 25  13  34  1   
 26  13  35  1   
 27  13  36  1   
 28  14  15  1   
 29  14  16  1   
 30  14  37  1   
 31  15  17  1   
 32  15  38  1   
 33  15  39  1   
 34  16  18  1   
 35  16  40  1   
 36  16  41  1   
 37  17  19  ar  
 38  17  20  ar  
 39  18  19  1   
 40  18  42  1   
 41  18  43  1   
 42  19  21  ar  
 43  20  22  ar  
 44  20  44  1   
 45  21  23  ar  
 46  21  45  1   
 47  22  23  ar  
 48  22  46  1   
 49  23  47  1   
@<TRIPOS>SUBSTRUCTURE
  1 ****  14 GROUP 4 **** **** 0

# MOE 2024.06 (io_trps.svl 2023.06)
