@<TRIPOS>MOLECULE
NONAME
45 46 1 0 0 
SMALL
USER_CHARGES


@<TRIPOS>ATOM
  1 S       -0.8880     0.0150    -0.9990 S.o2  1 <1>   1.5760 
  2 O        0.0700    -0.4800    -1.9590 O.2   1 <1>  -0.6500 
  3 O       -2.0570     0.7460    -1.4280 O.2   1 <1>  -0.6500 
  4 N       -1.4480    -1.2570     0.0250 N.am  1 <1>  -0.6930 
  5 N       -0.0630     0.9500     0.1470 N.am  1 <1>  -0.8490 
  6 C       -0.7970    -2.4890     0.1450 C.ar  1 <1>   0.1990 
  7 C       -2.4550    -0.8190     1.0450 C.3   1 <1>   0.2570 
  8 C        1.2230     0.3620     0.5360 C.3   1 <1>   0.1160 
  9 C        0.1380     2.3230    -0.3200 C.3   1 <1>   0.1160 
 10 C       -0.4480    -3.0080     1.3910 C.ar  1 <1>  -0.1500 
 11 C       -0.4860    -3.2440    -0.9820 C.ar  1 <1>  -0.1500 
 12 C       -3.4700    -1.8920     1.4540 C.2   1 <1>   0.5690 
 13 C        0.1890    -4.2300     1.5050 C.ar  1 <1>  -0.1500 
 14 C        0.1540    -4.4650    -0.8750 C.ar  1 <1>  -0.1500 
 15 O       -3.4250    -2.2740     2.6030 O.2   1 <1>  -0.5700 
 16 N       -4.4010    -2.3840     0.5670 N.am  1 <1>  -0.6600 
 17 C        0.4930    -4.9610     0.3710 C.ar  1 <1>  -0.1500 
 18 C       -5.2850    -3.5260     0.9290 C.3   1 <1>   0.1400 
 19 C       -4.5590    -1.9250    -0.8430 C.3   1 <1>   0.1400 
 20 C       -4.9980    -4.7070    -0.0050 C.3   1 <1>  -0.1600 
 21 C       -4.2710    -3.0880    -1.7980 C.3   1 <1>  -0.1600 
 22 C       -5.1440    -4.3100    -1.4810 C.3   1 <1>  -0.1600 
 23 H       -3.0100     0.0250     0.6810 H     1 <1>   0.0800 
 24 H       -1.9300    -0.4900     1.9230 H     1 <1>   0.0800 
 25 H        1.0770    -0.6310     0.9250 H     1 <1>   0.0800 
 26 H        1.6850     0.9580     1.3040 H     1 <1>   0.0800 
 27 H        1.8870     0.3040    -0.3110 H     1 <1>   0.0800 
 28 H       -0.8130     2.7860    -0.5240 H     1 <1>   0.0800 
 29 H        0.7280     2.3300    -1.2220 H     1 <1>   0.0800 
 30 H        0.6390     2.9030     0.4360 H     1 <1>   0.0800 
 31 H       -0.6770    -2.4580     2.2840 H     1 <1>   0.1500 
 32 H       -0.7490    -2.8740    -1.9560 H     1 <1>   0.1500 
 33 H        0.4460    -4.6140     2.4770 H     1 <1>   0.1500 
 34 H        0.3860    -5.0290    -1.7620 H     1 <1>   0.1500 
 35 H        0.9890    -5.9130     0.4570 H     1 <1>   0.1500 
 36 H       -6.3120    -3.2200     0.8320 H     1 <1>   0.0800 
 37 H       -5.1210    -3.8280     1.9500 H     1 <1>   0.0800 
 38 H       -3.9030    -1.1040    -1.0690 H     1 <1>   0.0800 
 39 H       -5.5700    -1.5840    -0.9850 H     1 <1>   0.0800 
 40 H       -5.6720    -5.5120     0.2230 H     1 <1>   0.0800 
 41 H       -3.9960    -5.0550     0.1800 H     1 <1>   0.0800 
 42 H       -3.2330    -3.3550    -1.7130 H     1 <1>   0.0800 
 43 H       -4.4450    -2.7680    -2.8100 H     1 <1>   0.0800 
 44 H       -6.1740    -4.0760    -1.6880 H     1 <1>   0.0800 
 45 H       -4.8560    -5.1350    -2.1100 H     1 <1>   0.0800 
@<TRIPOS>BOND
  1   1   2  2   
  2   1   3  2   
  3   1   4  am  
  4   1   5  am  
  5   4   6  1   
  6   4   7  1   
  7   5   8  1   
  8   5   9  1   
  9   6  10  ar  
 10   6  11  ar  
 11   7  12  1   
 12   7  23  1   
 13   7  24  1   
 14   8  25  1   
 15   8  26  1   
 16   8  27  1   
 17   9  28  1   
 18   9  29  1   
 19   9  30  1   
 20  10  13  ar  
 21  10  31  1   
 22  11  14  ar  
 23  11  32  1   
 24  12  15  2   
 25  12  16  am  
 26  13  17  ar  
 27  13  33  1   
 28  14  17  ar  
 29  14  34  1   
 30  16  18  1   
 31  16  19  1   
 32  17  35  1   
 33  18  20  1   
 34  18  36  1   
 35  18  37  1   
 36  19  21  1   
 37  19  38  1   
 38  19  39  1   
 39  20  22  1   
 40  20  40  1   
 41  20  41  1   
 42  21  22  1   
 43  21  42  1   
 44  21  43  1   
 45  22  44  1   
 46  22  45  1   
@<TRIPOS>SUBSTRUCTURE
  1 ****   4 GROUP 4 **** **** 0

# MOE 2024.06 (io_trps.svl 2023.06)
