@<TRIPOS>MOLECULE
NONAME
40 41 1 0 0 
SMALL
USER_CHARGES


@<TRIPOS>ATOM
  1 CL       0.2620     0.8350    -2.6590 Cl    1 <1>  -0.1770 
  2 C        1.1210     1.4590    -1.2690 C.ar  1 <1>   0.1770 
  3 C        1.6490     0.6080    -0.3130 C.ar  1 <1>   0.1900 
  4 C        1.2660     2.8260    -1.1310 C.ar  1 <1>  -0.1500 
  5 F        1.5100    -0.6880    -0.4410 F     1 <1>  -0.1900 
  6 C        2.3270     1.0980     0.7880 C.ar  1 <1>  -0.1500 
  7 C        1.9390     3.3430    -0.0300 C.ar  1 <1>   0.1990 
  8 C        2.4700     2.4700     0.9200 C.ar  1 <1>  -0.1500 
  9 N        2.0610     4.7220     0.1120 N.am  1 <1>  -0.6930 
 10 S        3.5580     5.4850    -0.2920 S.o2  1 <1>   1.3330 
 11 C        1.3920     5.3550     1.2990 C.3   1 <1>   0.2570 
 12 O        3.3490     6.9000    -0.1050 O.2   1 <1>  -0.6500 
 13 O        4.5900     4.7870     0.4320 O.2   1 <1>  -0.6500 
 14 C        3.7090     5.1640    -2.0360 C.3   1 <1>  -0.1350 
 15 C        0.0670     4.7110     1.7170 C.2   1 <1>   0.5690 
 16 O       -0.0700     4.3500     2.8620 O.2   1 <1>  -0.5700 
 17 N       -0.9200     4.5590     0.7950 N.am  1 <1>  -0.7300 
 18 C       -2.2200     3.9110     1.0330 C.3   1 <1>   0.2200 
 19 C       -2.2590     2.5920     0.2730 C.3   1 <1>  -0.1600 
 20 C       -3.3080     4.7370     0.3590 C.3   1 <1>  -0.1600 
 21 C       -2.6130     2.9530    -1.1750 C.3   1 <1>  -0.1600 
 22 C       -3.2840     4.3320    -1.1200 C.3   1 <1>  -0.1600 
 23 H        0.8530     3.4850    -1.8700 H     1 <1>   0.1500 
 24 H        2.7330     0.4220     1.5200 H     1 <1>   0.1500 
 25 H        2.9980     2.8730     1.7680 H     1 <1>   0.1500 
 26 H        1.1950     6.3900     1.0830 H     1 <1>   0.0800 
 27 H        2.0650     5.3200     2.1370 H     1 <1>   0.0800 
 28 H        2.8640     5.5640    -2.5610 H     1 <1>   0.0800 
 29 H        3.7680     4.1090    -2.2170 H     1 <1>   0.0800 
 30 H        4.5990     5.6260    -2.4160 H     1 <1>   0.0800 
 31 H       -0.7490     4.8160    -0.1760 H     1 <1>   0.3700 
 32 H       -2.3950     3.7820     2.0900 H     1 <1>   0.0800 
 33 H       -3.0490     1.9890     0.6840 H     1 <1>   0.0800 
 34 H       -1.3360     2.0450     0.3570 H     1 <1>   0.0800 
 35 H       -3.1690     5.7940     0.5060 H     1 <1>   0.0800 
 36 H       -4.2560     4.4550     0.7820 H     1 <1>   0.0800 
 37 H       -3.2680     2.2130    -1.6030 H     1 <1>   0.0800 
 38 H       -1.7200     3.0080    -1.7720 H     1 <1>   0.0800 
 39 H       -2.7040     5.0410    -1.6860 H     1 <1>   0.0800 
 40 H       -4.2810     4.3000    -1.5240 H     1 <1>   0.0800 
@<TRIPOS>BOND
  1   1   2  1   
  2   2   3  ar  
  3   2   4  ar  
  4   3   5  1   
  5   3   6  ar  
  6   4   7  ar  
  7   4  23  1   
  8   6   8  ar  
  9   6  24  1   
 10   7   8  ar  
 11   7   9  1   
 12   8  25  1   
 13   9  10  am  
 14   9  11  1   
 15  10  12  2   
 16  10  13  2   
 17  10  14  1   
 18  11  15  1   
 19  11  26  1   
 20  11  27  1   
 21  14  28  1   
 22  14  29  1   
 23  14  30  1   
 24  15  16  2   
 25  15  17  am  
 26  17  18  1   
 27  17  31  1   
 28  18  19  1   
 29  18  20  1   
 30  18  32  1   
 31  19  21  1   
 32  19  33  1   
 33  19  34  1   
 34  20  22  1   
 35  20  35  1   
 36  20  36  1   
 37  21  22  1   
 38  21  37  1   
 39  21  38  1   
 40  22  39  1   
 41  22  40  1   
@<TRIPOS>SUBSTRUCTURE
  1 ****   7 GROUP 4 **** **** 0

# MOE 2024.06 (io_trps.svl 2023.06)
