@<TRIPOS>MOLECULE
NONAME
41 44 1 0 0 
SMALL
USER_CHARGES


@<TRIPOS>ATOM
  1 F        1.5030    -0.2310     1.5210 F     1 <1>  -0.1900 
  2 C        2.2040     0.6280     0.8340 C.ar  1 <1>   0.1900 
  3 C        3.2430     1.2910     1.4560 C.ar  1 <1>  -0.1500 
  4 C        1.8820     0.8450    -0.4910 C.ar  1 <1>  -0.1500 
  5 C        3.9820     2.2050     0.7230 C.ar  1 <1>  -0.1500 
  6 C        2.6260     1.7600    -1.2160 C.ar  1 <1>  -0.1500 
  7 C        3.6770     2.4480    -0.6140 C.ar  1 <1>  -0.1430 
  8 C        4.4780     3.4590    -1.4310 C.3   1 <1>   0.4720 
  9 N        4.6540     4.7370    -0.6850 N.ar  1 <1>  -0.2100 
 10 C        3.5880     5.5470    -0.4190 C.ar  1 <1>   0.2180 
 11 C        5.8770     5.1460    -0.2340 C.ar  1 <1>   0.2180 
 12 C        3.7230     6.7210     0.2610 C.ar  1 <1>  -0.1430 
 13 C        2.1410     5.2970    -0.7970 C.3   1 <1>  -0.0170 
 14 C        6.0420     6.3150     0.4470 C.ar  1 <1>  -0.1430 
 15 C        7.1960     4.4180    -0.4000 C.3   1 <1>  -0.0170 
 16 C        4.9650     7.1620     0.7250 C.ar  1 <1>   0.1000 
 17 C        2.3970     7.4280     0.4330 C.3   1 <1>  -0.0170 
 18 C        1.4300     6.6170    -0.4470 C.3   1 <1>  -0.1600 
 19 C        7.4860     6.5470     0.8300 C.3   1 <1>  -0.0170 
 20 C        8.1820     5.2240     0.4660 C.3   1 <1>  -0.1600 
 21 N        5.1150     8.3240     1.3960 N.pl3 1 <1>  -0.9000 
 22 H        3.4620     1.0910     2.4900 H     1 <1>   0.1500 
 23 H        1.0660     0.3030    -0.9370 H     1 <1>   0.1500 
 24 H        4.7920     2.7180     1.2160 H     1 <1>   0.1500 
 25 H        2.3720     1.9210    -2.2510 H     1 <1>   0.1500 
 26 H        3.9720     3.6680    -2.3570 H     1 <1>   0.0800 
 27 H        5.4300     3.0280    -1.6800 H     1 <1>   0.0800 
 28 H        1.7400     4.4930    -0.2040 H     1 <1>   0.0800 
 29 H        2.0280     5.0730    -1.8430 H     1 <1>   0.0800 
 30 H        7.5030     4.4390    -1.4310 H     1 <1>   0.0800 
 31 H        7.1400     3.4010    -0.0530 H     1 <1>   0.0800 
 32 H        2.4530     8.4530     0.1080 H     1 <1>   0.0800 
 33 H        2.0980     7.3920     1.4660 H     1 <1>   0.0800 
 34 H        0.4940     6.4430     0.0560 H     1 <1>   0.0800 
 35 H        1.2360     7.1680    -1.3520 H     1 <1>   0.0800 
 36 H        7.5830     6.7610     1.8810 H     1 <1>   0.0800 
 37 H        7.8890     7.3650     0.2570 H     1 <1>   0.0800 
 38 H        9.1110     5.4010    -0.0510 H     1 <1>   0.0800 
 39 H        8.3920     4.6790     1.3700 H     1 <1>   0.0800 
 40 H        6.0180     8.6690     1.7400 H     1 <1>   0.4000 
 41 H        4.3370     8.9550     1.6150 H     1 <1>   0.4000 
@<TRIPOS>BOND
  1   1   2  1   
  2   2   3  ar  
  3   2   4  ar  
  4   3   5  ar  
  5   3  22  1   
  6   4   6  ar  
  7   4  23  1   
  8   5   7  ar  
  9   5  24  1   
 10   6   7  ar  
 11   6  25  1   
 12   7   8  1   
 13   8   9  1   
 14   8  26  1   
 15   8  27  1   
 16   9  10  ar  
 17   9  11  ar  
 18  10  12  ar  
 19  10  13  1   
 20  11  14  ar  
 21  11  15  1   
 22  12  16  ar  
 23  12  17  1   
 24  13  18  1   
 25  13  28  1   
 26  13  29  1   
 27  14  16  ar  
 28  14  19  1   
 29  15  20  1   
 30  15  30  1   
 31  15  31  1   
 32  16  21  1   
 33  17  18  1   
 34  17  32  1   
 35  17  33  1   
 36  18  34  1   
 37  18  35  1   
 38  19  20  1   
 39  19  36  1   
 40  19  37  1   
 41  20  38  1   
 42  20  39  1   
 43  21  40  1   
 44  21  41  1   
@<TRIPOS>SUBSTRUCTURE
  1 ****   9 GROUP 4 **** **** 0

# MOE 2024.06 (io_trps.svl 2023.06)
