@<TRIPOS>MOLECULE
NONAME
40 41 1 0 0 
SMALL
USER_CHARGES


@<TRIPOS>ATOM
  1 S        0.0370     0.9030     1.9020 S.o2  1 <1>   1.4470 
  2 O       -0.4920     1.7680     2.9350 O.2   1 <1>  -0.6500 
  3 O        0.0930    -0.5250     2.1280 O.2   1 <1>  -0.6500 
  4 N       -0.9000     1.1680     0.5120 N.am  1 <1>  -0.8490 
  5 C        1.6860     1.4640     1.3950 C.ar  1 <1>  -0.0090 
  6 C       -1.1060     2.6030     0.2720 C.3   1 <1>   0.1960 
  7 C       -2.1540     0.4110     0.5810 C.3   1 <1>   0.1960 
  8 C        2.2200     1.0860     0.1720 C.ar  1 <1>  -0.1500 
  9 C        2.4580     2.2770     2.2120 C.ar  1 <1>  -0.1500 
 10 C       -1.3200     2.8670    -1.2210 C.3   1 <1>  -0.1600 
 11 C       -2.9490     0.4220    -0.7310 C.3   1 <1>  -0.1600 
 12 C        3.4820     1.4890    -0.2630 C.ar  1 <1>   0.0860 
 13 C        3.7130     2.6980     1.8130 C.ar  1 <1>  -0.1500 
 14 C       -2.7820     2.8070    -1.6910 C.3   1 <1>  -0.1600 
 15 C       -3.6620     1.7540    -1.0040 C.3   1 <1>  -0.1600 
 16 C        4.2290     2.3130     0.5880 C.ar  1 <1>  -0.1430 
 17 C        3.9580     1.0380    -1.5600 C.2   1 <1>   0.5440 
 18 C        5.6190     2.8000     0.1940 C.3   1 <1>  -0.0970 
 19 O        4.4060     1.7980    -2.3900 O.2   1 <1>  -0.5700 
 20 N        3.9110    -0.2690    -1.9040 N.am  1 <1>  -0.8000 
 21 H       -0.2210     3.1430     0.5640 H     1 <1>   0.0800 
 22 H       -1.9230     2.9830     0.8650 H     1 <1>   0.0800 
 23 H       -2.7630     0.7830     1.3900 H     1 <1>   0.0800 
 24 H       -1.9260    -0.6190     0.7990 H     1 <1>   0.0800 
 25 H        1.6270     0.4580    -0.4720 H     1 <1>   0.1500 
 26 H        2.0720     2.5860     3.1710 H     1 <1>   0.1500 
 27 H       -0.7240     2.1700    -1.7850 H     1 <1>   0.0800 
 28 H       -0.9440     3.8490    -1.4480 H     1 <1>   0.0800 
 29 H       -3.7060    -0.3380    -0.6430 H     1 <1>   0.0800 
 30 H       -2.3150     0.1420    -1.5540 H     1 <1>   0.0800 
 31 H        4.2850     3.3320     2.4700 H     1 <1>   0.1500 
 32 H       -2.7810     2.6230    -2.7520 H     1 <1>   0.0800 
 33 H       -3.2380     3.7710    -1.5400 H     1 <1>   0.0800 
 34 H       -4.0450     2.1500    -0.0790 H     1 <1>   0.0800 
 35 H       -4.5130     1.5700    -1.6390 H     1 <1>   0.0800 
 36 H        5.5430     3.5030    -0.6170 H     1 <1>   0.0800 
 37 H        6.2280     1.9730    -0.1260 H     1 <1>   0.0800 
 38 H        6.1130     3.2820     1.0180 H     1 <1>   0.0800 
 39 H        4.2660    -0.5490    -2.8190 H     1 <1>   0.3700 
 40 H        3.6270    -1.0130    -1.2680 H     1 <1>   0.3700 
@<TRIPOS>BOND
  1   1   2  2   
  2   1   3  2   
  3   1   4  am  
  4   1   5  1   
  5   4   6  1   
  6   4   7  1   
  7   5   8  ar  
  8   5   9  ar  
  9   6  10  1   
 10   6  21  1   
 11   6  22  1   
 12   7  11  1   
 13   7  23  1   
 14   7  24  1   
 15   8  12  ar  
 16   8  25  1   
 17   9  13  ar  
 18   9  26  1   
 19  10  14  1   
 20  10  27  1   
 21  10  28  1   
 22  11  15  1   
 23  11  29  1   
 24  11  30  1   
 25  12  16  ar  
 26  12  17  1   
 27  13  16  ar  
 28  13  31  1   
 29  14  15  1   
 30  14  32  1   
 31  14  33  1   
 32  15  34  1   
 33  15  35  1   
 34  16  18  1   
 35  17  19  2   
 36  17  20  am  
 37  18  36  1   
 38  18  37  1   
 39  18  38  1   
 40  20  39  1   
 41  20  40  1   
@<TRIPOS>SUBSTRUCTURE
  1 ****   8 GROUP 4 **** **** 0

# MOE 2024.06 (io_trps.svl 2023.06)
