@<TRIPOS>MOLECULE
NONAME
51 54 1 0 0 
SMALL
USER_CHARGES


@<TRIPOS>ATOM
  1 O       -8.1090    -4.7990    -0.6110 O.3   1 <1>  -0.5600 
  2 C       -7.4330    -5.5900     0.3260 C.3   1 <1>   0.2000 
  3 C       -8.8580    -5.6420    -1.4290 C.3   1 <1>   0.1200 
  4 C       -8.4770    -6.6240     0.7320 C.3   1 <1>  -0.1600 
  5 C       -6.8750    -4.7700     1.5090 C.3   1 <1>   0.2090 
  6 C       -9.3350    -6.7690    -0.5180 C.3   1 <1>  -0.1600 
  7 N       -5.5850    -4.0800     1.1840 N.pl3 1 <1>  -0.8690 
  8 C       -5.4330    -2.8900     0.5700 C.ar  1 <1>   0.4100 
  9 N       -6.5240    -2.2570     0.2390 N.ar  1 <1>  -0.6200 
 10 C       -4.1240    -2.3780     0.2790 C.ar  1 <1>   0.0000 
 11 C       -6.4210    -1.1700    -0.5040 C.ar  1 <1>   0.7710 
 12 C       -4.0590    -1.1930    -0.4590 C.ar  1 <1>   0.3610 
 13 C       -2.9150    -2.9710     0.6780 C.ar  1 <1>  -0.1500 
 14 N       -5.2520    -0.6280    -0.8360 N.ar  1 <1>  -0.1790 
 15 N       -7.5650    -0.6300    -0.9490 N.pl3 1 <1>  -0.8380 
 16 C       -2.8250    -0.6280    -0.7940 C.ar  1 <1>  -0.1500 
 17 C       -1.7040    -2.4080     0.3460 C.ar  1 <1>  -0.1500 
 18 C       -8.5610    -1.5610    -1.5970 C.3   1 <1>   0.2090 
 19 C       -8.2350     0.4600    -0.1600 C.3   1 <1>   0.2090 
 20 C       -1.6560    -1.2310    -0.3940 C.ar  1 <1>  -0.1500 
 21 C       -9.5660    -2.1330    -0.5700 C.3   1 <1>   0.3430 
 22 C       -9.2630    -0.1160     0.8520 C.3   1 <1>   0.3430 
 23 N      -10.2640    -1.0480     0.2150 N.4   1 <1>  -0.9590 
 24 C      -11.1600    -1.6540     1.2470 C.3   1 <1>   0.2630 
 25 H       -6.6230    -6.0840    -0.1840 H     1 <1>   0.0800 
 26 H       -8.2100    -6.0190    -2.2030 H     1 <1>   0.0800 
 27 H       -9.6730    -5.0920    -1.8650 H     1 <1>   0.0800 
 28 H       -9.0720    -6.2550     1.5490 H     1 <1>   0.0800 
 29 H       -8.0180    -7.5530     1.0220 H     1 <1>   0.0800 
 30 H       -6.6910    -5.4370     2.3340 H     1 <1>   0.0800 
 31 H       -7.6120    -4.0550     1.8290 H     1 <1>   0.0800 
 32 H       -9.1820    -7.7210    -0.9980 H     1 <1>   0.0800 
 33 H      -10.3800    -6.6610    -0.2880 H     1 <1>   0.0800 
 34 H       -4.7580    -4.6340     1.4210 H     1 <1>   0.4000 
 35 H       -2.9250    -3.8790     1.2540 H     1 <1>   0.1500 
 36 H       -5.2780     0.1780    -1.4520 H     1 <1>   0.4570 
 37 H       -2.7760     0.2830    -1.3650 H     1 <1>   0.1500 
 38 H       -0.7820    -2.8740     0.6570 H     1 <1>   0.1500 
 39 H       -8.0420    -2.3870    -2.0580 H     1 <1>   0.0800 
 40 H       -9.0920    -1.0400    -2.3750 H     1 <1>   0.0800 
 41 H       -8.7360     1.1350    -0.8340 H     1 <1>   0.0800 
 42 H       -7.4990     1.0290     0.3820 H     1 <1>   0.0800 
 43 H       -0.6970    -0.8050    -0.6460 H     1 <1>   0.1500 
 44 H       -9.0240    -2.7760     0.1040 H     1 <1>   0.0800 
 45 H      -10.2900    -2.7420    -1.0860 H     1 <1>   0.0800 
 46 H       -9.7800     0.7000     1.3320 H     1 <1>   0.0800 
 47 H       -8.7180    -0.6500     1.6130 H     1 <1>   0.0800 
 48 H      -10.8460    -0.5050    -0.4410 H     1 <1>   0.4500 
 49 H      -10.5840    -2.2410     1.9450 H     1 <1>   0.0800 
 50 H      -11.8890    -2.2970     0.7800 H     1 <1>   0.0800 
 51 H      -11.6820    -0.8840     1.7920 H     1 <1>   0.0800 
@<TRIPOS>BOND
  1   1   2  1   
  2   1   3  1   
  3   2   4  1   
  4   2   5  1   
  5   2  25  1   
  6   3   6  1   
  7   3  26  1   
  8   3  27  1   
  9   4   6  1   
 10   4  28  1   
 11   4  29  1   
 12   5   7  1   
 13   5  30  1   
 14   5  31  1   
 15   6  32  1   
 16   6  33  1   
 17   7   8  1   
 18   7  34  1   
 19   8   9  ar  
 20   8  10  ar  
 21   9  11  ar  
 22  10  12  ar  
 23  10  13  ar  
 24  11  14  ar  
 25  11  15  1   
 26  12  14  ar  
 27  12  16  ar  
 28  13  17  ar  
 29  13  35  1   
 30  14  36  1   
 31  15  18  1   
 32  15  19  1   
 33  16  20  ar  
 34  16  37  1   
 35  17  20  ar  
 36  17  38  1   
 37  18  21  1   
 38  18  39  1   
 39  18  40  1   
 40  19  22  1   
 41  19  41  1   
 42  19  42  1   
 43  20  43  1   
 44  21  23  1   
 45  21  44  1   
 46  21  45  1   
 47  22  23  1   
 48  22  46  1   
 49  22  47  1   
 50  23  24  1   
 51  23  48  1   
 52  24  49  1   
 53  24  50  1   
 54  24  51  1   
@<TRIPOS>SUBSTRUCTURE
  1 ****   9 GROUP 4 **** **** 0

# MOE 2024.06 (io_trps.svl 2023.06)
