@<TRIPOS>MOLECULE
NONAME
43 44 1 0 0 
SMALL
USER_CHARGES


@<TRIPOS>ATOM
  1 O       -0.1670    -0.4740    -1.3260 O.2   1 <1>  -0.5700 
  2 C        0.4340    -1.2670    -0.6220 C.2   1 <1>   0.5440 
  3 N        1.6680    -0.9040    -0.1660 N.am  1 <1>  -0.7300 
  4 C       -0.1390    -2.5490    -0.2540 C.ar  1 <1>   0.0860 
  5 C        2.3450     0.3600    -0.4770 C.3   1 <1>   0.2780 
  6 C       -1.5170    -2.7070    -0.0170 C.ar  1 <1>   0.1170 
  7 C        0.6870    -3.6690    -0.1150 C.ar  1 <1>  -0.1500 
  8 C        3.8310     0.1120    -0.3450 C.2   1 <1>  -0.2880 
  9 N       -2.3770    -1.6100    -0.1770 N.am  1 <1>  -0.5470 
 10 C       -2.0070    -3.9560     0.3570 C.ar  1 <1>  -0.1500 
 11 C        0.1850    -4.9000     0.2580 C.ar  1 <1>  -0.1500 
 12 C        4.6310     0.6660     0.5720 C.2   1 <1>  -0.3000 
 13 C       -3.6060    -1.3060     0.3380 C.2   1 <1>   0.5690 
 14 C       -1.1680    -5.0430     0.4980 C.ar  1 <1>  -0.1500 
 15 O       -4.1960    -2.0240     1.1080 O.2   1 <1>  -0.5700 
 16 C       -4.2130     0.0350    -0.0830 C.3   1 <1>  -0.0190 
 17 C       -3.6200     1.1880     0.7500 C.3   1 <1>  -0.1600 
 18 C       -5.7540     0.0510    -0.0040 C.3   1 <1>  -0.1600 
 19 C       -4.1960     2.5470     0.3260 C.3   1 <1>  -0.1600 
 20 C       -6.3280     1.4090    -0.4330 C.3   1 <1>  -0.1600 
 21 C       -5.7280     2.5490     0.4000 C.3   1 <1>  -0.1600 
 22 H        2.1450    -1.4710     0.5350 H     1 <1>   0.3700 
 23 H        2.0240     1.1180     0.2170 H     1 <1>   0.0800 
 24 H        2.1030     0.6790    -1.4780 H     1 <1>   0.0800 
 25 H        1.7410    -3.5780    -0.3100 H     1 <1>   0.1500 
 26 H        4.1930    -0.5800    -1.0880 H     1 <1>   0.1500 
 27 H       -1.9480    -0.8560    -0.7320 H     1 <1>   0.3700 
 28 H       -3.0590    -4.0860     0.5380 H     1 <1>   0.1500 
 29 H        0.8410    -5.7480     0.3610 H     1 <1>   0.1500 
 30 H        5.6880     0.4710     0.6420 H     1 <1>   0.1500 
 31 H        4.3040     1.3600     1.3270 H     1 <1>   0.1500 
 32 H       -1.5690    -5.9980     0.7910 H     1 <1>   0.1500 
 33 H       -3.9440     0.1960    -1.1120 H     1 <1>   0.0800 
 34 H       -2.5500     1.2070     0.6370 H     1 <1>   0.0800 
 35 H       -3.8380     1.0180     1.7910 H     1 <1>   0.0800 
 36 H       -6.0620    -0.1580     1.0070 H     1 <1>   0.0800 
 37 H       -6.1550    -0.7250    -0.6330 H     1 <1>   0.0800 
 38 H       -3.8880     2.7670    -0.6820 H     1 <1>   0.0800 
 39 H       -3.8040     3.3190     0.9660 H     1 <1>   0.0800 
 40 H       -7.3980     1.4010    -0.3140 H     1 <1>   0.0800 
 41 H       -6.1130     1.5760    -1.4750 H     1 <1>   0.0800 
 42 H       -6.1060     3.4920     0.0450 H     1 <1>   0.0800 
 43 H       -6.0340     2.4370     1.4270 H     1 <1>   0.0800 
@<TRIPOS>BOND
  1   1   2  2   
  2   2   3  am  
  3   2   4  1   
  4   3   5  1   
  5   3  22  1   
  6   4   6  ar  
  7   4   7  ar  
  8   5   8  1   
  9   5  23  1   
 10   5  24  1   
 11   6   9  1   
 12   6  10  ar  
 13   7  11  ar  
 14   7  25  1   
 15   8  12  2   
 16   8  26  1   
 17   9  13  am  
 18   9  27  1   
 19  10  14  ar  
 20  10  28  1   
 21  11  14  ar  
 22  11  29  1   
 23  12  30  1   
 24  12  31  1   
 25  13  15  2   
 26  13  16  1   
 27  14  32  1   
 28  16  17  1   
 29  16  18  1   
 30  16  33  1   
 31  17  19  1   
 32  17  34  1   
 33  17  35  1   
 34  18  20  1   
 35  18  36  1   
 36  18  37  1   
 37  19  21  1   
 38  19  38  1   
 39  19  39  1   
 40  20  21  1   
 41  20  40  1   
 42  20  41  1   
 43  21  42  1   
 44  21  43  1   
@<TRIPOS>SUBSTRUCTURE
  1 ****   9 GROUP 4 **** **** 0

# MOE 2024.06 (io_trps.svl 2023.06)
