@<TRIPOS>MOLECULE
NONAME
33 34 1 0 0 
SMALL
USER_CHARGES


@<TRIPOS>ATOM
  1 F        0.7240    -0.1510    -1.4870 F     1 <1>  -0.1900 
  2 C        1.8040    -0.7180    -1.0250 C.ar  1 <1>   0.1900 
  3 C        2.9990    -0.5220    -1.6880 C.ar  1 <1>  -0.1500 
  4 C        1.7180    -1.4950     0.1120 C.ar  1 <1>  -0.1500 
  5 C        4.1400    -1.1270    -1.1930 C.ar  1 <1>  -0.1500 
  6 C        2.8700    -2.0920     0.5940 C.ar  1 <1>  -0.1500 
  7 C        4.1020    -1.9240    -0.0430 C.ar  1 <1>   0.0280 
  8 C        5.2730    -2.5680     0.4990 C.2   1 <1>  -0.1780 
  9 C        6.5510    -2.5440     0.0520 C.2   1 <1>  -0.1360 
 10 C        7.6800    -3.2090     0.6370 C.2   1 <1>   0.6160 
 11 O        7.5580    -3.8840     1.6410 O.2   1 <1>  -0.5700 
 12 N        8.9080    -3.0840     0.0630 N.am  1 <1>  -0.7300 
 13 C       10.1510    -3.7060     0.5500 C.3   1 <1>   0.2200 
 14 C       11.1890    -2.6140     0.7750 C.3   1 <1>  -0.1600 
 15 C       10.7550    -4.5390    -0.5730 C.3   1 <1>  -0.1600 
 16 C       11.7860    -2.3130    -0.6050 C.3   1 <1>  -0.1600 
 17 C       11.5070    -3.5490    -1.4710 C.3   1 <1>  -0.1600 
 18 H        3.0280     0.0900    -2.5720 H     1 <1>   0.1500 
 19 H        0.7720    -1.6270     0.6050 H     1 <1>   0.1500 
 20 H        5.0680    -0.9730    -1.7110 H     1 <1>   0.1500 
 21 H        2.8120    -2.7000     1.4800 H     1 <1>   0.1500 
 22 H        5.0760    -3.1450     1.3880 H     1 <1>   0.1500 
 23 H        6.8020    -1.9870    -0.8260 H     1 <1>   0.1500 
 24 H        9.0280    -2.5230    -0.7770 H     1 <1>   0.3700 
 25 H        9.9700    -4.2880     1.4400 H     1 <1>   0.0800 
 26 H       10.7690    -1.7450     1.2490 H     1 <1>   0.0800 
 27 H       11.9630    -3.0100     1.4100 H     1 <1>   0.0800 
 28 H       11.4630    -5.2250    -0.1420 H     1 <1>   0.0800 
 29 H       10.0110    -5.1050    -1.1050 H     1 <1>   0.0800 
 30 H       11.3020    -1.4520    -1.0340 H     1 <1>   0.0800 
 31 H       12.8420    -2.1150    -0.5300 H     1 <1>   0.0800 
 32 H       12.4200    -3.9850    -1.8390 H     1 <1>   0.0800 
 33 H       10.8920    -3.2740    -2.3100 H     1 <1>   0.0800 
@<TRIPOS>BOND
  1   1   2  1   
  2   2   3  ar  
  3   2   4  ar  
  4   3   5  ar  
  5   3  18  1   
  6   4   6  ar  
  7   4  19  1   
  8   5   7  ar  
  9   5  20  1   
 10   6   7  ar  
 11   6  21  1   
 12   7   8  1   
 13   8   9  2   
 14   8  22  1   
 15   9  10  1   
 16   9  23  1   
 17  10  11  2   
 18  10  12  am  
 19  12  13  1   
 20  12  24  1   
 21  13  14  1   
 22  13  15  1   
 23  13  25  1   
 24  14  16  1   
 25  14  26  1   
 26  14  27  1   
 27  15  17  1   
 28  15  28  1   
 29  15  29  1   
 30  16  17  1   
 31  16  30  1   
 32  16  31  1   
 33  17  32  1   
 34  17  33  1   
@<TRIPOS>SUBSTRUCTURE
  1 ****   9 GROUP 4 **** **** 0

# MOE 2024.06 (io_trps.svl 2023.06)
