@<TRIPOS>MOLECULE
NONAME
33 32 1 0 0 
SMALL
USER_CHARGES


@<TRIPOS>ATOM
  1 O       -1.8600    -1.7730    -1.2100 O.2   1 <1>  -0.5700 
  2 C       -1.5570    -1.4620    -0.0730 C.2   1 <1>   0.7800 
  3 O       -0.4930    -1.9850     0.5330 O.3   1 <1>  -0.4300 
  4 N       -2.2640    -0.5770     0.6590 N.am  1 <1>  -0.7300 
  5 C        0.4520    -2.8760    -0.0130 C.3   1 <1>   0.2800 
  6 C       -3.2380     0.3850     0.1290 C.3   1 <1>   0.2200 
  7 C       -0.2200    -4.2050    -0.3770 C.3   1 <1>  -0.2400 
  8 C        1.4670    -3.1130     1.1050 C.3   1 <1>  -0.2400 
  9 C        1.1600    -2.2290    -1.2090 C.3   1 <1>  -0.2400 
 10 C       -3.4090     1.5020     1.1600 C.3   1 <1>  -0.2660 
 11 C       -4.5620    -0.3470    -0.1510 C.3   1 <1>  -0.1600 
 12 C       -2.0960     2.1470     1.5000 C.2   1 <1>   0.9060 
 13 C       -5.6290     0.5410    -0.8100 C.3   1 <1>  -0.2400 
 14 O       -1.8380     3.2530     1.0230 O.co2 1 <1>  -0.9000 
 15 O       -1.3240     1.5320     2.2440 O.co2 1 <1>  -0.9000 
 16 H       -1.7400    -0.1620     1.4530 H     1 <1>   0.3700 
 17 H       -2.8480     0.8020    -0.7860 H     1 <1>   0.0800 
 18 H       -0.8910    -4.0840    -1.2080 H     1 <1>   0.0800 
 19 H       -0.7680    -4.5870     0.4650 H     1 <1>   0.0800 
 20 H        0.5230    -4.9280    -0.6600 H     1 <1>   0.0800 
 21 H        0.9810    -3.5420     1.9630 H     1 <1>   0.0800 
 22 H        1.9220    -2.1820     1.3930 H     1 <1>   0.0800 
 23 H        2.2390    -3.7850     0.7780 H     1 <1>   0.0800 
 24 H        0.4880    -2.1120    -2.0390 H     1 <1>   0.0800 
 25 H        1.9760    -2.8480    -1.5340 H     1 <1>   0.0800 
 26 H        1.5480    -1.2650    -0.9320 H     1 <1>   0.0800 
 27 H       -3.8400     1.1160     2.0630 H     1 <1>   0.0800 
 28 H       -4.0520     2.2670     0.7750 H     1 <1>   0.0800 
 29 H       -4.9490    -0.7460     0.7700 H     1 <1>   0.0800 
 30 H       -4.3650    -1.1720    -0.8130 H     1 <1>   0.0800 
 31 H       -5.9470     1.3190    -0.1410 H     1 <1>   0.0800 
 32 H       -6.4870    -0.0520    -1.0710 H     1 <1>   0.0800 
 33 H       -5.2360     0.9900    -1.7060 H     1 <1>   0.0800 
@<TRIPOS>BOND
  1   1   2  2   
  2   2   3  1   
  3   2   4  am  
  4   3   5  1   
  5   4   6  1   
  6   4  16  1   
  7   5   7  1   
  8   5   8  1   
  9   5   9  1   
 10   6  10  1   
 11   6  11  1   
 12   6  17  1   
 13   7  18  1   
 14   7  19  1   
 15   7  20  1   
 16   8  21  1   
 17   8  22  1   
 18   8  23  1   
 19   9  24  1   
 20   9  25  1   
 21   9  26  1   
 22  10  12  1   
 23  10  27  1   
 24  10  28  1   
 25  11  13  1   
 26  11  29  1   
 27  11  30  1   
 28  12  14  ar  
 29  12  15  ar  
 30  13  31  1   
 31  13  32  1   
 32  13  33  1   
@<TRIPOS>SUBSTRUCTURE
  1 ****   4 GROUP 4 **** **** 0

# MOE 2024.06 (io_trps.svl 2023.06)
