@<TRIPOS>MOLECULE
NONAME
38 39 1 0 0 
SMALL
USER_CHARGES


@<TRIPOS>ATOM
  1 CL      -1.5390     0.7370    -1.6530 Cl    1 <1>  -0.1770 
  2 C       -0.8060     1.9920    -0.6790 C.ar  1 <1>   0.1770 
  3 C       -1.4660     2.5040     0.4290 C.ar  1 <1>  -0.1440 
  4 C        0.4520     2.4400    -1.0490 C.ar  1 <1>  -0.1500 
  5 C       -0.8010     3.4800     1.1560 C.ar  1 <1>   0.1900 
  6 C       -2.8510     2.0130     0.8260 C.3   1 <1>   0.2540 
  7 C        1.0870     3.4220    -0.3040 C.ar  1 <1>  -0.1500 
  8 F       -1.3690     3.9950     2.2140 F     1 <1>  -0.1900 
  9 C        0.4560     3.9470     0.8110 C.ar  1 <1>  -0.1500 
 10 N       -3.8820     2.6070    -0.0380 N.3   1 <1>  -0.8100 
 11 C       -4.0510     4.0570     0.2160 C.3   1 <1>   0.1100 
 12 C       -5.1690     1.9000     0.1210 C.3   1 <1>   0.1100 
 13 C       -5.1130     4.6810    -0.7040 C.3   1 <1>   0.1400 
 14 C       -6.2520     2.4690    -0.8110 C.3   1 <1>   0.1400 
 15 N       -6.4000     3.9370    -0.6030 N.am  1 <1>  -0.6600 
 16 C       -7.5730     4.5470    -0.2530 C.2   1 <1>   0.7800 
 17 O       -7.6540     5.7430    -0.0400 O.2   1 <1>  -0.5700 
 18 O       -8.6610     3.7830    -0.1420 O.3   1 <1>  -0.4300 
 19 C       -9.9030     4.3430     0.2140 C.3   1 <1>   0.1200 
 20 C      -10.9340     3.2190     0.2620 C.3   1 <1>  -0.2400 
 21 H        0.9280     2.0190    -1.9170 H     1 <1>   0.1500 
 22 H       -3.0600     2.2430     1.8570 H     1 <1>   0.0800 
 23 H       -2.8740     0.9410     0.7240 H     1 <1>   0.0800 
 24 H        2.0640     3.7720    -0.5900 H     1 <1>   0.1500 
 25 H        0.9280     4.7070     1.4080 H     1 <1>   0.1500 
 26 H       -3.1190     4.5660     0.0440 H     1 <1>   0.0800 
 27 H       -4.3350     4.2210     1.2420 H     1 <1>   0.0800 
 28 H       -5.5090     1.9780     1.1400 H     1 <1>   0.0800 
 29 H       -5.0330     0.8570    -0.1100 H     1 <1>   0.0800 
 30 H       -4.7640     4.6440    -1.7210 H     1 <1>   0.0800 
 31 H       -5.2520     5.7140    -0.4370 H     1 <1>   0.0800 
 32 H       -7.1810     1.9590    -0.6290 H     1 <1>   0.0800 
 33 H       -5.9680     2.2860    -1.8330 H     1 <1>   0.0800 
 34 H      -10.1680     5.0810    -0.5240 H     1 <1>   0.0800 
 35 H       -9.8010     4.8150     1.1770 H     1 <1>   0.0800 
 36 H      -11.0160     2.7520    -0.7030 H     1 <1>   0.0800 
 37 H      -11.8940     3.6190     0.5320 H     1 <1>   0.0800 
 38 H      -10.6480     2.4860     0.9940 H     1 <1>   0.0800 
@<TRIPOS>BOND
  1   1   2  1   
  2   2   3  ar  
  3   2   4  ar  
  4   3   5  ar  
  5   3   6  1   
  6   4   7  ar  
  7   4  21  1   
  8   5   8  1   
  9   5   9  ar  
 10   6  10  1   
 11   6  22  1   
 12   6  23  1   
 13   7   9  ar  
 14   7  24  1   
 15   9  25  1   
 16  10  11  1   
 17  10  12  1   
 18  11  13  1   
 19  11  26  1   
 20  11  27  1   
 21  12  14  1   
 22  12  28  1   
 23  12  29  1   
 24  13  15  1   
 25  13  30  1   
 26  13  31  1   
 27  14  15  1   
 28  14  32  1   
 29  14  33  1   
 30  15  16  am  
 31  16  17  2   
 32  16  18  1   
 33  18  19  1   
 34  19  20  1   
 35  19  34  1   
 36  19  35  1   
 37  20  36  1   
 38  20  37  1   
 39  20  38  1   
@<TRIPOS>SUBSTRUCTURE
  1 ****  10 GROUP 4 **** **** 0

# MOE 2024.06 (io_trps.svl 2023.06)
