@<TRIPOS>MOLECULE
NONAME
56 59 1 0 0 
SMALL
USER_CHARGES


@<TRIPOS>ATOM
  1 O        1.8820    -2.1460     0.5400 O.3   1 <1>  -0.3630 
  2 C        3.0970    -1.7740     0.9540 C.ar  1 <1>   0.0830 
  3 C        1.5090    -3.2730     1.3310 C.3   1 <1>   0.4000 
  4 C        3.5270    -2.5980     1.9520 C.ar  1 <1>   0.0830 
  5 C        3.8730    -0.7290     0.4930 C.ar  1 <1>  -0.1500 
  6 O        2.6020    -3.5270     2.2130 O.3   1 <1>  -0.3630 
  7 C        4.7600    -2.4250     2.5480 C.ar  1 <1>  -0.1500 
  8 C        5.1250    -0.5380     1.0710 C.ar  1 <1>  -0.1440 
  9 C        5.5580    -1.3830     2.0940 C.ar  1 <1>  -0.1500 
 10 C        6.0310     0.5800     0.5810 C.3   1 <1>   0.2540 
 11 N        7.1990     0.0050    -0.1120 N.3   1 <1>  -0.8100 
 12 C        6.8170    -0.7540    -1.3330 C.3   1 <1>   0.1100 
 13 C        8.2220     1.0290    -0.4320 C.3   1 <1>   0.1100 
 14 C        8.0410    -1.3810    -2.0430 C.3   1 <1>   0.3430 
 15 C        9.4720     0.4090    -1.1060 C.3   1 <1>   0.3430 
 16 N        9.2960    -1.0700    -1.2930 N.4   1 <1>  -0.9590 
 17 C       10.5090    -1.7870    -1.7570 C.3   1 <1>   0.4860 
 18 C       11.6200    -1.5290    -0.7560 C.ar  1 <1>  -0.1430 
 19 C       11.6080    -2.0510     0.5390 C.ar  1 <1>  -0.1430 
 20 C       12.6660    -0.7170    -1.1660 C.ar  1 <1>  -0.1500 
 21 C       12.6310    -1.7100     1.4260 C.ar  1 <1>  -0.1430 
 22 C       10.4930    -2.9960     1.0000 C.3   1 <1>  -0.0970 
 23 C       13.6910    -0.4030    -0.2990 C.ar  1 <1>  -0.1500 
 24 C       13.6800    -0.8930     1.0010 C.ar  1 <1>   0.0830 
 25 C       12.6270    -2.2300     2.8690 C.3   1 <1>  -0.0970 
 26 O       14.6730    -0.6040     1.8840 O.3   1 <1>  -0.3620 
 27 C       15.8220     0.1290     1.5210 C.3   1 <1>   0.0400 
 28 H        1.3530    -4.1250     0.6950 H     1 <1>   0.0800 
 29 H        0.6310    -3.0360     1.9050 H     1 <1>   0.0800 
 30 H        3.5000    -0.0980    -0.2920 H     1 <1>   0.1500 
 31 H        5.0780    -3.0830     3.3360 H     1 <1>   0.1500 
 32 H        6.5260    -1.2280     2.5380 H     1 <1>   0.1500 
 33 H        6.3610     1.1520     1.4330 H     1 <1>   0.0800 
 34 H        5.4920     1.2400    -0.0780 H     1 <1>   0.0800 
 35 H        6.2970    -0.1090    -2.0210 H     1 <1>   0.0800 
 36 H        6.1410    -1.5510    -1.0690 H     1 <1>   0.0800 
 37 H        8.5300     1.5220     0.4750 H     1 <1>   0.0800 
 38 H        7.8030     1.7780    -1.0820 H     1 <1>   0.0800 
 39 H        8.1050    -0.9990    -3.0490 H     1 <1>   0.0800 
 40 H        7.9000    -2.4470    -2.1020 H     1 <1>   0.0800 
 41 H       10.3300     0.5990    -0.4810 H     1 <1>   0.0800 
 42 H        9.6440     0.8880    -2.0550 H     1 <1>   0.0800 
 43 H        9.1010    -1.3860    -0.3310 H     1 <1>   0.4500 
 44 H       10.8000    -1.4320    -2.7320 H     1 <1>   0.0800 
 45 H       10.3190    -2.8450    -1.8200 H     1 <1>   0.0800 
 46 H       12.7000    -0.3190    -2.1660 H     1 <1>   0.1500 
 47 H       10.9070    -3.8040     1.5780 H     1 <1>   0.0800 
 48 H        9.9660    -3.4510     0.1850 H     1 <1>   0.0800 
 49 H        9.7900    -2.4630     1.6160 H     1 <1>   0.0800 
 50 H       14.4880     0.2240    -0.6510 H     1 <1>   0.1500 
 51 H       11.6350    -2.2400     3.2770 H     1 <1>   0.0800 
 52 H       13.2190    -1.6120     3.5190 H     1 <1>   0.0800 
 53 H       13.0310    -3.2260     2.8950 H     1 <1>   0.0800 
 54 H       16.4660     0.1850     2.3790 H     1 <1>   0.0800 
 55 H       15.5250     1.1190     1.2230 H     1 <1>   0.0800 
 56 H       16.3250    -0.3840     0.7200 H     1 <1>   0.0800 
@<TRIPOS>BOND
  1   1   2  1   
  2   1   3  1   
  3   2   4  ar  
  4   2   5  ar  
  5   3   6  1   
  6   3  28  1   
  7   3  29  1   
  8   4   6  1   
  9   4   7  ar  
 10   5   8  ar  
 11   5  30  1   
 12   7   9  ar  
 13   7  31  1   
 14   8   9  ar  
 15   8  10  1   
 16   9  32  1   
 17  10  11  1   
 18  10  33  1   
 19  10  34  1   
 20  11  12  1   
 21  11  13  1   
 22  12  14  1   
 23  12  35  1   
 24  12  36  1   
 25  13  15  1   
 26  13  37  1   
 27  13  38  1   
 28  14  16  1   
 29  14  39  1   
 30  14  40  1   
 31  15  16  1   
 32  15  41  1   
 33  15  42  1   
 34  16  17  1   
 35  16  43  1   
 36  17  18  1   
 37  17  44  1   
 38  17  45  1   
 39  18  19  ar  
 40  18  20  ar  
 41  19  21  ar  
 42  19  22  1   
 43  20  23  ar  
 44  20  46  1   
 45  21  24  ar  
 46  21  25  1   
 47  22  47  1   
 48  22  48  1   
 49  22  49  1   
 50  23  24  ar  
 51  23  50  1   
 52  24  26  1   
 53  25  51  1   
 54  25  52  1   
 55  25  53  1   
 56  26  27  1   
 57  27  54  1   
 58  27  55  1   
 59  27  56  1   
@<TRIPOS>SUBSTRUCTURE
  1 ****  11 GROUP 4 **** **** 0

# MOE 2024.06 (io_trps.svl 2023.06)
