@<TRIPOS>MOLECULE
NONAME
31 31 1 0 0 
SMALL
USER_CHARGES


@<TRIPOS>ATOM
  1 S        0.1120     0.0030     0.4210 S.3   1 <1>  -0.0800 
  2 C        1.3090     0.9540    -0.4500 C.2   1 <1>   0.1040 
  3 C       -1.0870     1.2800     0.3140 C.2   1 <1>  -0.1400 
  4 N        2.5870     0.4260    -0.6710 N.am  1 <1>  -0.4940 
  5 C        0.7820     2.1630    -0.7800 C.2   1 <1>   0.0190 
  6 C       -0.5810     2.3430    -0.3420 C.2   1 <1>  -0.1810 
  7 C       -2.4260     0.9680     0.9540 C.3   1 <1>  -0.0600 
  8 C        3.0410    -0.8660    -0.6660 C.2   1 <1>   0.5690 
  9 C        1.4920     3.1720    -1.5040 C.1   1 <1>   0.5380 
 10 C       -1.3260     3.6410    -0.6300 C.3   1 <1>  -0.0590 
 11 O        2.3260    -1.8320    -0.5670 O.2   1 <1>  -0.5700 
 12 C        4.5320    -1.0900    -0.8490 C.3   1 <1>  -0.0990 
 13 N        2.0530     3.9760    -2.0870 N.1   1 <1>  -0.5570 
 14 C        5.3990    -0.2020     0.0580 C.3   1 <1>  -0.1600 
 15 C        6.8960    -0.4750    -0.1560 C.3   1 <1>  -0.2660 
 16 C        7.7550     0.4690     0.6530 C.2   1 <1>   0.9060 
 17 O        8.3440     0.0320     1.6440 O.co2 1 <1>  -0.9000 
 18 O        7.8190     1.6480     0.2920 O.co2 1 <1>  -0.9000 
 19 H        3.3250     1.1080    -0.8550 H     1 <1>   0.3700 
 20 H       -2.8560     0.0990     0.4890 H     1 <1>   0.0800 
 21 H       -3.1100     1.7880     0.8500 H     1 <1>   0.0800 
 22 H       -2.2890     0.7650     2.0010 H     1 <1>   0.0800 
 23 H       -2.3240     3.6130    -0.2340 H     1 <1>   0.0800 
 24 H       -1.3910     3.8030    -1.6910 H     1 <1>   0.0800 
 25 H       -0.8100     4.4710    -0.1820 H     1 <1>   0.0800 
 26 H        4.7780    -0.9090    -1.8790 H     1 <1>   0.0800 
 27 H        4.7480    -2.1220    -0.6370 H     1 <1>   0.0800 
 28 H        5.1560    -0.3820     1.0920 H     1 <1>   0.0800 
 29 H        5.2190     0.8400    -0.1480 H     1 <1>   0.0800 
 30 H        7.1590    -0.3390    -1.1870 H     1 <1>   0.0800 
 31 H        7.1400    -1.4800     0.1330 H     1 <1>   0.0800 
@<TRIPOS>BOND
  1   1   2  1   
  2   1   3  1   
  3   2   4  1   
  4   2   5  2   
  5   3   6  2   
  6   3   7  1   
  7   4   8  am  
  8   4  19  1   
  9   5   6  1   
 10   5   9  1   
 11   6  10  1   
 12   7  20  1   
 13   7  21  1   
 14   7  22  1   
 15   8  11  2   
 16   8  12  1   
 17   9  13  3   
 18  10  23  1   
 19  10  24  1   
 20  10  25  1   
 21  12  14  1   
 22  12  26  1   
 23  12  27  1   
 24  14  15  1   
 25  14  28  1   
 26  14  29  1   
 27  15  16  1   
 28  15  30  1   
 29  15  31  1   
 30  16  17  ar  
 31  16  18  ar  
@<TRIPOS>SUBSTRUCTURE
  1 ****   4 GROUP 4 **** **** 0

# MOE 2024.06 (io_trps.svl 2023.06)
