@<TRIPOS>MOLECULE
NONAME
46 48 1 0 0 
SMALL
USER_CHARGES


@<TRIPOS>ATOM
  1 O        0.3040     1.4650    -2.3800 O.2   1 <1>  -0.5700 
  2 C        0.6490     1.9880    -1.3480 C.2   1 <1>   0.5690 
  3 N       -0.1400     2.6150    -0.4360 N.am  1 <1>  -0.6600 
  4 C        2.0930     2.0200    -0.9380 C.3   1 <1>  -0.0990 
  5 C       -1.5960     2.9070    -0.5830 C.3   1 <1>   0.3000 
  6 C        0.6790     3.1730     0.6670 C.3   1 <1>   0.1400 
  7 C        2.0420     2.4750     0.5300 C.3   1 <1>  -0.0190 
  8 C       -1.8040     3.7970    -1.8110 C.3   1 <1>  -0.2400 
  9 C       -2.1480     3.6410     0.6490 C.3   1 <1>  -0.2400 
 10 C       -2.3620     1.5900    -0.7350 C.3   1 <1>  -0.2400 
 11 C        3.2260     3.3430     0.9680 C.2   1 <1>   0.5690 
 12 O        2.9850     4.3970     1.5120 O.2   1 <1>  -0.5700 
 13 N        4.5270     2.9510     0.7250 N.am  1 <1>  -0.4770 
 14 C        4.9380     1.6450     0.3800 C.ar  1 <1>   0.1170 
 15 C        5.5480     4.0440     0.6270 C.3   1 <1>   0.1400 
 16 C        5.7990     1.4620    -0.6990 C.ar  1 <1>  -0.1440 
 17 C        4.5130     0.5270     1.0920 C.ar  1 <1>  -0.1500 
 18 C        6.7350     3.6940    -0.2900 C.3   1 <1>  -0.1600 
 19 C        6.1670     0.1890    -1.0970 C.ar  1 <1>  -0.1500 
 20 C        6.3470     2.6970    -1.3880 C.3   1 <1>  -0.0170 
 21 C        4.8830    -0.7450     0.6970 C.ar  1 <1>  -0.1500 
 22 C        5.7020    -0.9160    -0.4050 C.ar  1 <1>  -0.1500 
 23 H        2.6090     2.7340    -1.5530 H     1 <1>   0.0800 
 24 H        2.5400     1.0490    -1.0470 H     1 <1>   0.0800 
 25 H        0.2480     2.9630     1.6300 H     1 <1>   0.0800 
 26 H        0.7640     4.2380     0.5280 H     1 <1>   0.0800 
 27 H        2.0020     1.6070     1.1590 H     1 <1>   0.0800 
 28 H       -1.5010     3.2870    -2.7070 H     1 <1>   0.0800 
 29 H       -1.2350     4.7030    -1.7160 H     1 <1>   0.0800 
 30 H       -2.8420     4.0540    -1.9140 H     1 <1>   0.0800 
 31 H       -1.6550     4.5860     0.7860 H     1 <1>   0.0800 
 32 H       -2.0340     3.0390     1.5320 H     1 <1>   0.0800 
 33 H       -3.1970     3.8360     0.5190 H     1 <1>   0.0800 
 34 H       -2.1640     0.9450     0.1020 H     1 <1>   0.0800 
 35 H       -2.0800     1.0830    -1.6390 H     1 <1>   0.0800 
 36 H       -3.4190     1.7750    -0.7820 H     1 <1>   0.0800 
 37 H        5.9030     4.2810     1.6150 H     1 <1>   0.0800 
 38 H        5.0680     4.9240     0.2330 H     1 <1>   0.0800 
 39 H        3.8970     0.6520     1.9620 H     1 <1>   0.1500 
 40 H        7.5130     3.2580     0.3120 H     1 <1>   0.0800 
 41 H        7.1310     4.5950    -0.7250 H     1 <1>   0.0800 
 42 H        6.8200     0.0490    -1.9400 H     1 <1>   0.1500 
 43 H        5.5930     3.1200    -2.0300 H     1 <1>   0.0800 
 44 H        7.2090     2.4510    -1.9830 H     1 <1>   0.0800 
 45 H        4.5370    -1.6040     1.2470 H     1 <1>   0.1500 
 46 H        5.9870    -1.9060    -0.7170 H     1 <1>   0.1500 
@<TRIPOS>BOND
  1   1   2  2   
  2   2   3  am  
  3   2   4  1   
  4   3   5  1   
  5   3   6  1   
  6   4   7  1   
  7   4  23  1   
  8   4  24  1   
  9   5   8  1   
 10   5   9  1   
 11   5  10  1   
 12   6   7  1   
 13   6  25  1   
 14   6  26  1   
 15   7  11  1   
 16   7  27  1   
 17   8  28  1   
 18   8  29  1   
 19   8  30  1   
 20   9  31  1   
 21   9  32  1   
 22   9  33  1   
 23  10  34  1   
 24  10  35  1   
 25  10  36  1   
 26  11  12  2   
 27  11  13  am  
 28  13  14  1   
 29  13  15  1   
 30  14  16  ar  
 31  14  17  ar  
 32  15  18  1   
 33  15  37  1   
 34  15  38  1   
 35  16  19  ar  
 36  16  20  1   
 37  17  21  ar  
 38  17  39  1   
 39  18  20  1   
 40  18  40  1   
 41  18  41  1   
 42  19  22  ar  
 43  19  42  1   
 44  20  43  1   
 45  20  44  1   
 46  21  22  ar  
 47  21  45  1   
 48  22  46  1   
@<TRIPOS>SUBSTRUCTURE
  1 ****   4 GROUP 4 **** **** 0

# MOE 2024.06 (io_trps.svl 2023.06)
