@<TRIPOS>MOLECULE
NONAME
40 41 1 0 0 
SMALL
USER_CHARGES


@<TRIPOS>ATOM
  1 CL      -5.0730     1.5050    -2.2650 Cl    1 <1>  -0.1770 
  2 C       -3.7070     2.0680    -1.3250 C.ar  1 <1>   0.1770 
  3 C       -3.4210     1.4860    -0.0900 C.ar  1 <1>   0.0820 
  4 C       -2.9450     3.1040    -1.8290 C.ar  1 <1>  -0.1500 
  5 O       -4.2060     0.4690     0.3470 O.3   1 <1>  -0.3630 
  6 C       -2.3390     1.9580     0.6530 C.ar  1 <1>  -0.1500 
  7 C       -1.8840     3.5500    -1.0670 C.ar  1 <1>   0.1900 
  8 C       -4.5100     0.3500     1.7300 C.3   1 <1>   0.1810 
  9 C       -1.5660     2.9990     0.1620 C.ar  1 <1>  -0.1500 
 10 F       -1.1520     4.5310    -1.5230 F     1 <1>  -0.1900 
 11 C       -5.5940    -0.7010     1.9890 C.2   1 <1>   0.5690 
 12 O       -5.4240    -1.4280     2.9380 O.2   1 <1>  -0.5700 
 13 N       -6.7280    -0.8260     1.2110 N.am  1 <1>  -0.6600 
 14 C       -7.5940    -2.0420     1.3400 C.3   1 <1>   0.1400 
 15 C       -7.0940     0.0960     0.0880 C.3   1 <1>   0.1400 
 16 C       -9.0900    -1.6840     1.3060 C.3   1 <1>   0.3430 
 17 C       -8.6050     0.3930     0.0450 C.3   1 <1>   0.3430 
 18 N       -9.4380    -0.8580     0.1010 N.4   1 <1>  -0.9590 
 19 C      -10.8880    -0.5720     0.0410 C.3   1 <1>   0.4810 
 20 C      -11.1980    -0.1510    -1.3770 C.2   1 <1>  -0.2880 
 21 C      -11.7930    -0.9200    -2.2950 C.2   1 <1>  -0.3000 
 22 H       -3.1690     3.5500    -2.7810 H     1 <1>   0.1500 
 23 H       -2.0810     1.5210     1.6000 H     1 <1>   0.1500 
 24 H       -4.8380     1.3050     2.0940 H     1 <1>   0.0800 
 25 H       -3.6150     0.0550     2.2470 H     1 <1>   0.0800 
 26 H       -0.7260     3.3790     0.7170 H     1 <1>   0.1500 
 27 H       -7.3890    -2.5580     2.2630 H     1 <1>   0.0800 
 28 H       -7.3660    -2.7210     0.5380 H     1 <1>   0.0800 
 29 H       -6.7840    -0.3450    -0.8440 H     1 <1>   0.0800 
 30 H       -6.5800     1.0350     0.1920 H     1 <1>   0.0800 
 31 H       -9.3290    -1.1390     2.2050 H     1 <1>   0.0800 
 32 H       -9.6660    -2.5950     1.3080 H     1 <1>   0.0800 
 33 H       -8.8230     0.9410    -0.8570 H     1 <1>   0.0800 
 34 H       -8.8500     1.0260     0.8820 H     1 <1>   0.0800 
 35 H       -9.2270    -1.4080    -0.7430 H     1 <1>   0.4500 
 36 H      -11.1660     0.1970     0.7430 H     1 <1>   0.0800 
 37 H      -11.4450    -1.4670     0.2690 H     1 <1>   0.0800 
 38 H      -10.8980     0.8600    -1.5940 H     1 <1>   0.1500 
 39 H      -12.0100    -0.5930    -3.3000 H     1 <1>   0.1500 
 40 H      -12.1240    -1.9340    -2.1370 H     1 <1>   0.1500 
@<TRIPOS>BOND
  1   1   2  1   
  2   2   3  ar  
  3   2   4  ar  
  4   3   5  1   
  5   3   6  ar  
  6   4   7  ar  
  7   4  22  1   
  8   5   8  1   
  9   6   9  ar  
 10   6  23  1   
 11   7   9  ar  
 12   7  10  1   
 13   8  11  1   
 14   8  24  1   
 15   8  25  1   
 16   9  26  1   
 17  11  12  2   
 18  11  13  am  
 19  13  14  1   
 20  13  15  1   
 21  14  16  1   
 22  14  27  1   
 23  14  28  1   
 24  15  17  1   
 25  15  29  1   
 26  15  30  1   
 27  16  18  1   
 28  16  31  1   
 29  16  32  1   
 30  17  18  1   
 31  17  33  1   
 32  17  34  1   
 33  18  19  1   
 34  18  35  1   
 35  19  20  1   
 36  19  36  1   
 37  19  37  1   
 38  20  21  2   
 39  20  38  1   
 40  21  39  1   
 41  21  40  1   
@<TRIPOS>SUBSTRUCTURE
  1 ****  15 GROUP 4 **** **** 0

# MOE 2024.06 (io_trps.svl 2023.06)
