@<TRIPOS>MOLECULE
NONAME
33 34 1 0 0 
SMALL
USER_CHARGES


@<TRIPOS>ATOM
  1 O        0.8080    -0.5670     1.6800 O.2   1 <1>  -0.5700 
  2 C        1.5650    -0.8460     0.8040 C.2   1 <1>   0.4480 
  3 C        2.8760    -0.0860     0.6260 C.3   1 <1>  -0.0990 
  4 C        1.2650    -1.9990    -0.1610 C.3   1 <1>  -0.0990 
  5 C        3.9890    -1.1200     0.4400 C.3   1 <1>  -0.0190 
  6 C        2.4880    -2.8950    -0.4730 C.3   1 <1>  -0.1600 
  7 C        5.4290    -0.7310     0.1860 C.2   1 <1>   0.5690 
  8 C        3.6860    -1.9880    -0.7820 C.3   1 <1>  -0.0190 
  9 O        5.9630     0.2410     0.6510 O.2   1 <1>  -0.5700 
 10 N        6.0030    -1.6740    -0.6170 N.am  1 <1>  -0.4200 
 11 C        5.0620    -2.5280    -1.1150 C.2   1 <1>   0.5690 
 12 C        7.4490    -1.7600    -0.9060 C.3   1 <1>   0.1400 
 13 O        5.2640    -3.5290    -1.7520 O.2   1 <1>  -0.5700 
 14 C        8.1420    -2.6140     0.1600 C.3   1 <1>  -0.1600 
 15 C        9.6470    -2.7280    -0.1140 C.3   1 <1>  -0.1600 
 16 C       10.3360    -3.5820     0.9530 C.3   1 <1>  -0.2400 
 17 H        3.0690     0.5120     1.4990 H     1 <1>   0.0800 
 18 H        2.8080     0.5660    -0.2250 H     1 <1>   0.0800 
 19 H        0.8970    -1.5700    -1.0760 H     1 <1>   0.0800 
 20 H        0.4740    -2.6010     0.2510 H     1 <1>   0.0800 
 21 H        4.0140    -1.7380     1.3220 H     1 <1>   0.0800 
 22 H        2.2780    -3.5300    -1.3170 H     1 <1>   0.0800 
 23 H        2.7100    -3.5260     0.3710 H     1 <1>   0.0800 
 24 H        3.4220    -1.3580    -1.6150 H     1 <1>   0.0800 
 25 H        7.8690    -0.7680    -0.9140 H     1 <1>   0.0800 
 26 H        7.5910    -2.1990    -1.8790 H     1 <1>   0.0800 
 27 H        7.7070    -3.5990     0.1610 H     1 <1>   0.0800 
 28 H        7.9910    -2.1660     1.1270 H     1 <1>   0.0800 
 29 H       10.0900    -1.7460    -0.1210 H     1 <1>   0.0800 
 30 H        9.8070    -3.1750    -1.0810 H     1 <1>   0.0800 
 31 H       10.2090    -3.1430     1.9280 H     1 <1>   0.0800 
 32 H       11.3890    -3.6520     0.7450 H     1 <1>   0.0800 
 33 H        9.9230    -4.5760     0.9640 H     1 <1>   0.0800 
@<TRIPOS>BOND
  1   1   2  2   
  2   2   3  1   
  3   2   4  1   
  4   3   5  1   
  5   3  17  1   
  6   3  18  1   
  7   4   6  1   
  8   4  19  1   
  9   4  20  1   
 10   5   7  1   
 11   5   8  1   
 12   5  21  1   
 13   6   8  1   
 14   6  22  1   
 15   6  23  1   
 16   7   9  2   
 17   7  10  am  
 18   8  11  1   
 19   8  24  1   
 20  10  11  am  
 21  10  12  1   
 22  11  13  2   
 23  12  14  1   
 24  12  25  1   
 25  12  26  1   
 26  14  15  1   
 27  14  27  1   
 28  14  28  1   
 29  15  16  1   
 30  15  29  1   
 31  15  30  1   
 32  16  31  1   
 33  16  32  1   
 34  16  33  1   
@<TRIPOS>SUBSTRUCTURE
  1 ****   7 GROUP 4 **** **** 0

# MOE 2024.06 (io_trps.svl 2023.06)
