@<TRIPOS>MOLECULE
NONAME
45 46 1 0 0 
SMALL
USER_CHARGES


@<TRIPOS>ATOM
  1 BR      -2.0890     0.8620     1.6420 Br    1 <1>  -0.1110 
  2 C       -1.0210     2.2210     0.7830 C.ar  1 <1>   0.1110 
  3 C       -1.3340     2.6220    -0.5080 C.ar  1 <1>  -0.1440 
  4 C        0.0310     2.7610     1.4960 C.ar  1 <1>  -0.1500 
  5 C       -0.5550     3.6140    -1.0870 C.ar  1 <1>  -0.1500 
  6 C       -2.4890     2.0060    -1.2690 C.3   1 <1>   0.4870 
  7 C        0.8040     3.7440     0.9040 C.ar  1 <1>   0.0820 
  8 C        0.4960     4.1930    -0.3900 C.ar  1 <1>   0.0820 
  9 N       -3.7700     2.4400    -0.6240 N.4   1 <1>  -0.9590 
 10 O        1.8460     4.2250     1.6170 O.3   1 <1>  -0.3620 
 11 O        1.1610     5.1810    -1.0430 O.3   1 <1>  -0.3620 
 12 C       -4.9220     1.5910    -1.0990 C.3   1 <1>   0.3430 
 13 C       -3.9400     3.9180    -0.7950 C.3   1 <1>   0.3430 
 14 C        3.1110     3.7030     1.2750 C.3   1 <1>   0.0400 
 15 C        1.5180     6.3580    -0.3460 C.3   1 <1>   0.0400 
 16 C       -6.0270     1.3760    -0.0230 C.3   1 <1>   0.3430 
 17 C       -5.3260     4.4370    -0.4030 C.3   1 <1>  -0.1600 
 18 N       -6.7800     2.6060     0.4340 N.4   1 <1>  -0.9590 
 19 C       -5.9510     3.7860     0.8310 C.3   1 <1>   0.3430 
 20 C       -7.6950     2.2390     1.5690 C.3   1 <1>   0.2630 
 21 H        0.2580     2.4270     2.4930 H     1 <1>   0.1500 
 22 H       -0.7410     3.9640    -2.0880 H     1 <1>   0.1500 
 23 H       -2.3940     0.9320    -1.2330 H     1 <1>   0.0800 
 24 H       -2.4600     2.3160    -2.3020 H     1 <1>   0.0800 
 25 H       -3.5990     2.2530     0.3760 H     1 <1>   0.4500 
 26 H       -4.5460     0.6150    -1.3650 H     1 <1>   0.0800 
 27 H       -5.3550     2.0160    -1.9890 H     1 <1>   0.0800 
 28 H       -3.7510     4.1910    -1.8220 H     1 <1>   0.0800 
 29 H       -3.1980     4.4230    -0.1930 H     1 <1>   0.0800 
 30 H        3.8520     4.1810     1.8910 H     1 <1>   0.0800 
 31 H        3.3080     3.9060     0.2370 H     1 <1>   0.0800 
 32 H        3.1110     2.6420     1.4550 H     1 <1>   0.0800 
 33 H        1.6490     7.1470    -1.0640 H     1 <1>   0.0800 
 34 H        2.4410     6.1930     0.1780 H     1 <1>   0.0800 
 35 H        0.7340     6.6150     0.3450 H     1 <1>   0.0800 
 36 H       -5.5700     0.9050     0.8320 H     1 <1>   0.0800 
 37 H       -6.7390     0.6700    -0.4200 H     1 <1>   0.0800 
 38 H       -5.9950     4.3810    -1.2430 H     1 <1>   0.0800 
 39 H       -5.2070     5.4860    -0.1920 H     1 <1>   0.0800 
 40 H       -7.4010     2.9170    -0.3330 H     1 <1>   0.4500 
 41 H       -6.5920     4.5140     1.3050 H     1 <1>   0.0800 
 42 H       -5.1940     3.5040     1.5460 H     1 <1>   0.0800 
 43 H       -7.1260     1.9150     2.4270 H     1 <1>   0.0800 
 44 H       -8.3590     1.4400     1.2770 H     1 <1>   0.0800 
 45 H       -8.2960     3.0860     1.8590 H     1 <1>   0.0800 
@<TRIPOS>BOND
  1   1   2  1   
  2   2   3  ar  
  3   2   4  ar  
  4   3   5  ar  
  5   3   6  1   
  6   4   7  ar  
  7   4  21  1   
  8   5   8  ar  
  9   5  22  1   
 10   6   9  1   
 11   6  23  1   
 12   6  24  1   
 13   7   8  ar  
 14   7  10  1   
 15   8  11  1   
 16   9  12  1   
 17   9  13  1   
 18   9  25  1   
 19  10  14  1   
 20  11  15  1   
 21  12  16  1   
 22  12  26  1   
 23  12  27  1   
 24  13  17  1   
 25  13  28  1   
 26  13  29  1   
 27  14  30  1   
 28  14  31  1   
 29  14  32  1   
 30  15  33  1   
 31  15  34  1   
 32  15  35  1   
 33  16  18  1   
 34  16  36  1   
 35  16  37  1   
 36  17  19  1   
 37  17  38  1   
 38  17  39  1   
 39  18  19  1   
 40  18  20  1   
 41  18  40  1   
 42  19  41  1   
 43  19  42  1   
 44  20  43  1   
 45  20  44  1   
 46  20  45  1   
@<TRIPOS>SUBSTRUCTURE
  1 ****   3 GROUP 4 **** **** 0

# MOE 2024.06 (io_trps.svl 2023.06)
