@<TRIPOS>MOLECULE
NONAME
35 35 1 0 0 
SMALL
USER_CHARGES


@<TRIPOS>ATOM
  1 O        4.4900    -5.2230     1.9220 O.3   1 <1>  -0.3630 
  2 C        5.5320    -5.5010     1.0970 C.ar  1 <1>   0.0830 
  3 C        3.3640    -6.0780     1.8900 C.3   1 <1>   0.1200 
  4 C        5.9160    -4.5700     0.1330 C.ar  1 <1>   0.0830 
  5 C        6.2200    -6.6980     1.2200 C.ar  1 <1>  -0.1500 
  6 C        2.2290    -5.3720     1.1340 C.3   1 <1>   0.3430 
  7 O        5.2250    -3.4010     0.0350 O.3   1 <1>  -0.3630 
  8 C        6.9740    -4.8620    -0.7180 C.ar  1 <1>  -0.1500 
  9 C        7.2750    -6.9780     0.3690 C.ar  1 <1>  -0.1500 
 10 N        2.7240    -4.7940    -0.1460 N.4   1 <1>  -0.9060 
 11 C        5.9620    -2.2090    -0.1520 C.3   1 <1>   0.0400 
 12 C        7.6550    -6.0640    -0.6020 C.ar  1 <1>  -0.1430 
 13 C        1.7640    -3.9040    -0.8230 C.3   1 <1>   0.3430 
 14 C        8.8130    -6.3840    -1.5310 C.3   1 <1>  -0.0970 
 15 C        2.4070    -3.4050    -2.1070 C.3   1 <1>  -0.2400 
 16 H        3.0700    -6.2760     2.9060 H     1 <1>   0.0800 
 17 H        3.6210    -7.0080     1.4140 H     1 <1>   0.0800 
 18 H        5.9470    -7.4060     1.9810 H     1 <1>   0.1500 
 19 H        1.8470    -4.5830     1.7610 H     1 <1>   0.0800 
 20 H        1.4280    -6.0680     0.9470 H     1 <1>   0.0800 
 21 H        7.2730    -4.1630    -1.4770 H     1 <1>   0.1500 
 22 H        7.8050    -7.9100     0.4690 H     1 <1>   0.1500 
 23 H        3.0440    -5.5320    -0.7820 H     1 <1>   0.4500 
 24 H        3.5890    -4.2590     0.0790 H     1 <1>   0.4500 
 25 H        5.3160    -1.3740     0.0530 H     1 <1>   0.0800 
 26 H        6.3080    -2.1590    -1.1690 H     1 <1>   0.0800 
 27 H        6.7940    -2.2000     0.5320 H     1 <1>   0.0800 
 28 H        1.5210    -3.0680    -0.1860 H     1 <1>   0.0800 
 29 H        0.8570    -4.4410    -1.0530 H     1 <1>   0.0800 
 30 H        9.5600    -6.9600    -1.0140 H     1 <1>   0.0800 
 31 H        9.2750    -5.4800    -1.8880 H     1 <1>   0.0800 
 32 H        8.4610    -6.9500    -2.3740 H     1 <1>   0.0800 
 33 H        3.3000    -2.8440    -1.8950 H     1 <1>   0.0800 
 34 H        1.7200    -2.7540    -2.6190 H     1 <1>   0.0800 
 35 H        2.6420    -4.2240    -2.7640 H     1 <1>   0.0800 
@<TRIPOS>BOND
  1   1   2  1   
  2   1   3  1   
  3   2   4  ar  
  4   2   5  ar  
  5   3   6  1   
  6   3  16  1   
  7   3  17  1   
  8   4   7  1   
  9   4   8  ar  
 10   5   9  ar  
 11   5  18  1   
 12   6  10  1   
 13   6  19  1   
 14   6  20  1   
 15   7  11  1   
 16   8  12  ar  
 17   8  21  1   
 18   9  12  ar  
 19   9  22  1   
 20  10  13  1   
 21  10  23  1   
 22  10  24  1   
 23  11  25  1   
 24  11  26  1   
 25  11  27  1   
 26  12  14  1   
 27  13  15  1   
 28  13  28  1   
 29  13  29  1   
 30  14  30  1   
 31  14  31  1   
 32  14  32  1   
 33  15  33  1   
 34  15  34  1   
 35  15  35  1   
@<TRIPOS>SUBSTRUCTURE
  1 ****   4 GROUP 4 **** **** 0

# MOE 2024.06 (io_trps.svl 2023.06)
