@<TRIPOS>MOLECULE
NONAME
42 43 1 0 0 
SMALL
USER_CHARGES


@<TRIPOS>ATOM
  1 S        1.0190    -0.9710    -1.7920 S.o2  1 <1>   1.4470 
  2 O        2.0990    -1.8450    -2.1960 O.2   1 <1>  -0.6500 
  3 O        0.6790     0.1620    -2.6240 O.2   1 <1>  -0.6500 
  4 N        1.4290    -0.3730    -0.2580 N.am  1 <1>  -0.8490 
  5 C       -0.4800    -1.9540    -1.4980 C.ar  1 <1>  -0.0090 
  6 C        2.4020     0.7310    -0.3640 C.3   1 <1>   0.1960 
  7 C        1.9280    -1.4420     0.6300 C.3   1 <1>   0.1960 
  8 C       -1.4030    -1.6020    -0.5260 C.ar  1 <1>  -0.1500 
  9 C       -0.7500    -3.0820    -2.2590 C.ar  1 <1>  -0.1500 
 10 C        2.5730     1.4920     0.9560 C.3   1 <1>   0.0700 
 11 C        2.0090    -0.9930     2.0930 C.3   1 <1>   0.0700 
 12 C       -2.5640    -2.3340    -0.2620 C.ar  1 <1>   0.0860 
 13 C       -1.8900    -3.8310    -2.0450 C.ar  1 <1>  -0.1500 
 14 S        3.2010     0.3640     2.2280 S.3   1 <1>  -0.4600 
 15 C       -2.8000    -3.4730    -1.0530 C.ar  1 <1>   0.0830 
 16 C       -3.4430    -1.8820     0.8070 C.2   1 <1>   0.5440 
 17 O       -3.9170    -4.2120    -0.8310 O.3   1 <1>  -0.3630 
 18 O       -3.0010    -1.2000     1.7140 O.2   1 <1>  -0.5700 
 19 N       -4.7730    -2.1870     0.8260 N.am  1 <1>  -0.7300 
 20 C       -4.2040    -5.4110    -1.5190 C.3   1 <1>   0.0400 
 21 C       -5.7510    -1.7650     1.8440 C.3   1 <1>   0.1400 
 22 C       -7.0740    -1.4660     1.1510 C.3   1 <1>  -0.2400 
 23 H        2.0620     1.4420    -1.0980 H     1 <1>   0.0800 
 24 H        3.3550     0.3510    -0.6930 H     1 <1>   0.0800 
 25 H        2.9000    -1.7730     0.3010 H     1 <1>   0.0800 
 26 H        1.2630    -2.2870     0.5840 H     1 <1>   0.0800 
 27 H       -1.2150    -0.7180     0.0620 H     1 <1>   0.1500 
 28 H       -0.0540    -3.3760    -3.0300 H     1 <1>   0.1500 
 29 H        1.6320     1.8840     1.3010 H     1 <1>   0.0800 
 30 H        3.2870     2.2890     0.8580 H     1 <1>   0.0800 
 31 H        2.3590    -1.7860     2.7290 H     1 <1>   0.0800 
 32 H        1.0570    -0.6330     2.4440 H     1 <1>   0.0800 
 33 H       -2.0470    -4.6930    -2.6650 H     1 <1>   0.1500 
 34 H       -5.0920    -2.8910     0.1540 H     1 <1>   0.3700 
 35 H       -5.1240    -5.8090    -1.1290 H     1 <1>   0.0800 
 36 H       -3.4060    -6.1120    -1.3510 H     1 <1>   0.0800 
 37 H       -4.3170    -5.1960    -2.5670 H     1 <1>   0.0800 
 38 H       -5.3930    -0.8850     2.3540 H     1 <1>   0.0800 
 39 H       -5.8760    -2.5540     2.5670 H     1 <1>   0.0800 
 40 H       -6.9430    -0.6780     0.4300 H     1 <1>   0.0800 
 41 H       -7.7960    -1.1440     1.8790 H     1 <1>   0.0800 
 42 H       -7.4500    -2.3450     0.6610 H     1 <1>   0.0800 
@<TRIPOS>BOND
  1   1   2  2   
  2   1   3  2   
  3   1   4  am  
  4   1   5  1   
  5   4   6  1   
  6   4   7  1   
  7   5   8  ar  
  8   5   9  ar  
  9   6  10  1   
 10   6  23  1   
 11   6  24  1   
 12   7  11  1   
 13   7  25  1   
 14   7  26  1   
 15   8  12  ar  
 16   8  27  1   
 17   9  13  ar  
 18   9  28  1   
 19  10  14  1   
 20  10  29  1   
 21  10  30  1   
 22  11  14  1   
 23  11  31  1   
 24  11  32  1   
 25  12  15  ar  
 26  12  16  1   
 27  13  15  ar  
 28  13  33  1   
 29  15  17  1   
 30  16  18  2   
 31  16  19  am  
 32  17  20  1   
 33  19  21  1   
 34  19  34  1   
 35  20  35  1   
 36  20  36  1   
 37  20  37  1   
 38  21  22  1   
 39  21  38  1   
 40  21  39  1   
 41  22  40  1   
 42  22  41  1   
 43  22  42  1   
@<TRIPOS>SUBSTRUCTURE
  1 ****   8 GROUP 4 **** **** 0

# MOE 2024.06 (io_trps.svl 2023.06)
