@<TRIPOS>MOLECULE
NONAME
42 43 1 0 0 
SMALL
USER_CHARGES


@<TRIPOS>ATOM
  1 O       -0.6080    -0.3920     0.8940 O.2   1 <1>  -0.5700 
  2 C       -0.8530    -1.2950     0.1330 C.2   1 <1>   0.5690 
  3 N        0.0750    -2.2160    -0.2710 N.am  1 <1>  -0.5470 
  4 C       -2.2730    -1.4590    -0.4140 C.3   1 <1>  -0.0190 
  5 C        1.4410    -2.3550     0.0310 C.ar  1 <1>   0.1170 
  6 C       -3.0780    -0.1420    -0.4000 C.3   1 <1>  -0.1600 
  7 C       -3.0400    -2.5480     0.3600 C.3   1 <1>  -0.1600 
  8 C        2.0420    -3.6190    -0.0180 C.ar  1 <1>  -0.1430 
  9 C        2.2180    -1.2470     0.3490 C.ar  1 <1>  -0.1500 
 10 C       -4.5010    -0.3420    -0.9270 C.3   1 <1>   0.1400 
 11 C       -4.4650    -2.7250    -0.1730 C.3   1 <1>   0.1400 
 12 C        3.4080    -3.7460     0.2340 C.ar  1 <1>  -0.1430 
 13 C        1.1840    -4.8450    -0.3460 C.3   1 <1>  -0.0970 
 14 C        3.5650    -1.3770     0.6110 C.ar  1 <1>  -0.1500 
 15 N       -5.1730    -1.4170    -0.1450 N.am  1 <1>  -0.6600 
 16 C        4.1570    -2.6230     0.5500 C.ar  1 <1>  -0.1500 
 17 C        4.1360    -5.0840     0.1770 C.3   1 <1>  -0.0970 
 18 C       -6.3280    -1.2590     0.5800 C.2   1 <1>   0.5690 
 19 O       -6.8440    -2.1740     1.1760 O.2   1 <1>  -0.5700 
 20 C       -7.0110     0.0860     0.6620 C.3   1 <1>  -0.1790 
 21 H       -0.2870    -2.9710    -0.8450 H     1 <1>   0.3700 
 22 H       -2.1870    -1.7710    -1.4400 H     1 <1>   0.0800 
 23 H       -2.5750     0.5950    -0.9990 H     1 <1>   0.0800 
 24 H       -3.1340     0.2400     0.6050 H     1 <1>   0.0800 
 25 H       -3.0920    -2.2820     1.4020 H     1 <1>   0.0800 
 26 H       -2.5210    -3.4870     0.2900 H     1 <1>   0.0800 
 27 H        1.7720    -0.2700     0.3900 H     1 <1>   0.1500 
 28 H       -4.4690    -0.6340    -1.9630 H     1 <1>   0.0800 
 29 H       -5.0380     0.5860    -0.8630 H     1 <1>   0.0800 
 30 H       -4.9830    -3.4530     0.4290 H     1 <1>   0.0800 
 31 H       -4.4420    -3.0900    -1.1850 H     1 <1>   0.0800 
 32 H        0.2530    -4.8040     0.1890 H     1 <1>   0.0800 
 33 H        1.6600    -5.7640    -0.0630 H     1 <1>   0.0800 
 34 H        0.9860    -4.8780    -1.4020 H     1 <1>   0.0800 
 35 H        4.1520    -0.5100     0.8590 H     1 <1>   0.1500 
 36 H        5.2100    -2.7080     0.7530 H     1 <1>   0.1500 
 37 H        3.9460    -5.5700    -0.7630 H     1 <1>   0.0800 
 38 H        3.8040    -5.7170     0.9790 H     1 <1>   0.0800 
 39 H        5.1990    -4.9520     0.2710 H     1 <1>   0.0800 
 40 H       -7.3230     0.3970    -0.3160 H     1 <1>   0.0800 
 41 H       -6.3410     0.8100     1.0840 H     1 <1>   0.0800 
 42 H       -7.8790     0.0120     1.2920 H     1 <1>   0.0800 
@<TRIPOS>BOND
  1   1   2  2   
  2   2   3  am  
  3   2   4  1   
  4   3   5  1   
  5   3  21  1   
  6   4   6  1   
  7   4   7  1   
  8   4  22  1   
  9   5   8  ar  
 10   5   9  ar  
 11   6  10  1   
 12   6  23  1   
 13   6  24  1   
 14   7  11  1   
 15   7  25  1   
 16   7  26  1   
 17   8  12  ar  
 18   8  13  1   
 19   9  14  ar  
 20   9  27  1   
 21  10  15  1   
 22  10  28  1   
 23  10  29  1   
 24  11  15  1   
 25  11  30  1   
 26  11  31  1   
 27  12  16  ar  
 28  12  17  1   
 29  13  32  1   
 30  13  33  1   
 31  13  34  1   
 32  14  16  ar  
 33  14  35  1   
 34  15  18  am  
 35  16  36  1   
 36  17  37  1   
 37  17  38  1   
 38  17  39  1   
 39  18  19  2   
 40  18  20  1   
 41  20  40  1   
 42  20  41  1   
 43  20  42  1   
@<TRIPOS>SUBSTRUCTURE
  1 ****   2 GROUP 4 **** **** 0

# MOE 2024.06 (io_trps.svl 2023.06)
