@<TRIPOS>MOLECULE
NONAME
43 44 1 0 0 
SMALL
USER_CHARGES


@<TRIPOS>ATOM
  1 CL       0.4070    -0.0390     1.0820 Cl    1 <1>  -0.1770 
  2 C        2.0680     0.4870     1.1430 C.ar  1 <1>   0.1770 
  3 C        2.4040     1.7360     0.6590 C.ar  1 <1>  -0.1500 
  4 C        3.0270    -0.3520     1.6760 C.ar  1 <1>  -0.1500 
  5 C        3.7260     2.1460     0.7090 C.ar  1 <1>  -0.1500 
  6 C        4.3460     0.0710     1.7200 C.ar  1 <1>  -0.1500 
  7 C        4.7180     1.3230     1.2360 C.ar  1 <1>  -0.0090 
  8 S        6.4470     1.8750     1.2910 S.o2  1 <1>   1.4470 
  9 O        7.3240     0.7530     1.5520 O.2   1 <1>  -0.6500 
 10 O        6.5420     3.0480     2.1290 O.2   1 <1>  -0.6500 
 11 N        6.7490     2.3700    -0.3030 N.am  1 <1>  -0.8490 
 12 C        7.8720     3.3510    -0.4090 C.3   1 <1>   0.2570 
 13 C        6.8530     1.2510    -1.2460 C.3   1 <1>   0.1960 
 14 C        9.3160     2.8150    -0.4100 C.2   1 <1>   0.5690 
 15 C        6.7390     1.7440    -2.6860 C.3   1 <1>  -0.2400 
 16 O       10.1010     3.3140    -1.1810 O.2   1 <1>  -0.5700 
 17 N        9.6920     1.8080     0.4210 N.am  1 <1>  -0.7300 
 18 C       11.0340     1.2150     0.5100 C.3   1 <1>   0.2200 
 19 C       10.9590    -0.2340     0.0480 C.3   1 <1>  -0.1600 
 20 C       11.4130     1.0940     1.9810 C.3   1 <1>  -0.1600 
 21 C       10.4220    -1.0260     1.2460 C.3   1 <1>  -0.1600 
 22 C       10.7090    -0.1700     2.4870 C.3   1 <1>  -0.1600 
 23 H        1.6410     2.3740     0.2510 H     1 <1>   0.1500 
 24 H        2.7420    -1.3190     2.0500 H     1 <1>   0.1500 
 25 H        3.9950     3.1200     0.3340 H     1 <1>   0.1500 
 26 H        5.0960    -0.5810     2.1370 H     1 <1>   0.1500 
 27 H        7.7970     4.0830     0.3750 H     1 <1>   0.0800 
 28 H        7.7460     3.8990    -1.3250 H     1 <1>   0.0800 
 29 H        6.0460     0.5600    -1.0660 H     1 <1>   0.0800 
 30 H        7.7770     0.7140    -1.1060 H     1 <1>   0.0800 
 31 H        5.8540     2.3430    -2.8070 H     1 <1>   0.0800 
 32 H        6.6700     0.8990    -3.3470 H     1 <1>   0.0800 
 33 H        7.6050     2.3120    -2.9720 H     1 <1>   0.0800 
 34 H        8.9960     1.3350     1.0140 H     1 <1>   0.3700 
 35 H       11.7480     1.7930    -0.0540 H     1 <1>   0.0800 
 36 H       11.9560    -0.5710    -0.1750 H     1 <1>   0.0800 
 37 H       10.3530    -0.3480    -0.8330 H     1 <1>   0.0800 
 38 H       11.1450     1.9720     2.5430 H     1 <1>   0.0800 
 39 H       12.4770     0.9530     2.0480 H     1 <1>   0.0800 
 40 H       10.8940    -1.9900     1.3130 H     1 <1>   0.0800 
 41 H        9.3590    -1.1660     1.1450 H     1 <1>   0.0800 
 42 H        9.7800     0.0950     2.9630 H     1 <1>   0.0800 
 43 H       11.3250    -0.6960     3.1960 H     1 <1>   0.0800 
@<TRIPOS>BOND
  1   1   2  1   
  2   2   3  ar  
  3   2   4  ar  
  4   3   5  ar  
  5   3  23  1   
  6   4   6  ar  
  7   4  24  1   
  8   5   7  ar  
  9   5  25  1   
 10   6   7  ar  
 11   6  26  1   
 12   7   8  1   
 13   8   9  2   
 14   8  10  2   
 15   8  11  am  
 16  11  12  1   
 17  11  13  1   
 18  12  14  1   
 19  12  27  1   
 20  12  28  1   
 21  13  15  1   
 22  13  29  1   
 23  13  30  1   
 24  14  16  2   
 25  14  17  am  
 26  15  31  1   
 27  15  32  1   
 28  15  33  1   
 29  17  18  1   
 30  17  34  1   
 31  18  19  1   
 32  18  20  1   
 33  18  35  1   
 34  19  21  1   
 35  19  36  1   
 36  19  37  1   
 37  20  22  1   
 38  20  38  1   
 39  20  39  1   
 40  21  22  1   
 41  21  40  1   
 42  21  41  1   
 43  22  42  1   
 44  22  43  1   
@<TRIPOS>SUBSTRUCTURE
  1 ****   8 GROUP 4 **** **** 0

# MOE 2024.06 (io_trps.svl 2023.06)
