@<TRIPOS>MOLECULE
NONAME
38 40 1 0 0 
SMALL
USER_CHARGES


@<TRIPOS>ATOM
  1 F      -12.6470     4.4790    -0.4910 F     1 <1>  -0.1900 
  2 C      -12.5530     3.1850    -0.3310 C.ar  1 <1>   0.1900 
  3 C      -11.2920     2.5910    -0.2270 C.ar  1 <1>   0.0530 
  4 C      -13.7370     2.4750    -0.2630 C.ar  1 <1>  -0.1500 
  5 C      -10.0510     3.3330    -0.3040 C.2   1 <1>   0.0870 
  6 C      -11.2850     1.2070    -0.0410 C.ar  1 <1>  -0.1500 
  7 C      -13.6880     1.1050    -0.0810 C.ar  1 <1>  -0.1500 
  8 O       -8.9470     2.8350     0.2410 O.3   1 <1>  -0.2800 
  9 C       -9.7420     4.5340    -0.8640 C.2   1 <1>  -0.1500 
 10 C      -12.4600     0.4750     0.0310 C.ar  1 <1>  -0.1500 
 11 C       -7.9530     3.6760     0.0570 C.2   1 <1>  -0.0400 
 12 C       -8.3840     4.7580    -0.6300 C.2   1 <1>  -0.1500 
 13 C       -6.6030     3.2840     0.6220 C.3   1 <1>   0.5230 
 14 N       -5.6240     4.3690     0.3760 N.4   1 <1>  -0.9060 
 15 C       -4.2680     4.0950     0.8820 C.3   1 <1>   0.4230 
 16 C       -3.4430     5.3640     0.7110 C.3   1 <1>  -0.1600 
 17 C       -3.5660     3.1110    -0.0490 C.3   1 <1>  -0.1600 
 18 C       -3.0120     5.3890    -0.7610 C.3   1 <1>  -0.1600 
 19 C       -3.0920     3.9380    -1.2510 C.3   1 <1>  -0.1600 
 20 H      -14.6780     2.9880    -0.3500 H     1 <1>   0.1500 
 21 H      -10.3450     0.6920     0.0460 H     1 <1>   0.1500 
 22 H      -14.5990     0.5320    -0.0250 H     1 <1>   0.1500 
 23 H      -10.3980     5.2020    -1.3940 H     1 <1>   0.1500 
 24 H      -12.4190    -0.5910     0.1740 H     1 <1>   0.1500 
 25 H       -7.8600     5.6380    -0.9600 H     1 <1>   0.1500 
 26 H       -6.2790     2.3700     0.1530 H     1 <1>   0.0800 
 27 H       -6.7040     3.1070     1.6810 H     1 <1>   0.0800 
 28 H       -5.9850     5.2280     0.8010 H     1 <1>   0.4500 
 29 H       -5.5570     4.5340    -0.6330 H     1 <1>   0.4500 
 30 H       -4.2890     3.7600     1.9080 H     1 <1>   0.0800 
 31 H       -2.5610     5.2760     1.3220 H     1 <1>   0.0800 
 32 H       -3.9640     6.2580     1.0070 H     1 <1>   0.0800 
 33 H       -4.1690     2.2700    -0.3390 H     1 <1>   0.0800 
 34 H       -2.6970     2.7310     0.4620 H     1 <1>   0.0800 
 35 H       -2.0100     5.7780    -0.8580 H     1 <1>   0.0800 
 36 H       -3.6720     6.0120    -1.3410 H     1 <1>   0.0800 
 37 H       -3.7910     3.8610    -2.0670 H     1 <1>   0.0800 
 38 H       -2.1310     3.5910    -1.5980 H     1 <1>   0.0800 
@<TRIPOS>BOND
  1   1   2  1   
  2   2   3  ar  
  3   2   4  ar  
  4   3   5  1   
  5   3   6  ar  
  6   4   7  ar  
  7   4  20  1   
  8   5   8  1   
  9   5   9  2   
 10   6  10  ar  
 11   6  21  1   
 12   7  10  ar  
 13   7  22  1   
 14   8  11  1   
 15   9  12  1   
 16   9  23  1   
 17  10  24  1   
 18  11  12  2   
 19  11  13  1   
 20  12  25  1   
 21  13  14  1   
 22  13  26  1   
 23  13  27  1   
 24  14  15  1   
 25  14  28  1   
 26  14  29  1   
 27  15  16  1   
 28  15  17  1   
 29  15  30  1   
 30  16  18  1   
 31  16  31  1   
 32  16  32  1   
 33  17  19  1   
 34  17  33  1   
 35  17  34  1   
 36  18  19  1   
 37  18  35  1   
 38  18  36  1   
 39  19  37  1   
 40  19  38  1   
@<TRIPOS>SUBSTRUCTURE
  1 ****  11 GROUP 4 **** **** 0

# MOE 2024.06 (io_trps.svl 2023.06)
