@<TRIPOS>MOLECULE
NONAME
44 47 1 0 0 
SMALL
USER_CHARGES


@<TRIPOS>ATOM
  1 F       -1.3530     0.1980    -2.2070 F     1 <1>  -0.1900 
  2 C       -2.2040    -0.4810    -1.4850 C.ar  1 <1>   0.1900 
  3 C       -3.2880    -1.0660    -2.1080 C.ar  1 <1>  -0.1500 
  4 C       -1.9880    -0.5880    -0.1250 C.ar  1 <1>  -0.1500 
  5 C       -4.1880    -1.7810    -1.3360 C.ar  1 <1>  -0.1500 
  6 C       -2.8960    -1.3050     0.6360 C.ar  1 <1>  -0.1500 
  7 C       -4.0020    -1.9030     0.0400 C.ar  1 <1>  -0.1430 
  8 C       -4.9930    -2.6820     0.9160 C.3   1 <1>   0.3640 
  9 N       -5.4510    -3.9170     0.2440 N.am  1 <1>  -0.2980 
 10 C       -6.3190    -1.9510     1.1630 C.3   1 <1>  -0.0190 
 11 N       -6.7630    -3.8150    -0.1610 N.2   1 <1>  -0.5120 
 12 C       -4.6140    -5.0060     0.1220 C.2   1 <1>   0.5690 
 13 C       -7.2670    -2.7320     0.2820 C.2   1 <1>   0.3030 
 14 C       -6.4150    -0.4460     0.8530 C.3   1 <1>  -0.1600 
 15 O       -3.5220    -5.0500     0.6370 O.2   1 <1>  -0.5700 
 16 C       -5.0880    -6.2030    -0.6680 C.3   1 <1>  -0.1790 
 17 C       -8.5800    -2.1860     0.0410 C.ar  1 <1>   0.0860 
 18 C       -7.8550     0.0310     1.0900 C.3   1 <1>  -0.0170 
 19 C       -8.8890    -0.8670     0.4100 C.ar  1 <1>  -0.1430 
 20 C       -9.5700    -2.9480    -0.5780 C.ar  1 <1>  -0.1500 
 21 C      -10.1510    -0.3540     0.1660 C.ar  1 <1>  -0.1500 
 22 C      -10.8340    -2.4290    -0.8220 C.ar  1 <1>   0.0830 
 23 C      -11.1190    -1.1290    -0.4450 C.ar  1 <1>  -0.1500 
 24 O      -11.8350    -3.1240    -1.4180 O.3   1 <1>  -0.3620 
 25 C      -11.6460    -4.4520    -1.8550 C.3   1 <1>   0.0400 
 26 H       -3.4210    -0.9650    -3.1690 H     1 <1>   0.1500 
 27 H       -1.1290    -0.1220     0.3220 H     1 <1>   0.1500 
 28 H       -5.0360    -2.2440    -1.8120 H     1 <1>   0.1500 
 29 H       -2.7320    -1.4000     1.6950 H     1 <1>   0.1500 
 30 H       -4.5330    -2.9430     1.8520 H     1 <1>   0.0800 
 31 H       -6.6030    -2.1160     2.1870 H     1 <1>   0.0800 
 32 H       -6.1620    -0.2630    -0.1770 H     1 <1>   0.0800 
 33 H       -5.7340     0.1100     1.4730 H     1 <1>   0.0800 
 34 H       -5.3500    -5.8950    -1.6630 H     1 <1>   0.0800 
 35 H       -5.9490    -6.6290    -0.1900 H     1 <1>   0.0800 
 36 H       -4.3090    -6.9410    -0.7200 H     1 <1>   0.0800 
 37 H       -7.9540     1.0400     0.7260 H     1 <1>   0.0800 
 38 H       -8.0580     0.0440     2.1470 H     1 <1>   0.0800 
 39 H       -9.3230    -3.9530    -0.8610 H     1 <1>   0.1500 
 40 H      -10.3930     0.6560     0.4510 H     1 <1>   0.1500 
 41 H      -12.1000    -0.7310    -0.6360 H     1 <1>   0.1500 
 42 H      -12.5650    -4.7910    -2.2980 H     1 <1>   0.0800 
 43 H      -11.4000    -5.0670    -1.0080 H     1 <1>   0.0800 
 44 H      -10.8590    -4.4700    -2.5880 H     1 <1>   0.0800 
@<TRIPOS>BOND
  1   1   2  1   
  2   2   3  ar  
  3   2   4  ar  
  4   3   5  ar  
  5   3  26  1   
  6   4   6  ar  
  7   4  27  1   
  8   5   7  ar  
  9   5  28  1   
 10   6   7  ar  
 11   6  29  1   
 12   7   8  1   
 13   8   9  1   
 14   8  10  1   
 15   8  30  1   
 16   9  11  1   
 17   9  12  am  
 18  10  13  1   
 19  10  14  1   
 20  10  31  1   
 21  11  13  2   
 22  12  15  2   
 23  12  16  1   
 24  13  17  1   
 25  14  18  1   
 26  14  32  1   
 27  14  33  1   
 28  16  34  1   
 29  16  35  1   
 30  16  36  1   
 31  17  19  ar  
 32  17  20  ar  
 33  18  19  1   
 34  18  37  1   
 35  18  38  1   
 36  19  21  ar  
 37  20  22  ar  
 38  20  39  1   
 39  21  23  ar  
 40  21  40  1   
 41  22  23  ar  
 42  22  24  1   
 43  23  41  1   
 44  24  25  1   
 45  25  42  1   
 46  25  43  1   
 47  25  44  1   
@<TRIPOS>SUBSTRUCTURE
  1 ****  13 GROUP 4 **** **** 0

# MOE 2024.06 (io_trps.svl 2023.06)
