@<TRIPOS>MOLECULE
NONAME
42 43 1 0 0 
SMALL
USER_CHARGES


@<TRIPOS>ATOM
  1 S       -0.4040    -0.2300    -0.4060 S.3   1 <1>  -0.2860 
  2 C        1.2180    -0.9410    -0.1180 C.2   1 <1>   0.2420 
  3 C       -1.4270    -1.7130    -0.8690 C.3   1 <1>   0.1310 
  4 N        1.4750    -2.1940    -0.2320 N.2   1 <1>  -0.3380 
  5 N        2.2730    -0.2090     0.2380 N.pl3 1 <1>   0.0480 
  6 C       -2.8930    -1.3500    -1.0470 C.2   1 <1>   0.5690 
  7 N        2.7720    -2.3240     0.0600 N.2   1 <1>  -0.3380 
  8 C        3.2310    -1.1450     0.3350 C.2   1 <1>   0.0060 
  9 C        2.3430     1.2520     0.4660 C.3   1 <1>   0.0960 
 10 O       -3.5810    -2.0940    -1.7020 O.2   1 <1>  -0.5700 
 11 N       -3.3610    -0.2100    -0.4510 N.am  1 <1>  -0.5470 
 12 C        4.6720    -0.8290     0.7240 C.3   1 <1>   0.0200 
 13 C        2.6610     1.9890    -0.8400 C.3   1 <1>  -0.2400 
 14 C       -4.6250     0.4080    -0.3890 C.ar  1 <1>   0.1170 
 15 C        5.6010    -2.0470     0.6530 C.3   1 <1>  -0.2400 
 16 C       -4.7400     1.6480     0.2450 C.ar  1 <1>   0.1010 
 17 C       -5.7780    -0.1570    -0.9260 C.ar  1 <1>  -0.1500 
 18 S       -3.2360     2.3820     0.9510 S.3   1 <1>  -0.3310 
 19 C       -5.9580     2.3030     0.3370 C.ar  1 <1>  -0.1500 
 20 C       -6.9970     0.4930    -0.8370 C.ar  1 <1>  -0.1500 
 21 C       -3.7220     3.9990     1.7020 C.3   1 <1>  -0.0100 
 22 C       -7.0890     1.7210    -0.2070 C.ar  1 <1>  -0.1500 
 23 H       -1.3150    -2.4370    -0.0840 H     1 <1>   0.0800 
 24 H       -1.0220    -2.1040    -1.7840 H     1 <1>   0.0800 
 25 H        3.1010     1.4570     1.2000 H     1 <1>   0.0800 
 26 H        1.3990     1.5900     0.8560 H     1 <1>   0.0800 
 27 H       -2.6370     0.3430     0.0180 H     1 <1>   0.3700 
 28 H        4.6830    -0.4420     1.7280 H     1 <1>   0.0800 
 29 H        5.0530    -0.0680     0.0670 H     1 <1>   0.0800 
 30 H        3.6070     1.6660    -1.2370 H     1 <1>   0.0800 
 31 H        2.7110     3.0470    -0.6570 H     1 <1>   0.0800 
 32 H        1.8900     1.8070    -1.5680 H     1 <1>   0.0800 
 33 H        5.2570    -2.8150     1.3240 H     1 <1>   0.0800 
 34 H        6.6020    -1.7700     0.9290 H     1 <1>   0.0800 
 35 H        5.6130    -2.4460    -0.3460 H     1 <1>   0.0800 
 36 H       -5.7360    -1.1100    -1.4190 H     1 <1>   0.1500 
 37 H       -6.0490     3.2550     0.8220 H     1 <1>   0.1500 
 38 H       -7.8760     0.0380    -1.2610 H     1 <1>   0.1500 
 39 H       -2.8370     4.4410     2.1220 H     1 <1>   0.0800 
 40 H       -4.4500     3.8040     2.4690 H     1 <1>   0.0800 
 41 H       -4.1260     4.6200     0.9230 H     1 <1>   0.0800 
 42 H       -8.0400     2.2210    -0.1420 H     1 <1>   0.1500 
@<TRIPOS>BOND
  1   1   2  1   
  2   1   3  1   
  3   2   4  2   
  4   2   5  1   
  5   3   6  1   
  6   3  23  1   
  7   3  24  1   
  8   4   7  1   
  9   5   8  1   
 10   5   9  1   
 11   6  10  2   
 12   6  11  am  
 13   7   8  2   
 14   8  12  1   
 15   9  13  1   
 16   9  25  1   
 17   9  26  1   
 18  11  14  1   
 19  11  27  1   
 20  12  15  1   
 21  12  28  1   
 22  12  29  1   
 23  13  30  1   
 24  13  31  1   
 25  13  32  1   
 26  14  16  ar  
 27  14  17  ar  
 28  15  33  1   
 29  15  34  1   
 30  15  35  1   
 31  16  18  1   
 32  16  19  ar  
 33  17  20  ar  
 34  17  36  1   
 35  18  21  1   
 36  19  22  ar  
 37  19  37  1   
 38  20  22  ar  
 39  20  38  1   
 40  21  39  1   
 41  21  40  1   
 42  21  41  1   
 43  22  42  1   
@<TRIPOS>SUBSTRUCTURE
  1 ****   1 GROUP 4 **** **** 0

# MOE 2024.06 (io_trps.svl 2023.06)
