@<TRIPOS>MOLECULE
NONAME
48 50 1 0 0 
SMALL
USER_CHARGES


@<TRIPOS>ATOM
  1 F       -0.0250    -1.0210    -0.2350 F     1 <1>  -0.1900 
  2 C        0.8600    -1.9660    -0.4000 C.ar  1 <1>   0.1900 
  3 C        0.6960    -3.1590     0.2770 C.ar  1 <1>  -0.1500 
  4 C        1.9280    -1.7400    -1.2450 C.ar  1 <1>  -0.1500 
  5 C        1.6400    -4.1580     0.1030 C.ar  1 <1>  -0.1500 
  6 C        2.8670    -2.7440    -1.4140 C.ar  1 <1>  -0.1500 
  7 C        2.7300    -3.9520    -0.7370 C.ar  1 <1>  -0.1430 
  8 C        3.7710    -5.0420    -0.9160 C.3   1 <1>   0.4870 
  9 N        4.6310    -5.0880     0.2970 N.4   1 <1>  -0.9590 
 10 C        5.4020    -3.7980     0.4540 C.3   1 <1>   0.3430 
 11 C        5.5510    -6.2810     0.2510 C.3   1 <1>   0.3430 
 12 C        6.3910    -3.8430     1.6380 C.3   1 <1>   0.1400 
 13 C        6.5420    -6.3080     1.4350 C.3   1 <1>   0.1400 
 14 N        7.2920    -5.0230     1.5200 N.am  1 <1>  -0.6600 
 15 C        8.3420    -4.8850     0.6650 C.2   1 <1>   0.6900 
 16 O        8.1090    -4.8440    -0.5290 O.2   1 <1>  -0.5700 
 17 N        9.5870    -4.7840     1.1990 N.am  1 <1>  -0.5470 
 18 C       10.8540    -4.6140     0.6170 C.ar  1 <1>   0.1170 
 19 C       11.9040    -4.2000     1.4280 C.ar  1 <1>  -0.1500 
 20 C       11.1160    -4.8510    -0.7300 C.ar  1 <1>  -0.1500 
 21 C       13.1740    -4.0210     0.9110 C.ar  1 <1>  -0.1500 
 22 C       12.3840    -4.6730    -1.2530 C.ar  1 <1>  -0.1500 
 23 C       13.4250    -4.2530    -0.4310 C.ar  1 <1>   0.0830 
 24 O       14.7000    -4.0520    -0.8600 O.3   1 <1>  -0.3620 
 25 C       15.0440    -4.2420    -2.2140 C.3   1 <1>   0.0400 
 26 H       -0.1560    -3.2940     0.9200 H     1 <1>   0.1500 
 27 H        2.0140    -0.7970    -1.7590 H     1 <1>   0.1500 
 28 H        1.5040    -5.0910     0.6240 H     1 <1>   0.1500 
 29 H        3.6970    -2.5700    -2.0790 H     1 <1>   0.1500 
 30 H        4.3710    -4.8400    -1.7890 H     1 <1>   0.0800 
 31 H        3.2730    -5.9880    -1.0560 H     1 <1>   0.0800 
 32 H        4.0070    -5.1730     1.1080 H     1 <1>   0.4500 
 33 H        4.7190    -2.9760     0.5960 H     1 <1>   0.0800 
 34 H        5.9670    -3.6060    -0.4440 H     1 <1>   0.0800 
 35 H        6.1260    -6.2550    -0.6610 H     1 <1>   0.0800 
 36 H        4.9750    -7.1920     0.2510 H     1 <1>   0.0800 
 37 H        5.8540    -3.8860     2.5700 H     1 <1>   0.0800 
 38 H        6.9800    -2.9410     1.6390 H     1 <1>   0.0800 
 39 H        7.2390    -7.1180     1.2940 H     1 <1>   0.0800 
 40 H        6.0170    -6.4830     2.3580 H     1 <1>   0.0800 
 41 H        9.5790    -4.7960     2.2150 H     1 <1>   0.3700 
 42 H       11.7340    -4.0110     2.4720 H     1 <1>   0.1500 
 43 H       10.3320    -5.1820    -1.3850 H     1 <1>   0.1500 
 44 H       13.9820    -3.6980     1.5430 H     1 <1>   0.1500 
 45 H       12.5400    -4.8650    -2.2970 H     1 <1>   0.1500 
 46 H       16.0890    -4.0190    -2.3270 H     1 <1>   0.0800 
 47 H       14.4600    -3.5720    -2.8200 H     1 <1>   0.0800 
 48 H       14.8570    -5.2670    -2.4810 H     1 <1>   0.0800 
@<TRIPOS>BOND
  1   1   2  1   
  2   2   3  ar  
  3   2   4  ar  
  4   3   5  ar  
  5   3  26  1   
  6   4   6  ar  
  7   4  27  1   
  8   5   7  ar  
  9   5  28  1   
 10   6   7  ar  
 11   6  29  1   
 12   7   8  1   
 13   8   9  1   
 14   8  30  1   
 15   8  31  1   
 16   9  10  1   
 17   9  11  1   
 18   9  32  1   
 19  10  12  1   
 20  10  33  1   
 21  10  34  1   
 22  11  13  1   
 23  11  35  1   
 24  11  36  1   
 25  12  14  1   
 26  12  37  1   
 27  12  38  1   
 28  13  14  1   
 29  13  39  1   
 30  13  40  1   
 31  14  15  am  
 32  15  16  2   
 33  15  17  am  
 34  17  18  1   
 35  17  41  1   
 36  18  19  ar  
 37  18  20  ar  
 38  19  21  ar  
 39  19  42  1   
 40  20  22  ar  
 41  20  43  1   
 42  21  23  ar  
 43  21  44  1   
 44  22  23  ar  
 45  22  45  1   
 46  23  24  1   
 47  24  25  1   
 48  25  46  1   
 49  25  47  1   
 50  25  48  1   
@<TRIPOS>SUBSTRUCTURE
  1 ****  16 GROUP 4 **** **** 0

# MOE 2024.06 (io_trps.svl 2023.06)
