@<TRIPOS>MOLECULE
NONAME
26 25 1 0 0 
SMALL
USER_CHARGES


@<TRIPOS>ATOM
  1 CL       0.5270    -0.0700    -0.6450 Cl    1 <1>  -0.2900 
  2 C       -0.0710     1.4980    -0.0710 C.3   1 <1>   0.1840 
  3 C        0.5290     1.8070     1.3250 C.2   1 <1>   0.9060 
  4 C       -1.6050     1.3900     0.0570 C.3   1 <1>   0.0700 
  5 C        0.3490     2.5360    -1.1360 C.3   1 <1>  -0.2400 
  6 O       -0.1120     1.5070     2.3440 O.co2 1 <1>  -0.9000 
  7 O        1.6150     2.3980     1.4170 O.co2 1 <1>  -0.9000 
  8 S       -2.4220     1.0140    -1.5300 S.3   1 <1>  -0.2300 
  9 S       -4.4410     1.0670    -0.9510 S.3   1 <1>  -0.2300 
 10 C       -4.7090    -0.6830    -0.5220 C.3   1 <1>   0.0700 
 11 C       -6.0290    -0.9020     0.2390 C.3   1 <1>   0.1840 
 12 CL      -5.9490    -2.5680     0.8390 Cl    1 <1>  -0.2900 
 13 C       -7.2480    -0.7630    -0.7100 C.2   1 <1>   0.9060 
 14 C       -6.1130    -0.0300     1.5110 C.3   1 <1>  -0.2400 
 15 O       -8.2560    -0.1400    -0.3370 O.co2 1 <1>  -0.9000 
 16 O       -7.2040    -1.2790    -1.8370 O.co2 1 <1>  -0.9000 
 17 H       -2.0160     2.3180     0.4070 H     1 <1>   0.0800 
 18 H       -1.8710     0.6090     0.7460 H     1 <1>   0.0800 
 19 H        1.4220     2.6000    -1.1720 H     1 <1>   0.0800 
 20 H       -0.0320     3.5040    -0.8670 H     1 <1>   0.0800 
 21 H       -0.0160     2.2710    -2.1110 H     1 <1>   0.0800 
 22 H       -3.8720    -0.9760     0.0840 H     1 <1>   0.0800 
 23 H       -4.7030    -1.2310    -1.4470 H     1 <1>   0.0800 
 24 H       -5.2260    -0.1380     2.1080 H     1 <1>   0.0800 
 25 H       -6.9750    -0.3170     2.0850 H     1 <1>   0.0800 
 26 H       -6.2310     1.0040     1.2420 H     1 <1>   0.0800 
@<TRIPOS>BOND
  1   1   2  1   
  2   2   3  1   
  3   2   4  1   
  4   2   5  1   
  5   3   6  ar  
  6   3   7  ar  
  7   4   8  1   
  8   4  17  1   
  9   4  18  1   
 10   5  19  1   
 11   5  20  1   
 12   5  21  1   
 13   8   9  1   
 14   9  10  1   
 15  10  11  1   
 16  10  22  1   
 17  10  23  1   
 18  11  12  1   
 19  11  13  1   
 20  11  14  1   
 21  13  15  ar  
 22  13  16  ar  
 23  14  24  1   
 24  14  25  1   
 25  14  26  1   
@<TRIPOS>SUBSTRUCTURE
  1 ****   9 GROUP 4 **** **** 0

# MOE 2024.06 (io_trps.svl 2023.06)
