@<TRIPOS>MOLECULE
NONAME
34 34 1 0 0 
SMALL
USER_CHARGES


@<TRIPOS>ATOM
  1 CL      -0.4810     0.8220    -2.9750 Cl    1 <1>  -0.1770 
  2 C       -0.1250     2.0510    -1.7900 C.ar  1 <1>   0.1770 
  3 C        1.0510     2.7700    -1.8980 C.ar  1 <1>  -0.1500 
  4 C       -1.0190     2.2860    -0.7640 C.ar  1 <1>  -0.1500 
  5 C        1.3420     3.7480    -0.9580 C.ar  1 <1>  -0.1440 
  6 C       -0.7330     3.2600     0.1760 C.ar  1 <1>  -0.1500 
  7 C        0.4490     3.9950     0.0850 C.ar  1 <1>   0.0830 
  8 C        2.6220     4.5490    -1.0670 C.3   1 <1>   0.4870 
  9 O        0.7920     4.9560     0.9840 O.3   1 <1>  -0.3630 
 10 N        3.4120     4.2710     0.1500 N.4   1 <1>  -0.9060 
 11 C       -0.1450     5.4350     1.9320 C.3   1 <1>   0.0400 
 12 C        4.6350     5.0350     0.3620 C.3   1 <1>   0.5030 
 13 C        5.2200     4.5460     1.6830 C.3   1 <1>  -0.2400 
 14 C        5.6150     4.7630    -0.7780 C.3   1 <1>  -0.2400 
 15 C        4.3010     6.5230     0.4610 C.3   1 <1>  -0.2400 
 16 H        1.7120     2.5510    -2.7190 H     1 <1>   0.1500 
 17 H       -1.9270     1.7110    -0.7080 H     1 <1>   0.1500 
 18 H       -1.4410     3.4250     0.9680 H     1 <1>   0.1500 
 19 H        2.3770     5.5970    -1.1250 H     1 <1>   0.0800 
 20 H        3.1700     4.2650    -1.9500 H     1 <1>   0.0800 
 21 H        3.6160     3.2710     0.1920 H     1 <1>   0.4500 
 22 H        2.7640     4.4640     0.9270 H     1 <1>   0.4500 
 23 H        0.3020     6.2530     2.4690 H     1 <1>   0.0800 
 24 H       -0.3910     4.6430     2.6170 H     1 <1>   0.0800 
 25 H       -1.0240     5.7800     1.4150 H     1 <1>   0.0800 
 26 H        4.5390     4.7210     2.4970 H     1 <1>   0.0800 
 27 H        6.1310     5.0780     1.8990 H     1 <1>   0.0800 
 28 H        5.4590     3.4980     1.6390 H     1 <1>   0.0800 
 29 H        5.8160     3.7110    -0.8730 H     1 <1>   0.0800 
 30 H        6.5500     5.2570    -0.5750 H     1 <1>   0.0800 
 31 H        5.2500     5.1440    -1.7140 H     1 <1>   0.0800 
 32 H        5.1860     7.0760     0.7240 H     1 <1>   0.0800 
 33 H        3.9490     6.9150    -0.4760 H     1 <1>   0.0800 
 34 H        3.5630     6.7040     1.2220 H     1 <1>   0.0800 
@<TRIPOS>BOND
  1   1   2  1   
  2   2   3  ar  
  3   2   4  ar  
  4   3   5  ar  
  5   3  16  1   
  6   4   6  ar  
  7   4  17  1   
  8   5   7  ar  
  9   5   8  1   
 10   6   7  ar  
 11   6  18  1   
 12   7   9  1   
 13   8  10  1   
 14   8  19  1   
 15   8  20  1   
 16   9  11  1   
 17  10  12  1   
 18  10  21  1   
 19  10  22  1   
 20  11  23  1   
 21  11  24  1   
 22  11  25  1   
 23  12  13  1   
 24  12  14  1   
 25  12  15  1   
 26  13  26  1   
 27  13  27  1   
 28  13  28  1   
 29  14  29  1   
 30  14  30  1   
 31  14  31  1   
 32  15  32  1   
 33  15  33  1   
 34  15  34  1   
@<TRIPOS>SUBSTRUCTURE
  1 ****   5 GROUP 4 **** **** 0

# MOE 2024.06 (io_trps.svl 2023.06)
