@<TRIPOS>MOLECULE
NONAME
25 25 1 0 0 
SMALL
USER_CHARGES


@<TRIPOS>ATOM
  1 BR      -0.4390     0.4560     0.7480 Br    1 <1>  -0.1110 
  2 C       -1.6880    -0.7810    -0.0710 C.ar  1 <1>   0.1110 
  3 C       -2.8930    -0.3210    -0.5650 C.ar  1 <1>   0.3920 
  4 C       -1.4030    -2.1240    -0.1630 C.ar  1 <1>   0.1660 
  5 O       -3.1830     0.9960    -0.4760 O.3   1 <1>  -0.3630 
  6 N       -3.7650    -1.1380    -1.1210 N.ar  1 <1>  -0.6200 
  7 N       -2.2680    -2.9510    -0.7100 N.ar  1 <1>  -0.6200 
  8 C       -0.1080    -2.7240     0.3520 C.3   1 <1>  -0.0970 
  9 C       -4.4580     1.5250    -0.8370 C.3   1 <1>   0.1200 
 10 C       -3.3860    -2.4020    -1.1600 C.ar  1 <1>   0.7200 
 11 C       -5.4600     1.5430     0.3360 C.3   1 <1>   0.6800 
 12 N       -4.2600    -3.2490    -1.7050 N.pl3 1 <1>  -0.9000 
 13 F       -5.5920     0.3250     0.8620 F     1 <1>  -0.3400 
 14 F       -4.9480     2.2620     1.3350 F     1 <1>  -0.3400 
 15 C       -6.8550     2.0960    -0.0310 C.3   1 <1>   0.6000 
 16 F       -7.4130     1.3920    -1.0150 F     1 <1>  -0.3400 
 17 F       -6.7700     3.3320    -0.5240 F     1 <1>  -0.3400 
 18 H        0.7240    -2.0790     0.1410 H     1 <1>   0.0800 
 19 H        0.0740    -3.6720    -0.1220 H     1 <1>   0.0800 
 20 H       -0.1780    -2.8780     1.4140 H     1 <1>   0.0800 
 21 H       -4.8590     0.9780    -1.6710 H     1 <1>   0.0800 
 22 H       -4.2970     2.5340    -1.1680 H     1 <1>   0.0800 
 23 H       -4.1140    -4.2220    -1.4500 H     1 <1>   0.4000 
 24 H       -5.2230    -2.9250    -1.7040 H     1 <1>   0.4000 
 25 H       -7.5330     2.1090     0.8020 H     1 <1>   0.0800 
@<TRIPOS>BOND
  1   1   2  1   
  2   2   3  ar  
  3   2   4  ar  
  4   3   5  1   
  5   3   6  ar  
  6   4   7  ar  
  7   4   8  1   
  8   5   9  1   
  9   6  10  ar  
 10   7  10  ar  
 11   8  18  1   
 12   8  19  1   
 13   8  20  1   
 14   9  11  1   
 15   9  21  1   
 16   9  22  1   
 17  10  12  1   
 18  11  13  1   
 19  11  14  1   
 20  11  15  1   
 21  12  23  1   
 22  12  24  1   
 23  15  16  1   
 24  15  17  1   
 25  15  25  1   
@<TRIPOS>SUBSTRUCTURE
  1 ****   3 GROUP 4 **** **** 0

# MOE 2024.06 (io_trps.svl 2023.06)
