@<TRIPOS>MOLECULE
NONAME
50 52 1 0 0 
SMALL
USER_CHARGES


@<TRIPOS>ATOM
  1 O       -0.2990     0.7050     0.7420 O.3   1 <1>  -0.3630 
  2 C       -1.3380     1.2150     0.0060 C.ar  1 <1>   0.0830 
  3 C       -0.3840    -0.5740     1.3340 C.3   1 <1>   0.0400 
  4 C       -1.1930     2.4950    -0.5600 C.ar  1 <1>   0.1000 
  5 C       -2.5210     0.5070    -0.1930 C.ar  1 <1>  -0.1500 
  6 N       -0.0450     3.2880    -0.4190 N.pl3 1 <1>  -0.8380 
  7 C       -2.2380     3.0200    -1.3060 C.ar  1 <1>  -0.1500 
  8 C       -3.5500     1.0530    -0.9410 C.ar  1 <1>  -0.1500 
  9 C        1.1650     2.7440    -1.1040 C.3   1 <1>   0.2090 
 10 C        0.2020     3.7710     0.9720 C.3   1 <1>   0.2090 
 11 C       -3.4090     2.3100    -1.4980 C.ar  1 <1>  -0.1500 
 12 C        2.3430     3.7350    -1.0290 C.3   1 <1>   0.3430 
 13 C        1.3910     4.7500     1.0220 C.3   1 <1>   0.3430 
 14 N        2.6360     4.1740     0.3890 N.4   1 <1>  -0.9590 
 15 C        3.8060     5.0880     0.5240 C.3   1 <1>   0.4230 
 16 C        3.7100     6.2830    -0.4430 C.3   1 <1>  -0.1600 
 17 C        5.0860     4.2550     0.3740 C.3   1 <1>  -0.1600 
 18 C        4.6180     7.4410     0.0000 C.3   1 <1>  -0.1600 
 19 C        6.3900     5.0440     0.5780 C.3   1 <1>  -0.1600 
 20 C        6.0600     7.3670    -0.5230 C.3   1 <1>  -0.1600 
 21 C        6.7060     5.9750    -0.6010 C.3   1 <1>  -0.1600 
 22 H        0.5360    -0.7660     1.8560 H     1 <1>   0.0800 
 23 H       -0.5230    -1.3100     0.5620 H     1 <1>   0.0800 
 24 H       -1.2050    -0.5850     2.0290 H     1 <1>   0.0800 
 25 H       -2.6710    -0.4710     0.2220 H     1 <1>   0.1500 
 26 H       -2.1280     3.9970    -1.7380 H     1 <1>   0.1500 
 27 H       -4.4610     0.4990    -1.0900 H     1 <1>   0.1500 
 28 H        0.9260     2.5540    -2.1360 H     1 <1>   0.0800 
 29 H        1.4520     1.8090    -0.6570 H     1 <1>   0.0800 
 30 H        0.3950     2.9360     1.6230 H     1 <1>   0.0800 
 31 H       -0.6840     4.2670     1.3310 H     1 <1>   0.0800 
 32 H       -4.2080     2.7350    -2.0800 H     1 <1>   0.1500 
 33 H        2.0920     4.5940    -1.6290 H     1 <1>   0.0800 
 34 H        3.2150     3.2730    -1.4600 H     1 <1>   0.0800 
 35 H        1.5870     5.0090     2.0490 H     1 <1>   0.0800 
 36 H        1.1020     5.6480     0.5030 H     1 <1>   0.0800 
 37 H        2.8560     3.3210     0.9170 H     1 <1>   0.4500 
 38 H        3.8030     5.4840     1.5270 H     1 <1>   0.0800 
 39 H        2.7050     6.6610    -0.4410 H     1 <1>   0.0800 
 40 H        3.9530     5.9950    -1.4500 H     1 <1>   0.0800 
 41 H        5.1190     3.7880    -0.5940 H     1 <1>   0.0800 
 42 H        5.0690     3.4750     1.1150 H     1 <1>   0.0800 
 43 H        4.6320     7.5010     1.0760 H     1 <1>   0.0800 
 44 H        4.1950     8.3680    -0.3510 H     1 <1>   0.0800 
 45 H        7.1940     4.3310     0.6520 H     1 <1>   0.0800 
 46 H        6.3740     5.5960     1.5030 H     1 <1>   0.0800 
 47 H        6.6710     7.9950     0.1050 H     1 <1>   0.0800 
 48 H        6.0930     7.7990    -1.5090 H     1 <1>   0.0800 
 49 H        6.4290     5.5000    -1.5260 H     1 <1>   0.0800 
 50 H        7.7730     6.1190    -0.6440 H     1 <1>   0.0800 
@<TRIPOS>BOND
  1   1   2  1   
  2   1   3  1   
  3   2   4  ar  
  4   2   5  ar  
  5   3  22  1   
  6   3  23  1   
  7   3  24  1   
  8   4   6  1   
  9   4   7  ar  
 10   5   8  ar  
 11   5  25  1   
 12   6   9  1   
 13   6  10  1   
 14   7  11  ar  
 15   7  26  1   
 16   8  11  ar  
 17   8  27  1   
 18   9  12  1   
 19   9  28  1   
 20   9  29  1   
 21  10  13  1   
 22  10  30  1   
 23  10  31  1   
 24  11  32  1   
 25  12  14  1   
 26  12  33  1   
 27  12  34  1   
 28  13  14  1   
 29  13  35  1   
 30  13  36  1   
 31  14  15  1   
 32  14  37  1   
 33  15  16  1   
 34  15  17  1   
 35  15  38  1   
 36  16  18  1   
 37  16  39  1   
 38  16  40  1   
 39  17  19  1   
 40  17  41  1   
 41  17  42  1   
 42  18  20  1   
 43  18  43  1   
 44  18  44  1   
 45  19  21  1   
 46  19  45  1   
 47  19  46  1   
 48  20  21  1   
 49  20  47  1   
 50  20  48  1   
 51  21  49  1   
 52  21  50  1   
@<TRIPOS>SUBSTRUCTURE
  1 ****   9 GROUP 4 **** **** 0

# MOE 2024.06 (io_trps.svl 2023.06)
