@<TRIPOS>MOLECULE
NONAME
49 51 1 0 0 
SMALL
USER_CHARGES


@<TRIPOS>ATOM
  1 O       -0.2540    -0.0400     1.0070 O.2   1 <1>  -0.5700 
  2 C       -0.2080     1.1700     0.9210 C.2   1 <1>   0.5440 
  3 N        0.9980     1.8180     0.7790 N.am  1 <1>  -0.5470 
  4 C       -1.4330     1.9430     0.9940 C.ar  1 <1>   0.0860 
  5 C        2.2890     1.3220     0.5400 C.ar  1 <1>   0.1170 
  6 C       -1.6340     3.0930     0.2300 C.ar  1 <1>  -0.1500 
  7 C       -2.4720     1.5490     1.8370 C.ar  1 <1>  -0.1500 
  8 C        2.5300     0.0950    -0.0690 C.ar  1 <1>  -0.1500 
  9 C        3.3820     2.0990     0.9030 C.ar  1 <1>  -0.1500 
 10 C       -2.8140     3.8110     0.2990 C.ar  1 <1>  -0.1500 
 11 C       -3.6540     2.2610     1.9140 C.ar  1 <1>  -0.1500 
 12 C        3.8220    -0.3420    -0.3020 C.ar  1 <1>  -0.1500 
 13 C        4.6750     1.6660     0.6710 C.ar  1 <1>  -0.1500 
 14 C       -3.8390     3.3940     1.1370 C.ar  1 <1>  -0.1430 
 15 C        4.9040     0.4400     0.0670 C.ar  1 <1>  -0.1430 
 16 C       -5.1510     4.1560     1.1970 C.3   1 <1>   0.4860 
 17 C        6.3230    -0.0410    -0.1890 C.3   1 <1>  -0.0170 
 18 N       -5.9540     3.8140    -0.0100 N.4   1 <1>  -0.9590 
 19 C        6.8090     0.4260    -1.5630 C.3   1 <1>  -0.2400 
 20 C       -7.1960     4.6540    -0.1130 C.3   1 <1>   0.3430 
 21 C       -6.2970     2.3470    -0.0590 C.3   1 <1>   0.3430 
 22 C       -8.0770     4.2180    -1.3000 C.3   1 <1>   0.1200 
 23 C       -7.2200     2.0210    -1.2480 C.3   1 <1>   0.1200 
 24 O       -8.3470     2.8480    -1.2230 O.3   1 <1>  -0.5600 
 25 H        0.9660     2.8180     0.9570 H     1 <1>   0.3700 
 26 H       -0.8560     3.4220    -0.4390 H     1 <1>   0.1500 
 27 H       -2.3380     0.6630     2.4380 H     1 <1>   0.1500 
 28 H        1.7070    -0.5280    -0.3670 H     1 <1>   0.1500 
 29 H        3.2270     3.0510     1.3760 H     1 <1>   0.1500 
 30 H       -2.9200     4.6940    -0.3080 H     1 <1>   0.1500 
 31 H       -4.4220     1.9150     2.5870 H     1 <1>   0.1500 
 32 H        3.9790    -1.2960    -0.7730 H     1 <1>   0.1500 
 33 H        5.5050     2.2850     0.9610 H     1 <1>   0.1500 
 34 H       -4.9490     5.2140     1.2220 H     1 <1>   0.0800 
 35 H       -5.6910     3.8900     2.0910 H     1 <1>   0.0800 
 36 H        6.3560    -1.1160    -0.1400 H     1 <1>   0.0800 
 37 H        6.9790     0.3390     0.5750 H     1 <1>   0.0800 
 38 H       -5.3630     4.0050    -0.8280 H     1 <1>   0.4500 
 39 H        6.1680     0.0370    -2.3340 H     1 <1>   0.0800 
 40 H        7.8120     0.0810    -1.7390 H     1 <1>   0.0800 
 41 H        6.7970     1.5000    -1.6150 H     1 <1>   0.0800 
 42 H       -6.9340     5.6930    -0.2280 H     1 <1>   0.0800 
 43 H       -7.7790     4.5570     0.7890 H     1 <1>   0.0800 
 44 H       -6.8010     2.0580     0.8480 H     1 <1>   0.0800 
 45 H       -5.3970     1.7580    -0.1380 H     1 <1>   0.0800 
 46 H       -7.5980     4.4260    -2.2410 H     1 <1>   0.0800 
 47 H       -9.0190     4.7380    -1.2740 H     1 <1>   0.0800 
 48 H       -7.5610     1.0020    -1.1850 H     1 <1>   0.0800 
 49 H       -6.7110     2.1540    -2.1870 H     1 <1>   0.0800 
@<TRIPOS>BOND
  1   1   2  2   
  2   2   3  am  
  3   2   4  1   
  4   3   5  1   
  5   3  25  1   
  6   4   6  ar  
  7   4   7  ar  
  8   5   8  ar  
  9   5   9  ar  
 10   6  10  ar  
 11   6  26  1   
 12   7  11  ar  
 13   7  27  1   
 14   8  12  ar  
 15   8  28  1   
 16   9  13  ar  
 17   9  29  1   
 18  10  14  ar  
 19  10  30  1   
 20  11  14  ar  
 21  11  31  1   
 22  12  15  ar  
 23  12  32  1   
 24  13  15  ar  
 25  13  33  1   
 26  14  16  1   
 27  15  17  1   
 28  16  18  1   
 29  16  34  1   
 30  16  35  1   
 31  17  19  1   
 32  17  36  1   
 33  17  37  1   
 34  18  20  1   
 35  18  21  1   
 36  18  38  1   
 37  19  39  1   
 38  19  40  1   
 39  19  41  1   
 40  20  22  1   
 41  20  42  1   
 42  20  43  1   
 43  21  23  1   
 44  21  44  1   
 45  21  45  1   
 46  22  24  1   
 47  22  46  1   
 48  22  47  1   
 49  23  24  1   
 50  23  48  1   
 51  23  49  1   
@<TRIPOS>SUBSTRUCTURE
  1 ****   4 GROUP 4 **** **** 0

# MOE 2024.06 (io_trps.svl 2023.06)
