@<TRIPOS>MOLECULE
NONAME
51 53 1 0 0 
SMALL
USER_CHARGES


@<TRIPOS>ATOM
  1 S        0.5700     0.7910    -0.9190 S.o2  1 <1>   1.4470 
  2 O        0.0140     1.8470    -0.1040 O.2   1 <1>  -0.6500 
  3 O        1.2790     1.1130    -2.1350 O.2   1 <1>  -0.6500 
  4 N        1.7210     0.0170     0.0110 N.am  1 <1>  -0.9140 
  5 C       -0.6760    -0.4920    -1.2220 C.ar  1 <1>  -0.0090 
  6 C        2.5530     0.9620     0.7200 C.3   1 <1>   0.3390 
  7 C       -1.5470    -0.8950    -0.2220 C.ar  1 <1>  -0.1500 
  8 C       -0.7820    -1.1190    -2.4590 C.ar  1 <1>  -0.1500 
  9 C        3.8240     0.2480     1.1400 C.ar  1 <1>  -0.1440 
 10 C       -2.5140    -1.8820    -0.4110 C.ar  1 <1>   0.0860 
 11 C       -1.7200    -2.1090    -2.6810 C.ar  1 <1>  -0.1500 
 12 C        3.7810    -0.7360     2.1170 C.ar  1 <1>  -0.1500 
 13 C        5.0390     0.5670     0.5510 C.ar  1 <1>  -0.1500 
 14 C       -2.5850    -2.5010    -1.6640 C.ar  1 <1>   0.0830 
 15 C       -3.3860    -2.2390     0.6900 C.2   1 <1>   0.5440 
 16 C        4.9370    -1.3900     2.5050 C.ar  1 <1>  -0.1500 
 17 C        6.1970    -0.0880     0.9380 C.ar  1 <1>  -0.1500 
 18 O       -3.5050    -3.4790    -1.8410 O.3   1 <1>  -0.3620 
 19 O       -2.8920    -2.7470     1.6800 O.2   1 <1>  -0.5700 
 20 N       -4.7410    -1.9680     0.6730 N.am  1 <1>  -0.6600 
 21 C        6.1460    -1.0660     1.9150 C.ar  1 <1>  -0.1500 
 22 C       -3.5640    -4.2770    -3.0030 C.3   1 <1>   0.0400 
 23 C       -5.3910    -1.2310    -0.4520 C.3   1 <1>   0.1400 
 24 C       -5.6370    -2.3840     1.7880 C.3   1 <1>   0.1400 
 25 C       -6.7900    -0.7150    -0.0810 C.3   1 <1>  -0.1600 
 26 C       -6.3430    -1.1570     2.3860 C.3   1 <1>  -0.1600 
 27 C       -6.8090    -0.1280     1.3370 C.3   1 <1>  -0.1600 
 28 H        2.3380    -0.4300    -0.6620 H     1 <1>   0.4200 
 29 H        2.0290     1.3340     1.5850 H     1 <1>   0.0800 
 30 H        2.8010     1.7980     0.0850 H     1 <1>   0.0800 
 31 H       -1.4800    -0.4320     0.7500 H     1 <1>   0.1500 
 32 H       -0.1190    -0.8270    -3.2580 H     1 <1>   0.1500 
 33 H       -1.7610    -2.5640    -3.6530 H     1 <1>   0.1500 
 34 H        2.8420    -0.9960     2.5760 H     1 <1>   0.1500 
 35 H        5.0950     1.3250    -0.2110 H     1 <1>   0.1500 
 36 H        4.8960    -2.1520     3.2640 H     1 <1>   0.1500 
 37 H        7.1370     0.1640     0.4780 H     1 <1>   0.1500 
 38 H        7.0460    -1.5740     2.2160 H     1 <1>   0.1500 
 39 H       -4.3350    -5.0130    -2.8610 H     1 <1>   0.0800 
 40 H       -2.6160    -4.7640    -3.1410 H     1 <1>   0.0800 
 41 H       -3.8060    -3.6530    -3.8450 H     1 <1>   0.0800 
 42 H       -5.4640    -1.8790    -1.3080 H     1 <1>   0.0800 
 43 H       -4.7700    -0.3920    -0.7160 H     1 <1>   0.0800 
 44 H       -5.0890    -2.8980     2.5580 H     1 <1>   0.0800 
 45 H       -6.3680    -3.0700     1.3960 H     1 <1>   0.0800 
 46 H       -7.4960    -1.5230    -0.1500 H     1 <1>   0.0800 
 47 H       -7.0890     0.0350    -0.7920 H     1 <1>   0.0800 
 48 H       -5.6720    -0.6780     3.0760 H     1 <1>   0.0800 
 49 H       -7.1890    -1.5020     2.9540 H     1 <1>   0.0800 
 50 H       -7.7970     0.2230     1.5800 H     1 <1>   0.0800 
 51 H       -6.1440     0.7180     1.3640 H     1 <1>   0.0800 
@<TRIPOS>BOND
  1   1   2  2   
  2   1   3  2   
  3   1   4  am  
  4   1   5  1   
  5   4   6  1   
  6   4  28  1   
  7   5   7  ar  
  8   5   8  ar  
  9   6   9  1   
 10   6  29  1   
 11   6  30  1   
 12   7  10  ar  
 13   7  31  1   
 14   8  11  ar  
 15   8  32  1   
 16   9  12  ar  
 17   9  13  ar  
 18  10  14  ar  
 19  10  15  1   
 20  11  14  ar  
 21  11  33  1   
 22  12  16  ar  
 23  12  34  1   
 24  13  17  ar  
 25  13  35  1   
 26  14  18  1   
 27  15  19  2   
 28  15  20  am  
 29  16  21  ar  
 30  16  36  1   
 31  17  21  ar  
 32  17  37  1   
 33  18  22  1   
 34  20  23  1   
 35  20  24  1   
 36  21  38  1   
 37  22  39  1   
 38  22  40  1   
 39  22  41  1   
 40  23  25  1   
 41  23  42  1   
 42  23  43  1   
 43  24  26  1   
 44  24  44  1   
 45  24  45  1   
 46  25  27  1   
 47  25  46  1   
 48  25  47  1   
 49  26  27  1   
 50  26  48  1   
 51  26  49  1   
 52  27  50  1   
 53  27  51  1   
@<TRIPOS>SUBSTRUCTURE
  1 ****   7 GROUP 4 **** **** 0

# MOE 2024.06 (io_trps.svl 2023.06)
