@<TRIPOS>MOLECULE
NONAME
39 40 1 0 0 
SMALL
USER_CHARGES


@<TRIPOS>ATOM
  1 CL       0.9100     0.7870    -0.3700 Cl    1 <1>  -0.1770 
  2 C        2.1490    -0.4140    -0.1190 C.ar  1 <1>   0.1770 
  3 C        2.1150    -1.5860    -0.8510 C.ar  1 <1>  -0.1500 
  4 C        3.1470    -0.1760     0.8070 C.ar  1 <1>  -0.1500 
  5 C        3.1020    -2.5380    -0.6520 C.ar  1 <1>  -0.1500 
  6 C        4.1300    -1.1320     1.0020 C.ar  1 <1>  -0.1500 
  7 C        4.1110    -2.3150     0.2750 C.ar  1 <1>  -0.1430 
  8 C        5.2010    -3.3490     0.4960 C.3   1 <1>   0.2840 
  9 N        6.4200    -2.8660    -0.1730 N.am  1 <1>  -0.7300 
 10 C        7.6650    -2.9310     0.3590 C.2   1 <1>   0.5690 
 11 O        7.8720    -3.4980     1.4050 O.2   1 <1>  -0.5700 
 12 C        8.8070    -2.2520    -0.3970 C.3   1 <1>  -0.0190 
 13 C       10.1950    -2.8030    -0.0080 C.3   1 <1>  -0.1600 
 14 C        8.7720    -0.7260    -0.1880 C.3   1 <1>  -0.1600 
 15 C       11.3200    -2.0820    -0.7540 C.3   1 <1>   0.1400 
 16 C        9.9140    -0.0240    -0.9290 C.3   1 <1>   0.1400 
 17 N       11.2140    -0.6160    -0.5110 N.am  1 <1>  -0.6600 
 18 C       12.1850     0.1600     0.0700 C.2   1 <1>   0.5690 
 19 O       12.0560     1.3510     0.2180 O.2   1 <1>  -0.5700 
 20 C       13.4770    -0.4550     0.5550 C.3   1 <1>  -0.1790 
 21 H        1.3270    -1.7470    -1.5650 H     1 <1>   0.1500 
 22 H        3.1520     0.7430     1.3640 H     1 <1>   0.1500 
 23 H        3.0780    -3.4520    -1.2220 H     1 <1>   0.1500 
 24 H        4.9130    -0.9540     1.7200 H     1 <1>   0.1500 
 25 H        4.9150    -4.2990     0.0780 H     1 <1>   0.0800 
 26 H        5.3790    -3.4800     1.5500 H     1 <1>   0.0800 
 27 H        6.2470    -2.3320    -1.0250 H     1 <1>   0.3700 
 28 H        8.6600    -2.4510    -1.4430 H     1 <1>   0.0800 
 29 H       10.2390    -3.8550    -0.2260 H     1 <1>   0.0800 
 30 H       10.3520    -2.6840     1.0510 H     1 <1>   0.0800 
 31 H        8.8540    -0.5030     0.8630 H     1 <1>   0.0800 
 32 H        7.8340    -0.3280    -0.5320 H     1 <1>   0.0800 
 33 H       11.2350    -2.2660    -1.8110 H     1 <1>   0.0800 
 34 H       12.2690    -2.4670    -0.4270 H     1 <1>   0.0800 
 35 H        9.8860     1.0300    -0.7120 H     1 <1>   0.0800 
 36 H        9.7980    -0.1460    -1.9920 H     1 <1>   0.0800 
 37 H       14.0090    -0.8860    -0.2710 H     1 <1>   0.0800 
 38 H       13.2680    -1.2070     1.2930 H     1 <1>   0.0800 
 39 H       14.0930     0.3030     1.0030 H     1 <1>   0.0800 
@<TRIPOS>BOND
  1   1   2  1   
  2   2   3  ar  
  3   2   4  ar  
  4   3   5  ar  
  5   3  21  1   
  6   4   6  ar  
  7   4  22  1   
  8   5   7  ar  
  9   5  23  1   
 10   6   7  ar  
 11   6  24  1   
 12   7   8  1   
 13   8   9  1   
 14   8  25  1   
 15   8  26  1   
 16   9  10  am  
 17   9  27  1   
 18  10  11  2   
 19  10  12  1   
 20  12  13  1   
 21  12  14  1   
 22  12  28  1   
 23  13  15  1   
 24  13  29  1   
 25  13  30  1   
 26  14  16  1   
 27  14  31  1   
 28  14  32  1   
 29  15  17  1   
 30  15  33  1   
 31  15  34  1   
 32  16  17  1   
 33  16  35  1   
 34  16  36  1   
 35  17  18  am  
 36  18  19  2   
 37  18  20  1   
 38  20  37  1   
 39  20  38  1   
 40  20  39  1   
@<TRIPOS>SUBSTRUCTURE
  1 ****  10 GROUP 4 **** **** 0

# MOE 2024.06 (io_trps.svl 2023.06)
