@<TRIPOS>MOLECULE
NONAME
44 46 1 0 0 
SMALL
USER_CHARGES


@<TRIPOS>ATOM
  1 O        0.1790    -0.6110     0.6830 O.2   1 <1>  -0.5700 
  2 C       -0.0300    -1.5120    -0.0880 C.2   1 <1>   0.5690 
  3 N        0.9190    -2.2190    -0.7670 N.am  1 <1>  -0.4200 
  4 C       -1.4290    -1.9750    -0.4660 C.3   1 <1>  -0.0190 
  5 C        0.3490    -3.1020    -1.6270 C.2   1 <1>   0.5690 
  6 C        2.3910    -2.0610    -0.6470 C.3   1 <1>   0.2200 
  7 C       -2.2500    -2.5250     0.7260 C.3   1 <1>   0.0630 
  8 C       -1.1550    -3.0460    -1.5480 C.3   1 <1>  -0.0990 
  9 O        0.9330    -3.8480    -2.3690 O.2   1 <1>  -0.5700 
 10 C        2.8650    -2.3600     0.7840 C.3   1 <1>  -0.1600 
 11 C        2.8380    -0.6660    -1.1100 C.3   1 <1>  -0.1600 
 12 C       -3.5350    -3.1960     0.2410 C.ar  1 <1>  -0.1440 
 13 C       -2.6110    -1.4490     1.7610 C.3   1 <1>  -0.2400 
 14 C        4.3890    -2.2020     0.9010 C.3   1 <1>  -0.1600 
 15 C        4.3610    -0.5100    -0.9900 C.3   1 <1>  -0.1600 
 16 C       -4.4920    -2.4840    -0.4700 C.ar  1 <1>  -0.1500 
 17 C       -3.7580    -4.5400     0.5070 C.ar  1 <1>  -0.1500 
 18 C        4.8380    -0.8090     0.4380 C.3   1 <1>  -0.1600 
 19 C       -5.6460    -3.1060    -0.9140 C.ar  1 <1>  -0.1500 
 20 C       -4.9120    -5.1630     0.0640 C.ar  1 <1>  -0.1500 
 21 C       -5.8570    -4.4470    -0.6480 C.ar  1 <1>  -0.1500 
 22 H       -1.9450    -1.1430    -0.9100 H     1 <1>   0.0800 
 23 H        2.8610    -2.7810    -1.2960 H     1 <1>   0.0800 
 24 H       -1.6480    -3.2640     1.2290 H     1 <1>   0.0800 
 25 H       -1.5600    -2.7540    -2.4990 H     1 <1>   0.0800 
 26 H       -1.5250    -4.0200    -1.2840 H     1 <1>   0.0800 
 27 H        2.5900    -3.3640     1.0520 H     1 <1>   0.0800 
 28 H        2.3970    -1.6800     1.4750 H     1 <1>   0.0800 
 29 H        2.3680     0.0890    -0.5060 H     1 <1>   0.0800 
 30 H        2.5450    -0.5170    -2.1340 H     1 <1>   0.0800 
 31 H       -3.1110    -0.6190     1.2950 H     1 <1>   0.0800 
 32 H       -1.7330    -1.0840     2.2620 H     1 <1>   0.0800 
 33 H       -3.2660    -1.8660     2.5060 H     1 <1>   0.0800 
 34 H        4.8740    -2.9520     0.2990 H     1 <1>   0.0800 
 35 H        4.6890    -2.3560     1.9240 H     1 <1>   0.0800 
 36 H        4.6430     0.4930    -1.2610 H     1 <1>   0.0800 
 37 H        4.8460    -1.1850    -1.6760 H     1 <1>   0.0800 
 38 H       -4.3480    -1.4400    -0.6820 H     1 <1>   0.1500 
 39 H       -3.0370    -5.1140     1.0620 H     1 <1>   0.1500 
 40 H        5.9120    -0.7450     0.4800 H     1 <1>   0.0800 
 41 H        4.4380    -0.0670     1.1080 H     1 <1>   0.0800 
 42 H       -6.3820    -2.5460    -1.4640 H     1 <1>   0.1500 
 43 H       -5.0760    -6.2060     0.2740 H     1 <1>   0.1500 
 44 H       -6.7540    -4.9310    -0.9930 H     1 <1>   0.1500 
@<TRIPOS>BOND
  1   1   2  2   
  2   2   3  am  
  3   2   4  1   
  4   3   5  am  
  5   3   6  1   
  6   4   7  1   
  7   4   8  1   
  8   4  22  1   
  9   5   8  1   
 10   5   9  2   
 11   6  10  1   
 12   6  11  1   
 13   6  23  1   
 14   7  12  1   
 15   7  13  1   
 16   7  24  1   
 17   8  25  1   
 18   8  26  1   
 19  10  14  1   
 20  10  27  1   
 21  10  28  1   
 22  11  15  1   
 23  11  29  1   
 24  11  30  1   
 25  12  16  ar  
 26  12  17  ar  
 27  13  31  1   
 28  13  32  1   
 29  13  33  1   
 30  14  18  1   
 31  14  34  1   
 32  14  35  1   
 33  15  18  1   
 34  15  36  1   
 35  15  37  1   
 36  16  19  ar  
 37  16  38  1   
 38  17  20  ar  
 39  17  39  1   
 40  18  40  1   
 41  18  41  1   
 42  19  21  ar  
 43  19  42  1   
 44  20  21  ar  
 45  20  43  1   
 46  21  44  1   
@<TRIPOS>SUBSTRUCTURE
  1 ****   4 GROUP 4 **** **** 0

# MOE 2024.06 (io_trps.svl 2023.06)
