@<TRIPOS>MOLECULE
NONAME
44 46 1 0 0 
SMALL
USER_CHARGES


@<TRIPOS>ATOM
  1 N        1.0690    -0.1070    -0.7190 N.ar  1 <1>  -0.6200 
  2 C        1.5810     0.6510     0.2490 C.ar  1 <1>   0.7200 
  3 C        0.1620     0.4670    -1.4750 C.ar  1 <1>   0.1600 
  4 N        1.3050     1.9270     0.4860 N.ar  1 <1>  -0.6200 
  5 N        2.5230     0.0640     1.0630 N.pl3 1 <1>  -0.8380 
  6 C       -0.2180     1.7740    -1.2950 C.ar  1 <1>  -0.1500 
  7 C        0.3960     2.4740    -0.2850 C.ar  1 <1>   0.1600 
  8 C        2.6450    -1.4200     1.1310 C.3   1 <1>   0.2090 
  9 C        3.8090     0.7800     1.3040 C.3   1 <1>   0.2090 
 10 C        3.6830    -1.9010     0.0960 C.3   1 <1>   0.3430 
 11 C        4.8690     0.3000     0.2900 C.3   1 <1>   0.3430 
 12 N        5.0170    -1.2080     0.2560 N.4   1 <1>  -0.9590 
 13 C        5.9790    -1.6310    -0.7950 C.3   1 <1>   0.4860 
 14 C        7.3420    -1.0660    -0.4490 C.ar  1 <1>  -0.1430 
 15 C        8.1020    -1.6380     0.5610 C.ar  1 <1>  -0.1500 
 16 C        7.8370     0.0330    -1.1350 C.ar  1 <1>  -0.1500 
 17 C        9.3360    -1.1050     0.8890 C.ar  1 <1>  -0.1500 
 18 C        9.0710     0.5630    -0.8020 C.ar  1 <1>  -0.1500 
 19 C        9.8260     0.0000     0.2130 C.ar  1 <1>  -0.1430 
 20 C       11.1830     0.5820     0.5740 C.3   1 <1>  -0.0170 
 21 C       12.2880    -0.0790    -0.2520 C.3   1 <1>  -0.2400 
 22 H       -0.2910    -0.1170    -2.2590 H     1 <1>   0.1500 
 23 H       -0.9640     2.2320    -1.9180 H     1 <1>   0.1500 
 24 H        0.1340     3.5040    -0.1080 H     1 <1>   0.1500 
 25 H        1.6920    -1.8840     0.9370 H     1 <1>   0.0800 
 26 H        2.9460    -1.7100     2.1220 H     1 <1>   0.0800 
 27 H        4.1430     0.5900     2.3090 H     1 <1>   0.0800 
 28 H        3.6800     1.8450     1.2050 H     1 <1>   0.0800 
 29 H        3.2840    -1.6970    -0.8840 H     1 <1>   0.0800 
 30 H        3.8060    -2.9670     0.1900 H     1 <1>   0.0800 
 31 H        5.8150     0.7570     0.5320 H     1 <1>   0.0800 
 32 H        4.5740     0.6530    -0.6850 H     1 <1>   0.0800 
 33 H        5.4250    -1.4810     1.1570 H     1 <1>   0.4500 
 34 H        5.6630    -1.2680    -1.7600 H     1 <1>   0.0800 
 35 H        6.0400    -2.7060    -0.8360 H     1 <1>   0.0800 
 36 H        7.7550    -2.5020     1.1010 H     1 <1>   0.1500 
 37 H        7.2780     0.4890    -1.9340 H     1 <1>   0.1500 
 38 H        9.9240    -1.5560     1.6720 H     1 <1>   0.1500 
 39 H        9.4490     1.4160    -1.3410 H     1 <1>   0.1500 
 40 H       11.3780     0.4310     1.6220 H     1 <1>   0.0800 
 41 H       11.1850     1.6430     0.3930 H     1 <1>   0.0800 
 42 H       12.3090    -1.1380    -0.0650 H     1 <1>   0.0800 
 43 H       13.2440     0.3370     0.0080 H     1 <1>   0.0800 
 44 H       12.1150     0.0820    -1.3020 H     1 <1>   0.0800 
@<TRIPOS>BOND
  1   1   2  ar  
  2   1   3  ar  
  3   2   4  ar  
  4   2   5  1   
  5   3   6  ar  
  6   3  22  1   
  7   4   7  ar  
  8   5   8  1   
  9   5   9  1   
 10   6   7  ar  
 11   6  23  1   
 12   7  24  1   
 13   8  10  1   
 14   8  25  1   
 15   8  26  1   
 16   9  11  1   
 17   9  27  1   
 18   9  28  1   
 19  10  12  1   
 20  10  29  1   
 21  10  30  1   
 22  11  12  1   
 23  11  31  1   
 24  11  32  1   
 25  12  13  1   
 26  12  33  1   
 27  13  14  1   
 28  13  34  1   
 29  13  35  1   
 30  14  15  ar  
 31  14  16  ar  
 32  15  17  ar  
 33  15  36  1   
 34  16  18  ar  
 35  16  37  1   
 36  17  19  ar  
 37  17  38  1   
 38  18  19  ar  
 39  18  39  1   
 40  19  20  1   
 41  20  21  1   
 42  20  40  1   
 43  20  41  1   
 44  21  42  1   
 45  21  43  1   
 46  21  44  1   
@<TRIPOS>SUBSTRUCTURE
  1 ****  11 GROUP 4 **** **** 0

# MOE 2024.06 (io_trps.svl 2023.06)
