@<TRIPOS>MOLECULE
NONAME
39 40 1 0 0 
SMALL
USER_CHARGES


@<TRIPOS>ATOM
  1 CL       5.6070    -1.8970    -0.2590 Cl    1 <1>  -0.1770 
  2 C        5.5980    -0.1540    -0.1860 C.ar  1 <1>   0.1770 
  3 C        5.7400     0.4750     1.0360 C.ar  1 <1>  -0.1500 
  4 C        5.4580     0.5710    -1.3540 C.ar  1 <1>  -0.1500 
  5 C        5.7410     1.8580     1.0890 C.ar  1 <1>  -0.1500 
  6 C        5.4620     1.9540    -1.2950 C.ar  1 <1>  -0.1500 
  7 C        5.5990     2.6030    -0.0750 C.ar  1 <1>  -0.1430 
  8 C        5.5790     4.1210    -0.0220 C.3   1 <1>   0.2140 
  9 S        7.2200     4.7460    -0.4800 S.3   1 <1>  -0.4600 
 10 C        8.2290     4.4570     1.0230 C.3   1 <1>   0.1310 
 11 C        8.9610     3.1210     0.9980 C.2   1 <1>   0.5690 
 12 O        9.3260     2.6500     2.0480 O.2   1 <1>  -0.5700 
 13 N        9.2020     2.5150    -0.1920 N.am  1 <1>  -0.7300 
 14 C        9.9820     1.2860    -0.3920 C.3   1 <1>   0.2200 
 15 C       10.9420     1.4990    -1.5660 C.3   1 <1>  -0.1600 
 16 C        9.0240     0.1230    -0.6580 C.3   1 <1>  -0.1600 
 17 C       11.7080     0.2110    -1.9010 C.3   1 <1>  -0.1600 
 18 C        9.7830    -1.1670    -0.9990 C.3   1 <1>  -0.1600 
 19 C       10.7440    -0.9510    -2.1760 C.3   1 <1>  -0.1600 
 20 H        5.8540    -0.1110     1.9300 H     1 <1>   0.1500 
 21 H        5.3520     0.0580    -2.2920 H     1 <1>   0.1500 
 22 H        5.8570     2.3470     2.0420 H     1 <1>   0.1500 
 23 H        5.3580     2.5260    -2.2020 H     1 <1>   0.1500 
 24 H        5.3480     4.4900     0.9610 H     1 <1>   0.0800 
 25 H        4.8790     4.5240    -0.7330 H     1 <1>   0.0800 
 26 H        7.5750     4.5070     1.8730 H     1 <1>   0.0800 
 27 H        8.9460     5.2540     1.0750 H     1 <1>   0.0800 
 28 H        8.7510     2.9020    -1.0240 H     1 <1>   0.3700 
 29 H       10.5530     1.0740     0.4980 H     1 <1>   0.0800 
 30 H       11.6440     2.2750    -1.3150 H     1 <1>   0.0800 
 31 H       10.3850     1.8080    -2.4340 H     1 <1>   0.0800 
 32 H        8.3730     0.3750    -1.4770 H     1 <1>   0.0800 
 33 H        8.4270    -0.0420     0.2200 H     1 <1>   0.0800 
 34 H       12.3500    -0.0470    -1.0760 H     1 <1>   0.0800 
 35 H       12.3310     0.3750    -2.7640 H     1 <1>   0.0800 
 36 H        9.0790    -1.9440    -1.2410 H     1 <1>   0.0800 
 37 H       10.3430    -1.4870    -0.1360 H     1 <1>   0.0800 
 38 H       11.3050    -1.8530    -2.3520 H     1 <1>   0.0800 
 39 H       10.1740    -0.7400    -3.0650 H     1 <1>   0.0800 
@<TRIPOS>BOND
  1   1   2  1   
  2   2   3  ar  
  3   2   4  ar  
  4   3   5  ar  
  5   3  20  1   
  6   4   6  ar  
  7   4  21  1   
  8   5   7  ar  
  9   5  22  1   
 10   6   7  ar  
 11   6  23  1   
 12   7   8  1   
 13   8   9  1   
 14   8  24  1   
 15   8  25  1   
 16   9  10  1   
 17  10  11  1   
 18  10  26  1   
 19  10  27  1   
 20  11  12  2   
 21  11  13  am  
 22  13  14  1   
 23  13  28  1   
 24  14  15  1   
 25  14  16  1   
 26  14  29  1   
 27  15  17  1   
 28  15  30  1   
 29  15  31  1   
 30  16  18  1   
 31  16  32  1   
 32  16  33  1   
 33  17  19  1   
 34  17  34  1   
 35  17  35  1   
 36  18  19  1   
 37  18  36  1   
 38  18  37  1   
 39  19  38  1   
 40  19  39  1   
@<TRIPOS>SUBSTRUCTURE
  1 ****  13 GROUP 4 **** **** 0

# MOE 2024.06 (io_trps.svl 2023.06)
