@<TRIPOS>MOLECULE
NONAME
43 43 1 0 0 
SMALL
USER_CHARGES


@<TRIPOS>ATOM
  1 S        0.1160    -0.0660    -0.3980 S.3   1 <1>  -0.3320 
  2 C        0.0830    -1.8460    -0.3330 C.ar  1 <1>   0.7220 
  3 C        1.8940     0.3240    -0.8170 C.3   1 <1>   0.2720 
  4 N       -0.9930    -2.3620     0.1670 N.ar  1 <1>  -0.6200 
  5 N        1.1320    -2.4450    -0.7980 N.ar  1 <1>  -0.6200 
  6 C        2.8140    -0.0740     0.3200 C.2   1 <1>   0.6590 
  7 C        2.0630     1.7990    -1.1250 C.2   1 <1>   0.4480 
  8 C       -0.9590    -3.6730     0.2010 C.ar  1 <1>   0.7200 
  9 C        1.0510    -3.7510    -0.7160 C.ar  1 <1>   0.7200 
 10 O        2.6820     0.3670     1.4350 O.2   1 <1>  -0.5700 
 11 O        3.7780    -0.9400     0.0190 O.3   1 <1>  -0.4300 
 12 O        2.7190     2.1520    -2.0590 O.2   1 <1>  -0.5700 
 13 C        1.3890     2.8340    -0.2390 C.3   1 <1>  -0.1790 
 14 N        0.0360    -4.4120    -0.2220 N.ar  1 <1>  -0.6200 
 15 N       -2.0590    -4.3200     0.7270 N.pl3 1 <1>  -0.8380 
 16 N        2.1270    -4.4730    -1.1850 N.pl3 1 <1>  -0.8380 
 17 C        4.6520    -1.4760     0.9890 C.3   1 <1>   0.1200 
 18 C       -3.3400    -3.6130     1.0130 C.3   1 <1>   0.1290 
 19 C       -2.0480    -5.7740     1.0540 C.3   1 <1>   0.1290 
 20 C        3.1750    -3.8730    -2.0610 C.3   1 <1>   0.1290 
 21 C        2.2890    -5.9270    -0.9020 C.3   1 <1>   0.1290 
 22 C        3.9570    -2.6410     1.6930 C.3   1 <1>  -0.2400 
 23 H        2.1370    -0.2440    -1.6940 H     1 <1>   0.0800 
 24 H        0.3260     2.8160    -0.3920 H     1 <1>   0.0800 
 25 H        1.7530     3.8130    -0.4900 H     1 <1>   0.0800 
 26 H        1.6010     2.6450     0.7960 H     1 <1>   0.0800 
 27 H        4.9250    -0.7010     1.6860 H     1 <1>   0.0800 
 28 H        5.5350    -1.8190     0.4790 H     1 <1>   0.0800 
 29 H       -3.4670    -2.7710     0.3540 H     1 <1>   0.0800 
 30 H       -3.3380    -3.2630     2.0310 H     1 <1>   0.0800 
 31 H       -4.1720    -4.2800     0.8690 H     1 <1>   0.0800 
 32 H       -1.0500    -6.1060     1.2830 H     1 <1>   0.0800 
 33 H       -2.4180    -6.3340     0.2130 H     1 <1>   0.0800 
 34 H       -2.6700    -5.9650     1.9100 H     1 <1>   0.0800 
 35 H        2.7730    -3.0500    -2.6260 H     1 <1>   0.0800 
 36 H        3.5420    -4.6080    -2.7560 H     1 <1>   0.0800 
 37 H        3.9910    -3.5170    -1.4580 H     1 <1>   0.0800 
 38 H        1.8490    -6.5010    -1.6990 H     1 <1>   0.0800 
 39 H        1.8080    -6.1900     0.0250 H     1 <1>   0.0800 
 40 H        3.3330    -6.1740    -0.8200 H     1 <1>   0.0800 
 41 H        3.0790    -2.2970     2.2110 H     1 <1>   0.0800 
 42 H        4.6230    -3.0780     2.4130 H     1 <1>   0.0800 
 43 H        3.6770    -3.3970     0.9830 H     1 <1>   0.0800 
@<TRIPOS>BOND
  1   1   2  1   
  2   1   3  1   
  3   2   4  ar  
  4   2   5  ar  
  5   3   6  1   
  6   3   7  1   
  7   3  23  1   
  8   4   8  ar  
  9   5   9  ar  
 10   6  10  2   
 11   6  11  1   
 12   7  12  2   
 13   7  13  1   
 14   8  14  ar  
 15   8  15  1   
 16   9  14  ar  
 17   9  16  1   
 18  11  17  1   
 19  13  24  1   
 20  13  25  1   
 21  13  26  1   
 22  15  18  1   
 23  15  19  1   
 24  16  20  1   
 25  16  21  1   
 26  17  22  1   
 27  17  27  1   
 28  17  28  1   
 29  18  29  1   
 30  18  30  1   
 31  18  31  1   
 32  19  32  1   
 33  19  33  1   
 34  19  34  1   
 35  20  35  1   
 36  20  36  1   
 37  20  37  1   
 38  21  38  1   
 39  21  39  1   
 40  21  40  1   
 41  22  41  1   
 42  22  42  1   
 43  22  43  1   
@<TRIPOS>SUBSTRUCTURE
  1 ****   5 GROUP 4 **** **** 0

# MOE 2024.06 (io_trps.svl 2023.06)
