@<TRIPOS>MOLECULE
NONAME
36 37 1 0 0 
SMALL
USER_CHARGES


@<TRIPOS>ATOM
  1 O        0.4040    -0.2370    -0.1390 O.2   1 <1>  -0.5700 
  2 C        1.4680    -0.8330    -0.1010 C.2   1 <1>   0.6900 
  3 N        1.4780    -2.2200    -0.2020 N.am  1 <1>  -0.4200 
  4 N        2.6520    -0.1330     0.0450 N.am  1 <1>  -0.4230 
  5 C        2.6650    -2.9260    -0.1160 C.2   1 <1>   0.7150 
  6 C        0.1850    -2.9490    -0.3640 C.3   1 <1>   0.0600 
  7 C        3.8470    -0.8390     0.1130 C.2   1 <1>   0.2900 
  8 C        2.7010     1.3490     0.1480 C.3   1 <1>   0.0600 
  9 O        2.6750    -4.1450    -0.1650 O.2   1 <1>  -0.5700 
 10 C        3.8630    -2.1860     0.0360 C.2   1 <1>  -0.2370 
 11 N        5.0730    -0.3230     0.2600 N.2   1 <1>  -0.5650 
 12 N        5.1680    -2.5490     0.1370 N.pl3 1 <1>   0.0480 
 13 C        5.8320    -1.3770     0.2710 C.2   1 <1>   0.0360 
 14 C        5.6770    -3.9430     0.1110 C.3   1 <1>   0.0960 
 15 C        7.2130    -4.0180     0.0970 C.3   1 <1>  -0.1600 
 16 C        7.7380    -5.4570    -0.0500 C.3   1 <1>  -0.0800 
 17 C        7.3420    -6.3420     1.1400 C.3   1 <1>  -0.2400 
 18 C        9.2640    -5.4390    -0.1850 C.3   1 <1>  -0.2400 
 19 H       -0.4720    -2.3950    -1.0130 H     1 <1>   0.0800 
 20 H       -0.2840    -3.0610     0.5970 H     1 <1>   0.0800 
 21 H        0.3440    -3.9220    -0.7950 H     1 <1>   0.0800 
 22 H        1.7220     1.7790     0.0360 H     1 <1>   0.0800 
 23 H        3.3440     1.7390    -0.6200 H     1 <1>   0.0800 
 24 H        3.0980     1.6250     1.1090 H     1 <1>   0.0800 
 25 H        6.9020    -1.3320     0.3790 H     1 <1>   0.1500 
 26 H        5.2860    -4.4260    -0.7660 H     1 <1>   0.0800 
 27 H        5.2870    -4.4510     0.9750 H     1 <1>   0.0800 
 28 H        7.6010    -3.5920     1.0070 H     1 <1>   0.0800 
 29 H        7.5770    -3.4390    -0.7350 H     1 <1>   0.0800 
 30 H        7.3280    -5.8890    -0.9490 H     1 <1>   0.0800 
 31 H        7.6880    -5.9140     2.0650 H     1 <1>   0.0800 
 32 H        7.7770    -7.3200     1.0350 H     1 <1>   0.0800 
 33 H        6.2750    -6.4660     1.1940 H     1 <1>   0.0800 
 34 H        9.7200    -5.0200     0.6950 H     1 <1>   0.0800 
 35 H        9.5600    -4.8530    -1.0370 H     1 <1>   0.0800 
 36 H        9.6400    -6.4390    -0.3210 H     1 <1>   0.0800 
@<TRIPOS>BOND
  1   1   2  2   
  2   2   3  am  
  3   2   4  am  
  4   3   5  am  
  5   3   6  1   
  6   4   7  1   
  7   4   8  1   
  8   5   9  2   
  9   5  10  1   
 10   6  19  1   
 11   6  20  1   
 12   6  21  1   
 13   7  10  2   
 14   7  11  1   
 15   8  22  1   
 16   8  23  1   
 17   8  24  1   
 18  10  12  1   
 19  11  13  2   
 20  12  13  1   
 21  12  14  1   
 22  13  25  1   
 23  14  15  1   
 24  14  26  1   
 25  14  27  1   
 26  15  16  1   
 27  15  28  1   
 28  15  29  1   
 29  16  17  1   
 30  16  18  1   
 31  16  30  1   
 32  17  31  1   
 33  17  32  1   
 34  17  33  1   
 35  18  34  1   
 36  18  35  1   
 37  18  36  1   
@<TRIPOS>SUBSTRUCTURE
  1 ****  10 GROUP 4 **** **** 0

# MOE 2024.06 (io_trps.svl 2023.06)
