@<TRIPOS>MOLECULE
NONAME
34 35 1 0 0 
SMALL
USER_CHARGES


@<TRIPOS>ATOM
  1 CL       5.3010    -0.0040     3.2130 Cl    1 <1>  -0.1770 
  2 C        5.2290     1.0070     1.7930 C.ar  1 <1>   0.1770 
  3 C        5.5350     0.4650     0.5600 C.ar  1 <1>  -0.1500 
  4 C        4.8690     2.3350     1.9230 C.ar  1 <1>  -0.1500 
  5 C        5.4860     1.2710    -0.5640 C.ar  1 <1>  -0.1500 
  6 C        4.8170     3.1350     0.7940 C.ar  1 <1>  -0.1500 
  7 C        5.1280     2.6080    -0.4540 C.ar  1 <1>  -0.1430 
  8 C        5.0710     3.4870    -1.6950 C.3   1 <1>   0.2140 
  9 S        6.1940     4.9010    -1.4780 S.3   1 <1>  -0.4600 
 10 C        7.7910     4.2960    -2.1370 C.3   1 <1>   0.1310 
 11 C        8.2170     2.9640    -1.5240 C.2   1 <1>   0.5690 
 12 O        8.2060     2.0010    -2.2570 O.2   1 <1>  -0.5700 
 13 N        8.6080     2.8660    -0.2120 N.am  1 <1>  -0.6600 
 14 C        9.0070     1.5600     0.3900 C.3   1 <1>   0.1400 
 15 C        8.5260     3.9630     0.7990 C.3   1 <1>   0.1400 
 16 C       10.2520     1.7280     1.2760 C.3   1 <1>   0.1200 
 17 C        9.7940     3.9970     1.6690 C.3   1 <1>   0.1200 
 18 O       10.0550     2.7400     2.2240 O.3   1 <1>  -0.5600 
 19 H        5.8110    -0.5710     0.4830 H     1 <1>   0.1500 
 20 H        4.6350     2.7330     2.8940 H     1 <1>   0.1500 
 21 H        5.7380     0.8540    -1.5250 H     1 <1>   0.1500 
 22 H        4.5380     4.1710     0.8860 H     1 <1>   0.1500 
 23 H        4.0830     3.8870    -1.8340 H     1 <1>   0.0800 
 24 H        5.3780     2.9590    -2.5810 H     1 <1>   0.0800 
 25 H        8.5260     5.0530    -1.9430 H     1 <1>   0.0800 
 26 H        7.6670     4.1860    -3.1990 H     1 <1>   0.0800 
 27 H        9.2120     0.8360    -0.3790 H     1 <1>   0.0800 
 28 H        8.1970     1.1870     0.9910 H     1 <1>   0.0800 
 29 H        7.6700     3.7930     1.4300 H     1 <1>   0.0800 
 30 H        8.4020     4.9190     0.3260 H     1 <1>   0.0800 
 31 H       11.1100     1.9770     0.6770 H     1 <1>   0.0800 
 32 H       10.4540     0.8150     1.8070 H     1 <1>   0.0800 
 33 H        9.6680     4.6930     2.4790 H     1 <1>   0.0800 
 34 H       10.6460     4.2980     1.0840 H     1 <1>   0.0800 
@<TRIPOS>BOND
  1   1   2  1   
  2   2   3  ar  
  3   2   4  ar  
  4   3   5  ar  
  5   3  19  1   
  6   4   6  ar  
  7   4  20  1   
  8   5   7  ar  
  9   5  21  1   
 10   6   7  ar  
 11   6  22  1   
 12   7   8  1   
 13   8   9  1   
 14   8  23  1   
 15   8  24  1   
 16   9  10  1   
 17  10  11  1   
 18  10  25  1   
 19  10  26  1   
 20  11  12  2   
 21  11  13  am  
 22  13  14  1   
 23  13  15  1   
 24  14  16  1   
 25  14  27  1   
 26  14  28  1   
 27  15  17  1   
 28  15  29  1   
 29  15  30  1   
 30  16  18  1   
 31  16  31  1   
 32  16  32  1   
 33  17  18  1   
 34  17  33  1   
 35  17  34  1   
@<TRIPOS>SUBSTRUCTURE
  1 ****  13 GROUP 4 **** **** 0

# MOE 2024.06 (io_trps.svl 2023.06)
