@<TRIPOS>MOLECULE
NONAME
46 49 1 0 0 
SMALL
USER_CHARGES


@<TRIPOS>ATOM
  1 O        1.1590    -1.5130     3.1480 O.2   1 <1>  -0.5750 
  2 C        1.7190    -2.2190     2.3420 C.2   1 <1>   0.6860 
  3 N        3.0480    -2.0330     1.9890 N.am  1 <1>  -0.4420 
  4 N        1.0100    -3.2350     1.7660 N.am  1 <1>  -0.4960 
  5 C        3.5960    -2.9050     1.0610 C.2   1 <1>   0.4200 
  6 C        3.8660    -0.9380     2.5870 C.3   1 <1>   0.0510 
  7 C        1.5330    -4.1050     0.8520 C.2   1 <1>   0.6990 
  8 N        4.8680    -2.9240     0.5790 N.pl3 1 <1>  -0.7040 
  9 C        2.9060    -3.9200     0.4880 C.2   1 <1>   0.2700 
 10 O        0.8290    -4.9840     0.3970 O.2   1 <1>  -0.5750 
 11 C        4.9750    -3.9430    -0.2710 C.cat 1 <1>   1.0690 
 12 N        3.8060    -4.5700    -0.3670 N.pl3 1 <1>  -0.7680 
 13 N        6.0720    -4.3200    -0.9570 N.pl3 1 <1>  -0.5800 
 14 C        3.5520    -5.7650    -1.1940 C.3   1 <1>   0.3470 
 15 C        7.3100    -3.6450    -0.8760 C.ar  1 <1>   0.3040 
 16 C        6.0360    -5.5960    -1.7230 C.3   1 <1>   0.1600 
 17 C        4.6280    -5.8470    -2.2820 C.3   1 <1>  -0.1680 
 18 C        7.9870    -3.4730     0.3410 C.ar  1 <1>   0.0740 
 19 C        7.8740    -3.1280    -2.0360 C.ar  1 <1>  -0.1580 
 20 O        7.4140    -3.9750     1.4740 O.3   1 <1>  -0.3690 
 21 C        9.2020    -2.7980     0.3670 C.ar  1 <1>  -0.1580 
 22 C        9.0830    -2.4570    -2.0050 C.ar  1 <1>  -0.1580 
 23 C        8.1830    -4.1720     2.6450 C.3   1 <1>   0.0310 
 24 C        9.7520    -2.2910    -0.7980 C.ar  1 <1>   0.0740 
 25 O       10.9390    -1.6460    -0.6740 O.3   1 <1>  -0.3690 
 26 C       11.6090    -1.1240    -1.8010 C.3   1 <1>   0.0310 
 27 H        0.0370    -3.3450     2.0460 H     1 <1>   0.3640 
 28 H        3.2600    -0.3050     3.2130 H     1 <1>   0.0710 
 29 H        4.2940    -0.3330     1.8070 H     1 <1>   0.0710 
 30 H        4.6530    -1.3590     3.1880 H     1 <1>   0.0710 
 31 H        5.6750    -2.3830     0.8850 H     1 <1>   0.4440 
 32 H        2.5740    -5.7070    -1.6430 H     1 <1>   0.0710 
 33 H        3.5900    -6.6420    -0.5680 H     1 <1>   0.0710 
 34 H        6.3210    -6.4030    -1.0670 H     1 <1>   0.0710 
 35 H        6.7440    -5.5640    -2.5350 H     1 <1>   0.0710 
 36 H        4.4150    -5.1240    -3.0500 H     1 <1>   0.0710 
 37 H        4.5920    -6.8190    -2.7430 H     1 <1>   0.0710 
 38 H        7.3650    -3.2460    -2.9760 H     1 <1>   0.1420 
 39 H        9.7500    -2.6430     1.2770 H     1 <1>   0.1420 
 40 H        9.4880    -2.0720    -2.9230 H     1 <1>   0.1420 
 41 H        7.5840    -4.7090     3.3580 H     1 <1>   0.0710 
 42 H        8.4610    -3.2150     3.0520 H     1 <1>   0.0710 
 43 H        9.0580    -4.7490     2.3980 H     1 <1>   0.0710 
 44 H       12.5280    -0.6770    -1.4660 H     1 <1>   0.0710 
 45 H       10.9880    -0.3790    -2.2650 H     1 <1>   0.0710 
 46 H       11.8230    -1.9280    -2.4840 H     1 <1>   0.0710 
@<TRIPOS>BOND
  1   1   2  2   
  2   2   3  am  
  3   2   4  am  
  4   3   5  1   
  5   3   6  1   
  6   4   7  am  
  7   4  27  1   
  8   5   8  1   
  9   5   9  2   
 10   6  28  1   
 11   6  29  1   
 12   6  30  1   
 13   7   9  1   
 14   7  10  2   
 15   8  11  ar  
 16   8  31  1   
 17   9  12  1   
 18  11  12  ar  
 19  11  13  ar  
 20  12  14  1   
 21  13  15  1   
 22  13  16  1   
 23  14  17  1   
 24  14  32  1   
 25  14  33  1   
 26  15  18  ar  
 27  15  19  ar  
 28  16  17  1   
 29  16  34  1   
 30  16  35  1   
 31  17  36  1   
 32  17  37  1   
 33  18  20  1   
 34  18  21  ar  
 35  19  22  ar  
 36  19  38  1   
 37  20  23  1   
 38  21  24  ar  
 39  21  39  1   
 40  22  24  ar  
 41  22  40  1   
 42  23  41  1   
 43  23  42  1   
 44  23  43  1   
 45  24  25  1   
 46  25  26  1   
 47  26  44  1   
 48  26  45  1   
 49  26  46  1   
@<TRIPOS>SUBSTRUCTURE
  1 ****   8 GROUP 4 **** **** 0

# MOE 2024.06 (io_trps.svl 2023.06)
