@<TRIPOS>MOLECULE
NONAME
40 42 1 0 0 
SMALL
USER_CHARGES


@<TRIPOS>ATOM
  1 S        0.1400     1.0630    -2.0060 S.3   1 <1>  -0.0800 
  2 C        1.5270     0.0250    -1.6480 C.2   1 <1>  -0.0450 
  3 C       -0.7540    -0.2550    -2.7360 C.2   1 <1>  -0.1100 
  4 C        2.6670     0.5960    -0.9950 C.2   1 <1>   0.4740 
  5 C        1.2470    -1.2320    -2.0880 C.2   1 <1>  -0.1500 
  6 C       -0.0310    -1.3880    -2.6980 C.2   1 <1>  -0.1500 
  7 N        2.8350     1.8010    -0.6200 N.2   1 <1>  -0.5120 
  8 C        3.8490    -0.2860    -0.6790 C.3   1 <1>  -0.0990 
  9 N        4.0690     1.9660    -0.0330 N.am  1 <1>  -0.2980 
 10 C        4.8330     0.6980    -0.0600 C.3   1 <1>   0.3640 
 11 C        4.5480     3.1360     0.5450 C.2   1 <1>   0.5690 
 12 C        6.1080     0.7980    -0.9020 C.ar  1 <1>  -0.1440 
 13 O        3.9300     4.1740     0.5460 O.2   1 <1>  -0.5700 
 14 C        5.9010     3.1570     1.2290 C.3   1 <1>  -0.1790 
 15 C        7.2650     0.1420    -0.4900 C.ar  1 <1>   0.0830 
 16 C        6.1240     1.5320    -2.0810 C.ar  1 <1>  -0.1500 
 17 O        7.2040    -0.5710     0.6650 O.3   1 <1>  -0.3620 
 18 C        8.4230     0.2350    -1.2580 C.ar  1 <1>  -0.1500 
 19 C        7.2770     1.6200    -2.8400 C.ar  1 <1>  -0.1500 
 20 C        8.3280    -1.2430     1.1850 C.3   1 <1>   0.1200 
 21 C        8.4260     0.9720    -2.4280 C.ar  1 <1>  -0.1500 
 22 C        7.9130    -1.9120     2.4910 C.3   1 <1>  -0.2400 
 23 H       -1.7350    -0.0370    -3.1200 H     1 <1>   0.1500 
 24 H        1.9110    -2.0740    -2.0050 H     1 <1>   0.1500 
 25 H       -0.3530    -2.3410    -3.0820 H     1 <1>   0.1500 
 26 H        4.2430    -0.7370    -1.5700 H     1 <1>   0.0800 
 27 H        3.5790    -1.0450     0.0300 H     1 <1>   0.0800 
 28 H        5.0460     0.4100     0.9540 H     1 <1>   0.0800 
 29 H        5.9940     2.3360     1.9130 H     1 <1>   0.0800 
 30 H        6.0100     4.0730     1.7790 H     1 <1>   0.0800 
 31 H        6.6810     3.1090     0.4930 H     1 <1>   0.0800 
 32 H        5.2370     2.0460    -2.4170 H     1 <1>   0.1500 
 33 H        9.3310    -0.2580    -0.9670 H     1 <1>   0.1500 
 34 H        7.2780     2.1950    -3.7500 H     1 <1>   0.1500 
 35 H        9.1090    -0.5220     1.3580 H     1 <1>   0.0800 
 36 H        8.6500    -1.9780     0.4660 H     1 <1>   0.0800 
 37 H        9.3230     1.0420    -3.0200 H     1 <1>   0.1500 
 38 H        7.5800    -1.1720     3.1970 H     1 <1>   0.0800 
 39 H        8.7520    -2.4340     2.9140 H     1 <1>   0.0800 
 40 H        7.1250    -2.6200     2.3110 H     1 <1>   0.0800 
@<TRIPOS>BOND
  1   1   2  1   
  2   1   3  1   
  3   2   4  1   
  4   2   5  2   
  5   3   6  2   
  6   3  23  1   
  7   4   7  2   
  8   4   8  1   
  9   5   6  1   
 10   5  24  1   
 11   6  25  1   
 12   7   9  1   
 13   8  10  1   
 14   8  26  1   
 15   8  27  1   
 16   9  10  1   
 17   9  11  am  
 18  10  12  1   
 19  10  28  1   
 20  11  13  2   
 21  11  14  1   
 22  12  15  ar  
 23  12  16  ar  
 24  14  29  1   
 25  14  30  1   
 26  14  31  1   
 27  15  17  1   
 28  15  18  ar  
 29  16  19  ar  
 30  16  32  1   
 31  17  20  1   
 32  18  21  ar  
 33  18  33  1   
 34  19  21  ar  
 35  19  34  1   
 36  20  22  1   
 37  20  35  1   
 38  20  36  1   
 39  21  37  1   
 40  22  38  1   
 41  22  39  1   
 42  22  40  1   
@<TRIPOS>SUBSTRUCTURE
  1 ****  10 GROUP 4 **** **** 0

# MOE 2024.06 (io_trps.svl 2023.06)
