@<TRIPOS>MOLECULE
NONAME
43 45 1 0 0 
SMALL
USER_CHARGES


@<TRIPOS>ATOM
  1 BR      -3.7160    -1.5230     0.0430 Br    1 <1>  -0.0580 
  2 C       -3.7190     0.2090    -0.7890 C.2   1 <1>   0.1980 
  3 O       -4.4980     1.1320    -0.2830 O.3   1 <1>  -0.2800 
  4 C       -3.0180     0.6340    -1.8570 C.2   1 <1>  -0.1500 
  5 C       -4.3330     2.2300    -1.0260 C.2   1 <1>   0.0550 
  6 C       -3.4230     1.9620    -2.0110 C.2   1 <1>  -0.1500 
  7 C       -5.0680     3.4350    -0.7320 C.2   1 <1>   0.7150 
  8 O       -4.9380     4.4200    -1.4330 O.2   1 <1>  -0.5700 
  9 N       -5.9400     3.4350     0.3320 N.am  1 <1>  -0.5470 
 10 C       -6.8160     4.3910     0.8740 C.ar  1 <1>   0.1170 
 11 C       -7.8170     3.9730     1.7690 C.ar  1 <1>   0.0860 
 12 C       -6.7180     5.7470     0.5670 C.ar  1 <1>  -0.1500 
 13 C       -7.9710     2.5830     2.1350 C.2   1 <1>   0.5440 
 14 C       -8.6710     4.9260     2.3210 C.ar  1 <1>  -0.1500 
 15 C       -7.5810     6.6740     1.1170 C.ar  1 <1>  -0.1500 
 16 O       -7.7980     2.2590     3.2950 O.2   1 <1>  -0.5700 
 17 N       -8.2990     1.6080     1.2120 N.am  1 <1>  -0.6600 
 18 C       -8.5630     6.2630     2.0000 C.ar  1 <1>  -0.1500 
 19 C       -8.8970     1.9060    -0.1210 C.3   1 <1>   0.1400 
 20 C       -8.3140     0.1630     1.5750 C.3   1 <1>   0.1400 
 21 C       -8.1830     1.1000    -1.2120 C.3   1 <1>  -0.1600 
 22 C       -7.5850    -0.6500     0.5020 C.3   1 <1>  -0.1600 
 23 C       -8.1670    -0.4030    -0.8980 C.3   1 <1>  -0.0800 
 24 C       -7.3620    -1.1650    -1.9570 C.3   1 <1>  -0.2400 
 25 H       -2.3120     0.0960    -2.4620 H     1 <1>   0.1500 
 26 H       -3.0760     2.6410    -2.7720 H     1 <1>   0.1500 
 27 H       -6.0260     2.5010     0.7470 H     1 <1>   0.3700 
 28 H       -5.9570     6.1000    -0.1040 H     1 <1>   0.1500 
 29 H       -9.4260     4.6020     3.0170 H     1 <1>   0.1500 
 30 H       -7.4870     7.7160     0.8620 H     1 <1>   0.1500 
 31 H       -9.2340     6.9850     2.4350 H     1 <1>   0.1500 
 32 H       -8.8350     2.9550    -0.3500 H     1 <1>   0.0800 
 33 H       -9.9390     1.6340    -0.0990 H     1 <1>   0.0800 
 34 H       -9.3350    -0.1670     1.6570 H     1 <1>   0.0800 
 35 H       -7.8340     0.0030     2.5260 H     1 <1>   0.0800 
 36 H       -7.1780     1.4620    -1.3140 H     1 <1>   0.0800 
 37 H       -8.6820     1.2670    -2.1500 H     1 <1>   0.0800 
 38 H       -7.6580    -1.6940     0.7470 H     1 <1>   0.0800 
 39 H       -6.5440    -0.3840     0.5230 H     1 <1>   0.0800 
 40 H       -9.1820    -0.7670    -0.9140 H     1 <1>   0.0800 
 41 H       -6.3410    -0.8240    -1.9750 H     1 <1>   0.0800 
 42 H       -7.7910    -1.0140    -2.9320 H     1 <1>   0.0800 
 43 H       -7.3670    -2.2190    -1.7430 H     1 <1>   0.0800 
@<TRIPOS>BOND
  1   1   2  1   
  2   2   3  1   
  3   2   4  2   
  4   3   5  1   
  5   4   6  1   
  6   4  25  1   
  7   5   6  2   
  8   5   7  1   
  9   6  26  1   
 10   7   8  2   
 11   7   9  am  
 12   9  10  1   
 13   9  27  1   
 14  10  11  ar  
 15  10  12  ar  
 16  11  13  1   
 17  11  14  ar  
 18  12  15  ar  
 19  12  28  1   
 20  13  16  2   
 21  13  17  am  
 22  14  18  ar  
 23  14  29  1   
 24  15  18  ar  
 25  15  30  1   
 26  17  19  1   
 27  17  20  1   
 28  18  31  1   
 29  19  21  1   
 30  19  32  1   
 31  19  33  1   
 32  20  22  1   
 33  20  34  1   
 34  20  35  1   
 35  21  23  1   
 36  21  36  1   
 37  21  37  1   
 38  22  23  1   
 39  22  38  1   
 40  22  39  1   
 41  23  24  1   
 42  23  40  1   
 43  24  41  1   
 44  24  42  1   
 45  24  43  1   
@<TRIPOS>SUBSTRUCTURE
  1 ****   9 GROUP 4 **** **** 0

# MOE 2024.06 (io_trps.svl 2023.06)
