@<TRIPOS>MOLECULE
NONAME
51 53 1 0 0 
SMALL
USER_CHARGES


@<TRIPOS>ATOM
  1 S        0.2220    -0.9700    -1.7410 S.o2  1 <1>   1.4470 
  2 O        1.3520    -1.8210    -2.0480 O.2   1 <1>  -0.6500 
  3 O       -0.0820     0.1480    -2.6060 O.2   1 <1>  -0.6500 
  4 N        0.5050    -0.3320    -0.1990 N.am  1 <1>  -0.8490 
  5 C       -1.2750    -1.9690    -1.5070 C.ar  1 <1>  -0.0090 
  6 C        1.3680     0.8630    -0.2430 C.3   1 <1>   0.1960 
  7 C        1.0210    -1.3140     0.7620 C.3   1 <1>   0.1960 
  8 C       -2.3240    -1.5100    -0.7250 C.ar  1 <1>  -0.1500 
  9 C       -1.4140    -3.2100    -2.1120 C.ar  1 <1>  -0.1500 
 10 C        2.0920     1.1600     1.0910 C.3   1 <1>   0.1200 
 11 C        1.1270    -0.7060     2.1810 C.3   1 <1>   0.1200 
 12 C       -3.4920    -2.2430    -0.5190 C.ar  1 <1>   0.0860 
 13 C       -2.5590    -3.9630    -1.9310 C.ar  1 <1>  -0.1500 
 14 O        1.3640     0.6800     2.1840 O.3   1 <1>  -0.5600 
 15 C       -3.5950    -3.4920    -1.1430 C.ar  1 <1>  -0.1430 
 16 C       -4.5370    -1.6830     0.3180 C.2   1 <1>   0.5440 
 17 C       -4.8410    -4.3530    -0.9720 C.3   1 <1>  -0.0960 
 18 O       -4.9740    -2.2940     1.2730 O.2   1 <1>  -0.5700 
 19 N       -5.0290    -0.4410     0.0380 N.am  1 <1>  -0.7300 
 20 C       -6.0490     0.2770     0.8190 C.3   1 <1>   0.2200 
 21 C       -7.2950     0.4680    -0.0510 C.3   1 <1>  -0.1600 
 22 C       -5.4700     1.6230     1.2670 C.3   1 <1>  -0.1600 
 23 C       -8.3560     1.3090     0.6760 C.3   1 <1>  -0.1600 
 24 C       -6.5260     2.4660     1.9960 C.3   1 <1>  -0.1600 
 25 C       -7.7790     2.6580     1.1300 C.3   1 <1>  -0.1600 
 26 H        0.7620     1.7120    -0.5100 H     1 <1>   0.0800 
 27 H        2.1160     0.7520    -1.0110 H     1 <1>   0.0800 
 28 H        1.9960    -1.6500     0.4490 H     1 <1>   0.0800 
 29 H        0.3760    -2.1750     0.7990 H     1 <1>   0.0800 
 30 H       -2.2300    -0.5490    -0.2480 H     1 <1>   0.1500 
 31 H       -0.6180    -3.5920    -2.7290 H     1 <1>   0.1500 
 32 H        2.2230     2.2200     1.2160 H     1 <1>   0.0800 
 33 H        3.0610     0.6930     1.1040 H     1 <1>   0.0800 
 34 H        1.9200    -1.1840     2.7290 H     1 <1>   0.0800 
 35 H        0.2060    -0.8670     2.7120 H     1 <1>   0.0800 
 36 H       -2.6360    -4.9240    -2.4110 H     1 <1>   0.1500 
 37 H       -5.7250    -3.7750    -1.1770 H     1 <1>   0.0800 
 38 H       -4.8980    -4.7160     0.0400 H     1 <1>   0.0800 
 39 H       -4.8280    -5.1980    -1.6360 H     1 <1>   0.0800 
 40 H       -4.6990     0.0500    -0.7920 H     1 <1>   0.3700 
 41 H       -6.3140    -0.2980     1.6920 H     1 <1>   0.0800 
 42 H       -7.7100    -0.4950    -0.2910 H     1 <1>   0.0800 
 43 H       -7.0240     0.9630    -0.9670 H     1 <1>   0.0800 
 44 H       -5.1190     2.1690     0.4090 H     1 <1>   0.0800 
 45 H       -4.6380     1.4480     1.9260 H     1 <1>   0.0800 
 46 H       -8.7100     0.7670     1.5360 H     1 <1>   0.0800 
 47 H       -9.1950     1.4760     0.0230 H     1 <1>   0.0800 
 48 H       -6.1110     3.4270     2.2490 H     1 <1>   0.0800 
 49 H       -6.8010     1.9740     2.9140 H     1 <1>   0.0800 
 50 H       -8.5240     3.1990     1.6880 H     1 <1>   0.0800 
 51 H       -7.5260     3.2460     0.2640 H     1 <1>   0.0800 
@<TRIPOS>BOND
  1   1   2  2   
  2   1   3  2   
  3   1   4  am  
  4   1   5  1   
  5   4   6  1   
  6   4   7  1   
  7   5   8  ar  
  8   5   9  ar  
  9   6  10  1   
 10   6  26  1   
 11   6  27  1   
 12   7  11  1   
 13   7  28  1   
 14   7  29  1   
 15   8  12  ar  
 16   8  30  1   
 17   9  13  ar  
 18   9  31  1   
 19  10  14  1   
 20  10  32  1   
 21  10  33  1   
 22  11  14  1   
 23  11  34  1   
 24  11  35  1   
 25  12  15  ar  
 26  12  16  1   
 27  13  15  ar  
 28  13  36  1   
 29  15  17  1   
 30  16  18  2   
 31  16  19  am  
 32  17  37  1   
 33  17  38  1   
 34  17  39  1   
 35  19  20  1   
 36  19  40  1   
 37  20  21  1   
 38  20  22  1   
 39  20  41  1   
 40  21  23  1   
 41  21  42  1   
 42  21  43  1   
 43  22  24  1   
 44  22  44  1   
 45  22  45  1   
 46  23  25  1   
 47  23  46  1   
 48  23  47  1   
 49  24  25  1   
 50  24  48  1   
 51  24  49  1   
 52  25  50  1   
 53  25  51  1   
@<TRIPOS>SUBSTRUCTURE
  1 ****   8 GROUP 4 **** **** 0

# MOE 2024.06 (io_trps.svl 2023.06)
