@<TRIPOS>MOLECULE
NONAME
32 32 1 0 0 
SMALL
USER_CHARGES


@<TRIPOS>ATOM
  1 O       -0.5320     0.7690    -0.9090 O.2   1 <1>  -0.5700 
  2 C       -1.1490     0.6400     0.1140 C.2   1 <1>   0.6590 
  3 O       -2.3470     0.0840     0.1620 O.3   1 <1>  -0.4300 
  4 C       -0.5960     1.1080     1.4350 C.3   1 <1>  -0.1790 
  5 C       -2.9620    -0.3930    -1.0120 C.3   1 <1>   0.2580 
  6 C       -4.3410    -0.9210    -0.6520 C.2   1 <1>  -0.2760 
  7 C       -5.5450    -0.4890    -1.0180 C.2   1 <1>  -0.2760 
  8 C       -4.4050    -2.1250     0.2640 C.3   1 <1>   0.1960 
  9 C       -6.6530    -1.3160    -0.4160 C.3   1 <1>  -0.0220 
 10 C       -5.9360     0.6670    -1.9210 C.3   1 <1>  -0.1020 
 11 C       -3.8420    -3.4020    -0.3700 C.2   1 <1>  -0.2760 
 12 C       -5.9150    -2.2670     0.5430 C.3   1 <1>  -0.1600 
 13 C       -3.7100    -3.6080    -1.6860 C.2   1 <1>  -0.3000 
 14 C       -3.4400    -4.4570     0.6480 C.3   1 <1>  -0.1020 
 15 H       -1.2580     1.8390     1.8600 H     1 <1>   0.0800 
 16 H        0.3720     1.5480     1.2880 H     1 <1>   0.0800 
 17 H       -0.5100     0.2730     2.1030 H     1 <1>   0.0800 
 18 H       -2.3470    -1.1720    -1.4280 H     1 <1>   0.0800 
 19 H       -3.0280     0.4200    -1.7130 H     1 <1>   0.0800 
 20 H       -3.8790    -1.8980     1.1750 H     1 <1>   0.0800 
 21 H       -7.1610    -1.8680    -1.1880 H     1 <1>   0.0800 
 22 H       -7.3560    -0.7000     0.1170 H     1 <1>   0.0800 
 23 H       -6.4970     0.3020    -2.7620 H     1 <1>   0.0800 
 24 H       -5.0670     1.1820    -2.2870 H     1 <1>   0.0800 
 25 H       -6.5420     1.3680    -1.3760 H     1 <1>   0.0800 
 26 H       -6.1110    -1.9700     1.5570 H     1 <1>   0.0800 
 27 H       -6.2500    -3.2800     0.4080 H     1 <1>   0.0800 
 28 H       -3.3140    -4.5070    -2.1220 H     1 <1>   0.1500 
 29 H       -3.9950    -2.8940    -2.4400 H     1 <1>   0.1500 
 30 H       -4.2860    -4.7390     1.2490 H     1 <1>   0.0800 
 31 H       -2.6670    -4.0760     1.2920 H     1 <1>   0.0800 
 32 H       -3.0660    -5.3370     0.1560 H     1 <1>   0.0800 
@<TRIPOS>BOND
  1   1   2  2   
  2   2   3  1   
  3   2   4  1   
  4   3   5  1   
  5   4  15  1   
  6   4  16  1   
  7   4  17  1   
  8   5   6  1   
  9   5  18  1   
 10   5  19  1   
 11   6   7  2   
 12   6   8  1   
 13   7   9  1   
 14   7  10  1   
 15   8  11  1   
 16   8  12  1   
 17   8  20  1   
 18   9  12  1   
 19   9  21  1   
 20   9  22  1   
 21  10  23  1   
 22  10  24  1   
 23  10  25  1   
 24  11  13  2   
 25  11  14  1   
 26  12  26  1   
 27  12  27  1   
 28  13  28  1   
 29  13  29  1   
 30  14  30  1   
 31  14  31  1   
 32  14  32  1   
@<TRIPOS>SUBSTRUCTURE
  1 ****   6 GROUP 4 **** **** 0

# MOE 2024.06 (io_trps.svl 2023.06)
