@<TRIPOS>MOLECULE
NONAME
45 46 1 0 0 
SMALL
USER_CHARGES


@<TRIPOS>ATOM
  1 O        0.3300     0.6010    -1.2000 O.2   1 <1>  -0.5700 
  2 C        0.9430     1.5010    -0.6750 C.2   1 <1>   0.5690 
  3 N        2.2820     1.3870    -0.4090 N.am  1 <1>  -0.6600 
  4 C        0.2060     2.7870    -0.3130 C.3   1 <1>  -0.0990 
  5 C        3.0120     0.1120    -0.6880 C.3   1 <1>   0.1400 
  6 C        3.1290     2.4770     0.1650 C.3   1 <1>   0.1400 
  7 C       -1.3310     2.6720    -0.3620 C.3   1 <1>  -0.1600 
  8 C        4.1530    -0.1180     0.3270 C.3   1 <1>   0.2000 
  9 C        4.6300     2.2120    -0.0740 C.3   1 <1>   0.2000 
 10 C       -2.0630     3.9280     0.1500 C.3   1 <1>  -0.0800 
 11 O        5.0240     0.9780     0.4560 O.3   1 <1>  -0.5600 
 12 C        5.0130    -1.3230    -0.0430 C.3   1 <1>  -0.2400 
 13 C        5.5130     3.2740     0.5750 C.3   1 <1>  -0.2400 
 14 C       -3.5750     3.6480     0.2180 C.3   1 <1>  -0.1600 
 15 C       -1.7890     5.1630    -0.7300 C.3   1 <1>  -0.1600 
 16 C       -4.3600     4.8740     0.7050 C.3   1 <1>  -0.1600 
 17 C       -2.5790     6.3890    -0.2510 C.3   1 <1>  -0.1600 
 18 C       -4.0810     6.0930    -0.1820 C.3   1 <1>  -0.1600 
 19 H        0.5320     3.5460    -0.9980 H     1 <1>   0.0800 
 20 H        0.4940     3.0760     0.6810 H     1 <1>   0.0800 
 21 H        3.4150     0.1480    -1.6850 H     1 <1>   0.0800 
 22 H        2.3290    -0.7180    -0.6410 H     1 <1>   0.0800 
 23 H        2.9480     2.5480     1.2230 H     1 <1>   0.0800 
 24 H        2.8660     3.4160    -0.2900 H     1 <1>   0.0800 
 25 H       -1.6220     1.8310     0.2450 H     1 <1>   0.0800 
 26 H       -1.6380     2.4590    -1.3720 H     1 <1>   0.0800 
 27 H        3.7150    -0.2830     1.2960 H     1 <1>   0.0800 
 28 H        4.8230     2.1880    -1.1330 H     1 <1>   0.0800 
 29 H       -1.7200     4.1390     1.1490 H     1 <1>   0.0800 
 30 H        5.4870    -1.1650    -0.9950 H     1 <1>   0.0800 
 31 H        4.4050    -2.2070    -0.1000 H     1 <1>   0.0800 
 32 H        5.7680    -1.4760     0.7080 H     1 <1>   0.0800 
 33 H        5.3590     3.2870     1.6390 H     1 <1>   0.0800 
 34 H        5.2800     4.2440     0.1770 H     1 <1>   0.0800 
 35 H        6.5470     3.0600     0.3700 H     1 <1>   0.0800 
 36 H       -3.7620     2.8250     0.8860 H     1 <1>   0.0800 
 37 H       -3.9320     3.3680    -0.7580 H     1 <1>   0.0800 
 38 H       -2.0620     4.9440    -1.7480 H     1 <1>   0.0800 
 39 H       -0.7430     5.4090    -0.7140 H     1 <1>   0.0800 
 40 H       -4.0790     5.0980     1.7190 H     1 <1>   0.0800 
 41 H       -5.4130     4.6540     0.6940 H     1 <1>   0.0800 
 42 H       -2.4060     7.2140    -0.9200 H     1 <1>   0.0800 
 43 H       -2.2290     6.6780     0.7260 H     1 <1>   0.0800 
 44 H       -4.6010     6.9510     0.2100 H     1 <1>   0.0800 
 45 H       -4.4540     5.9050    -1.1740 H     1 <1>   0.0800 
@<TRIPOS>BOND
  1   1   2  2   
  2   2   3  am  
  3   2   4  1   
  4   3   5  1   
  5   3   6  1   
  6   4   7  1   
  7   4  19  1   
  8   4  20  1   
  9   5   8  1   
 10   5  21  1   
 11   5  22  1   
 12   6   9  1   
 13   6  23  1   
 14   6  24  1   
 15   7  10  1   
 16   7  25  1   
 17   7  26  1   
 18   8  11  1   
 19   8  12  1   
 20   8  27  1   
 21   9  11  1   
 22   9  13  1   
 23   9  28  1   
 24  10  14  1   
 25  10  15  1   
 26  10  29  1   
 27  12  30  1   
 28  12  31  1   
 29  12  32  1   
 30  13  33  1   
 31  13  34  1   
 32  13  35  1   
 33  14  16  1   
 34  14  36  1   
 35  14  37  1   
 36  15  17  1   
 37  15  38  1   
 38  15  39  1   
 39  16  18  1   
 40  16  40  1   
 41  16  41  1   
 42  17  18  1   
 43  17  42  1   
 44  17  43  1   
 45  18  44  1   
 46  18  45  1   
@<TRIPOS>SUBSTRUCTURE
  1 ****   4 GROUP 4 **** **** 0

# MOE 2024.06 (io_trps.svl 2023.06)
