@<TRIPOS>MOLECULE
NONAME
39 40 1 0 0 
SMALL
USER_CHARGES


@<TRIPOS>ATOM
  1 O       -0.0500    -1.1500     1.5590 O.2   1 <1>  -0.5700 
  2 C       -0.0370    -2.1210     0.8250 C.2   1 <1>   0.5440 
  3 N        1.1670    -2.7390     0.5450 N.am  1 <1>  -0.6600 
  4 C       -1.2890    -2.5930     0.2820 C.ar  1 <1>   0.0860 
  5 C        1.3110    -3.8990    -0.3790 C.3   1 <1>   0.1400 
  6 C        2.4470    -2.2920     1.1640 C.3   1 <1>   0.1400 
  7 C       -1.8810    -3.7810     0.7350 C.ar  1 <1>   0.1170 
  8 C       -1.9370    -1.8610    -0.7130 C.ar  1 <1>  -0.1500 
  9 C        2.3110    -3.5580    -1.4880 C.3   1 <1>  -0.1600 
 10 C        3.4570    -1.9380     0.0670 C.3   1 <1>  -0.1600 
 11 N       -1.2720    -4.5430     1.7400 N.am  1 <1>  -0.5470 
 12 C       -3.0950    -4.1910     0.1900 C.ar  1 <1>  -0.1500 
 13 C       -3.1340    -2.2860    -1.2550 C.ar  1 <1>  -0.1500 
 14 C        3.6590    -3.1010    -0.9140 C.3   1 <1>  -0.1600 
 15 C       -0.9500    -5.8630     1.8030 C.2   1 <1>   0.5690 
 16 C       -3.7160    -3.4560    -0.8000 C.ar  1 <1>  -0.1500 
 17 O       -0.4450    -6.2970     2.8050 O.2   1 <1>  -0.5700 
 18 C       -1.1930    -6.8000     0.6230 C.3   1 <1>  -0.0990 
 19 C       -0.0190    -7.7570     0.3520 C.3   1 <1>  -0.2400 
 20 H        0.3680    -4.1620    -0.8230 H     1 <1>   0.0800 
 21 H        1.6650    -4.7470     0.1830 H     1 <1>   0.0800 
 22 H        2.8350    -3.0880     1.7760 H     1 <1>   0.0800 
 23 H        2.2900    -1.4350     1.7970 H     1 <1>   0.0800 
 24 H       -1.4870    -0.9450    -1.0560 H     1 <1>   0.1500 
 25 H        1.8950    -2.7770    -2.1020 H     1 <1>   0.0800 
 26 H        2.4580    -4.4210    -2.1120 H     1 <1>   0.0800 
 27 H        4.3960    -1.6780     0.5210 H     1 <1>   0.0800 
 28 H        3.0990    -1.0710    -0.4620 H     1 <1>   0.0800 
 29 H       -0.8900    -4.0190     2.5320 H     1 <1>   0.3700 
 30 H       -3.5610    -5.0900     0.5530 H     1 <1>   0.1500 
 31 H       -3.6170    -1.7070    -2.0240 H     1 <1>   0.1500 
 32 H        4.3110    -2.7930    -1.7140 H     1 <1>   0.0800 
 33 H        4.1260    -3.9230    -0.4000 H     1 <1>   0.0800 
 34 H       -4.6530    -3.7860    -1.2150 H     1 <1>   0.1500 
 35 H       -1.3680    -6.2300    -0.2690 H     1 <1>   0.0800 
 36 H       -2.0760    -7.3750     0.8310 H     1 <1>   0.0800 
 37 H        0.8790    -7.2000     0.1510 H     1 <1>   0.0800 
 38 H       -0.2360    -8.3840    -0.4940 H     1 <1>   0.0800 
 39 H        0.1530    -8.3850     1.2090 H     1 <1>   0.0800 
@<TRIPOS>BOND
  1   1   2  2   
  2   2   3  am  
  3   2   4  1   
  4   3   5  1   
  5   3   6  1   
  6   4   7  ar  
  7   4   8  ar  
  8   5   9  1   
  9   5  20  1   
 10   5  21  1   
 11   6  10  1   
 12   6  22  1   
 13   6  23  1   
 14   7  11  1   
 15   7  12  ar  
 16   8  13  ar  
 17   8  24  1   
 18   9  14  1   
 19   9  25  1   
 20   9  26  1   
 21  10  14  1   
 22  10  27  1   
 23  10  28  1   
 24  11  15  am  
 25  11  29  1   
 26  12  16  ar  
 27  12  30  1   
 28  13  16  ar  
 29  13  31  1   
 30  14  32  1   
 31  14  33  1   
 32  15  17  2   
 33  15  18  1   
 34  16  34  1   
 35  18  19  1   
 36  18  35  1   
 37  18  36  1   
 38  19  37  1   
 39  19  38  1   
 40  19  39  1   
@<TRIPOS>SUBSTRUCTURE
  1 ****   4 GROUP 4 **** **** 0

# MOE 2024.06 (io_trps.svl 2023.06)
