@<TRIPOS>MOLECULE
NONAME
38 40 1 0 0 
SMALL
USER_CHARGES


@<TRIPOS>ATOM
  1 S       -0.1310     0.3510    -1.3700 S.3   1 <1>  -0.1560 
  2 C       -1.6880    -0.1450    -0.6120 C.ar  1 <1>   0.1020 
  3 C        1.0580    -0.9640    -1.0000 C.2   1 <1>   0.0550 
  4 C       -2.8480     0.4570    -1.0630 C.ar  1 <1>  -0.1500 
  5 C       -1.7250    -1.0920     0.3980 C.ar  1 <1>  -0.1500 
  6 C        2.2820    -0.7640    -0.3780 C.2   1 <1>   0.1080 
  7 C        0.9610    -2.2810    -1.2600 C.2   1 <1>  -0.3320 
  8 C       -4.0630     0.0980    -0.5050 C.ar  1 <1>  -0.1500 
  9 C       -2.9450    -1.4470     0.9500 C.ar  1 <1>  -0.1500 
 10 N        2.9200    -1.8780    -0.2400 N.2   1 <1>  -0.7070 
 11 C        2.8200     0.5690     0.0920 C.3   1 <1>  -0.0590 
 12 N        2.1180    -2.8630    -0.7850 N.pl3 1 <1>   0.5610 
 13 C       -0.1710    -3.0310    -1.9550 C.3   1 <1>  -0.0600 
 14 C       -4.1160    -0.8570     0.5000 C.ar  1 <1>  -0.1430 
 15 C        2.4930    -4.2380    -0.8120 C.2   1 <1>   0.5790 
 16 C       -5.4500    -1.2480     1.1100 C.3   1 <1>  -0.0960 
 17 O        1.8390    -5.1130    -1.3340 O.2   1 <1>  -0.5700 
 18 C        3.8120    -4.6280    -0.1400 C.3   1 <1>  -0.1000 
 19 C        4.0680    -6.0130     0.3840 C.3   1 <1>  -0.2000 
 20 C        3.8640    -4.8790     1.3400 C.3   1 <1>  -0.2000 
 21 H       -2.8000     1.1960    -1.8420 H     1 <1>   0.1500 
 22 H       -0.8220    -1.5470     0.7600 H     1 <1>   0.1500 
 23 H       -4.9660     0.5660    -0.8560 H     1 <1>   0.1500 
 24 H       -2.9770    -2.1830     1.7340 H     1 <1>   0.1500 
 25 H        2.1490     1.0000     0.8110 H     1 <1>   0.0800 
 26 H        2.9190     1.2360    -0.7450 H     1 <1>   0.0800 
 27 H        3.7840     0.4360     0.5480 H     1 <1>   0.0800 
 28 H       -0.9420    -2.3520    -2.2730 H     1 <1>   0.0800 
 29 H       -0.6080    -3.7510    -1.2860 H     1 <1>   0.0800 
 30 H        0.2000    -3.5460    -2.8230 H     1 <1>   0.0800 
 31 H       -5.6610    -0.6200     1.9570 H     1 <1>   0.0800 
 32 H       -5.4300    -2.2730     1.4340 H     1 <1>   0.0800 
 33 H       -6.2410    -1.1360     0.3900 H     1 <1>   0.0800 
 34 H        4.6460    -4.1100    -0.5790 H     1 <1>   0.1000 
 35 H        5.0540    -6.4310     0.2740 H     1 <1>   0.1000 
 36 H        3.2940    -6.7550     0.2840 H     1 <1>   0.1000 
 37 H        2.9510    -4.8450     1.9090 H     1 <1>   0.1000 
 38 H        4.7070    -4.4990     1.8920 H     1 <1>   0.1000 
@<TRIPOS>BOND
  1   1   2  1   
  2   1   3  1   
  3   2   4  ar  
  4   2   5  ar  
  5   3   6  1   
  6   3   7  2   
  7   4   8  ar  
  8   4  21  1   
  9   5   9  ar  
 10   5  22  1   
 11   6  10  2   
 12   6  11  1   
 13   7  12  1   
 14   7  13  1   
 15   8  14  ar  
 16   8  23  1   
 17   9  14  ar  
 18   9  24  1   
 19  10  12  1   
 20  11  25  1   
 21  11  26  1   
 22  11  27  1   
 23  12  15  1   
 24  13  28  1   
 25  13  29  1   
 26  13  30  1   
 27  14  16  1   
 28  15  17  2   
 29  15  18  1   
 30  16  31  1   
 31  16  32  1   
 32  16  33  1   
 33  18  19  1   
 34  18  20  1   
 35  18  34  1   
 36  19  20  1   
 37  19  35  1   
 38  19  36  1   
 39  20  37  1   
 40  20  38  1   
@<TRIPOS>SUBSTRUCTURE
  1 ****   7 GROUP 4 **** **** 0

# MOE 2024.06 (io_trps.svl 2023.06)
