@<TRIPOS>MOLECULE
NONAME
31 32 1 0 0 
SMALL
USER_CHARGES


@<TRIPOS>ATOM
  1 O       -0.8550    -0.7590    -0.5090 O.2   1 <1>  -0.5700 
  2 C       -0.4350    -1.7850    -0.0680 C.2   1 <1>   0.4480 
  3 C        1.0350    -2.1330    -0.1120 C.3   1 <1>  -0.0990 
  4 C       -1.3430    -2.8320     0.5330 C.3   1 <1>  -0.0990 
  5 C        1.2190    -3.4840    -0.8070 C.3   1 <1>   0.2200 
  6 C       -1.0880    -4.1830    -0.1360 C.3   1 <1>   0.1400 
  7 N        0.3680    -4.5000    -0.1180 N.am  1 <1>  -0.6600 
  8 C        2.7010    -3.8670    -0.8540 C.3   1 <1>  -0.2400 
  9 C        0.8400    -5.3050     0.8950 C.2   1 <1>   0.5440 
 10 O        0.5110    -5.0300     2.0330 O.2   1 <1>  -0.5700 
 11 C        1.6860    -6.4590     0.6300 C.ar  1 <1>   0.0860 
 12 C        2.5820    -6.9310     1.5900 C.ar  1 <1>  -0.1500 
 13 C        1.6330    -7.1440    -0.5860 C.ar  1 <1>  -0.1500 
 14 C        3.3940    -8.0240     1.3470 C.ar  1 <1>  -0.1500 
 15 C        2.4430    -8.2370    -0.8370 C.ar  1 <1>  -0.1500 
 16 C        3.3270    -8.6780     0.1310 C.ar  1 <1>  -0.1500 
 17 H        1.4210    -2.1770     0.8900 H     1 <1>   0.0800 
 18 H        1.5640    -1.3660    -0.6480 H     1 <1>   0.0800 
 19 H       -2.3690    -2.5440     0.3970 H     1 <1>   0.0800 
 20 H       -1.1510    -2.9080     1.5870 H     1 <1>   0.0800 
 21 H        0.8700    -3.3940    -1.8230 H     1 <1>   0.0800 
 22 H       -1.4300    -4.1570    -1.1570 H     1 <1>   0.0800 
 23 H       -1.6350    -4.9520     0.3840 H     1 <1>   0.0800 
 24 H        3.1110    -3.9590     0.1360 H     1 <1>   0.0800 
 25 H        3.2550    -3.1060    -1.3730 H     1 <1>   0.0800 
 26 H        2.8350    -4.7880    -1.3900 H     1 <1>   0.0800 
 27 H        2.6350    -6.4290     2.5410 H     1 <1>   0.1500 
 28 H        0.9460    -6.8120    -1.3440 H     1 <1>   0.1500 
 29 H        4.0780    -8.3660     2.1060 H     1 <1>   0.1500 
 30 H        2.3850    -8.7460    -1.7830 H     1 <1>   0.1500 
 31 H        3.9590    -9.5290    -0.0600 H     1 <1>   0.1500 
@<TRIPOS>BOND
  1   1   2  2   
  2   2   3  1   
  3   2   4  1   
  4   3   5  1   
  5   3  17  1   
  6   3  18  1   
  7   4   6  1   
  8   4  19  1   
  9   4  20  1   
 10   5   7  1   
 11   5   8  1   
 12   5  21  1   
 13   6   7  1   
 14   6  22  1   
 15   6  23  1   
 16   7   9  am  
 17   8  24  1   
 18   8  25  1   
 19   8  26  1   
 20   9  10  2   
 21   9  11  1   
 22  11  12  ar  
 23  11  13  ar  
 24  12  14  ar  
 25  12  27  1   
 26  13  15  ar  
 27  13  28  1   
 28  14  16  ar  
 29  14  29  1   
 30  15  16  ar  
 31  15  30  1   
 32  16  31  1   
@<TRIPOS>SUBSTRUCTURE
  1 ****   9 GROUP 4 **** **** 0

# MOE 2024.06 (io_trps.svl 2023.06)
