@<TRIPOS>MOLECULE
NONAME
29 29 1 0 0 
SMALL
USER_CHARGES


@<TRIPOS>ATOM
  1 O        0.1690     0.3600    -0.6740 O.3   1 <1>  -0.3630 
  2 C        1.3420     1.0170    -0.5090 C.ar  1 <1>   0.0830 
  3 C       -0.9270     0.5710     0.1890 C.3   1 <1>   0.0400 
  4 C        2.3320     0.7680    -1.4430 C.ar  1 <1>  -0.1500 
  5 C        1.5930     1.9110     0.5270 C.ar  1 <1>  -0.1500 
  6 C        3.5610     1.3940    -1.3520 C.ar  1 <1>  -0.1500 
  7 C        2.8230     2.5380     0.6200 C.ar  1 <1>  -0.1500 
  8 C        3.8200     2.2840    -0.3180 C.ar  1 <1>  -0.1430 
  9 C        5.1890     2.9370    -0.2400 C.3   1 <1>   0.5660 
 10 N        5.8830     2.3310     0.8910 N.4   1 <1>  -0.8530 
 11 C        5.1270     4.4590    -0.0570 C.3   1 <1>  -0.1600 
 12 C        6.4840     5.1610    -0.2110 C.3   1 <1>   0.1200 
 13 O        7.4020     4.5890     0.6590 O.3   1 <1>  -0.6800 
 14 H       -1.7420    -0.0430    -0.1500 H     1 <1>   0.0800 
 15 H       -1.2100     1.6080     0.1470 H     1 <1>   0.0800 
 16 H       -0.6470     0.2860     1.1870 H     1 <1>   0.0800 
 17 H        2.1250     0.0780    -2.2430 H     1 <1>   0.1500 
 18 H        0.8410     2.1260     1.2630 H     1 <1>   0.1500 
 19 H        4.3030     1.1740    -2.1010 H     1 <1>   0.1500 
 20 H        2.9770     3.2260     1.4340 H     1 <1>   0.1500 
 21 H        5.7310     2.7260    -1.1490 H     1 <1>   0.0800 
 22 H        5.2690     2.3260     1.7060 H     1 <1>   0.4500 
 23 H        6.7030     2.9330     1.0860 H     1 <1>   0.4500 
 24 H        6.1730     1.3760     0.6760 H     1 <1>   0.4500 
 25 H        4.7000     4.7150     0.8960 H     1 <1>   0.0800 
 26 H        4.4700     4.8580    -0.8090 H     1 <1>   0.0800 
 27 H        6.3930     6.2090     0.0310 H     1 <1>   0.0800 
 28 H        6.8630     5.0660    -1.2160 H     1 <1>   0.0800 
 29 H        8.2160     5.1450     0.6980 H     1 <1>   0.4000 
@<TRIPOS>BOND
  1   1   2  1   
  2   1   3  1   
  3   2   4  ar  
  4   2   5  ar  
  5   3  14  1   
  6   3  15  1   
  7   3  16  1   
  8   4   6  ar  
  9   4  17  1   
 10   5   7  ar  
 11   5  18  1   
 12   6   8  ar  
 13   6  19  1   
 14   7   8  ar  
 15   7  20  1   
 16   8   9  1   
 17   9  10  1   
 18   9  11  1   
 19   9  21  1   
 20  10  22  1   
 21  10  23  1   
 22  10  24  1   
 23  11  12  1   
 24  11  25  1   
 25  11  26  1   
 26  12  13  1   
 27  12  27  1   
 28  12  28  1   
 29  13  29  1   
@<TRIPOS>SUBSTRUCTURE
  1 ****   8 GROUP 4 **** **** 0

# MOE 2024.06 (io_trps.svl 2023.06)
