@<TRIPOS>MOLECULE
NONAME
46 48 1 0 0 
SMALL
USER_CHARGES


@<TRIPOS>ATOM
  1 O       -1.1580    -2.9170    -0.2860 O.3   1 <1>  -0.3630 
  2 C       -2.3930    -3.4750    -0.1890 C.ar  1 <1>   0.0830 
  3 C       -0.0140    -3.6140     0.1320 C.3   1 <1>   0.1200 
  4 C       -2.6320    -4.7500     0.3190 C.ar  1 <1>  -0.1500 
  5 C       -3.4590    -2.7050    -0.6280 C.ar  1 <1>  -0.1500 
  6 C        1.1850    -2.7000    -0.1150 C.3   1 <1>  -0.1600 
  7 C       -3.9270    -5.2350     0.3790 C.ar  1 <1>  -0.1500 
  8 C       -4.7540    -3.1920    -0.5670 C.ar  1 <1>  -0.1500 
  9 C        2.4810    -3.3740     0.3280 C.3   1 <1>   0.3430 
 10 C       -4.9930    -4.4660    -0.0600 C.ar  1 <1>   0.0830 
 11 N        3.6500    -2.5210    -0.0170 N.4   1 <1>  -0.9590 
 12 O       -6.2270    -5.0240     0.0370 O.3   1 <1>  -0.3620 
 13 C        4.9240    -3.2900     0.0630 C.3   1 <1>   0.4860 
 14 C        3.7620    -1.2860     0.8200 C.3   1 <1>   0.3430 
 15 C       -7.3760    -4.3220    -0.3820 C.3   1 <1>   0.0400 
 16 C        6.0880    -2.4180    -0.3750 C.ar  1 <1>  -0.1440 
 17 C        4.7760    -0.3210     0.2000 C.3   1 <1>  -0.0170 
 18 C        6.0270    -1.0300    -0.3000 C.ar  1 <1>  -0.1430 
 19 C        7.2400    -3.0280    -0.8510 C.ar  1 <1>  -0.1500 
 20 C        7.1150    -0.2710    -0.7000 C.ar  1 <1>  -0.1500 
 21 C        8.3220    -2.2640    -1.2490 C.ar  1 <1>  -0.1500 
 22 C        8.2600    -0.8860    -1.1720 C.ar  1 <1>  -0.1500 
 23 H        0.0580    -4.5200    -0.4460 H     1 <1>   0.0800 
 24 H       -0.1240    -3.8420     1.1790 H     1 <1>   0.0800 
 25 H       -1.8380    -5.3780     0.6690 H     1 <1>   0.1500 
 26 H       -3.2700    -1.7220    -1.0190 H     1 <1>   0.1500 
 27 H        1.0280    -1.7900     0.4360 H     1 <1>   0.0800 
 28 H        1.2310    -2.4800    -1.1670 H     1 <1>   0.0800 
 29 H       -4.1220    -6.2180     0.7690 H     1 <1>   0.1500 
 30 H       -5.5550    -2.5690    -0.9160 H     1 <1>   0.1500 
 31 H        2.5660    -4.3230    -0.1770 H     1 <1>   0.0800 
 32 H        2.4560    -3.5580     1.3910 H     1 <1>   0.0800 
 33 H        3.5720    -2.2190    -0.9990 H     1 <1>   0.4500 
 34 H        4.8720    -4.1560    -0.5770 H     1 <1>   0.0800 
 35 H        5.0930    -3.6230     1.0740 H     1 <1>   0.0800 
 36 H        4.0870    -1.5530     1.8130 H     1 <1>   0.0800 
 37 H        2.8090    -0.7890     0.8980 H     1 <1>   0.0800 
 38 H       -8.2320    -4.9510    -0.2130 H     1 <1>   0.0800 
 39 H       -7.2860    -4.1010    -1.4310 H     1 <1>   0.0800 
 40 H       -7.4650    -3.4200     0.1970 H     1 <1>   0.0800 
 41 H        5.0470     0.4180     0.9330 H     1 <1>   0.0800 
 42 H        4.3150     0.1950    -0.6240 H     1 <1>   0.0800 
 43 H        7.3150    -4.1000    -0.9180 H     1 <1>   0.1500 
 44 H        7.0830     0.8040    -0.6490 H     1 <1>   0.1500 
 45 H        9.2160    -2.7400    -1.6180 H     1 <1>   0.1500 
 46 H        9.1030    -0.2910    -1.4810 H     1 <1>   0.1500 
@<TRIPOS>BOND
  1   1   2  1   
  2   1   3  1   
  3   2   4  ar  
  4   2   5  ar  
  5   3   6  1   
  6   3  23  1   
  7   3  24  1   
  8   4   7  ar  
  9   4  25  1   
 10   5   8  ar  
 11   5  26  1   
 12   6   9  1   
 13   6  27  1   
 14   6  28  1   
 15   7  10  ar  
 16   7  29  1   
 17   8  10  ar  
 18   8  30  1   
 19   9  11  1   
 20   9  31  1   
 21   9  32  1   
 22  10  12  1   
 23  11  13  1   
 24  11  14  1   
 25  11  33  1   
 26  12  15  1   
 27  13  16  1   
 28  13  34  1   
 29  13  35  1   
 30  14  17  1   
 31  14  36  1   
 32  14  37  1   
 33  15  38  1   
 34  15  39  1   
 35  15  40  1   
 36  16  18  ar  
 37  16  19  ar  
 38  17  18  1   
 39  17  41  1   
 40  17  42  1   
 41  18  20  ar  
 42  19  21  ar  
 43  19  43  1   
 44  20  22  ar  
 45  20  44  1   
 46  21  22  ar  
 47  21  45  1   
 48  22  46  1   
@<TRIPOS>SUBSTRUCTURE
  1 ****   6 GROUP 4 **** **** 0

# MOE 2024.06 (io_trps.svl 2023.06)
