@<TRIPOS>MOLECULE
NONAME
31 33 1 0 0 
SMALL
USER_CHARGES


@<TRIPOS>ATOM
  1 N        0.1500     0.1850    -1.4730 N.4   1 <1>  -0.9590 
  2 C        1.2630    -0.4160    -0.5980 C.3   1 <1>   0.6130 
  3 C        0.5710     1.5830    -1.7370 C.3   1 <1>   0.3430 
  4 C       -1.1170     0.2790    -0.6060 C.3   1 <1>   0.3430 
  5 N        1.5170     0.4860     0.5930 N.3   1 <1>  -0.8100 
  6 C        0.8580     2.6280    -0.6510 C.3   1 <1>   0.0000 
  7 C       -0.8830     1.2070     0.6550 C.3   1 <1>   0.0000 
  8 C        1.9700     1.9090     0.2400 C.3   1 <1>   0.1100 
  9 C        0.2970     0.5690     1.4400 C.3   1 <1>   0.1100 
 10 C       -0.4550     2.6750     0.2320 C.3   1 <1>  -0.1600 
 11 C        1.2840     4.0000    -1.1830 C.3   1 <1>  -0.2400 
 12 C       -2.1450     1.2610     1.5270 C.3   1 <1>  -0.2400 
 13 H        0.0070    -0.3570    -2.3320 H     1 <1>   0.4500 
 14 H        2.1740    -0.5110    -1.1680 H     1 <1>   0.0800 
 15 H        0.9790    -1.3980    -0.2510 H     1 <1>   0.0800 
 16 H        0.5060     1.3690    -0.8140 H     1 <1>   0.0800 
 17 H        1.5260     1.4910    -2.2270 H     1 <1>   0.0800 
 18 H       -1.4040    -0.7050    -0.2750 H     1 <1>   0.0800 
 19 H       -1.9250     0.6840    -1.1920 H     1 <1>   0.0800 
 20 H        2.9020     1.8600    -0.2990 H     1 <1>   0.0800 
 21 H        2.1440     2.4700     1.1430 H     1 <1>   0.0800 
 22 H        0.0300    -0.4190     1.7780 H     1 <1>   0.0800 
 23 H        0.5140     1.1580     2.3170 H     1 <1>   0.0800 
 24 H       -1.2510     3.1390    -0.3260 H     1 <1>   0.0800 
 25 H       -0.2780     3.2750     1.1090 H     1 <1>   0.0800 
 26 H        2.1790     3.9190    -1.7750 H     1 <1>   0.0800 
 27 H        1.4790     4.6710    -0.3640 H     1 <1>   0.0800 
 28 H        0.5070     4.4280    -1.7930 H     1 <1>   0.0800 
 29 H       -2.4340     0.2750     1.8460 H     1 <1>   0.0800 
 30 H       -2.9650     1.6960     0.9820 H     1 <1>   0.0800 
 31 H       -1.9710     1.8600     2.4040 H     1 <1>   0.0800 
@<TRIPOS>BOND
  1   1   2  1   
  2   1   3  1   
  3   1   4  1   
  4   1  13  1   
  5   2   5  1   
  6   2  14  1   
  7   2  15  1   
  8   3   6  1   
  9   3  16  1   
 10   3  17  1   
 11   4   7  1   
 12   4  18  1   
 13   4  19  1   
 14   5   8  1   
 15   5   9  1   
 16   6   8  1   
 17   6  10  1   
 18   6  11  1   
 19   7   9  1   
 20   7  10  1   
 21   7  12  1   
 22   8  20  1   
 23   8  21  1   
 24   9  22  1   
 25   9  23  1   
 26  10  24  1   
 27  10  25  1   
 28  11  26  1   
 29  11  27  1   
 30  11  28  1   
 31  12  29  1   
 32  12  30  1   
 33  12  31  1   
@<TRIPOS>SUBSTRUCTURE
  1 ****   7 GROUP 4 **** **** 0

# MOE 2024.06 (io_trps.svl 2023.06)
