@<TRIPOS>MOLECULE
NONAME
45 46 1 0 0 
SMALL
USER_CHARGES


@<TRIPOS>ATOM
  1 BR       0.4830    -0.4800    -3.0110 Br    1 <1>  -0.1110 
  2 C       -0.1340    -1.9470    -1.9170 C.ar  1 <1>   0.1110 
  3 C        0.7720    -2.6680    -1.1530 C.ar  1 <1>   0.0820 
  4 C       -1.4850    -2.2300    -1.9340 C.ar  1 <1>  -0.1500 
  5 O        2.0820    -2.3100    -1.2020 O.3   1 <1>  -0.3630 
  6 C        0.2870    -3.7160    -0.3770 C.ar  1 <1>  -0.1500 
  7 C       -1.9610    -3.2750    -1.1560 C.ar  1 <1>  -0.1440 
  8 C        3.0810    -3.0210    -0.5030 C.3   1 <1>   0.0400 
  9 C       -1.0750    -4.0200    -0.3780 C.ar  1 <1>   0.0820 
 10 C       -3.4430    -3.6000    -1.1600 C.3   1 <1>   0.4870 
 11 O       -1.6060    -5.0270     0.3700 O.3   1 <1>  -0.3630 
 12 N       -3.9690    -3.4510     0.2210 N.4   1 <1>  -0.9590 
 13 C       -0.7770    -5.9900     0.9930 C.3   1 <1>   0.0400 
 14 C       -5.3070    -4.1010     0.3680 C.3   1 <1>   0.4860 
 15 C       -3.9270    -2.0310     0.6560 C.3   1 <1>   0.3430 
 16 C       -6.3120    -3.5040    -0.6060 C.ar  1 <1>  -0.1440 
 17 C       -4.0650    -1.9510     2.1720 C.3   1 <1>  -0.2400 
 18 C       -6.5110    -4.0880    -1.8500 C.ar  1 <1>  -0.1500 
 19 C       -7.0480    -2.3790    -0.2590 C.ar  1 <1>  -0.1500 
 20 C       -7.4140    -3.5380    -2.7430 C.ar  1 <1>  -0.1500 
 21 C       -7.9510    -1.8310    -1.1530 C.ar  1 <1>  -0.1500 
 22 C       -8.1310    -2.4080    -2.3960 C.ar  1 <1>  -0.1500 
 23 H       -2.1350    -1.6360    -2.5530 H     1 <1>   0.1500 
 24 H        0.9670    -4.2840     0.2240 H     1 <1>   0.1500 
 25 H        4.0280    -2.5610    -0.7190 H     1 <1>   0.0800 
 26 H        3.0870    -4.0420    -0.8420 H     1 <1>   0.0800 
 27 H        2.8810    -2.9620     0.5520 H     1 <1>   0.0800 
 28 H       -3.5720    -4.6170    -1.4950 H     1 <1>   0.0800 
 29 H       -3.9730    -2.9470    -1.8340 H     1 <1>   0.0800 
 30 H       -3.2850    -3.9720     0.7930 H     1 <1>   0.4500 
 31 H       -0.1950    -5.5120     1.7620 H     1 <1>   0.0800 
 32 H       -0.1370    -6.4380     0.2520 H     1 <1>   0.0800 
 33 H       -1.4040    -6.7460     1.4320 H     1 <1>   0.0800 
 34 H       -5.6690    -3.9810     1.3750 H     1 <1>   0.0800 
 35 H       -5.2190    -5.1580     0.1760 H     1 <1>   0.0800 
 36 H       -4.7100    -1.4660     0.1750 H     1 <1>   0.0800 
 37 H       -2.9810    -1.5930     0.3760 H     1 <1>   0.0800 
 38 H       -5.0300    -2.2880     2.5010 H     1 <1>   0.0800 
 39 H       -3.9560    -0.9260     2.4790 H     1 <1>   0.0800 
 40 H       -3.2920    -2.5230     2.6540 H     1 <1>   0.0800 
 41 H       -5.9760    -4.9760    -2.1410 H     1 <1>   0.1500 
 42 H       -6.9360    -1.9170     0.7070 H     1 <1>   0.1500 
 43 H       -7.5670    -3.9910    -3.7090 H     1 <1>   0.1500 
 44 H       -8.5200    -0.9570    -0.8830 H     1 <1>   0.1500 
 45 H       -8.8350    -1.9820    -3.0920 H     1 <1>   0.1500 
@<TRIPOS>BOND
  1   1   2  1   
  2   2   3  ar  
  3   2   4  ar  
  4   3   5  1   
  5   3   6  ar  
  6   4   7  ar  
  7   4  23  1   
  8   5   8  1   
  9   6   9  ar  
 10   6  24  1   
 11   7   9  ar  
 12   7  10  1   
 13   8  25  1   
 14   8  26  1   
 15   8  27  1   
 16   9  11  1   
 17  10  12  1   
 18  10  28  1   
 19  10  29  1   
 20  11  13  1   
 21  12  14  1   
 22  12  15  1   
 23  12  30  1   
 24  13  31  1   
 25  13  32  1   
 26  13  33  1   
 27  14  16  1   
 28  14  34  1   
 29  14  35  1   
 30  15  17  1   
 31  15  36  1   
 32  15  37  1   
 33  16  18  ar  
 34  16  19  ar  
 35  17  38  1   
 36  17  39  1   
 37  17  40  1   
 38  18  20  ar  
 39  18  41  1   
 40  19  21  ar  
 41  19  42  1   
 42  20  22  ar  
 43  20  43  1   
 44  21  22  ar  
 45  21  44  1   
 46  22  45  1   
@<TRIPOS>SUBSTRUCTURE
  1 ****  10 GROUP 4 **** **** 0

# MOE 2024.06 (io_trps.svl 2023.06)
