@<TRIPOS>MOLECULE
NONAME
29 31 1 0 0 
SMALL
USER_CHARGES


@<TRIPOS>ATOM
  1 O       -0.7120    -0.2150     1.5130 O.2   1 <1>  -0.5700 
  2 C       -0.7830    -1.2290     0.8640 C.2   1 <1>   0.5690 
  3 N        0.2190    -2.0890     0.4580 N.am  1 <1>  -0.0840 
  4 C       -2.0450    -1.7600     0.2480 C.3   1 <1>  -0.0190 
  5 O        1.5880    -1.8770     0.6820 O.3   1 <1>  -0.3160 
  6 C       -0.3020    -3.2540    -0.0630 C.2   1 <1>   0.5690 
  7 C       -3.5710    -1.7720     0.4700 C.3   1 <1>   0.3380 
  8 C       -1.7450    -3.2590     0.3400 C.3   1 <1>  -0.0190 
  9 C        2.2330    -1.4020    -0.4830 C.3   1 <1>   0.2000 
 10 O        0.2470    -4.1230    -0.6960 O.2   1 <1>  -0.5700 
 11 O       -3.7900    -3.0570     0.9680 O.3   1 <1>  -0.5600 
 12 C       -4.1350    -2.0300    -0.9130 C.2   1 <1>  -0.2880 
 13 C       -3.1180    -3.8430     0.0270 C.3   1 <1>   0.3380 
 14 C        3.7220    -1.6870    -0.3130 C.3   1 <1>  -0.2400 
 15 C        1.9750     0.1000    -0.6350 C.3   1 <1>  -0.2400 
 16 C       -3.8020    -3.2840    -1.2090 C.2   1 <1>  -0.2880 
 17 H       -1.9200    -1.4210    -0.7690 H     1 <1>   0.0800 
 18 H       -4.0310    -1.0100     1.0770 H     1 <1>   0.0800 
 19 H       -1.6370    -3.5350     1.3790 H     1 <1>   0.0800 
 20 H        1.8630    -1.9460    -1.3370 H     1 <1>   0.0800 
 21 H       -4.6490    -1.2610    -1.4640 H     1 <1>   0.1500 
 22 H       -3.2700    -4.8880     0.2380 H     1 <1>   0.0800 
 23 H        4.1070    -1.1740     0.5510 H     1 <1>   0.0800 
 24 H        4.2630    -1.3560    -1.1800 H     1 <1>   0.0800 
 25 H        3.8800    -2.7450    -0.1980 H     1 <1>   0.0800 
 26 H        2.2680     0.6210     0.2600 H     1 <1>   0.0800 
 27 H        0.9370     0.2940    -0.8330 H     1 <1>   0.0800 
 28 H        2.5460     0.4880    -1.4590 H     1 <1>   0.0800 
 29 H       -3.9470    -3.8890    -2.0870 H     1 <1>   0.1500 
@<TRIPOS>BOND
  1   1   2  2   
  2   2   3  am  
  3   2   4  1   
  4   3   5  1   
  5   3   6  am  
  6   4   7  1   
  7   4   8  1   
  8   4  17  1   
  9   5   9  1   
 10   6   8  1   
 11   6  10  2   
 12   7  11  1   
 13   7  12  1   
 14   7  18  1   
 15   8  13  1   
 16   8  19  1   
 17   9  14  1   
 18   9  15  1   
 19   9  20  1   
 20  11  13  1   
 21  12  16  2   
 22  12  21  1   
 23  13  16  1   
 24  13  22  1   
 25  14  23  1   
 26  14  24  1   
 27  14  25  1   
 28  15  26  1   
 29  15  27  1   
 30  15  28  1   
 31  16  29  1   
@<TRIPOS>SUBSTRUCTURE
  1 ****   3 GROUP 4 **** **** 0

# MOE 2024.06 (io_trps.svl 2023.06)
