@<TRIPOS>MOLECULE
NONAME
39 40 1 0 0 
SMALL
USER_CHARGES


@<TRIPOS>ATOM
  1 F       -2.9430     0.3830     2.1420 F     1 <1>  -0.3400 
  2 C       -3.5300     1.0850     1.1800 C.3   1 <1>   1.1640 
  3 F       -3.9190     0.1820     0.2850 F     1 <1>  -0.3400 
  4 F       -4.6460     1.5630     1.7270 F     1 <1>  -0.3400 
  5 C       -2.6200     2.2010     0.6130 C.ar  1 <1>  -0.1440 
  6 C       -2.7840     2.7720    -0.6580 C.ar  1 <1>  -0.1440 
  7 C       -1.5830     2.6750     1.4170 C.ar  1 <1>  -0.1500 
  8 C       -1.9180     3.7700    -1.0830 C.ar  1 <1>  -0.1500 
  9 C       -3.8920     2.3600    -1.6250 C.3   1 <1>   0.2540 
 10 C       -0.7300     3.6720     0.9830 C.ar  1 <1>  -0.1500 
 11 C       -0.8960     4.2200    -0.2710 C.ar  1 <1>  -0.1500 
 12 N       -5.2080     2.6530    -1.0270 N.3   1 <1>  -0.8100 
 13 C       -6.2990     1.8610    -1.6260 C.3   1 <1>   0.1100 
 14 C       -5.4670     4.0990    -0.9920 C.3   1 <1>   0.1100 
 15 C       -7.2210     1.3100    -0.5210 C.3   1 <1>   0.3430 
 16 C       -6.7930     4.4410    -0.3050 C.3   1 <1>  -0.1600 
 17 N       -8.0230     2.3490     0.2200 N.4   1 <1>  -0.9590 
 18 C       -7.1860     3.4500     0.7900 C.3   1 <1>   0.3430 
 19 C       -8.7970     1.6910     1.3130 C.3   1 <1>   0.2630 
 20 H       -1.4230     2.2730     2.4040 H     1 <1>   0.1500 
 21 H       -2.0320     4.2130    -2.0580 H     1 <1>   0.1500 
 22 H       -3.7910     1.3100    -1.8360 H     1 <1>   0.0800 
 23 H       -3.7950     2.8810    -2.5630 H     1 <1>   0.0800 
 24 H        0.0640     4.0190     1.6220 H     1 <1>   0.1500 
 25 H       -0.2320     4.9940    -0.6140 H     1 <1>   0.1500 
 26 H       -5.8880     1.0120    -2.1460 H     1 <1>   0.0800 
 27 H       -6.8540     2.4410    -2.3430 H     1 <1>   0.0800 
 28 H       -5.4570     4.5060    -1.9900 H     1 <1>   0.0800 
 29 H       -4.6720     4.5740    -0.4390 H     1 <1>   0.0800 
 30 H       -6.6040     0.7700     0.1780 H     1 <1>   0.0800 
 31 H       -7.8980     0.6020    -0.9700 H     1 <1>   0.0800 
 32 H       -7.5770     4.5360    -1.0340 H     1 <1>   0.0800 
 33 H       -6.6740     5.4110     0.1440 H     1 <1>   0.0800 
 34 H       -8.6780     2.7790    -0.4440 H     1 <1>   0.4500 
 35 H       -7.7590     3.9790     1.5340 H     1 <1>   0.0800 
 36 H       -6.3040     3.0540     1.2650 H     1 <1>   0.0800 
 37 H       -8.1240     1.2410     2.0260 H     1 <1>   0.0800 
 38 H       -9.4370     0.9230     0.9100 H     1 <1>   0.0800 
 39 H       -9.4090     2.4140     1.8260 H     1 <1>   0.0800 
@<TRIPOS>BOND
  1   1   2  1   
  2   2   3  1   
  3   2   4  1   
  4   2   5  1   
  5   5   6  ar  
  6   5   7  ar  
  7   6   8  ar  
  8   6   9  1   
  9   7  10  ar  
 10   7  20  1   
 11   8  11  ar  
 12   8  21  1   
 13   9  12  1   
 14   9  22  1   
 15   9  23  1   
 16  10  11  ar  
 17  10  24  1   
 18  11  25  1   
 19  12  13  1   
 20  12  14  1   
 21  13  15  1   
 22  13  26  1   
 23  13  27  1   
 24  14  16  1   
 25  14  28  1   
 26  14  29  1   
 27  15  17  1   
 28  15  30  1   
 29  15  31  1   
 30  16  18  1   
 31  16  32  1   
 32  16  33  1   
 33  17  18  1   
 34  17  19  1   
 35  17  34  1   
 36  18  35  1   
 37  18  36  1   
 38  19  37  1   
 39  19  38  1   
 40  19  39  1   
@<TRIPOS>SUBSTRUCTURE
  1 ****  12 GROUP 4 **** **** 0

# MOE 2024.06 (io_trps.svl 2023.06)
