@<TRIPOS>MOLECULE
NONAME
28 29 1 0 0 
SMALL
USER_CHARGES


@<TRIPOS>ATOM
  1 O        0.8170     0.5100    -1.1420 O.2   1 <1>  -0.5700 
  2 C        1.4630     0.9500    -0.2290 C.2   1 <1>   0.5690 
  3 N        1.1470     2.1350     0.3210 N.am  1 <1>  -0.8000 
  4 C        2.6450     0.1670     0.3030 C.3   1 <1>  -0.0990 
  5 C        3.9780     0.6990    -0.2550 C.3   1 <1>  -0.1600 
  6 C        5.1940    -0.0800     0.2620 C.3   1 <1>   0.2000 
  7 O        6.3480     0.6410    -0.1230 O.3   1 <1>  -0.3630 
  8 C        5.2790    -1.5200    -0.2810 C.3   1 <1>   0.1200 
  9 C        7.5400    -0.0020    -0.0300 C.ar  1 <1>   0.0820 
 10 O        6.4740    -2.1420     0.1530 O.3   1 <1>  -0.3630 
 11 C        7.6020    -1.3890     0.1220 C.ar  1 <1>   0.0820 
 12 C        8.7060     0.7410    -0.0830 C.ar  1 <1>  -0.1500 
 13 C        8.8300    -2.0160     0.2390 C.ar  1 <1>  -0.1500 
 14 C        9.9340     0.1080     0.0290 C.ar  1 <1>  -0.1500 
 15 C        9.9960    -1.2680     0.1930 C.ar  1 <1>  -0.1500 
 16 H        0.3520     2.6560    -0.0500 H     1 <1>   0.3700 
 17 H        1.6670     2.5720     1.0810 H     1 <1>   0.3700 
 18 H        2.5080    -0.8620     0.0230 H     1 <1>   0.0800 
 19 H        2.6440     0.2210     1.3760 H     1 <1>   0.0800 
 20 H        4.0840     1.7300     0.0330 H     1 <1>   0.0800 
 21 H        3.9560     0.6530    -1.3310 H     1 <1>   0.0800 
 22 H        5.1810    -0.1060     1.3380 H     1 <1>   0.0800 
 23 H        5.2770    -1.5160    -1.3570 H     1 <1>   0.0800 
 24 H        4.4570    -2.1160     0.0700 H     1 <1>   0.0800 
 25 H        8.6490     1.8070    -0.2080 H     1 <1>   0.1500 
 26 H        8.8690    -3.0830     0.3630 H     1 <1>   0.1500 
 27 H       10.8410     0.6860    -0.0100 H     1 <1>   0.1500 
 28 H       10.9500    -1.7560     0.2820 H     1 <1>   0.1500 
@<TRIPOS>BOND
  1   1   2  2   
  2   2   3  am  
  3   2   4  1   
  4   3  16  1   
  5   3  17  1   
  6   4   5  1   
  7   4  18  1   
  8   4  19  1   
  9   5   6  1   
 10   5  20  1   
 11   5  21  1   
 12   6   7  1   
 13   6   8  1   
 14   6  22  1   
 15   7   9  1   
 16   8  10  1   
 17   8  23  1   
 18   8  24  1   
 19   9  11  ar  
 20   9  12  ar  
 21  10  11  1   
 22  11  13  ar  
 23  12  14  ar  
 24  12  25  1   
 25  13  15  ar  
 26  13  26  1   
 27  14  15  ar  
 28  14  27  1   
 29  15  28  1   
@<TRIPOS>SUBSTRUCTURE
  1 ****   6 GROUP 4 **** **** 0

# MOE 2024.06 (io_trps.svl 2023.06)
