@<TRIPOS>MOLECULE
Structure2465
26 27 1 0 0 
SMALL
USER_CHARGES


@<TRIPOS>ATOM
  1 CL       0.0950     0.1410     0.4510 Cl    1 <1>  -0.1770 
  2 C       -1.4510     0.8780     0.1130 C.ar  1 <1>   0.1770 
  3 C       -1.7010     2.1620     0.5580 C.ar  1 <1>  -0.1500 
  4 C       -2.3980     0.1670    -0.5980 C.ar  1 <1>  -0.1500 
  5 C       -2.9270     2.7550     0.2970 C.ar  1 <1>  -0.1440 
  6 C       -3.6240     0.7510    -0.8630 C.ar  1 <1>  -0.1500 
  7 C       -3.8970     2.0410    -0.4060 C.ar  1 <1>   0.0830 
  8 C       -3.1890     4.1750     0.7810 C.3   1 <1>  -0.0960 
  9 O       -5.0950     2.6410    -0.6200 O.3   1 <1>  -0.3400 
 10 C       -6.2730     1.8660    -0.7000 C.3   1 <1>   0.2580 
 11 C       -7.5270     2.7540    -0.5280 C.3   1 <1>   0.4720 
 12 C       -6.6490     1.2380     0.6650 C.3   1 <1>   0.4720 
 13 N       -8.0400     1.7850     0.5030 N.4   1 <1>  -0.8440 
 14 H       -0.9330     2.6840     1.1000 H     1 <1>   0.1500 
 15 H       -2.1670    -0.8260    -0.9410 H     1 <1>   0.1500 
 16 H       -4.3380     0.1910    -1.4370 H     1 <1>   0.1500 
 17 H       -2.3090     4.5980     1.2310 H     1 <1>   0.0800 
 18 H       -3.9790     4.1790     1.5100 H     1 <1>   0.0800 
 19 H       -3.4750     4.7980    -0.0480 H     1 <1>   0.0800 
 20 H       -6.2940     1.2140    -1.5550 H     1 <1>   0.0000 
 21 H       -8.1670     2.7880    -1.3900 H     1 <1>   0.0000 
 22 H       -7.3130     3.7090    -0.0830 H     1 <1>   0.0000 
 23 H       -6.1490     1.7000     1.4980 H     1 <1>   0.0000 
 24 H       -6.6460     0.1630     0.6740 H     1 <1>   0.0000 
 25 H       -8.6980     1.1000     0.1150 H     1 <1>   0.4500 
 26 H       -8.3930     2.2470     1.3490 H     1 <1>   0.4500 
@<TRIPOS>BOND
  1   1   2  1   
  2   2   3  ar  
  3   2   4  ar  
  4   3   5  ar  
  5   3  14  1   
  6   4   6  ar  
  7   4  15  1   
  8   5   7  ar  
  9   5   8  1   
 10   6   7  ar  
 11   6  16  1   
 12   7   9  1   
 13   8  17  1   
 14   8  18  1   
 15   8  19  1   
 16   9  10  1   
 17  10  11  1   
 18  10  12  1   
 19  10  20  1   
 20  11  13  1   
 21  11  21  1   
 22  11  22  1   
 23  12  13  1   
 24  12  23  1   
 25  12  24  1   
 26  13  25  1   
 27  13  26  1   
@<TRIPOS>SUBSTRUCTURE
  1 ****   7 GROUP 4 **** **** 0

# MOE 2024.06 (io_trps.svl 2023.06)
