@<TRIPOS>MOLECULE
NONAME
46 50 1 0 0 
SMALL
USER_CHARGES


@<TRIPOS>ATOM
  1 O        2.5770    -1.9590     2.2890 O.2   1 <1>  -0.5700 
  2 C        2.3090    -2.5210     1.2530 C.2   1 <1>   0.5690 
  3 N        1.7490    -3.7510     1.1660 N.am  1 <1>  -0.5470 
  4 C        2.5280    -1.9480    -0.1710 C.3   1 <1>   0.4750 
  5 C        1.5060    -4.0900    -0.1560 C.ar  1 <1>   0.1170 
  6 N        1.8850    -0.6240    -0.4750 N.3   1 <1>  -0.9000 
  7 C        1.9150    -3.0720    -0.9990 C.ar  1 <1>  -0.1430 
  8 C        3.9800    -1.6860    -0.4850 C.3   1 <1>  -0.0190 
  9 C        0.9310    -5.2430    -0.6630 C.ar  1 <1>  -0.1500 
 10 C        2.9580     0.3940    -0.6310 C.3   1 <1>   0.1100 
 11 C        1.7380    -3.1790    -2.3660 C.ar  1 <1>  -0.1500 
 12 C        5.2270    -2.3240     0.0440 C.2   1 <1>   0.5690 
 13 C        4.1500    -0.2750     0.0200 C.3   1 <1>  -0.0190 
 14 C        0.7620    -5.3580    -2.0330 C.ar  1 <1>  -0.1500 
 15 C        1.1600    -4.3310    -2.8800 C.ar  1 <1>  -0.1500 
 16 O        5.3210    -3.4870     0.3360 O.2   1 <1>  -0.5700 
 17 N        6.2020    -1.3560     0.0660 N.am  1 <1>  -0.4200 
 18 C        5.6390    -0.1210    -0.1300 C.2   1 <1>   0.5690 
 19 C        7.6520    -1.5600     0.2880 C.3   1 <1>   0.2200 
 20 O        6.2060     0.9180    -0.3470 O.2   1 <1>  -0.5700 
 21 C        8.2390    -2.5110    -0.7670 C.3   1 <1>  -0.1600 
 22 C        7.9160    -2.0690     1.7130 C.3   1 <1>  -0.1600 
 23 C        9.7410    -2.7300    -0.5310 C.3   1 <1>  -0.1600 
 24 C        9.4170    -2.2900     1.9470 C.3   1 <1>  -0.1600 
 25 C       10.0090    -3.2370     0.8930 C.3   1 <1>  -0.1600 
 26 H        1.5480    -4.3240     1.9850 H     1 <1>   0.3700 
 27 H        1.3190    -0.3910     0.3520 H     1 <1>   0.3600 
 28 H        4.0800    -1.7010    -1.5570 H     1 <1>   0.0800 
 29 H        0.6220    -6.0310    -0.0010 H     1 <1>   0.1500 
 30 H        2.6980     1.3220    -0.1490 H     1 <1>   0.0800 
 31 H        3.1460     0.5690    -1.6780 H     1 <1>   0.0800 
 32 H        2.0380    -2.3780    -3.0200 H     1 <1>   0.1500 
 33 H        3.9830    -0.2230     1.0830 H     1 <1>   0.0800 
 34 H        0.3170    -6.2470    -2.4460 H     1 <1>   0.1500 
 35 H        1.0170    -4.4280    -3.9430 H     1 <1>   0.1500 
 36 H        8.1450    -0.6080     0.1820 H     1 <1>   0.0800 
 37 H        8.0910    -2.0960    -1.7480 H     1 <1>   0.0800 
 38 H        7.7420    -3.4640    -0.7180 H     1 <1>   0.0800 
 39 H        7.4020    -3.0020     1.8680 H     1 <1>   0.0800 
 40 H        7.5460    -1.3530     2.4260 H     1 <1>   0.0800 
 41 H       10.2670    -1.8030    -0.6850 H     1 <1>   0.0800 
 42 H       10.1160    -3.4450    -1.2430 H     1 <1>   0.0800 
 43 H        9.5710    -2.7040     2.9290 H     1 <1>   0.0800 
 44 H        9.9300    -1.3440     1.9050 H     1 <1>   0.0800 
 45 H       11.0700    -3.3310     1.0490 H     1 <1>   0.0800 
 46 H        9.5720    -4.2140     1.0100 H     1 <1>   0.0800 
@<TRIPOS>BOND
  1   1   2  2   
  2   2   3  am  
  3   2   4  1   
  4   3   5  1   
  5   3  26  1   
  6   4   6  1   
  7   4   7  1   
  8   4   8  1   
  9   5   7  ar  
 10   5   9  ar  
 11   6  10  1   
 12   6  27  1   
 13   7  11  ar  
 14   8  12  1   
 15   8  13  1   
 16   8  28  1   
 17   9  14  ar  
 18   9  29  1   
 19  10  13  1   
 20  10  30  1   
 21  10  31  1   
 22  11  15  ar  
 23  11  32  1   
 24  12  16  2   
 25  12  17  am  
 26  13  18  1   
 27  13  33  1   
 28  14  15  ar  
 29  14  34  1   
 30  15  35  1   
 31  17  18  am  
 32  17  19  1   
 33  18  20  2   
 34  19  21  1   
 35  19  22  1   
 36  19  36  1   
 37  21  23  1   
 38  21  37  1   
 39  21  38  1   
 40  22  24  1   
 41  22  39  1   
 42  22  40  1   
 43  23  25  1   
 44  23  41  1   
 45  23  42  1   
 46  24  25  1   
 47  24  43  1   
 48  24  44  1   
 49  25  45  1   
 50  25  46  1   
@<TRIPOS>SUBSTRUCTURE
  1 ****  12 GROUP 4 **** **** 0

# MOE 2024.06 (io_trps.svl 2023.06)
