@<TRIPOS>MOLECULE
NONAME
46 47 1 0 0 
SMALL
USER_CHARGES


@<TRIPOS>ATOM
  1 O       -0.2280    -1.0420     1.9810 O.2   1 <1>  -0.5700 
  2 C       -0.2820    -1.6510     0.9380 C.2   1 <1>   0.5690 
  3 N       -1.3970    -1.5740     0.1380 N.am  1 <1>  -0.6600 
  4 C        0.9170    -2.5260     0.5860 C.3   1 <1>  -0.0990 
  5 C       -2.5680    -0.7430     0.5730 C.3   1 <1>   0.3200 
  6 C       -1.6280    -2.3350    -1.1250 C.3   1 <1>   0.0600 
  7 C        2.0980    -1.8020    -0.1090 C.3   1 <1>   0.0000 
  8 C       -3.7990    -1.5960     0.8430 C.2   1 <1>   0.2980 
  9 C        3.2150    -2.8240    -0.3690 C.3   1 <1>  -0.2400 
 10 C        2.6630    -0.6890     0.7870 C.3   1 <1>  -0.2400 
 11 C        1.6810    -1.1880    -1.4530 C.3   1 <1>  -0.2400 
 12 O       -3.7960    -2.3870     1.8830 O.3   1 <1>  -0.0190 
 13 N       -4.8550    -1.6270     0.1360 N.2   1 <1>  -0.5650 
 14 N       -4.9500    -2.9760     1.8340 N.2   1 <1>  -0.4100 
 15 C       -5.5800    -2.5310     0.8050 C.2   1 <1>   0.4620 
 16 C       -6.9100    -2.9370     0.3830 C.ar  1 <1>   0.0540 
 17 C       -7.5250    -2.3870    -0.7430 C.ar  1 <1>  -0.1500 
 18 C       -7.6300    -3.9030     1.0910 C.ar  1 <1>  -0.1500 
 19 C       -8.7890    -2.7800    -1.1420 C.ar  1 <1>  -0.1500 
 20 C       -8.8950    -4.3020     0.6990 C.ar  1 <1>  -0.1500 
 21 C       -9.4860    -3.7390    -0.4270 C.ar  1 <1>   0.0820 
 22 O      -10.7180    -4.0700    -0.8830 O.3   1 <1>  -0.3620 
 23 C      -11.5090    -5.0360    -0.2270 C.3   1 <1>   0.0400 
 24 H        0.5990    -3.3610    -0.0050 H     1 <1>   0.0800 
 25 H        1.2750    -2.9410     1.5110 H     1 <1>   0.0800 
 26 H       -2.7980    -0.0370    -0.2050 H     1 <1>   0.0800 
 27 H       -2.3410    -0.1810     1.4610 H     1 <1>   0.0800 
 28 H       -0.7060    -2.6710    -1.5600 H     1 <1>   0.0800 
 29 H       -2.1260    -1.7070    -1.8450 H     1 <1>   0.0800 
 30 H       -2.2490    -3.1910    -0.9240 H     1 <1>   0.0800 
 31 H        2.8650    -3.6170    -1.0060 H     1 <1>   0.0800 
 32 H        3.5550    -3.2570     0.5560 H     1 <1>   0.0800 
 33 H        4.0560    -2.3540    -0.8490 H     1 <1>   0.0800 
 34 H        2.9390    -1.0810     1.7500 H     1 <1>   0.0800 
 35 H        1.9350     0.0890     0.9380 H     1 <1>   0.0800 
 36 H        3.5350    -0.2450     0.3390 H     1 <1>   0.0800 
 37 H        1.3440    -1.9490    -2.1330 H     1 <1>   0.0800 
 38 H        2.5140    -0.6830    -1.9080 H     1 <1>   0.0800 
 39 H        0.8920    -0.4690    -1.3170 H     1 <1>   0.0800 
 40 H       -7.0070    -1.6390    -1.3170 H     1 <1>   0.1500 
 41 H       -7.1900    -4.3500     1.9650 H     1 <1>   0.1500 
 42 H       -9.2470    -2.3440    -2.0120 H     1 <1>   0.1500 
 43 H       -9.4040    -5.0480     1.2800 H     1 <1>   0.1500 
 44 H      -12.4350    -5.1290    -0.7650 H     1 <1>   0.0800 
 45 H      -11.7010    -4.7050     0.7780 H     1 <1>   0.0800 
 46 H      -10.9870    -5.9760    -0.2310 H     1 <1>   0.0800 
@<TRIPOS>BOND
  1   1   2  2   
  2   2   3  am  
  3   2   4  1   
  4   3   5  1   
  5   3   6  1   
  6   4   7  1   
  7   4  24  1   
  8   4  25  1   
  9   5   8  1   
 10   5  26  1   
 11   5  27  1   
 12   6  28  1   
 13   6  29  1   
 14   6  30  1   
 15   7   9  1   
 16   7  10  1   
 17   7  11  1   
 18   8  12  1   
 19   8  13  2   
 20   9  31  1   
 21   9  32  1   
 22   9  33  1   
 23  10  34  1   
 24  10  35  1   
 25  10  36  1   
 26  11  37  1   
 27  11  38  1   
 28  11  39  1   
 29  12  14  1   
 30  13  15  1   
 31  14  15  2   
 32  15  16  1   
 33  16  17  ar  
 34  16  18  ar  
 35  17  19  ar  
 36  17  40  1   
 37  18  20  ar  
 38  18  41  1   
 39  19  21  ar  
 40  19  42  1   
 41  20  21  ar  
 42  20  43  1   
 43  21  22  1   
 44  22  23  1   
 45  23  44  1   
 46  23  45  1   
 47  23  46  1   
@<TRIPOS>SUBSTRUCTURE
  1 ****   8 GROUP 4 **** **** 0

# MOE 2024.06 (io_trps.svl 2023.06)
