@<TRIPOS>MOLECULE
NONAME
38 39 1 0 0 
SMALL
USER_CHARGES


@<TRIPOS>ATOM
  1 O        0.1820     0.4790    -0.5690 O.3   1 <1>  -0.5600 
  2 C        1.3360    -0.2950    -0.7320 C.3   1 <1>   0.1200 
  3 C        0.1300     1.2230     0.6130 C.3   1 <1>   0.1200 
  4 C        2.5870     0.6030    -0.7210 C.3   1 <1>   0.3430 
  5 C        1.3260     2.1920     0.6890 C.3   1 <1>   0.3430 
  6 N        2.6350     1.4690     0.5140 N.4   1 <1>  -0.9590 
  7 C        3.7960     2.4020     0.5790 C.3   1 <1>   0.4230 
  8 C        3.8980     3.3180    -0.6510 C.3   1 <1>  -0.1600 
  9 C        5.0930     1.6100     0.7720 C.3   1 <1>  -0.1600 
 10 C        5.0910     4.2730    -0.5110 C.3   1 <1>  -0.1600 
 11 C        6.2970     2.5550     0.9080 C.3   1 <1>  -0.1600 
 12 C        6.4120     3.5120    -0.2940 C.3   1 <1>  -0.0800 
 13 C        7.5640     4.5200    -0.1220 C.3   1 <1>  -0.1600 
 14 C        8.9490     3.8630    -0.0730 C.3   1 <1>  -0.2400 
 15 H        1.2550    -0.8050    -1.6770 H     1 <1>   0.0800 
 16 H        1.3750    -1.0310     0.0520 H     1 <1>   0.0800 
 17 H        0.1210     0.5460     1.4500 H     1 <1>   0.0800 
 18 H       -0.7940     1.7750     0.6100 H     1 <1>   0.0800 
 19 H        2.5610     1.2230    -1.6020 H     1 <1>   0.0800 
 20 H        3.4680    -0.0150    -0.7760 H     1 <1>   0.0800 
 21 H        1.3100     2.7040     1.6360 H     1 <1>   0.0800 
 22 H        1.2090     2.9290    -0.0880 H     1 <1>   0.0800 
 23 H        2.7280     0.8330     1.3150 H     1 <1>   0.4500 
 24 H        3.6770     3.0340     1.4460 H     1 <1>   0.0800 
 25 H        3.0050     3.9060    -0.7600 H     1 <1>   0.0800 
 26 H        4.0410     2.7390    -1.5460 H     1 <1>   0.0800 
 27 H        5.2690     0.9640    -0.0700 H     1 <1>   0.0800 
 28 H        5.0280     1.0080     1.6610 H     1 <1>   0.0800 
 29 H        4.9220     4.9410     0.3180 H     1 <1>   0.0800 
 30 H        5.1680     4.8760    -1.4010 H     1 <1>   0.0800 
 31 H        7.1900     1.9610     0.9900 H     1 <1>   0.0800 
 32 H        6.2050     3.1290     1.8150 H     1 <1>   0.0800 
 33 H        6.6120     2.9280    -1.1790 H     1 <1>   0.0800 
 34 H        7.4160     5.0990     0.7750 H     1 <1>   0.0800 
 35 H        7.5530     5.2060    -0.9520 H     1 <1>   0.0800 
 36 H        9.0670     3.2680     0.8140 H     1 <1>   0.0800 
 37 H        9.7110     4.6230    -0.0640 H     1 <1>   0.0800 
 38 H        9.1040     3.2410    -0.9370 H     1 <1>   0.0800 
@<TRIPOS>BOND
  1   1   2  1   
  2   1   3  1   
  3   2   4  1   
  4   2  15  1   
  5   2  16  1   
  6   3   5  1   
  7   3  17  1   
  8   3  18  1   
  9   4   6  1   
 10   4  19  1   
 11   4  20  1   
 12   5   6  1   
 13   5  21  1   
 14   5  22  1   
 15   6   7  1   
 16   6  23  1   
 17   7   8  1   
 18   7   9  1   
 19   7  24  1   
 20   8  10  1   
 21   8  25  1   
 22   8  26  1   
 23   9  11  1   
 24   9  27  1   
 25   9  28  1   
 26  10  12  1   
 27  10  29  1   
 28  10  30  1   
 29  11  12  1   
 30  11  31  1   
 31  11  32  1   
 32  12  13  1   
 33  12  33  1   
 34  13  14  1   
 35  13  34  1   
 36  13  35  1   
 37  14  36  1   
 38  14  37  1   
 39  14  38  1   
@<TRIPOS>SUBSTRUCTURE
  1 ****   7 GROUP 4 **** **** 0

# MOE 2024.06 (io_trps.svl 2023.06)
