@<TRIPOS>MOLECULE
NONAME
36 38 1 0 0 
SMALL
USER_CHARGES


@<TRIPOS>ATOM
  1 CL      -0.1560    -0.9120    -2.2360 Cl    1 <1>  -0.1770 
  2 C       -0.2760    -2.2030    -1.0630 C.ar  1 <1>   0.1770 
  3 C       -1.5200    -2.7410    -0.7450 C.ar  1 <1>   0.0830 
  4 C        0.8800    -2.6640    -0.4700 C.ar  1 <1>  -0.1500 
  5 O       -2.6300    -2.2620    -1.3500 O.3   1 <1>  -0.1590 
  6 C       -1.6190    -3.7740     0.1980 C.ar  1 <1>   0.0860 
  7 C        0.7780    -3.6840     0.4580 C.ar  1 <1>   0.1770 
  8 C       -3.8410    -2.7480    -1.0700 C.2   1 <1>  -0.0730 
  9 C       -2.9190    -4.3100     0.5100 C.2   1 <1>   0.4690 
 10 C       -0.4410    -4.2360     0.7940 C.ar  1 <1>  -0.1500 
 11 CL       2.2290    -4.2820     1.2190 Cl    1 <1>  -0.1770 
 12 C       -4.0370    -3.7370    -0.1690 C.2   1 <1>  -0.1240 
 13 O       -3.0560    -5.2140     1.3150 O.2   1 <1>  -0.5700 
 14 C       -5.4090    -4.3140     0.1670 C.3   1 <1>   0.2480 
 15 N       -6.5040    -3.4220    -0.2600 N.3   1 <1>  -0.8100 
 16 C       -6.6460    -2.2700     0.6630 C.3   1 <1>   0.1100 
 17 C       -7.7810    -4.1600    -0.3420 C.3   1 <1>   0.1100 
 18 C       -7.7560    -1.3080     0.2080 C.3   1 <1>   0.1400 
 19 C       -8.9290    -3.2580    -0.8320 C.3   1 <1>   0.1400 
 20 N       -9.0410    -2.0400     0.0140 N.am  1 <1>  -0.6600 
 21 C      -10.2070    -1.6510     0.6050 C.2   1 <1>   0.5700 
 22 O      -10.3040    -0.6860     1.3250 O.2   1 <1>  -0.5700 
 23 H        1.8370    -2.2440    -0.7210 H     1 <1>   0.1500 
 24 H       -4.6350    -2.2810    -1.6290 H     1 <1>   0.1500 
 25 H       -0.4860    -5.0290     1.5210 H     1 <1>   0.1500 
 26 H       -5.4870    -4.4960     1.2270 H     1 <1>   0.0800 
 27 H       -5.4970    -5.2630    -0.3340 H     1 <1>   0.0800 
 28 H       -5.7200    -1.7240     0.7120 H     1 <1>   0.0800 
 29 H       -6.8760    -2.6190     1.6560 H     1 <1>   0.0800 
 30 H       -8.0370    -4.5610     0.6250 H     1 <1>   0.0800 
 31 H       -7.6750    -4.9820    -1.0290 H     1 <1>   0.0800 
 32 H       -7.4690    -0.8480    -0.7210 H     1 <1>   0.0800 
 33 H       -7.8780    -0.5290     0.9410 H     1 <1>   0.0800 
 34 H       -9.8530    -3.8070    -0.8130 H     1 <1>   0.0800 
 35 H       -8.7330    -2.9630    -1.8490 H     1 <1>   0.0800 
 36 H      -11.0890    -2.2390     0.4210 H     1 <1>   0.0600 
@<TRIPOS>BOND
  1   1   2  1   
  2   2   3  ar  
  3   2   4  ar  
  4   3   5  1   
  5   3   6  ar  
  6   4   7  ar  
  7   4  23  1   
  8   5   8  1   
  9   6   9  1   
 10   6  10  ar  
 11   7  10  ar  
 12   7  11  1   
 13   8  12  2   
 14   8  24  1   
 15   9  12  1   
 16   9  13  2   
 17  10  25  1   
 18  12  14  1   
 19  14  15  1   
 20  14  26  1   
 21  14  27  1   
 22  15  16  1   
 23  15  17  1   
 24  16  18  1   
 25  16  28  1   
 26  16  29  1   
 27  17  19  1   
 28  17  30  1   
 29  17  31  1   
 30  18  20  1   
 31  18  32  1   
 32  18  33  1   
 33  19  20  1   
 34  19  34  1   
 35  19  35  1   
 36  20  21  am  
 37  21  22  2   
 38  21  36  1   
@<TRIPOS>SUBSTRUCTURE
  1 ****  12 GROUP 4 **** **** 0

# MOE 2024.06 (io_trps.svl 2023.06)
