@<TRIPOS>MOLECULE
Structure2294
25 26 1 0 0 
SMALL
USER_CHARGES


@<TRIPOS>ATOM
  1 CL       0.1340    -0.2160    -1.4150 Cl    1 <1>  -0.1770 
  2 C        0.8210    -1.5560    -0.5230 C.ar  1 <1>   0.1770 
  3 C        0.0200    -2.6210    -0.1210 C.ar  1 <1>  -0.1440 
  4 C        2.1740    -1.5070    -0.2440 C.ar  1 <1>  -0.1500 
  5 C        0.6350    -3.6620     0.5700 C.ar  1 <1>  -0.1500 
  6 C       -1.4760    -2.6100    -0.4600 C.3   1 <1>   0.0640 
  7 C        2.7620    -2.5450     0.4520 C.ar  1 <1>  -0.1500 
  8 C        1.9900    -3.6210     0.8550 C.ar  1 <1>  -0.1500 
  9 C       -2.2190    -1.4660     0.2370 C.3   1 <1>   0.3430 
 10 C       -2.2950    -3.8440    -0.0780 C.3   1 <1>  -0.1600 
 11 N       -3.6110    -1.9520     0.4900 N.4   1 <1>  -0.9060 
 12 C       -3.7250    -3.3330    -0.0440 C.3   1 <1>   0.3430 
 13 H        2.7600    -0.6660    -0.5700 H     1 <1>   0.1500 
 14 H        0.0930    -4.5300     0.8980 H     1 <1>   0.1500 
 15 H       -1.5710    -2.4650    -1.5230 H     1 <1>   0.0800 
 16 H        3.8150    -2.5200     0.6770 H     1 <1>   0.1500 
 17 H        2.4520    -4.4330     1.3910 H     1 <1>   0.1500 
 18 H       -2.2180    -0.5820    -0.3810 H     1 <1>   0.0800 
 19 H       -1.7330    -1.2400     1.1720 H     1 <1>   0.0800 
 20 H       -2.0480    -4.1960     0.9070 H     1 <1>   0.0800 
 21 H       -2.1720    -4.6480    -0.7840 H     1 <1>   0.0800 
 22 H       -4.3060    -1.3290     0.0570 H     1 <1>   0.4500 
 23 H       -3.7880    -1.9540     1.5040 H     1 <1>   0.4500 
 24 H       -4.3580    -3.9530     0.5720 H     1 <1>   0.0800 
 25 H       -4.1200    -3.3050    -1.0480 H     1 <1>   0.0800 
@<TRIPOS>BOND
  1   1   2  1   
  2   2   3  ar  
  3   2   4  ar  
  4   3   5  ar  
  5   3   6  1   
  6   4   7  ar  
  7   4  13  1   
  8   5   8  ar  
  9   5  14  1   
 10   6   9  1   
 11   6  10  1   
 12   6  15  1   
 13   7   8  ar  
 14   7  16  1   
 15   8  17  1   
 16   9  11  1   
 17   9  18  1   
 18   9  19  1   
 19  10  12  1   
 20  10  20  1   
 21  10  21  1   
 22  11  12  1   
 23  11  22  1   
 24  11  23  1   
 25  12  24  1   
 26  12  25  1   
@<TRIPOS>SUBSTRUCTURE
  1 ****   3 GROUP 4 **** **** 0

# MOE 2024.06 (io_trps.svl 2023.06)
