@<TRIPOS>MOLECULE
NONAME
38 39 1 0 0 
SMALL
USER_CHARGES


@<TRIPOS>ATOM
  1 O        0.2660     0.2560    -0.0950 O.3   1 <1>  -0.6800 
  2 C        1.3420    -0.4530     0.3950 C.3   1 <1>   0.2000 
  3 C        2.6280     0.2530    -0.0790 C.3   1 <1>   0.3430 
  4 C        1.2460    -1.8850    -0.1340 C.3   1 <1>  -0.1600 
  5 N        3.8770    -0.5430     0.2190 N.4   1 <1>  -0.9590 
  6 C        2.5480    -2.6480     0.1490 C.3   1 <1>  -0.1600 
  7 C        5.1240     0.1680    -0.2120 C.3   1 <1>   0.4230 
  8 C        3.7730    -1.9070    -0.3950 C.3   1 <1>   0.3430 
  9 C        6.3660    -0.6980     0.1040 C.3   1 <1>  -0.1600 
 10 C        5.2510     1.5470     0.4590 C.3   1 <1>  -0.1600 
 11 C        7.6590     0.1070     0.3460 C.3   1 <1>  -0.0800 
 12 C        6.4830     2.3160    -0.0550 C.3   1 <1>  -0.1600 
 13 C        7.6500     1.4040    -0.4690 C.3   1 <1>  -0.1600 
 14 C        8.8970    -0.7370     0.0210 C.3   1 <1>  -0.2400 
 15 H       -0.5820    -0.1450     0.1880 H     1 <1>   0.4000 
 16 H        1.2890    -0.4350     1.4710 H     1 <1>   0.0800 
 17 H        2.6710     1.2120     0.4070 H     1 <1>   0.0800 
 18 H        2.5530     0.4120    -1.1410 H     1 <1>   0.0800 
 19 H        1.0770    -1.8640    -1.1990 H     1 <1>   0.0800 
 20 H        0.4210    -2.3950     0.3330 H     1 <1>   0.0800 
 21 H        3.9420    -0.6600     1.2370 H     1 <1>   0.4500 
 22 H        2.4940    -3.6170    -0.3160 H     1 <1>   0.0800 
 23 H        2.6640    -2.8070     1.2070 H     1 <1>   0.0800 
 24 H        5.0900     0.3280    -1.2780 H     1 <1>   0.0800 
 25 H        4.6550    -2.4860    -0.1730 H     1 <1>   0.0800 
 26 H        3.6910    -1.8170    -1.4670 H     1 <1>   0.0800 
 27 H        6.5230    -1.3580    -0.7310 H     1 <1>   0.0800 
 28 H        6.1960    -1.2990     0.9800 H     1 <1>   0.0800 
 29 H        5.3470     1.4120     1.5230 H     1 <1>   0.0800 
 30 H        4.3950     2.1670     0.2730 H     1 <1>   0.0800 
 31 H        7.7110     0.3750     1.3900 H     1 <1>   0.0800 
 32 H        6.8150     2.9880     0.7200 H     1 <1>   0.0800 
 33 H        6.2090     2.9240    -0.9020 H     1 <1>   0.0800 
 34 H        7.5690     1.1650    -1.5170 H     1 <1>   0.0800 
 35 H        8.5780     1.9350    -0.3330 H     1 <1>   0.0800 
 36 H        8.9200    -1.0030    -1.0220 H     1 <1>   0.0800 
 37 H        8.9030    -1.6390     0.6080 H     1 <1>   0.0800 
 38 H        9.7930    -0.1850     0.2490 H     1 <1>   0.0800 
@<TRIPOS>BOND
  1   1   2  1   
  2   1  15  1   
  3   2   3  1   
  4   2   4  1   
  5   2  16  1   
  6   3   5  1   
  7   3  17  1   
  8   3  18  1   
  9   4   6  1   
 10   4  19  1   
 11   4  20  1   
 12   5   7  1   
 13   5   8  1   
 14   5  21  1   
 15   6   8  1   
 16   6  22  1   
 17   6  23  1   
 18   7   9  1   
 19   7  10  1   
 20   7  24  1   
 21   8  25  1   
 22   8  26  1   
 23   9  11  1   
 24   9  27  1   
 25   9  28  1   
 26  10  12  1   
 27  10  29  1   
 28  10  30  1   
 29  11  13  1   
 30  11  14  1   
 31  11  31  1   
 32  12  13  1   
 33  12  32  1   
 34  12  33  1   
 35  13  34  1   
 36  13  35  1   
 37  14  36  1   
 38  14  37  1   
 39  14  38  1   
@<TRIPOS>SUBSTRUCTURE
  1 ****   5 GROUP 4 **** **** 0

# MOE 2024.06 (io_trps.svl 2023.06)
