@<TRIPOS>MOLECULE
NONAME
46 49 1 0 0 
SMALL
USER_CHARGES


@<TRIPOS>ATOM
  1 F        0.9880    -0.6680     0.1340 F     1 <1>  -0.1900 
  2 C        0.8080    -1.9620     0.1080 C.ar  1 <1>   0.1900 
  3 C        1.2460    -2.7180     1.1790 C.ar  1 <1>  -0.1500 
  4 C        0.1890    -2.5270    -0.9910 C.ar  1 <1>  -0.1500 
  5 C        1.0560    -4.0880     1.1410 C.ar  1 <1>  -0.1500 
  6 C        0.0050    -3.8990    -1.0140 C.ar  1 <1>  -0.1500 
  7 C        0.4390    -4.6920     0.0470 C.ar  1 <1>   0.1170 
  8 N        0.2540    -6.0920     0.0070 N.am  1 <1>  -0.2370 
  9 C       -0.9910    -6.6260     0.2950 C.2   1 <1>   0.5440 
 10 C        1.2810    -6.9570    -0.3640 C.2   1 <1>   0.4490 
 11 O       -1.9160    -5.8970     0.6180 O.2   1 <1>  -0.5700 
 12 C       -1.1770    -8.0450     0.1880 C.ar  1 <1>   0.0860 
 13 N        1.1370    -8.2260    -0.4860 N.2   1 <1>  -0.6290 
 14 C        2.6700    -6.3710    -0.6620 C.3   1 <1>   0.1710 
 15 C       -0.0790    -8.8110    -0.2130 C.ar  1 <1>   0.1790 
 16 C       -2.3870    -8.6930     0.4560 C.ar  1 <1>  -0.1500 
 17 N        3.4420    -6.0680     0.5620 N.3   1 <1>  -0.9000 
 18 C       -0.2110   -10.1890    -0.3380 C.ar  1 <1>  -0.1500 
 19 C       -2.5060   -10.0610     0.3280 C.ar  1 <1>  -0.1500 
 20 C        4.7310    -5.4230     0.2890 C.3   1 <1>   0.1100 
 21 C       -1.4110   -10.8150    -0.0710 C.ar  1 <1>  -0.1500 
 22 C        5.7630    -6.4010    -0.3070 C.3   1 <1>   0.2000 
 23 O        5.7910    -7.5860     0.4250 O.3   1 <1>  -0.5600 
 24 C        7.1970    -5.8950    -0.2680 C.3   1 <1>  -0.1600 
 25 C        7.0280    -8.2170     0.3060 C.3   1 <1>   0.1200 
 26 C        7.9960    -7.1850    -0.2710 C.3   1 <1>  -0.1600 
 27 H        1.7230    -2.2450     2.0170 H     1 <1>   0.1500 
 28 H       -0.1430    -1.9050    -1.8020 H     1 <1>   0.1500 
 29 H        1.3940    -4.7010     1.9590 H     1 <1>   0.1500 
 30 H       -0.4840    -4.3600    -1.8530 H     1 <1>   0.1500 
 31 H        2.5620    -5.4800    -1.2540 H     1 <1>   0.0800 
 32 H        3.2150    -7.0890    -1.2490 H     1 <1>   0.0800 
 33 H       -3.2350    -8.1050     0.7660 H     1 <1>   0.1500 
 34 H        3.6800    -6.9740     1.0040 H     1 <1>   0.3600 
 35 H        0.6460   -10.7610    -0.6470 H     1 <1>   0.1500 
 36 H       -3.4430   -10.5470     0.5370 H     1 <1>   0.1500 
 37 H        5.1180    -5.0470     1.2200 H     1 <1>   0.0800 
 38 H        4.5930    -4.5810    -0.3670 H     1 <1>   0.0800 
 39 H       -1.5010   -11.8830    -0.1710 H     1 <1>   0.1500 
 40 H        5.4970    -6.6550    -1.3180 H     1 <1>   0.0800 
 41 H        7.3720    -5.3560     0.6470 H     1 <1>   0.0800 
 42 H        7.4260    -5.2620    -1.1070 H     1 <1>   0.0800 
 43 H        6.9180    -9.0670    -0.3460 H     1 <1>   0.0800 
 44 H        7.3310    -8.5420     1.2860 H     1 <1>   0.0800 
 45 H        8.8930    -7.1100     0.3180 H     1 <1>   0.0800 
 46 H        8.2580    -7.4670    -1.2760 H     1 <1>   0.0800 
@<TRIPOS>BOND
  1   1   2  1   
  2   2   3  ar  
  3   2   4  ar  
  4   3   5  ar  
  5   3  27  1   
  6   4   6  ar  
  7   4  28  1   
  8   5   7  ar  
  9   5  29  1   
 10   6   7  ar  
 11   6  30  1   
 12   7   8  1   
 13   8   9  am  
 14   8  10  1   
 15   9  11  2   
 16   9  12  1   
 17  10  13  2   
 18  10  14  1   
 19  12  15  ar  
 20  12  16  ar  
 21  13  15  1   
 22  14  17  1   
 23  14  31  1   
 24  14  32  1   
 25  15  18  ar  
 26  16  19  ar  
 27  16  33  1   
 28  17  20  1   
 29  17  34  1   
 30  18  21  ar  
 31  18  35  1   
 32  19  21  ar  
 33  19  36  1   
 34  20  22  1   
 35  20  37  1   
 36  20  38  1   
 37  21  39  1   
 38  22  23  1   
 39  22  24  1   
 40  22  40  1   
 41  23  25  1   
 42  24  26  1   
 43  24  41  1   
 44  24  42  1   
 45  25  26  1   
 46  25  43  1   
 47  25  44  1   
 48  26  45  1   
 49  26  46  1   
@<TRIPOS>SUBSTRUCTURE
  1 ****  10 GROUP 4 **** **** 0

# MOE 2024.06 (io_trps.svl 2023.06)
