@<TRIPOS>MOLECULE
NONAME
42 43 1 0 0 
SMALL
USER_CHARGES


@<TRIPOS>ATOM
  1 CL      -1.6160    -4.2230     2.2440 Cl    1 <1>  -0.1770 
  2 C       -0.7100    -3.7130     0.8360 C.ar  1 <1>   0.1770 
  3 C       -1.3760    -3.2530    -0.2920 C.ar  1 <1>   0.0830 
  4 C        0.6680    -3.7800     0.8820 C.ar  1 <1>  -0.1500 
  5 O       -2.7300    -3.2090    -0.2610 O.3   1 <1>  -0.3630 
  6 C       -0.6220    -2.8590    -1.3930 C.ar  1 <1>  -0.1500 
  7 C        1.4300    -3.3910    -0.2130 C.ar  1 <1>  -0.0090 
  8 C       -3.4940    -2.6330    -1.3120 C.3   1 <1>   0.1810 
  9 C        0.7610    -2.9300    -1.3430 C.ar  1 <1>  -0.1500 
 10 S        3.2390    -3.4710    -0.1550 S.o2  1 <1>   1.4470 
 11 C       -4.9760    -2.6150    -0.9610 C.2   1 <1>   0.5690 
 12 O        3.7740    -3.4200    -1.4990 O.2   1 <1>  -0.6500 
 13 O        3.7130    -2.5370     0.8410 O.2   1 <1>  -0.6500 
 14 N        3.5300    -5.0300     0.4430 N.am  1 <1>  -0.8490 
 15 O       -5.7590    -2.2060    -1.7850 O.2   1 <1>  -0.5700 
 16 N       -5.3730    -3.0520     0.2640 N.am  1 <1>  -0.7300 
 17 C        4.8960    -5.1560     0.9750 C.3   1 <1>   0.1960 
 18 C        3.3070    -6.0810    -0.5650 C.3   1 <1>   0.1960 
 19 C       -6.7600    -3.1170     0.7560 C.3   1 <1>   0.1400 
 20 C        5.1570    -6.5750     1.5120 C.3   1 <1>   0.1200 
 21 C        3.5950    -7.4760     0.0190 C.3   1 <1>   0.1200 
 22 C       -7.0060    -4.5090     1.3250 C.3   1 <1>  -0.2400 
 23 O        4.8980    -7.5340     0.5260 O.3   1 <1>  -0.5600 
 24 H        1.1520    -4.1360     1.7750 H     1 <1>   0.1500 
 25 H       -1.0870    -2.4980    -2.2920 H     1 <1>   0.1500 
 26 H       -3.3470    -3.2160    -2.2020 H     1 <1>   0.0800 
 27 H       -3.1580    -1.6250    -1.4690 H     1 <1>   0.0800 
 28 H        1.3360    -2.6200    -2.2020 H     1 <1>   0.1500 
 29 H       -4.6450    -3.3850     0.9050 H     1 <1>   0.3700 
 30 H        5.0380    -4.4520     1.7790 H     1 <1>   0.0800 
 31 H        5.6160    -4.9300     0.2050 H     1 <1>   0.0800 
 32 H        3.9490    -5.9260    -1.4170 H     1 <1>   0.0800 
 33 H        2.2860    -6.0470    -0.9050 H     1 <1>   0.0800 
 34 H       -7.4460    -2.9200    -0.0510 H     1 <1>   0.0800 
 35 H       -6.9030    -2.3710     1.5190 H     1 <1>   0.0800 
 36 H        4.5290    -6.7770     2.3630 H     1 <1>   0.0800 
 37 H        6.1860    -6.6780     1.8080 H     1 <1>   0.0800 
 38 H        3.5070    -8.2260    -0.7460 H     1 <1>   0.0800 
 39 H        2.9050    -7.7050     0.8120 H     1 <1>   0.0800 
 40 H       -6.8640    -5.2520     0.5610 H     1 <1>   0.0800 
 41 H       -8.0170    -4.5780     1.6830 H     1 <1>   0.0800 
 42 H       -6.3390    -4.7040     2.1460 H     1 <1>   0.0800 
@<TRIPOS>BOND
  1   1   2  1   
  2   2   3  ar  
  3   2   4  ar  
  4   3   5  1   
  5   3   6  ar  
  6   4   7  ar  
  7   4  24  1   
  8   5   8  1   
  9   6   9  ar  
 10   6  25  1   
 11   7   9  ar  
 12   7  10  1   
 13   8  11  1   
 14   8  26  1   
 15   8  27  1   
 16   9  28  1   
 17  10  12  2   
 18  10  13  2   
 19  10  14  am  
 20  11  15  2   
 21  11  16  am  
 22  14  17  1   
 23  14  18  1   
 24  16  19  1   
 25  16  29  1   
 26  17  20  1   
 27  17  30  1   
 28  17  31  1   
 29  18  21  1   
 30  18  32  1   
 31  18  33  1   
 32  19  22  1   
 33  19  34  1   
 34  19  35  1   
 35  20  23  1   
 36  20  36  1   
 37  20  37  1   
 38  21  23  1   
 39  21  38  1   
 40  21  39  1   
 41  22  40  1   
 42  22  41  1   
 43  22  42  1   
@<TRIPOS>SUBSTRUCTURE
  1 ****   2 GROUP 4 **** **** 0

# MOE 2024.06 (io_trps.svl 2023.06)
