@<TRIPOS>MOLECULE
NONAME
24 24 1 0 0 
SMALL
USER_CHARGES


@<TRIPOS>ATOM
  1 S       -0.2760    -0.4870    -0.0810 S.o2  1 <1>   1.2570 
  2 O       -0.3920    -1.4110     1.0260 O.2   1 <1>  -0.6500 
  3 O       -0.1050    -0.9990    -1.4230 O.2   1 <1>  -0.6500 
  4 C       -1.7090     0.6110    -0.0910 C.2   1 <1>  -0.0220 
  5 C        1.0680     0.6520     0.2790 C.3   1 <1>  -0.0550 
  6 S       -2.0680     1.5320     1.3690 S.3   1 <1>  -0.0800 
  7 C       -2.6270     0.9010    -1.0360 C.2   1 <1>  -0.1500 
  8 C        2.4410    -0.0040     0.5250 C.3   1 <1>  -0.0800 
  9 C       -3.4660     2.2860     0.6270 C.2   1 <1>  -0.1100 
 10 C       -3.6210     1.8490    -0.6350 C.2   1 <1>  -0.1500 
 11 C        3.4140     1.0320     1.1040 C.3   1 <1>  -0.2400 
 12 C        3.0390    -0.5970    -0.7580 C.3   1 <1>  -0.2400 
 13 H        0.8100     1.1990     1.1650 H     1 <1>   0.0800 
 14 H        1.1570     1.3630    -0.5200 H     1 <1>   0.0800 
 15 H       -2.6420     0.4720    -2.0250 H     1 <1>   0.1500 
 16 H        2.3230    -0.7950     1.2490 H     1 <1>   0.0800 
 17 H       -4.0310     2.9830     1.2210 H     1 <1>   0.1500 
 18 H       -4.4020     2.1520    -1.3110 H     1 <1>   0.1500 
 19 H        3.5650     1.8430     0.4130 H     1 <1>   0.0800 
 20 H        4.3670     0.5750     1.3070 H     1 <1>   0.0800 
 21 H        3.0340     1.4310     2.0280 H     1 <1>   0.0800 
 22 H        3.1220     0.1530    -1.5260 H     1 <1>   0.0800 
 23 H        2.4310    -1.4020    -1.1280 H     1 <1>   0.0800 
 24 H        4.0200    -0.9940    -0.5630 H     1 <1>   0.0800 
@<TRIPOS>BOND
  1   1   2  2   
  2   1   3  2   
  3   1   4  1   
  4   1   5  1   
  5   4   6  1   
  6   4   7  2   
  7   5   8  1   
  8   5  13  1   
  9   5  14  1   
 10   6   9  1   
 11   7  10  1   
 12   7  15  1   
 13   8  11  1   
 14   8  12  1   
 15   8  16  1   
 16   9  10  2   
 17   9  17  1   
 18  10  18  1   
 19  11  19  1   
 20  11  20  1   
 21  11  21  1   
 22  12  22  1   
 23  12  23  1   
 24  12  24  1   
@<TRIPOS>SUBSTRUCTURE
  1 ****   1 GROUP 4 **** **** 0

# MOE 2024.06 (io_trps.svl 2023.06)
