@<TRIPOS>MOLECULE
NONAME
54 56 1 0 0 
SMALL
USER_CHARGES


@<TRIPOS>ATOM
  1 O        1.3010     0.9530     2.5440 O.2   1 <1>  -0.5700 
  2 C        0.9000     1.9460     1.9670 C.2   1 <1>   0.5440 
  3 N        1.2740     3.1930     2.4310 N.am  1 <1>  -0.6600 
  4 C        0.0620     1.7990     0.7920 C.ar  1 <1>   0.0860 
  5 C        2.2430     3.3540     3.5450 C.3   1 <1>   0.1400 
  6 C        0.9830     4.4620     1.7150 C.3   1 <1>   0.1400 
  7 C        0.5840     1.4350    -0.4550 C.ar  1 <1>  -0.1440 
  8 C       -1.3080     2.0390     0.8860 C.ar  1 <1>  -0.1500 
  9 C        3.5770     3.8120     2.9550 C.3   1 <1>  -0.1600 
 10 C        2.2780     4.9720     1.0800 C.3   1 <1>  -0.1600 
 11 C       -0.2490     1.3360    -1.5580 C.ar  1 <1>  -0.1500 
 12 C        2.0690     1.1330    -0.6130 C.3   1 <1>  -0.0970 
 13 C       -2.1360     1.9390    -0.2160 C.ar  1 <1>  -0.1500 
 14 C        3.4250     5.0960     2.1090 C.3   1 <1>  -0.0190 
 15 C       -1.6040     1.5890    -1.4430 C.ar  1 <1>  -0.1500 
 16 C        4.7340     5.4700     1.4200 C.2   1 <1>   0.5690 
 17 O        5.2320     6.5410     1.6650 O.2   1 <1>  -0.5700 
 18 N        5.2650     4.5580     0.5530 N.am  1 <1>  -0.5470 
 19 C        6.4000     4.5310    -0.2760 C.ar  1 <1>   0.1170 
 20 C        6.6170     3.3780    -1.0400 C.ar  1 <1>   0.0830 
 21 C        7.3010     5.5840    -0.3670 C.ar  1 <1>  -0.1500 
 22 O        5.7020     2.3650    -0.9150 O.3   1 <1>  -0.3620 
 23 C        7.7240     3.2980    -1.8780 C.ar  1 <1>  -0.1500 
 24 C        8.4080     5.5010    -1.2040 C.ar  1 <1>   0.0830 
 25 C        5.9370     1.1040    -1.5050 C.3   1 <1>   0.0400 
 26 C        8.6120     4.3560    -1.9560 C.ar  1 <1>  -0.1500 
 27 O        9.3300     6.4910    -1.3420 O.3   1 <1>  -0.3620 
 28 C        9.2120     7.6940    -0.6130 C.3   1 <1>   0.0400 
 29 H        2.3740     2.4280     4.0790 H     1 <1>   0.0800 
 30 H        1.8680     4.0870     4.2390 H     1 <1>   0.0800 
 31 H        0.6070     5.1840     2.4200 H     1 <1>   0.0800 
 32 H        0.2350     4.3200     0.9550 H     1 <1>   0.0800 
 33 H       -1.7220     2.3070     1.8430 H     1 <1>   0.1500 
 34 H        3.9650     3.0060     2.3570 H     1 <1>   0.0800 
 35 H        4.2760     3.9880     3.7530 H     1 <1>   0.0800 
 36 H        2.0970     5.9320     0.6310 H     1 <1>   0.0800 
 37 H        2.5530     4.2960     0.2910 H     1 <1>   0.0800 
 38 H        0.1500     1.0580    -2.5180 H     1 <1>   0.1500 
 39 H        2.6590     1.9700    -0.2900 H     1 <1>   0.0800 
 40 H        2.3160     0.9190    -1.6370 H     1 <1>   0.0800 
 41 H        2.3300     0.2780    -0.0140 H     1 <1>   0.0800 
 42 H       -3.1910     2.1290    -0.1200 H     1 <1>   0.1500 
 43 H        3.1730     5.8990     2.7810 H     1 <1>   0.0800 
 44 H       -2.2440     1.5080    -2.3050 H     1 <1>   0.1500 
 45 H        4.7360     3.6880     0.4730 H     1 <1>   0.3700 
 46 H        7.1310     6.4630     0.2200 H     1 <1>   0.1500 
 47 H        7.9160     2.4300    -2.4790 H     1 <1>   0.1500 
 48 H        5.1380     0.4450    -1.2150 H     1 <1>   0.0800 
 49 H        6.8750     0.7190    -1.1460 H     1 <1>   0.0800 
 50 H        5.9480     1.2140    -2.5750 H     1 <1>   0.0800 
 51 H        9.4700     4.3030    -2.6010 H     1 <1>   0.1500 
 52 H       10.0420     8.3250    -0.8730 H     1 <1>   0.0800 
 53 H        9.2370     7.4700     0.4390 H     1 <1>   0.0800 
 54 H        8.2880     8.1760    -0.8810 H     1 <1>   0.0800 
@<TRIPOS>BOND
  1   1   2  2   
  2   2   3  am  
  3   2   4  1   
  4   3   5  1   
  5   3   6  1   
  6   4   7  ar  
  7   4   8  ar  
  8   5   9  1   
  9   5  29  1   
 10   5  30  1   
 11   6  10  1   
 12   6  31  1   
 13   6  32  1   
 14   7  11  ar  
 15   7  12  1   
 16   8  13  ar  
 17   8  33  1   
 18   9  14  1   
 19   9  34  1   
 20   9  35  1   
 21  10  14  1   
 22  10  36  1   
 23  10  37  1   
 24  11  15  ar  
 25  11  38  1   
 26  12  39  1   
 27  12  40  1   
 28  12  41  1   
 29  13  15  ar  
 30  13  42  1   
 31  14  16  1   
 32  14  43  1   
 33  15  44  1   
 34  16  17  2   
 35  16  18  am  
 36  18  19  1   
 37  18  45  1   
 38  19  20  ar  
 39  19  21  ar  
 40  20  22  1   
 41  20  23  ar  
 42  21  24  ar  
 43  21  46  1   
 44  22  25  1   
 45  23  26  ar  
 46  23  47  1   
 47  24  26  ar  
 48  24  27  1   
 49  25  48  1   
 50  25  49  1   
 51  25  50  1   
 52  26  51  1   
 53  27  28  1   
 54  28  52  1   
 55  28  53  1   
 56  28  54  1   
@<TRIPOS>SUBSTRUCTURE
  1 ****  18 GROUP 4 **** **** 0

# MOE 2024.06 (io_trps.svl 2023.06)
