@<TRIPOS>MOLECULE
NONAME
33 33 1 0 0 
SMALL
USER_CHARGES


@<TRIPOS>ATOM
  1 BR      -0.4600     0.7400     1.0790 Br    1 <1>  -0.1110 
  2 C        1.2480     1.4920     0.6090 C.ar  1 <1>   0.1110 
  3 C        1.3750     2.4100    -0.4250 C.ar  1 <1>  -0.0090 
  4 C        2.3270     1.0620     1.3590 C.ar  1 <1>  -0.1500 
  5 S       -0.0440     2.9780    -1.3980 S.o2  1 <1>   1.4470 
  6 C        2.6580     2.8770    -0.6870 C.ar  1 <1>  -0.1500 
  7 C        3.5850     1.5550     1.0740 C.ar  1 <1>  -0.1500 
  8 O       -0.6770     1.8140    -1.9790 O.2   1 <1>  -0.6500 
  9 O        0.3780     4.0300    -2.3000 O.2   1 <1>  -0.6500 
 10 N       -1.0980     3.6820    -0.2560 N.am  1 <1>  -0.8490 
 11 C        3.7810     2.4730     0.0400 C.ar  1 <1>   0.0860 
 12 C       -0.8410     5.1090    -0.0030 C.3   1 <1>   0.1960 
 13 C       -2.5110     3.4320    -0.5690 C.3   1 <1>   0.1960 
 14 C        5.0960     3.0020    -0.2750 C.2   1 <1>   0.5440 
 15 C        0.4560     5.3080     0.7760 C.3   1 <1>  -0.2400 
 16 C       -3.3830     3.5690     0.6810 C.3   1 <1>  -0.2400 
 17 O        5.2360     4.0950    -0.7750 O.2   1 <1>  -0.5700 
 18 N        6.2300     2.3020    -0.0410 N.am  1 <1>  -0.8000 
 19 H        2.1770     0.3530     2.1550 H     1 <1>   0.1500 
 20 H        2.8010     3.5890    -1.4850 H     1 <1>   0.1500 
 21 H        4.4230     1.2310     1.6650 H     1 <1>   0.1500 
 22 H       -1.6300     5.5240     0.5970 H     1 <1>   0.0800 
 23 H       -0.8180     5.6640    -0.9270 H     1 <1>   0.0800 
 24 H       -2.6410     2.4200    -0.9140 H     1 <1>   0.0800 
 25 H       -2.8470     4.0930    -1.3510 H     1 <1>   0.0800 
 26 H        0.4940     4.6440     1.6210 H     1 <1>   0.0800 
 27 H        0.5000     6.3190     1.1370 H     1 <1>   0.0800 
 28 H        1.3120     5.1570     0.1460 H     1 <1>   0.0800 
 29 H       -2.9670     2.9870     1.4840 H     1 <1>   0.0800 
 30 H       -4.3670     3.1920     0.4670 H     1 <1>   0.0800 
 31 H       -3.4860     4.5910     0.9880 H     1 <1>   0.0800 
 32 H        7.1200     2.7190    -0.3200 H     1 <1>   0.3700 
 33 H        6.2520     1.3230     0.2360 H     1 <1>   0.3700 
@<TRIPOS>BOND
  1   1   2  1   
  2   2   3  ar  
  3   2   4  ar  
  4   3   5  1   
  5   3   6  ar  
  6   4   7  ar  
  7   4  19  1   
  8   5   8  2   
  9   5   9  2   
 10   5  10  am  
 11   6  11  ar  
 12   6  20  1   
 13   7  11  ar  
 14   7  21  1   
 15  10  12  1   
 16  10  13  1   
 17  11  14  1   
 18  12  15  1   
 19  12  22  1   
 20  12  23  1   
 21  13  16  1   
 22  13  24  1   
 23  13  25  1   
 24  14  17  2   
 25  14  18  am  
 26  15  26  1   
 27  15  27  1   
 28  15  28  1   
 29  16  29  1   
 30  16  30  1   
 31  16  31  1   
 32  18  32  1   
 33  18  33  1   
@<TRIPOS>SUBSTRUCTURE
  1 ****   3 GROUP 4 **** **** 0

# MOE 2024.06 (io_trps.svl 2023.06)
