@<TRIPOS>MOLECULE
NONAME
47 48 1 0 0 
SMALL
USER_CHARGES


@<TRIPOS>ATOM
  1 S        0.5860     0.7680    -1.6510 S.o2  1 <1>   1.4470 
  2 O        0.3940     2.0550    -2.2880 O.2   1 <1>  -0.6500 
  3 O        0.0570    -0.4210    -2.2830 O.2   1 <1>  -0.6500 
  4 N       -0.1060     0.8760    -0.1070 N.am  1 <1>  -0.8490 
  5 C        2.3450     0.5130    -1.3000 C.ar  1 <1>  -0.0090 
  6 C        0.2500     2.1290     0.5690 C.3   1 <1>   0.1960 
  7 C       -1.5610     0.7060    -0.1640 C.3   1 <1>   0.1960 
  8 C        2.7550    -0.4350    -0.3710 C.ar  1 <1>  -0.1500 
  9 C        3.3250     1.2520    -1.9520 C.ar  1 <1>  -0.1500 
 10 C       -0.2600     2.1150     2.0130 C.3   1 <1>  -0.1600 
 11 C       -2.1470     0.6520     1.2510 C.3   1 <1>  -0.1600 
 12 C        4.0940    -0.6450    -0.0880 C.ar  1 <1>  -0.1430 
 13 C        4.6670     1.0570    -1.6850 C.ar  1 <1>  -0.1500 
 14 C       -1.7770     1.8990     2.0640 C.3   1 <1>  -0.1600 
 15 C        5.0600     0.1050    -0.7490 C.ar  1 <1>   0.0830 
 16 C        4.4900    -1.6960     0.9400 C.3   1 <1>  -0.0970 
 17 O        6.3590    -0.1350    -0.4440 O.3   1 <1>  -0.3630 
 18 C        7.4230     0.5190    -1.1240 C.3   1 <1>   0.1810 
 19 C        8.7760     0.0230    -0.6310 C.2   1 <1>   0.5690 
 20 O        9.7760     0.5040    -1.1080 O.2   1 <1>  -0.5700 
 21 N        8.8200    -0.9400     0.3280 N.am  1 <1>  -0.7300 
 22 C       10.0380    -1.5380     0.9020 C.3   1 <1>   0.1400 
 23 C        9.8970    -3.0550     0.8620 C.3   1 <1>  -0.2400 
 24 H       -0.1760     2.9670     0.0400 H     1 <1>   0.0800 
 25 H        1.3210     2.2470     0.5790 H     1 <1>   0.0800 
 26 H       -1.8010    -0.2150    -0.6690 H     1 <1>   0.0800 
 27 H       -2.0020     1.5180    -0.7190 H     1 <1>   0.0800 
 28 H        2.0010    -1.0140     0.1340 H     1 <1>   0.1500 
 29 H        3.0300     1.9900    -2.6800 H     1 <1>   0.1500 
 30 H       -0.0110     3.0470     2.4890 H     1 <1>   0.0800 
 31 H        0.2400     1.3270     2.5500 H     1 <1>   0.0800 
 32 H       -1.7730    -0.2280     1.7440 H     1 <1>   0.0800 
 33 H       -3.2170     0.5640     1.1900 H     1 <1>   0.0800 
 34 H        5.3840     1.6550    -2.2150 H     1 <1>   0.1500 
 35 H       -2.2750     2.7580     1.6480 H     1 <1>   0.0800 
 36 H       -2.1000     1.7840     3.0840 H     1 <1>   0.0800 
 37 H        3.6240    -2.1780     1.3580 H     1 <1>   0.0800 
 38 H        5.0440    -1.2350     1.7380 H     1 <1>   0.0800 
 39 H        5.1070    -2.4450     0.4760 H     1 <1>   0.0800 
 40 H        7.3460     1.5750    -0.9450 H     1 <1>   0.0800 
 41 H        7.3350     0.3120    -2.1750 H     1 <1>   0.0800 
 42 H        7.9260    -1.2860     0.6840 H     1 <1>   0.3700 
 43 H       10.1580    -1.2000     1.9170 H     1 <1>   0.0800 
 44 H       10.9010    -1.2310     0.3340 H     1 <1>   0.0800 
 45 H        9.0520    -3.3710     1.4470 H     1 <1>   0.0800 
 46 H       10.7830    -3.5090     1.2680 H     1 <1>   0.0800 
 47 H        9.7800    -3.3890    -0.1540 H     1 <1>   0.0800 
@<TRIPOS>BOND
  1   1   2  2   
  2   1   3  2   
  3   1   4  am  
  4   1   5  1   
  5   4   6  1   
  6   4   7  1   
  7   5   8  ar  
  8   5   9  ar  
  9   6  10  1   
 10   6  24  1   
 11   6  25  1   
 12   7  11  1   
 13   7  26  1   
 14   7  27  1   
 15   8  12  ar  
 16   8  28  1   
 17   9  13  ar  
 18   9  29  1   
 19  10  14  1   
 20  10  30  1   
 21  10  31  1   
 22  11  14  1   
 23  11  32  1   
 24  11  33  1   
 25  12  15  ar  
 26  12  16  1   
 27  13  15  ar  
 28  13  34  1   
 29  14  35  1   
 30  14  36  1   
 31  15  17  1   
 32  16  37  1   
 33  16  38  1   
 34  16  39  1   
 35  17  18  1   
 36  18  19  1   
 37  18  40  1   
 38  18  41  1   
 39  19  20  2   
 40  19  21  am  
 41  21  22  1   
 42  21  42  1   
 43  22  23  1   
 44  22  43  1   
 45  22  44  1   
 46  23  45  1   
 47  23  46  1   
 48  23  47  1   
@<TRIPOS>SUBSTRUCTURE
  1 ****  12 GROUP 4 **** **** 0

# MOE 2024.06 (io_trps.svl 2023.06)
