@<TRIPOS>MOLECULE
NONAME
42 44 1 0 0 
SMALL
USER_CHARGES


@<TRIPOS>ATOM
  1 O       -1.0020     0.8050     1.6950 O.2   1 <1>  -0.5700 
  2 C       -0.7090     1.6460     0.8760 C.2   1 <1>   0.5690 
  3 N        0.5480     1.7020     0.3550 N.am  1 <1>  -0.7300 
  4 C       -1.7850     2.6610     0.4200 C.3   1 <1>   0.0610 
  5 C        1.6560     0.8060     0.6960 C.3   1 <1>   0.2200 
  6 C       -2.9090     1.8830    -0.2980 C.3   1 <1>  -0.1600 
  7 C       -2.3210     3.4070     1.6690 C.3   1 <1>  -0.1600 
  8 C       -1.2260     3.7010    -0.5800 C.3   1 <1>  -0.1600 
  9 C        2.7870     1.6490     1.2730 C.3   1 <1>  -0.2400 
 10 C        2.0910     0.0850    -0.5750 C.3   1 <1>  -0.2400 
 11 C       -4.0280     2.7580    -0.8920 C.3   1 <1>  -0.0800 
 12 C       -3.2610     4.5980     1.3930 C.3   1 <1>  -0.0800 
 13 C       -2.3150     4.6970    -0.9920 C.3   1 <1>  -0.0800 
 14 C       -5.0850     3.1330     0.1600 C.3   1 <1>  -0.1600 
 15 C       -3.4800     3.9640    -1.6790 C.3   1 <1>  -0.1600 
 16 C       -4.7330     4.1950     1.2140 C.3   1 <1>  -0.1600 
 17 C       -2.7620     5.4880     0.2430 C.3   1 <1>  -0.1600 
 18 H        0.7670     2.4200    -0.3330 H     1 <1>   0.3700 
 19 H        1.3320     0.0830     1.4290 H     1 <1>   0.0800 
 20 H       -3.3320     1.1580     0.3770 H     1 <1>   0.0800 
 21 H       -2.4620     1.3260    -1.1030 H     1 <1>   0.0800 
 22 H       -2.8100     2.7070     2.3240 H     1 <1>   0.0800 
 23 H       -1.4690     3.7860     2.2060 H     1 <1>   0.0800 
 24 H       -0.8570     3.2040    -1.4610 H     1 <1>   0.0800 
 25 H       -0.4080     4.2380    -0.1310 H     1 <1>   0.0800 
 26 H        3.1290     2.3750     0.5580 H     1 <1>   0.0800 
 27 H        3.6130     1.0140     1.5400 H     1 <1>   0.0800 
 28 H        2.4490     2.1520     2.1610 H     1 <1>   0.0800 
 29 H        2.4210     0.7850    -1.3210 H     1 <1>   0.0800 
 30 H        1.2710    -0.4930    -0.9640 H     1 <1>   0.0800 
 31 H        2.9000    -0.5870    -0.3530 H     1 <1>   0.0800 
 32 H       -4.5480     2.1370    -1.6030 H     1 <1>   0.0800 
 33 H       -3.2440     5.2130     2.2780 H     1 <1>   0.0800 
 34 H       -1.8970     5.3950    -1.6980 H     1 <1>   0.0800 
 35 H       -5.3730     2.2330     0.6760 H     1 <1>   0.0800 
 36 H       -5.9660     3.4690    -0.3600 H     1 <1>   0.0800 
 37 H       -3.1210     3.6010    -2.6260 H     1 <1>   0.0800 
 38 H       -4.2760     4.6560    -1.8910 H     1 <1>   0.0800 
 39 H       -5.2980     5.0850     0.9940 H     1 <1>   0.0800 
 40 H       -5.0980     3.8430     2.1640 H     1 <1>   0.0800 
 41 H       -1.9190     6.0550     0.5990 H     1 <1>   0.0800 
 42 H       -3.5200     6.2000    -0.0340 H     1 <1>   0.0800 
@<TRIPOS>BOND
  1   1   2  2   
  2   2   3  am  
  3   2   4  1   
  4   3   5  1   
  5   3  18  1   
  6   4   6  1   
  7   4   7  1   
  8   4   8  1   
  9   5   9  1   
 10   5  10  1   
 11   5  19  1   
 12   6  11  1   
 13   6  20  1   
 14   6  21  1   
 15   7  12  1   
 16   7  22  1   
 17   7  23  1   
 18   8  13  1   
 19   8  24  1   
 20   8  25  1   
 21   9  26  1   
 22   9  27  1   
 23   9  28  1   
 24  10  29  1   
 25  10  30  1   
 26  10  31  1   
 27  11  14  1   
 28  11  15  1   
 29  11  32  1   
 30  12  16  1   
 31  12  17  1   
 32  12  33  1   
 33  13  15  1   
 34  13  17  1   
 35  13  34  1   
 36  14  16  1   
 37  14  35  1   
 38  14  36  1   
 39  15  37  1   
 40  15  38  1   
 41  16  39  1   
 42  16  40  1   
 43  17  41  1   
 44  17  42  1   
@<TRIPOS>SUBSTRUCTURE
  1 ****   4 GROUP 4 **** **** 0

# MOE 2024.06 (io_trps.svl 2023.06)
