@<TRIPOS>MOLECULE
NONAME
47 48 1 0 0 
SMALL
USER_CHARGES


@<TRIPOS>ATOM
  1 S        0.0630     0.1180     0.1860 S.o2  1 <1>   1.4470 
  2 O        0.4770     0.5580    -1.1290 O.2   1 <1>  -0.6500 
  3 O        0.1170     1.0540     1.2870 O.2   1 <1>  -0.6500 
  4 N        1.0900    -1.1690     0.5870 N.am  1 <1>  -0.8490 
  5 C       -1.5750    -0.6580     0.1240 C.ar  1 <1>  -0.0090 
  6 C        2.3820    -0.6480     1.1080 C.3   1 <1>   0.2570 
  7 C        1.2620    -2.1280    -0.5130 C.3   1 <1>   0.1160 
  8 C       -2.3990    -0.5210    -0.9870 C.ar  1 <1>  -0.1500 
  9 C       -2.0440    -1.4140     1.1910 C.ar  1 <1>  -0.1500 
 10 C        3.4770    -1.6880     1.3870 C.2   1 <1>   0.5690 
 11 C       -3.6470    -1.1190    -1.0450 C.ar  1 <1>  -0.1440 
 12 C       -3.2880    -2.0180     1.1520 C.ar  1 <1>  -0.1500 
 13 O        3.5420    -2.2070     2.4760 O.2   1 <1>  -0.5700 
 14 N        4.3600    -1.9960     0.3970 N.am  1 <1>  -0.7300 
 15 C       -4.0990    -1.8760     0.0310 C.ar  1 <1>   0.0830 
 16 C       -4.5140    -0.9410    -2.2840 C.3   1 <1>  -0.0970 
 17 C        5.4430    -2.9870     0.5010 C.3   1 <1>   0.2200 
 18 O       -5.3280    -2.4460    -0.0680 O.3   1 <1>  -0.3630 
 19 C        6.7420    -2.3410     0.0360 C.3   1 <1>  -0.1600 
 20 C        5.2060    -4.0790    -0.5350 C.3   1 <1>  -0.1600 
 21 C       -5.8840    -3.2040     0.9830 C.3   1 <1>   0.0400 
 22 C        6.7190    -2.4060    -1.4960 C.3   1 <1>  -0.1600 
 23 C        5.7180    -3.5100    -1.8630 C.3   1 <1>  -0.1600 
 24 H        2.1960    -0.1310     2.0330 H     1 <1>   0.0800 
 25 H        2.7780     0.0720     0.4140 H     1 <1>   0.0800 
 26 H        0.3000    -2.4550    -0.8720 H     1 <1>   0.0800 
 27 H        1.7970    -2.9970    -0.1710 H     1 <1>   0.0800 
 28 H        1.8000    -1.6770    -1.3300 H     1 <1>   0.0800 
 29 H       -2.0500     0.0660    -1.8200 H     1 <1>   0.1500 
 30 H       -1.4220    -1.5300     2.0630 H     1 <1>   0.1500 
 31 H       -3.6040    -2.5930     2.0020 H     1 <1>   0.1500 
 32 H        4.3040    -1.5420    -0.5140 H     1 <1>   0.3700 
 33 H       -4.0260    -0.3290    -3.0200 H     1 <1>   0.0800 
 34 H       -5.4440    -0.4730    -2.0120 H     1 <1>   0.0800 
 35 H       -4.7280    -1.9000    -2.7200 H     1 <1>   0.0800 
 36 H        5.5130    -3.3790     1.5030 H     1 <1>   0.0800 
 37 H        7.5630    -2.9350     0.3970 H     1 <1>   0.0800 
 38 H        6.8560    -1.3390     0.4110 H     1 <1>   0.0800 
 39 H        4.1750    -4.3830    -0.5780 H     1 <1>   0.0800 
 40 H        5.8030    -4.9330    -0.2680 H     1 <1>   0.0800 
 41 H       -6.8590    -3.5360     0.6750 H     1 <1>   0.0800 
 42 H       -5.9690    -2.5810     1.8560 H     1 <1>   0.0800 
 43 H       -5.2520    -4.0530     1.1740 H     1 <1>   0.0800 
 44 H        7.7000    -2.6220    -1.8830 H     1 <1>   0.0800 
 45 H        6.3880    -1.4650    -1.9010 H     1 <1>   0.0800 
 46 H        4.9010    -3.0880    -2.4220 H     1 <1>   0.0800 
 47 H        6.1820    -4.2800    -2.4560 H     1 <1>   0.0800 
@<TRIPOS>BOND
  1   1   2  2   
  2   1   3  2   
  3   1   4  am  
  4   1   5  1   
  5   4   6  1   
  6   4   7  1   
  7   5   8  ar  
  8   5   9  ar  
  9   6  10  1   
 10   6  24  1   
 11   6  25  1   
 12   7  26  1   
 13   7  27  1   
 14   7  28  1   
 15   8  11  ar  
 16   8  29  1   
 17   9  12  ar  
 18   9  30  1   
 19  10  13  2   
 20  10  14  am  
 21  11  15  ar  
 22  11  16  1   
 23  12  15  ar  
 24  12  31  1   
 25  14  17  1   
 26  14  32  1   
 27  15  18  1   
 28  16  33  1   
 29  16  34  1   
 30  16  35  1   
 31  17  19  1   
 32  17  20  1   
 33  17  36  1   
 34  18  21  1   
 35  19  22  1   
 36  19  37  1   
 37  19  38  1   
 38  20  23  1   
 39  20  39  1   
 40  20  40  1   
 41  21  41  1   
 42  21  42  1   
 43  21  43  1   
 44  22  23  1   
 45  22  44  1   
 46  22  45  1   
 47  23  46  1   
 48  23  47  1   
@<TRIPOS>SUBSTRUCTURE
  1 ****   4 GROUP 4 **** **** 0

# MOE 2024.06 (io_trps.svl 2023.06)
