@<TRIPOS>MOLECULE
NONAME
41 42 1 0 0 
SMALL
USER_CHARGES


@<TRIPOS>ATOM
  1 S        0.2600     0.1670    -1.5930 S.o2  1 <1>   1.2950 
  2 O        0.4650     1.3600    -2.3990 O.2   1 <1>  -0.6500 
  3 O        0.0220    -1.0660    -2.3260 O.2   1 <1>  -0.6500 
  4 N       -1.0610     0.4190    -0.3970 N.pl3 1 <1>   0.5840 
  5 C        1.7070    -0.0720    -0.5360 C.ar  1 <1>  -0.0090 
  6 N       -1.2040    -0.3060     0.7640 N.2   1 <1>  -0.7070 
  7 C       -2.1160     1.2910    -0.4930 C.2   1 <1>  -0.3320 
  8 C        2.0400     0.8750     0.4260 C.ar  1 <1>   0.0830 
  9 C        2.5120    -1.1990    -0.6650 C.ar  1 <1>  -0.1500 
 10 C       -2.2840     0.1220     1.3280 C.2   1 <1>   0.1080 
 11 C       -2.9000     1.1200     0.5910 C.2   1 <1>  -0.1500 
 12 C       -2.3370     2.2700    -1.6370 C.3   1 <1>  -0.0600 
 13 O        1.2430     1.9680     0.5320 O.3   1 <1>  -0.3630 
 14 C        3.1550     0.6860     1.2380 C.ar  1 <1>  -0.1500 
 15 C        3.6240    -1.3990     0.1390 C.ar  1 <1>  -0.1430 
 16 C       -2.7860    -0.4330     2.6400 C.3   1 <1>  -0.0590 
 17 C        1.2860     2.8110     1.6610 C.3   1 <1>   0.0400 
 18 C        3.9370    -0.4440     1.0930 C.ar  1 <1>  -0.1500 
 19 C        4.4750    -2.6550    -0.0380 C.3   1 <1>   0.0630 
 20 C        4.4720    -3.5020     1.2380 C.3   1 <1>  -0.2400 
 21 C        5.9060    -2.2920    -0.4480 C.3   1 <1>  -0.2400 
 22 H        2.2580    -1.9330    -1.4100 H     1 <1>   0.1500 
 23 H       -3.8110     1.6300     0.8540 H     1 <1>   0.1500 
 24 H       -1.5360     2.9880    -1.6750 H     1 <1>   0.0800 
 25 H       -3.2620     2.8010    -1.5010 H     1 <1>   0.0800 
 26 H       -2.3800     1.7480    -2.5780 H     1 <1>   0.0800 
 27 H        3.4310     1.4060     1.9830 H     1 <1>   0.1500 
 28 H       -2.0340    -0.3040     3.3960 H     1 <1>   0.0800 
 29 H       -2.9920    -1.4820     2.5300 H     1 <1>   0.0800 
 30 H       -3.6840     0.0730     2.9450 H     1 <1>   0.0800 
 31 H        0.4820     3.5200     1.5790 H     1 <1>   0.0800 
 32 H        2.2290     3.3290     1.6760 H     1 <1>   0.0800 
 33 H        1.1580     2.2140     2.5470 H     1 <1>   0.0800 
 34 H        4.7950    -0.5760     1.7280 H     1 <1>   0.1500 
 35 H        4.0510    -3.2530    -0.8280 H     1 <1>   0.0800 
 36 H        4.9310    -2.9720     2.0530 H     1 <1>   0.0800 
 37 H        5.0100    -4.4190     1.0780 H     1 <1>   0.0800 
 38 H        3.4600    -3.7430     1.5130 H     1 <1>   0.0800 
 39 H        6.3980    -1.7350     0.3280 H     1 <1>   0.0800 
 40 H        5.8890    -1.6940    -1.3410 H     1 <1>   0.0800 
 41 H        6.4740    -3.1840    -0.6450 H     1 <1>   0.0800 
@<TRIPOS>BOND
  1   1   2  2   
  2   1   3  2   
  3   1   4  1   
  4   1   5  1   
  5   4   6  1   
  6   4   7  1   
  7   5   8  ar  
  8   5   9  ar  
  9   6  10  2   
 10   7  11  2   
 11   7  12  1   
 12   8  13  1   
 13   8  14  ar  
 14   9  15  ar  
 15   9  22  1   
 16  10  11  1   
 17  10  16  1   
 18  11  23  1   
 19  12  24  1   
 20  12  25  1   
 21  12  26  1   
 22  13  17  1   
 23  14  18  ar  
 24  14  27  1   
 25  15  18  ar  
 26  15  19  1   
 27  16  28  1   
 28  16  29  1   
 29  16  30  1   
 30  17  31  1   
 31  17  32  1   
 32  17  33  1   
 33  18  34  1   
 34  19  20  1   
 35  19  21  1   
 36  19  35  1   
 37  20  36  1   
 38  20  37  1   
 39  20  38  1   
 40  21  39  1   
 41  21  40  1   
 42  21  41  1   
@<TRIPOS>SUBSTRUCTURE
  1 ****   5 GROUP 4 **** **** 0

# MOE 2024.06 (io_trps.svl 2023.06)
