@<TRIPOS>MOLECULE
NONAME
47 47 1 0 0 
SMALL
USER_CHARGES


@<TRIPOS>ATOM
  1 O       -0.6330    -0.3540    -0.5590 O.co2 1 <1>  -0.9000 
  2 C       -1.1710    -0.5090     0.5490 C.2   1 <1>   0.9060 
  3 O       -0.5490    -0.2170     1.5810 O.co2 1 <1>  -0.9000 
  4 C       -2.6370    -0.8230     0.6440 C.3   1 <1>  -0.2920 
  5 C       -2.7740    -2.3100     0.8160 C.2   1 <1>   0.9060 
  6 C       -3.4250    -0.2600    -0.5590 C.3   1 <1>  -0.0170 
  7 O       -2.7520    -3.0670    -0.1670 O.co2 1 <1>  -0.9000 
  8 O       -3.0540    -2.7630     1.9360 O.co2 1 <1>  -0.9000 
  9 C       -4.9320    -0.1630    -0.3180 C.ar  1 <1>  -0.1440 
 10 C       -5.7150    -1.2980    -0.3480 C.ar  1 <1>  -0.1500 
 11 C       -5.5260     1.0590    -0.0800 C.ar  1 <1>  -0.1500 
 12 C       -7.0930    -1.2500    -0.1550 C.ar  1 <1>  -0.1430 
 13 C       -6.8960     1.1980     0.1160 C.ar  1 <1>  -0.1430 
 14 C       -7.6600     0.0170     0.0620 C.ar  1 <1>   0.0830 
 15 C       -7.9200    -2.5740    -0.1790 C.3   1 <1>   0.1430 
 16 C       -7.3980     2.6550     0.3730 C.3   1 <1>   0.1440 
 17 O       -8.9860     0.1100     0.2250 O.3   1 <1>  -0.5320 
 18 C       -8.9410    -2.5580    -1.3300 C.3   1 <1>  -0.2400 
 19 C       -8.6390    -2.7950     1.1650 C.3   1 <1>  -0.2400 
 20 C       -7.0530    -3.8310    -0.3970 C.3   1 <1>  -0.2400 
 21 C       -6.7110     3.2050     1.6370 C.3   1 <1>  -0.2400 
 22 C       -8.9120     2.8620     0.5910 C.3   1 <1>  -0.2400 
 23 C       -7.0200     3.5400    -0.8290 C.3   1 <1>  -0.2400 
 24 H       -2.9970    -0.3590     1.5390 H     1 <1>   0.0800 
 25 H       -3.2320    -0.8720    -1.4230 H     1 <1>   0.0800 
 26 H       -3.0430     0.7190    -0.7860 H     1 <1>   0.0800 
 27 H       -5.1850    -2.2170    -0.5200 H     1 <1>   0.1500 
 28 H       -4.8740     1.9100    -0.0490 H     1 <1>   0.1500 
 29 H       -9.2330     1.0350     0.3880 H     1 <1>   0.4500 
 30 H       -9.6870    -1.8020    -1.1850 H     1 <1>   0.0800 
 31 H       -9.4440    -3.5050    -1.4060 H     1 <1>   0.0800 
 32 H       -8.4350    -2.3600    -2.2580 H     1 <1>   0.0800 
 33 H       -9.1220    -3.7540     1.1870 H     1 <1>   0.0800 
 34 H       -7.9210    -2.7510     1.9650 H     1 <1>   0.0800 
 35 H       -9.3880    -2.0480     1.3430 H     1 <1>   0.0800 
 36 H       -6.5420    -3.7820    -1.3420 H     1 <1>   0.0800 
 37 H       -7.6530    -4.7230    -0.3910 H     1 <1>   0.0800 
 38 H       -6.3170    -3.9230     0.3840 H     1 <1>   0.0800 
 39 H       -6.9280     2.5660     2.4750 H     1 <1>   0.0800 
 40 H       -7.0530     4.1980     1.8630 H     1 <1>   0.0800 
 41 H       -5.6440     3.2460     1.5230 H     1 <1>   0.0800 
 42 H       -9.4710     2.5650    -0.2800 H     1 <1>   0.0800 
 43 H       -9.1250     3.9030     0.7590 H     1 <1>   0.0800 
 44 H       -9.2520     2.3290     1.4620 H     1 <1>   0.0800 
 45 H       -5.9560     3.5900    -0.9650 H     1 <1>   0.0800 
 46 H       -7.3780     4.5450    -0.6980 H     1 <1>   0.0800 
 47 H       -7.4510     3.1350    -1.7280 H     1 <1>   0.0800 
@<TRIPOS>BOND
  1   1   2  ar  
  2   2   3  ar  
  3   2   4  1   
  4   4   5  1   
  5   4   6  1   
  6   4  24  1   
  7   5   7  ar  
  8   5   8  ar  
  9   6   9  1   
 10   6  25  1   
 11   6  26  1   
 12   9  10  ar  
 13   9  11  ar  
 14  10  12  ar  
 15  10  27  1   
 16  11  13  ar  
 17  11  28  1   
 18  12  14  ar  
 19  12  15  1   
 20  13  14  ar  
 21  13  16  1   
 22  14  17  1   
 23  15  18  1   
 24  15  19  1   
 25  15  20  1   
 26  16  21  1   
 27  16  22  1   
 28  16  23  1   
 29  17  29  1   
 30  18  30  1   
 31  18  31  1   
 32  18  32  1   
 33  19  33  1   
 34  19  34  1   
 35  19  35  1   
 36  20  36  1   
 37  20  37  1   
 38  20  38  1   
 39  21  39  1   
 40  21  40  1   
 41  21  41  1   
 42  22  42  1   
 43  22  43  1   
 44  22  44  1   
 45  23  45  1   
 46  23  46  1   
 47  23  47  1   
@<TRIPOS>SUBSTRUCTURE
  1 ****   9 GROUP 4 **** **** 0

# MOE 2024.06 (io_trps.svl 2023.06)
