@<TRIPOS>MOLECULE
NONAME
33 36 1 0 0 
SMALL
USER_CHARGES


@<TRIPOS>ATOM
  1 O       -0.4350     0.8480     2.0990 O.3   1 <1>  -0.6800 
  2 C        0.3380     1.1020     0.9940 C.3   1 <1>   0.2800 
  3 C        1.2850    -0.0850     0.7620 C.3   1 <1>  -0.1600 
  4 C        1.1460     2.3830     1.2470 C.3   1 <1>  -0.1600 
  5 C       -0.5800     1.2910    -0.2240 C.3   1 <1>  -0.1600 
  6 C        2.1530     0.2040    -0.4800 C.3   1 <1>  -0.0190 
  7 C        2.0160     2.6850     0.0090 C.3   1 <1>  -0.0190 
  8 C        0.2810     1.5850    -1.4690 C.3   1 <1>  -0.0800 
  9 C        2.9450     1.4880    -0.2420 C.2   1 <1>   0.3280 
 10 C        1.2420     0.4030    -1.7090 C.3   1 <1>  -0.1600 
 11 C        1.1040     2.8670    -1.2220 C.3   1 <1>  -0.1600 
 12 N        4.2130     1.4910    -0.2650 N.2   1 <1>  -0.4920 
 13 N        4.9520     2.6490    -0.0470 N.pl3 1 <1>  -0.4540 
 14 C        6.3420     2.8710    -0.0400 C.2   1 <1>   0.8340 
 15 N        7.2760     2.0130    -0.2550 N.2   1 <1>  -0.6190 
 16 N        6.7860     4.0570     0.2050 N.2   1 <1>  -0.6190 
 17 N        8.3760     2.6870    -0.1410 N.2   1 <1>  -0.2500 
 18 N        8.0780     3.9240     0.1370 N.2   1 <1>  -0.2500 
 19 H       -0.9460     0.0310     1.9590 H     1 <1>   0.4000 
 20 H        0.7250    -0.9900     0.6080 H     1 <1>   0.0800 
 21 H        1.9250    -0.2160     1.6180 H     1 <1>   0.0800 
 22 H        0.4800     3.2060     1.4360 H     1 <1>   0.0800 
 23 H        1.7800     2.2510     2.1060 H     1 <1>   0.0800 
 24 H       -1.2530     2.1120    -0.0480 H     1 <1>   0.0800 
 25 H       -1.1620     0.4030    -0.3920 H     1 <1>   0.0800 
 26 H        2.8330    -0.6120    -0.6520 H     1 <1>   0.0800 
 27 H        2.5720     3.5880     0.1770 H     1 <1>   0.0800 
 28 H       -0.3540     1.7200    -2.3290 H     1 <1>   0.0800 
 29 H        1.8520     0.5990    -2.5750 H     1 <1>   0.0800 
 30 H        0.6830    -0.4960    -1.9010 H     1 <1>   0.0800 
 31 H        1.7110     3.0820    -2.0860 H     1 <1>   0.0800 
 32 H        0.4450     3.7040    -1.0690 H     1 <1>   0.0800 
 33 H        4.5060     3.5340     0.1680 H     1 <1>   0.4000 
@<TRIPOS>BOND
  1   1   2  1   
  2   1  19  1   
  3   2   3  1   
  4   2   4  1   
  5   2   5  1   
  6   3   6  1   
  7   3  20  1   
  8   3  21  1   
  9   4   7  1   
 10   4  22  1   
 11   4  23  1   
 12   5   8  1   
 13   5  24  1   
 14   5  25  1   
 15   6   9  1   
 16   6  10  1   
 17   6  26  1   
 18   7   9  1   
 19   7  11  1   
 20   7  27  1   
 21   8  10  1   
 22   8  11  1   
 23   8  28  1   
 24   9  12  2   
 25  10  29  1   
 26  10  30  1   
 27  11  31  1   
 28  11  32  1   
 29  12  13  1   
 30  13  14  1   
 31  13  33  1   
 32  14  15  1   
 33  14  16  2   
 34  15  17  1   
 35  16  18  1   
 36  17  18  2   
@<TRIPOS>SUBSTRUCTURE
  1 ****   9 GROUP 4 **** **** 0

# MOE 2024.06 (io_trps.svl 2023.06)
