@<TRIPOS>MOLECULE
NONAME
43 46 1 0 0 
SMALL
USER_CHARGES


@<TRIPOS>ATOM
  1 CL       0.7040    -0.1830     0.9150 Cl    1 <1>  -0.1770 
  2 C       -0.1150    -1.4650     0.0540 C.ar  1 <1>   0.1770 
  3 C        0.6090    -2.5410    -0.4620 C.ar  1 <1>   0.0530 
  4 C       -1.4890    -1.3770    -0.0700 C.ar  1 <1>  -0.1500 
  5 C        2.0400    -2.6360    -0.3550 C.2   1 <1>   0.3250 
  6 C       -0.1190    -3.5490    -1.0960 C.ar  1 <1>  -0.1500 
  7 C       -2.1840    -2.3850    -0.7150 C.ar  1 <1>  -0.1500 
  8 S        3.0240    -1.4070    -1.1310 S.3   1 <1>  -0.0800 
  9 N        2.7490    -3.5410     0.2260 N.2   1 <1>  -0.5650 
 10 C       -1.4950    -3.4720    -1.2240 C.ar  1 <1>  -0.1500 
 11 C        4.4580    -2.2030    -0.5700 C.2   1 <1>  -0.1100 
 12 C        4.1050    -3.3010     0.1240 C.2   1 <1>   0.0460 
 13 C        4.9800    -4.3390     0.8360 C.3   1 <1>   0.5240 
 14 N        6.4530    -4.0370     0.8840 N.4   1 <1>  -0.9590 
 15 C        6.7090    -2.7510     1.6130 C.3   1 <1>   0.3430 
 16 C        7.0570    -4.0860    -0.4860 C.3   1 <1>   0.3430 
 17 C        8.2010    -2.4630     1.6770 C.3   1 <1>  -0.1600 
 18 C        8.5500    -3.7980    -0.4220 C.3   1 <1>  -0.1600 
 19 C        8.7660    -2.4630     0.2680 C.3   1 <1>   0.5600 
 20 O       10.1140    -2.1620     0.3110 O.3   1 <1>  -0.5600 
 21 O        8.1400    -1.4650    -0.4720 O.3   1 <1>  -0.5600 
 22 C       10.3960    -1.1730    -0.6100 C.3   1 <1>   0.1200 
 23 C        9.0640    -0.4910    -0.8090 C.3   1 <1>   0.1200 
 24 H       -2.0090    -0.5290     0.3380 H     1 <1>   0.1500 
 25 H        0.4050    -4.4010    -1.4930 H     1 <1>   0.1500 
 26 H       -3.2550    -2.3260    -0.8170 H     1 <1>   0.1500 
 27 H       -2.0330    -4.2620    -1.7210 H     1 <1>   0.1500 
 28 H        5.3930    -1.7390    -0.8290 H     1 <1>   0.1500 
 29 H        4.8240    -5.2890     0.3540 H     1 <1>   0.0800 
 30 H        4.6090    -4.4320     1.8430 H     1 <1>   0.0800 
 31 H        6.8890    -4.7880     1.4350 H     1 <1>   0.4500 
 32 H        6.3080    -2.8020     2.6120 H     1 <1>   0.0800 
 33 H        6.2270    -1.9330     1.1020 H     1 <1>   0.0800 
 34 H        6.5950    -3.3490    -1.1220 H     1 <1>   0.0800 
 35 H        6.8970    -5.0560    -0.9300 H     1 <1>   0.0800 
 36 H        8.6970    -3.2060     2.2740 H     1 <1>   0.0800 
 37 H        8.3670    -1.5020     2.1280 H     1 <1>   0.0800 
 38 H        8.9540    -3.7560    -1.4170 H     1 <1>   0.0800 
 39 H        9.0560    -4.5780     0.1160 H     1 <1>   0.0800 
 40 H       10.7400    -1.6340    -1.5200 H     1 <1>   0.0800 
 41 H       11.1490    -0.5120    -0.2170 H     1 <1>   0.0800 
 42 H        8.9510     0.3410    -0.1340 H     1 <1>   0.0800 
 43 H        8.9090    -0.1710    -1.8250 H     1 <1>   0.0800 
@<TRIPOS>BOND
  1   1   2  1   
  2   2   3  ar  
  3   2   4  ar  
  4   3   5  1   
  5   3   6  ar  
  6   4   7  ar  
  7   4  24  1   
  8   5   8  1   
  9   5   9  2   
 10   6  10  ar  
 11   6  25  1   
 12   7  10  ar  
 13   7  26  1   
 14   8  11  1   
 15   9  12  1   
 16  10  27  1   
 17  11  12  2   
 18  11  28  1   
 19  12  13  1   
 20  13  14  1   
 21  13  29  1   
 22  13  30  1   
 23  14  15  1   
 24  14  16  1   
 25  14  31  1   
 26  15  17  1   
 27  15  32  1   
 28  15  33  1   
 29  16  18  1   
 30  16  34  1   
 31  16  35  1   
 32  17  19  1   
 33  17  36  1   
 34  17  37  1   
 35  18  19  1   
 36  18  38  1   
 37  18  39  1   
 38  19  20  1   
 39  19  21  1   
 40  20  22  1   
 41  21  23  1   
 42  22  23  1   
 43  22  40  1   
 44  22  41  1   
 45  23  42  1   
 46  23  43  1   
@<TRIPOS>SUBSTRUCTURE
  1 ****  11 GROUP 4 **** **** 0

# MOE 2024.06 (io_trps.svl 2023.06)
