@<TRIPOS>MOLECULE
NONAME
34 34 1 0 0 
SMALL
USER_CHARGES


@<TRIPOS>ATOM
  1 CL       0.0630     1.1180    -0.2730 Cl    1 <1>  -0.1770 
  2 C       -1.6190     0.6920    -0.0950 C.ar  1 <1>   0.1770 
  3 C       -2.0840    -0.4860    -0.6460 C.ar  1 <1>  -0.1500 
  4 C       -2.4650     1.5380     0.5950 C.ar  1 <1>  -0.1500 
  5 C       -3.4210    -0.8190    -0.5020 C.ar  1 <1>  -0.1500 
  6 C       -3.8000     1.1930     0.7310 C.ar  1 <1>  -0.1500 
  7 C       -4.3010     0.0140     0.1860 C.ar  1 <1>  -0.0090 
  8 S       -6.0520    -0.4180     0.3810 S.o2  1 <1>   1.4470 
  9 O       -6.3440    -0.5770     1.7860 O.2   1 <1>  -0.6500 
 10 O       -6.4120    -1.4590    -0.5540 O.2   1 <1>  -0.6500 
 11 N       -6.8200     0.9290    -0.2520 N.am  1 <1>  -0.9140 
 12 C       -8.0700     1.3630     0.3220 C.3   1 <1>   0.5560 
 13 C       -7.8140     1.9650     1.6670 C.1   1 <1>  -0.2000 
 14 C       -8.6000     2.4770    -0.6150 C.3   1 <1>  -0.1600 
 15 C       -9.0930     0.1990     0.3960 C.3   1 <1>  -0.1600 
 16 C       -7.6080     2.4390     2.7400 C.1   1 <1>  -0.1770 
 17 C       -7.6240     3.6310    -0.9330 C.3   1 <1>  -0.2400 
 18 C      -10.5300     0.5870     0.8000 C.3   1 <1>  -0.2400 
 19 H       -1.4070    -1.1300    -1.1790 H     1 <1>   0.1500 
 20 H       -2.0840     2.4500     1.0180 H     1 <1>   0.1500 
 21 H       -3.7870    -1.7380    -0.9300 H     1 <1>   0.1500 
 22 H       -4.4680     1.8460     1.2700 H     1 <1>   0.1500 
 23 H       -7.0410     0.6420    -1.1980 H     1 <1>   0.4200 
 24 H       -9.4700     2.9170    -0.1610 H     1 <1>   0.0800 
 25 H       -8.9220     2.0330    -1.5400 H     1 <1>   0.0800 
 26 H       -8.7620    -0.5210     1.1220 H     1 <1>   0.0800 
 27 H       -9.1370    -0.2970    -0.5580 H     1 <1>   0.0800 
 28 H       -7.4170     2.8510     3.7140 H     1 <1>   0.1770 
 29 H       -7.2980     4.1140    -0.0290 H     1 <1>   0.0800 
 30 H       -8.1140     4.3650    -1.5480 H     1 <1>   0.0800 
 31 H       -6.7580     3.2740    -1.4620 H     1 <1>   0.0800 
 32 H      -10.5300     1.1230     1.7330 H     1 <1>   0.0800 
 33 H      -11.1220    -0.3020     0.9250 H     1 <1>   0.0800 
 34 H      -11.0000     1.1930     0.0460 H     1 <1>   0.0800 
@<TRIPOS>BOND
  1   1   2  1   
  2   2   3  ar  
  3   2   4  ar  
  4   3   5  ar  
  5   3  19  1   
  6   4   6  ar  
  7   4  20  1   
  8   5   7  ar  
  9   5  21  1   
 10   6   7  ar  
 11   6  22  1   
 12   7   8  1   
 13   8   9  2   
 14   8  10  2   
 15   8  11  am  
 16  11  12  1   
 17  11  23  1   
 18  12  13  1   
 19  12  14  1   
 20  12  15  1   
 21  13  16  3   
 22  14  17  1   
 23  14  24  1   
 24  14  25  1   
 25  15  18  1   
 26  15  26  1   
 27  15  27  1   
 28  16  28  1   
 29  17  29  1   
 30  17  30  1   
 31  17  31  1   
 32  18  32  1   
 33  18  33  1   
 34  18  34  1   
@<TRIPOS>SUBSTRUCTURE
  1 ****  11 GROUP 4 **** **** 0

# MOE 2024.06 (io_trps.svl 2023.06)
