@<TRIPOS>MOLECULE
NONAME
45 47 1 0 0 
SMALL
USER_CHARGES


@<TRIPOS>ATOM
  1 CL      -1.0830     1.9360    -3.6950 Cl    1 <1>  -0.1770 
  2 C       -1.4430     2.5320    -2.0870 C.ar  1 <1>   0.1770 
  3 C       -0.4160     2.9610    -1.2510 C.ar  1 <1>   0.0820 
  4 C       -2.7640     2.5570    -1.6840 C.ar  1 <1>  -0.1500 
  5 O        0.8640     2.9000    -1.7160 O.3   1 <1>  -0.3630 
  6 C       -0.7430     3.4280     0.0190 C.ar  1 <1>  -0.1500 
  7 C       -3.0930     3.0270    -0.4210 C.ar  1 <1>   0.1170 
  8 C        1.9630     3.2310    -0.8960 C.3   1 <1>   0.0400 
  9 C       -2.0700     3.4660     0.4250 C.ar  1 <1>   0.0830 
 10 N       -4.4410     3.0560    -0.0080 N.am  1 <1>  -0.2370 
 11 O       -2.3830     3.9190     1.6650 O.3   1 <1>  -0.3630 
 12 C       -5.1780     4.1900     0.1760 C.2   1 <1>   0.5690 
 13 C       -5.1100     1.9790     0.4910 C.2   1 <1>   0.5690 
 14 C       -2.0800     5.2690     1.9410 C.3   1 <1>   0.0400 
 15 O       -4.7870     5.3180    -0.0210 O.2   1 <1>  -0.5700 
 16 C       -6.5660     3.8580     0.7510 C.3   1 <1>   0.2510 
 17 O       -4.7280     0.8370     0.4730 O.2   1 <1>  -0.5700 
 18 C       -6.4240     2.3710     1.1130 C.3   1 <1>  -0.0990 
 19 N       -7.7360     4.0170    -0.1660 N.3   1 <1>  -0.8100 
 20 C       -9.0030     3.9590     0.5920 C.3   1 <1>   0.1100 
 21 C       -7.6750     5.2560    -0.9700 C.3   1 <1>   0.1100 
 22 C      -10.1970     3.9490    -0.3650 C.3   1 <1>  -0.1600 
 23 C       -8.8380     5.3070    -1.9670 C.3   1 <1>  -0.1600 
 24 C      -10.1930     5.1890    -1.2630 C.3   1 <1>  -0.1600 
 25 H       -3.5310     2.2100    -2.3520 H     1 <1>   0.1500 
 26 H        0.0120     3.7570     0.7040 H     1 <1>   0.1500 
 27 H        2.8610     3.0750    -1.4660 H     1 <1>   0.0800 
 28 H        1.9620     2.5900    -0.0330 H     1 <1>   0.0800 
 29 H        1.8880     4.2660    -0.6120 H     1 <1>   0.0800 
 30 H       -2.5260     5.5280     2.8840 H     1 <1>   0.0800 
 31 H       -2.4900     5.8870     1.1600 H     1 <1>   0.0800 
 32 H       -1.0130     5.3900     1.9950 H     1 <1>   0.0800 
 33 H       -6.7120     4.4540     1.6350 H     1 <1>   0.0800 
 34 H       -6.3620     2.2390     2.1770 H     1 <1>   0.0800 
 35 H       -7.2100     1.7610     0.7060 H     1 <1>   0.0800 
 36 H       -9.0740     4.8100     1.2490 H     1 <1>   0.0800 
 37 H       -9.0390     3.0660     1.1910 H     1 <1>   0.0800 
 38 H       -6.7620     5.2880    -1.5380 H     1 <1>   0.0800 
 39 H       -7.7030     6.1180    -0.3230 H     1 <1>   0.0800 
 40 H      -11.1110     3.9170     0.2020 H     1 <1>   0.0800 
 41 H      -10.1520     3.0590    -0.9690 H     1 <1>   0.0800 
 42 H       -8.7230     4.5010    -2.6700 H     1 <1>   0.0800 
 43 H       -8.7950     6.2310    -2.5170 H     1 <1>   0.0800 
 44 H      -10.3630     6.0670    -0.6640 H     1 <1>   0.0800 
 45 H      -10.9820     5.1200    -1.9920 H     1 <1>   0.0800 
@<TRIPOS>BOND
  1   1   2  1   
  2   2   3  ar  
  3   2   4  ar  
  4   3   5  1   
  5   3   6  ar  
  6   4   7  ar  
  7   4  25  1   
  8   5   8  1   
  9   6   9  ar  
 10   6  26  1   
 11   7   9  ar  
 12   7  10  1   
 13   8  27  1   
 14   8  28  1   
 15   8  29  1   
 16   9  11  1   
 17  10  12  am  
 18  10  13  am  
 19  11  14  1   
 20  12  15  2   
 21  12  16  1   
 22  13  17  2   
 23  13  18  1   
 24  14  30  1   
 25  14  31  1   
 26  14  32  1   
 27  16  18  1   
 28  16  19  1   
 29  16  33  1   
 30  18  34  1   
 31  18  35  1   
 32  19  20  1   
 33  19  21  1   
 34  20  22  1   
 35  20  36  1   
 36  20  37  1   
 37  21  23  1   
 38  21  38  1   
 39  21  39  1   
 40  22  24  1   
 41  22  40  1   
 42  22  41  1   
 43  23  24  1   
 44  23  42  1   
 45  23  43  1   
 46  24  44  1   
 47  24  45  1   
@<TRIPOS>SUBSTRUCTURE
  1 ****  10 GROUP 4 **** **** 0

# MOE 2024.06 (io_trps.svl 2023.06)
