@<TRIPOS>MOLECULE
NONAME
48 49 1 0 0 
SMALL
USER_CHARGES


@<TRIPOS>ATOM
  1 O      -11.1030     1.5510    -0.0710 O.2   1 <1>  -0.5700 
  2 C      -11.8730     1.2690     0.8410 C.2   1 <1>   0.5440 
  3 N      -11.5710     1.7110     2.1010 N.am  1 <1>  -0.4300 
  4 C      -13.0710     0.4920     0.5920 C.ar  1 <1>   0.0860 
  5 N      -10.3040     2.3620     2.4370 N.am  1 <1>  -0.4300 
  6 C      -13.7860     0.6430    -0.5950 C.ar  1 <1>  -0.1500 
  7 C      -13.5530    -0.4290     1.5200 C.ar  1 <1>  -0.1500 
  8 C       -9.1450     1.6590     2.4860 C.2   1 <1>   0.5690 
  9 C      -14.9490    -0.0730    -0.8610 C.ar  1 <1>   0.0830 
 10 C      -14.7070    -1.1470     1.2760 C.ar  1 <1>  -0.1500 
 11 O       -9.0670     0.5350     2.9260 O.2   1 <1>  -0.5700 
 12 C       -7.9260     2.2180     1.8110 C.3   1 <1>  -0.0990 
 13 O      -15.6260     0.1040    -2.0340 O.3   1 <1>  -0.3630 
 14 C      -15.4220    -0.9850     0.1020 C.ar  1 <1>   0.0830 
 15 C       -7.9570     1.6130     0.4110 C.3   1 <1>   0.3430 
 16 C      -15.1380     0.9150    -3.0820 C.3   1 <1>   0.0400 
 17 O      -16.5370    -1.7620     0.0230 O.3   1 <1>  -0.3630 
 18 N       -6.7420     1.9590    -0.3780 N.4   1 <1>  -0.9590 
 19 C      -17.4150    -1.7780    -1.0800 C.3   1 <1>   0.0400 
 20 C       -6.9480     1.6850    -1.8400 C.3   1 <1>   0.3430 
 21 C       -5.4920     1.2730     0.1020 C.3   1 <1>   0.3430 
 22 C       -5.6910     2.0480    -2.6640 C.3   1 <1>   0.1200 
 23 C       -4.2930     1.5530    -0.8340 C.3   1 <1>   0.1200 
 24 O       -4.6380     2.4710    -1.8370 O.3   1 <1>  -0.5600 
 25 H      -12.1730     1.4430     2.8880 H     1 <1>   0.3700 
 26 H      -10.2760     3.3590     2.1990 H     1 <1>   0.3700 
 27 H      -13.3990     1.3480    -1.3060 H     1 <1>   0.1500 
 28 H      -13.0210    -0.6000     2.4400 H     1 <1>   0.1500 
 29 H      -15.0670    -1.8530     2.0040 H     1 <1>   0.1500 
 30 H       -7.0580     1.9050     2.3600 H     1 <1>   0.0800 
 31 H       -7.9740     3.2900     1.7720 H     1 <1>   0.0800 
 32 H       -8.8350     1.9760    -0.1010 H     1 <1>   0.0800 
 33 H       -8.0490     0.5400     0.4890 H     1 <1>   0.0800 
 34 H      -15.8270     0.8450    -3.9050 H     1 <1>   0.0800 
 35 H      -15.0830     1.9330    -2.7400 H     1 <1>   0.0800 
 36 H      -14.1720     0.5530    -3.3840 H     1 <1>   0.0800 
 37 H       -6.5470     2.9700    -0.3230 H     1 <1>   0.4500 
 38 H      -17.8280    -0.7930    -1.2100 H     1 <1>   0.0800 
 39 H      -16.8700    -2.0850    -1.9550 H     1 <1>   0.0800 
 40 H      -18.2010    -2.4800    -0.8730 H     1 <1>   0.0800 
 41 H       -7.7880     2.2510    -2.2090 H     1 <1>   0.0800 
 42 H       -7.1730     0.6410    -1.9880 H     1 <1>   0.0800 
 43 H       -5.6520     0.2080     0.1540 H     1 <1>   0.0800 
 44 H       -5.2440     1.6100     1.0950 H     1 <1>   0.0800 
 45 H       -5.9130     2.8520    -3.3440 H     1 <1>   0.0800 
 46 H       -5.3570     1.2030    -3.2420 H     1 <1>   0.0800 
 47 H       -3.9520     0.6450    -1.3010 H     1 <1>   0.0800 
 48 H       -3.4740     1.9700    -0.2740 H     1 <1>   0.0800 
@<TRIPOS>BOND
  1   1   2  2   
  2   2   3  am  
  3   2   4  1   
  4   3   5  1   
  5   3  25  1   
  6   4   6  ar  
  7   4   7  ar  
  8   5   8  am  
  9   5  26  1   
 10   6   9  ar  
 11   6  27  1   
 12   7  10  ar  
 13   7  28  1   
 14   8  11  2   
 15   8  12  1   
 16   9  13  1   
 17   9  14  ar  
 18  10  14  ar  
 19  10  29  1   
 20  12  15  1   
 21  12  30  1   
 22  12  31  1   
 23  13  16  1   
 24  14  17  1   
 25  15  18  1   
 26  15  32  1   
 27  15  33  1   
 28  16  34  1   
 29  16  35  1   
 30  16  36  1   
 31  17  19  1   
 32  18  20  1   
 33  18  21  1   
 34  18  37  1   
 35  19  38  1   
 36  19  39  1   
 37  19  40  1   
 38  20  22  1   
 39  20  41  1   
 40  20  42  1   
 41  21  23  1   
 42  21  43  1   
 43  21  44  1   
 44  22  24  1   
 45  22  45  1   
 46  22  46  1   
 47  23  24  1   
 48  23  47  1   
 49  23  48  1   
@<TRIPOS>SUBSTRUCTURE
  1 ****   1 GROUP 4 **** **** 0

# MOE 2024.06 (io_trps.svl 2023.06)
