@<TRIPOS>MOLECULE
NONAME
45 49 1 0 0 
SMALL
USER_CHARGES


@<TRIPOS>ATOM
  1 O       -0.1800    -0.2210    -0.0930 O.2   1 <1>  -0.5700 
  2 C       -0.2100    -1.4280    -0.1400 C.2   1 <1>   0.4950 
  3 C        1.0020    -2.1980    -0.1450 C.2   1 <1>  -0.1360 
  4 C       -1.5760    -2.1520    -0.1960 C.3   1 <1>   0.0610 
  5 C        2.2670    -1.7140    -0.1000 C.2   1 <1>  -0.1780 
  6 C       -2.7570    -1.1410    -0.1810 C.3   1 <1>  -0.1600 
  7 C       -1.6980    -2.9940    -1.4930 C.3   1 <1>  -0.1600 
  8 C       -1.7500    -3.0920     1.0260 C.3   1 <1>  -0.1600 
  9 C        3.5170    -2.4300    -0.1020 C.ar  1 <1>   0.0280 
 10 C       -4.1160    -1.8620    -0.2370 C.3   1 <1>  -0.0800 
 11 C       -3.0510    -3.7300    -1.5510 C.3   1 <1>  -0.0800 
 12 C       -3.1030    -3.8270     0.9710 C.3   1 <1>  -0.0800 
 13 C        4.7160    -1.7110    -0.0500 C.ar  1 <1>  -0.1500 
 14 C        3.5910    -3.8320    -0.1540 C.ar  1 <1>  -0.1500 
 15 C       -4.1910    -2.6960    -1.5280 C.3   1 <1>  -0.1600 
 16 C       -4.2430    -2.7930     0.9810 C.3   1 <1>  -0.1600 
 17 C       -3.1790    -4.6540    -0.3260 C.3   1 <1>  -0.1600 
 18 C        5.9140    -2.3930    -0.0510 C.ar  1 <1>   0.0830 
 19 C        4.8040    -4.5050    -0.1550 C.ar  1 <1>  -0.1500 
 20 O        7.1540    -1.8930    -0.0070 O.3   1 <1>  -0.3630 
 21 C        5.9610    -3.7550    -0.1030 C.ar  1 <1>   0.0830 
 22 C        8.0450    -3.0080    -0.0310 C.3   1 <1>   0.4000 
 23 O        7.2270    -4.1740    -0.0930 O.3   1 <1>  -0.3630 
 24 H        0.8490    -3.2550    -0.1890 H     1 <1>   0.1500 
 25 H        2.3840    -0.6430    -0.0560 H     1 <1>   0.1500 
 26 H       -2.7080    -0.5400     0.7100 H     1 <1>   0.0800 
 27 H       -2.6720    -0.4730    -1.0210 H     1 <1>   0.0800 
 28 H       -0.9090    -3.7220    -1.5490 H     1 <1>   0.0800 
 29 H       -1.6040    -2.3490    -2.3500 H     1 <1>   0.0800 
 30 H       -0.9630    -3.8230     1.0590 H     1 <1>   0.0800 
 31 H       -1.6930    -2.5150     1.9330 H     1 <1>   0.0800 
 32 H       -4.9130    -1.1370    -0.2260 H     1 <1>   0.0800 
 33 H       -3.1100    -4.3130    -2.4550 H     1 <1>   0.0800 
 34 H       -3.1990    -4.4780     1.8240 H     1 <1>   0.0800 
 35 H        4.7180    -0.6380    -0.0090 H     1 <1>   0.1500 
 36 H        2.6910    -4.4150    -0.1950 H     1 <1>   0.1500 
 37 H       -4.1170    -2.0500    -2.3850 H     1 <1>   0.0800 
 38 H       -5.1410    -3.2000    -1.5810 H     1 <1>   0.0800 
 39 H       -4.2050    -2.2150     1.8880 H     1 <1>   0.0800 
 40 H       -5.1930    -3.2980     0.9560 H     1 <1>   0.0800 
 41 H       -2.3930    -5.3890    -0.3380 H     1 <1>   0.0800 
 42 H       -4.1170    -5.1800    -0.3650 H     1 <1>   0.0800 
 43 H        4.8590    -5.5780    -0.1950 H     1 <1>   0.1500 
 44 H        8.6650    -2.9550    -0.9080 H     1 <1>   0.0800 
 45 H        8.6290    -3.0230     0.8720 H     1 <1>   0.0800 
@<TRIPOS>BOND
  1   1   2  2   
  2   2   3  1   
  3   2   4  1   
  4   3   5  2   
  5   3  24  1   
  6   4   6  1   
  7   4   7  1   
  8   4   8  1   
  9   5   9  1   
 10   5  25  1   
 11   6  10  1   
 12   6  26  1   
 13   6  27  1   
 14   7  11  1   
 15   7  28  1   
 16   7  29  1   
 17   8  12  1   
 18   8  30  1   
 19   8  31  1   
 20   9  13  ar  
 21   9  14  ar  
 22  10  15  1   
 23  10  16  1   
 24  10  32  1   
 25  11  15  1   
 26  11  17  1   
 27  11  33  1   
 28  12  16  1   
 29  12  17  1   
 30  12  34  1   
 31  13  18  ar  
 32  13  35  1   
 33  14  19  ar  
 34  14  36  1   
 35  15  37  1   
 36  15  38  1   
 37  16  39  1   
 38  16  40  1   
 39  17  41  1   
 40  17  42  1   
 41  18  20  1   
 42  18  21  ar  
 43  19  21  ar  
 44  19  43  1   
 45  20  22  1   
 46  21  23  1   
 47  22  23  1   
 48  22  44  1   
 49  22  45  1   
@<TRIPOS>SUBSTRUCTURE
  1 ****   3 GROUP 4 **** **** 0

# MOE 2024.06 (io_trps.svl 2023.06)
