@<TRIPOS>MOLECULE
NONAME
26 26 1 0 0 
SMALL
USER_CHARGES


@<TRIPOS>ATOM
  1 S        0.9710     1.1600     0.5040 S.3   1 <1>  -0.4600 
  2 C        1.2920     0.1810    -1.0150 C.3   1 <1>   0.1310 
  3 C       -0.7560     1.6790     0.3270 C.3   1 <1>   0.0700 
  4 C        2.7410    -0.2850    -1.1050 C.2   1 <1>   0.5690 
  5 C       -1.6530     0.4840     0.6450 C.3   1 <1>  -0.2400 
  6 O        3.0840    -0.8540    -2.1120 O.2   1 <1>  -0.5700 
  7 N        3.5730    -0.0310    -0.0490 N.am  1 <1>  -0.5470 
  8 C        4.9270    -0.3180     0.1850 C.ar  1 <1>   0.1170 
  9 C        5.5650     0.3400     1.2360 C.ar  1 <1>  -0.1500 
 10 C        5.6560    -1.2330    -0.5760 C.ar  1 <1>  -0.1500 
 11 C        6.8970     0.0990     1.5250 C.ar  1 <1>  -0.1500 
 12 C        6.9900    -1.4840    -0.3010 C.ar  1 <1>  -0.1500 
 13 C        7.5870    -0.8110     0.7470 C.ar  1 <1>   0.1900 
 14 F        8.8460    -1.0430     1.0130 F     1 <1>  -0.1900 
 15 H        1.0570     0.8060    -1.8560 H     1 <1>   0.0800 
 16 H        0.6380    -0.6700    -0.9970 H     1 <1>   0.0800 
 17 H       -0.8950     2.0360    -0.6780 H     1 <1>   0.0800 
 18 H       -0.9160     2.4820     1.0270 H     1 <1>   0.0800 
 19 H       -1.4990    -0.3090    -0.0630 H     1 <1>   0.0800 
 20 H       -2.6850     0.7830     0.6010 H     1 <1>   0.0800 
 21 H       -1.4450     0.1190     1.6350 H     1 <1>   0.0800 
 22 H        3.1100     0.5030     0.6920 H     1 <1>   0.3700 
 23 H        5.0160     1.0470     1.8310 H     1 <1>   0.1500 
 24 H        5.1870    -1.7580    -1.3870 H     1 <1>   0.1500 
 25 H        7.3960     0.6040     2.3320 H     1 <1>   0.1500 
 26 H        7.5550    -2.1860    -0.8850 H     1 <1>   0.1500 
@<TRIPOS>BOND
  1   1   2  1   
  2   1   3  1   
  3   2   4  1   
  4   2  15  1   
  5   2  16  1   
  6   3   5  1   
  7   3  17  1   
  8   3  18  1   
  9   4   6  2   
 10   4   7  am  
 11   5  19  1   
 12   5  20  1   
 13   5  21  1   
 14   7   8  1   
 15   7  22  1   
 16   8   9  ar  
 17   8  10  ar  
 18   9  11  ar  
 19   9  23  1   
 20  10  12  ar  
 21  10  24  1   
 22  11  13  ar  
 23  11  25  1   
 24  12  13  ar  
 25  12  26  1   
 26  13  14  1   
@<TRIPOS>SUBSTRUCTURE
  1 ****   7 GROUP 4 **** **** 0

# MOE 2024.06 (io_trps.svl 2023.06)
