@<TRIPOS>MOLECULE
NONAME
43 44 1 0 0 
SMALL
USER_CHARGES


@<TRIPOS>ATOM
  1 S        1.2000    -1.3780     0.7830 S.o2  1 <1>   1.4470 
  2 O        2.0580    -2.5070     1.0750 O.2   1 <1>  -0.6500 
  3 O        1.2040    -0.2460     1.6790 O.2   1 <1>  -0.6500 
  4 N        1.6470    -0.8080    -0.7500 N.am  1 <1>  -0.8490 
  5 C       -0.5110    -1.9360     0.5380 C.ar  1 <1>  -0.0090 
  6 C        2.7690     0.1790    -0.7030 C.3   1 <1>   0.2570 
  7 C        1.8480    -1.8810    -1.7300 C.3   1 <1>   0.1960 
  8 C       -1.4560    -1.0910    -0.0420 C.ar  1 <1>  -0.1500 
  9 C       -0.9140    -3.2130     0.9240 C.ar  1 <1>  -0.1500 
 10 C        4.2110    -0.3550    -0.5960 C.2   1 <1>   0.5690 
 11 C        1.8690    -1.3200    -3.1510 C.3   1 <1>  -0.2400 
 12 C       -2.7640    -1.5010    -0.2390 C.ar  1 <1>  -0.1500 
 13 C       -2.2180    -3.6430     0.7360 C.ar  1 <1>  -0.1500 
 14 O        5.0600     0.1800    -1.2690 O.2   1 <1>  -0.5700 
 15 N        4.5150    -1.3970     0.2210 N.am  1 <1>  -0.7300 
 16 C       -3.1210    -2.7760     0.1540 C.ar  1 <1>   0.1900 
 17 C        5.8450    -1.9930     0.4050 C.3   1 <1>   0.2200 
 18 F       -4.3500    -3.1730    -0.0290 F     1 <1>  -0.1900 
 19 C        5.8210    -3.4170    -0.1350 C.3   1 <1>  -0.1600 
 20 C        6.0860    -2.1870     1.8960 C.3   1 <1>  -0.1600 
 21 C        5.1780    -4.2680     0.9670 C.3   1 <1>  -0.1600 
 22 C        5.3450    -3.4760     2.2710 C.3   1 <1>  -0.1600 
 23 H        2.6180     0.8710     0.1050 H     1 <1>   0.0800 
 24 H        2.7250     0.7710    -1.5990 H     1 <1>   0.0800 
 25 H        1.0300    -2.5810    -1.6620 H     1 <1>   0.0800 
 26 H        2.7570    -2.4240    -1.5290 H     1 <1>   0.0800 
 27 H       -1.1600    -0.0980    -0.3420 H     1 <1>   0.1500 
 28 H       -0.1990    -3.8800     1.3790 H     1 <1>   0.1500 
 29 H        0.9960    -0.7170    -3.3270 H     1 <1>   0.0800 
 30 H        1.8680    -2.1330    -3.8540 H     1 <1>   0.0800 
 31 H        2.7550    -0.7380    -3.3250 H     1 <1>   0.0800 
 32 H       -3.4940    -0.8510    -0.6870 H     1 <1>   0.1500 
 33 H       -2.5320    -4.6280     1.0330 H     1 <1>   0.1500 
 34 H        3.7690    -1.8980     0.7250 H     1 <1>   0.3700 
 35 H        6.6050    -1.3870    -0.0620 H     1 <1>   0.0800 
 36 H        6.8360    -3.7420    -0.2800 H     1 <1>   0.0800 
 37 H        5.3000    -3.4870    -1.0730 H     1 <1>   0.0800 
 38 H        5.7630    -1.3390     2.4740 H     1 <1>   0.0800 
 39 H        7.1400    -2.3310     2.0550 H     1 <1>   0.0800 
 40 H        5.6470    -5.2350     1.0300 H     1 <1>   0.0800 
 41 H        4.1290    -4.4020     0.7610 H     1 <1>   0.0800 
 42 H        4.3740    -3.2350     2.6710 H     1 <1>   0.0800 
 43 H        5.8940    -4.0370     3.0070 H     1 <1>   0.0800 
@<TRIPOS>BOND
  1   1   2  2   
  2   1   3  2   
  3   1   4  am  
  4   1   5  1   
  5   4   6  1   
  6   4   7  1   
  7   5   8  ar  
  8   5   9  ar  
  9   6  10  1   
 10   6  23  1   
 11   6  24  1   
 12   7  11  1   
 13   7  25  1   
 14   7  26  1   
 15   8  12  ar  
 16   8  27  1   
 17   9  13  ar  
 18   9  28  1   
 19  10  14  2   
 20  10  15  am  
 21  11  29  1   
 22  11  30  1   
 23  11  31  1   
 24  12  16  ar  
 25  12  32  1   
 26  13  16  ar  
 27  13  33  1   
 28  15  17  1   
 29  15  34  1   
 30  16  18  1   
 31  17  19  1   
 32  17  20  1   
 33  17  35  1   
 34  19  21  1   
 35  19  36  1   
 36  19  37  1   
 37  20  22  1   
 38  20  38  1   
 39  20  39  1   
 40  21  22  1   
 41  21  40  1   
 42  21  41  1   
 43  22  42  1   
 44  22  43  1   
@<TRIPOS>SUBSTRUCTURE
  1 ****   1 GROUP 4 **** **** 0

# MOE 2024.06 (io_trps.svl 2023.06)
