@<TRIPOS>MOLECULE
NONAME
47 48 1 0 0 
SMALL
USER_CHARGES


@<TRIPOS>ATOM
  1 O       -0.3630    -0.6990     1.0190 O.3   1 <1>  -0.3630 
  2 C       -1.5430    -1.1710     0.5470 C.ar  1 <1>   0.0830 
  3 C        0.1250    -1.0770     2.2870 C.3   1 <1>   0.0400 
  4 C       -1.9130    -0.7650    -0.7230 C.ar  1 <1>  -0.1500 
  5 C       -2.3790    -2.0250     1.2600 C.ar  1 <1>  -0.1500 
  6 C       -3.1030    -1.1960    -1.2810 C.ar  1 <1>  -0.1500 
  7 C       -3.5700    -2.4560     0.7020 C.ar  1 <1>  -0.1500 
  8 C       -3.9430    -2.0400    -0.5690 C.ar  1 <1>  -0.1430 
  9 C       -5.2600    -2.5000    -1.1680 C.3   1 <1>  -0.0170 
 10 C       -6.4380    -1.7220    -0.5610 C.3   1 <1>   0.4230 
 11 N       -7.7120    -2.3100    -1.0320 N.4   1 <1>  -0.9060 
 12 C       -6.4120    -0.2410    -0.9490 C.3   1 <1>  -0.2400 
 13 C       -8.8930    -1.8970    -0.2160 C.3   1 <1>   0.3430 
 14 C      -10.1880    -2.5700    -0.6970 C.3   1 <1>   0.0630 
 15 C      -11.3250    -2.0890     0.1940 C.ar  1 <1>  -0.1430 
 16 C      -10.1120    -4.1070    -0.7050 C.3   1 <1>  -0.2400 
 17 C      -12.3180    -1.2740    -0.3340 C.ar  1 <1>  -0.1500 
 18 C      -11.3860    -2.4390     1.5370 C.ar  1 <1>  -0.1500 
 19 C      -13.3470    -0.8120     0.4670 C.ar  1 <1>  -0.1500 
 20 C      -12.4160    -1.9770     2.3370 C.ar  1 <1>  -0.1500 
 21 C      -13.3960    -1.1620     1.8030 C.ar  1 <1>  -0.1500 
 22 H        1.0740    -0.5940     2.4360 H     1 <1>   0.0800 
 23 H        0.2520    -2.1450     2.3090 H     1 <1>   0.0800 
 24 H       -0.5710    -0.7540     3.0400 H     1 <1>   0.0800 
 25 H       -1.2590    -0.1100    -1.2700 H     1 <1>   0.1500 
 26 H       -2.1160    -2.3630     2.2450 H     1 <1>   0.1500 
 27 H       -3.3600    -0.8650    -2.2720 H     1 <1>   0.1500 
 28 H       -4.1960    -3.1200     1.2710 H     1 <1>   0.1500 
 29 H       -5.3690    -3.5500    -0.9610 H     1 <1>   0.0800 
 30 H       -5.2360    -2.3690    -2.2360 H     1 <1>   0.0800 
 31 H       -6.3770    -1.8060     0.5130 H     1 <1>   0.0800 
 32 H       -7.6430    -3.3340    -1.0030 H     1 <1>   0.4500 
 33 H       -7.8580    -2.0430    -2.0120 H     1 <1>   0.4500 
 34 H       -6.4460    -0.1160    -2.0170 H     1 <1>   0.0800 
 35 H       -5.5010     0.2100    -0.5950 H     1 <1>   0.0800 
 36 H       -7.2220     0.3000    -0.4970 H     1 <1>   0.0800 
 37 H       -9.0240    -0.8280    -0.2660 H     1 <1>   0.0800 
 38 H       -8.7310    -2.1600     0.8170 H     1 <1>   0.0800 
 39 H      -10.3870    -2.2400    -1.7020 H     1 <1>   0.0800 
 40 H       -9.8110    -4.4900     0.2540 H     1 <1>   0.0800 
 41 H       -9.4300    -4.4640    -1.4550 H     1 <1>   0.0800 
 42 H      -11.0850    -4.5100    -0.9310 H     1 <1>   0.0800 
 43 H      -12.3080    -0.9890    -1.3720 H     1 <1>   0.1500 
 44 H      -10.6430    -3.0770     1.9810 H     1 <1>   0.1500 
 45 H      -14.1140    -0.1810     0.0500 H     1 <1>   0.1500 
 46 H      -12.4600    -2.2530     3.3770 H     1 <1>   0.1500 
 47 H      -14.1980    -0.8030     2.4260 H     1 <1>   0.1500 
@<TRIPOS>BOND
  1   1   2  1   
  2   1   3  1   
  3   2   4  ar  
  4   2   5  ar  
  5   3  22  1   
  6   3  23  1   
  7   3  24  1   
  8   4   6  ar  
  9   4  25  1   
 10   5   7  ar  
 11   5  26  1   
 12   6   8  ar  
 13   6  27  1   
 14   7   8  ar  
 15   7  28  1   
 16   8   9  1   
 17   9  10  1   
 18   9  29  1   
 19   9  30  1   
 20  10  11  1   
 21  10  12  1   
 22  10  31  1   
 23  11  13  1   
 24  11  32  1   
 25  11  33  1   
 26  12  34  1   
 27  12  35  1   
 28  12  36  1   
 29  13  14  1   
 30  13  37  1   
 31  13  38  1   
 32  14  15  1   
 33  14  16  1   
 34  14  39  1   
 35  15  17  ar  
 36  15  18  ar  
 37  16  40  1   
 38  16  41  1   
 39  16  42  1   
 40  17  19  ar  
 41  17  43  1   
 42  18  20  ar  
 43  18  44  1   
 44  19  21  ar  
 45  19  45  1   
 46  20  21  ar  
 47  20  46  1   
 48  21  47  1   
@<TRIPOS>SUBSTRUCTURE
  1 ****  10 GROUP 4 **** **** 0

# MOE 2024.06 (io_trps.svl 2023.06)
