@<TRIPOS>MOLECULE
NONAME
56 58 1 0 0 
SMALL
USER_CHARGES


@<TRIPOS>ATOM
  1 O       -1.2070     0.7600    -2.3870 O.2   1 <1>  -0.5700 
  2 C       -1.9070     0.9950    -1.3880 C.2   1 <1>   0.6160 
  3 N       -2.9850     0.2390    -0.9930 N.am  1 <1>  -0.1570 
  4 C       -1.7570     2.0660    -0.4710 C.2   1 <1>   0.1230 
  5 N       -3.5520     0.8940     0.1510 N.pl3 1 <1>  -0.4890 
  6 C       -3.0490    -1.1660    -1.1350 C.ar  1 <1>   0.1170 
  7 N       -0.7280     3.0610    -0.4950 N.am  1 <1>  -0.4690 
  8 C       -2.7730     1.9730     0.4330 C.2   1 <1>  -0.0380 
  9 C       -5.0210     0.8450     0.3480 C.3   1 <1>   0.1290 
 10 C       -3.2060    -2.0000    -0.0290 C.ar  1 <1>  -0.1500 
 11 C       -2.9680    -1.7540    -2.3940 C.ar  1 <1>  -0.1500 
 12 C        0.6240     2.7660    -0.4730 C.2   1 <1>   0.5440 
 13 C       -1.1620     4.4460    -0.8210 C.3   1 <1>   0.0600 
 14 C       -3.0760     2.8880     1.6070 C.3   1 <1>  -0.1020 
 15 C       -3.2990    -3.3710    -0.1780 C.ar  1 <1>  -0.1500 
 16 C       -3.0520    -3.1260    -2.5470 C.ar  1 <1>  -0.1500 
 17 O        1.4200     3.6740    -0.6480 O.2   1 <1>  -0.5700 
 18 C        1.1250     1.4220    -0.2490 C.ar  1 <1>   0.0860 
 19 C       -3.2210    -3.9370    -1.4390 C.ar  1 <1>  -0.1500 
 20 C        2.1240     0.9010    -1.0710 C.ar  1 <1>  -0.1500 
 21 C        0.6540     0.6000     0.7790 C.ar  1 <1>  -0.1500 
 22 C        2.6210    -0.3740    -0.8860 C.ar  1 <1>  -0.1500 
 23 C        1.1410    -0.6810     0.9670 C.ar  1 <1>  -0.1500 
 24 C        2.1370    -1.1780     0.1320 C.ar  1 <1>   0.0830 
 25 O        2.6860    -2.4090     0.2430 O.3   1 <1>  -0.3620 
 26 C        2.2450    -3.3830     1.1650 C.3   1 <1>   0.1200 
 27 C        1.0100    -4.0970     0.6040 C.3   1 <1>  -0.1600 
 28 C        0.5740    -5.2410     1.5270 C.3   1 <1>  -0.1600 
 29 C       -0.6060    -6.0120     0.9310 C.3   1 <1>  -0.2400 
 30 H       -5.3920    -0.1330     0.0990 H     1 <1>   0.0800 
 31 H       -5.4940     1.5720    -0.2890 H     1 <1>   0.0800 
 32 H       -5.2590     1.0590     1.3750 H     1 <1>   0.0800 
 33 H       -3.2560    -1.5710     0.9540 H     1 <1>   0.1500 
 34 H       -2.8350    -1.1270    -3.2580 H     1 <1>   0.1500 
 35 H       -2.2330     4.5280    -0.7800 H     1 <1>   0.0800 
 36 H       -0.8270     4.6990    -1.8120 H     1 <1>   0.0800 
 37 H       -0.7250     5.1350    -0.1190 H     1 <1>   0.0800 
 38 H       -3.1770     2.3050     2.5050 H     1 <1>   0.0800 
 39 H       -3.9900     3.4240     1.4320 H     1 <1>   0.0800 
 40 H       -2.2810     3.5960     1.7520 H     1 <1>   0.0800 
 41 H       -3.4310    -3.9980     0.6860 H     1 <1>   0.1500 
 42 H       -2.9840    -3.5610    -3.5290 H     1 <1>   0.1500 
 43 H       -3.2880    -5.0050    -1.5570 H     1 <1>   0.1500 
 44 H        2.5090     1.5140    -1.8680 H     1 <1>   0.1500 
 45 H       -0.1060     0.9740     1.4410 H     1 <1>   0.1500 
 46 H        3.3900    -0.7570    -1.5330 H     1 <1>   0.1500 
 47 H        0.7360    -1.2750     1.7630 H     1 <1>   0.1500 
 48 H        2.0590    -2.9210     2.1170 H     1 <1>   0.0800 
 49 H        3.0500    -4.0870     1.2810 H     1 <1>   0.0800 
 50 H        1.2530    -4.4940    -0.3660 H     1 <1>   0.0800 
 51 H        0.2010    -3.3960     0.4910 H     1 <1>   0.0800 
 52 H        0.2910    -4.8440     2.4880 H     1 <1>   0.0800 
 53 H        1.3960    -5.9220     1.6750 H     1 <1>   0.0800 
 54 H       -1.4460    -5.3580     0.7880 H     1 <1>   0.0800 
 55 H       -0.8990    -6.8080     1.5920 H     1 <1>   0.0800 
 56 H       -0.3350    -6.4380    -0.0200 H     1 <1>   0.0800 
@<TRIPOS>BOND
  1   1   2  2   
  2   2   3  am  
  3   2   4  1   
  4   3   5  1   
  5   3   6  1   
  6   4   7  1   
  7   4   8  2   
  8   5   8  1   
  9   5   9  1   
 10   6  10  ar  
 11   6  11  ar  
 12   7  12  am  
 13   7  13  1   
 14   8  14  1   
 15   9  30  1   
 16   9  31  1   
 17   9  32  1   
 18  10  15  ar  
 19  10  33  1   
 20  11  16  ar  
 21  11  34  1   
 22  12  17  2   
 23  12  18  1   
 24  13  35  1   
 25  13  36  1   
 26  13  37  1   
 27  14  38  1   
 28  14  39  1   
 29  14  40  1   
 30  15  19  ar  
 31  15  41  1   
 32  16  19  ar  
 33  16  42  1   
 34  18  20  ar  
 35  18  21  ar  
 36  19  43  1   
 37  20  22  ar  
 38  20  44  1   
 39  21  23  ar  
 40  21  45  1   
 41  22  24  ar  
 42  22  46  1   
 43  23  24  ar  
 44  23  47  1   
 45  24  25  1   
 46  25  26  1   
 47  26  27  1   
 48  26  48  1   
 49  26  49  1   
 50  27  28  1   
 51  27  50  1   
 52  27  51  1   
 53  28  29  1   
 54  28  52  1   
 55  28  53  1   
 56  29  54  1   
 57  29  55  1   
 58  29  56  1   
@<TRIPOS>SUBSTRUCTURE
  1 ****   2 GROUP 4 **** **** 0

# MOE 2024.06 (io_trps.svl 2023.06)
