@<TRIPOS>MOLECULE
NONAME
23 23 1 0 0 
SMALL
USER_CHARGES


@<TRIPOS>ATOM
  1 S        0.2680     0.2510    -0.0890 S.o2  1 <1>   1.3940 
  2 F        1.5840    -0.5270    -0.0840 F     1 <1>  -0.1990 
  3 O        0.2490     1.1850     1.0540 O.2   1 <1>  -0.6500 
  4 O        0.0960     0.9090    -1.3980 O.2   1 <1>  -0.6500 
  5 C       -1.0170    -1.0700     0.1440 C.3   1 <1>   0.8460 
  6 F       -0.7690    -1.7880     1.2540 F     1 <1>  -0.3400 
  7 F       -0.9400    -1.9970    -0.8270 F     1 <1>  -0.3400 
  8 C       -2.4550    -0.5150     0.2040 C.2   1 <1>   0.5690 
  9 O       -2.6120     0.6700     0.0090 O.2   1 <1>  -0.5700 
 10 N       -3.5690    -1.3030     0.4610 N.am  1 <1>  -0.6600 
 11 C       -3.5820    -2.7880     0.6750 C.3   1 <1>   0.1400 
 12 C       -4.9460    -0.7130     0.5390 C.3   1 <1>   0.1400 
 13 C       -4.6410    -3.4580    -0.2160 C.3   1 <1>   0.1200 
 14 C       -5.9290    -1.5000    -0.3430 C.3   1 <1>   0.1200 
 15 O       -5.8910    -2.8620    -0.0260 O.3   1 <1>  -0.5600 
 16 H       -3.8170    -2.9930     1.7060 H     1 <1>   0.0800 
 17 H       -2.6270    -3.2300     0.4620 H     1 <1>   0.0800 
 18 H       -4.9450     0.3160     0.2250 H     1 <1>   0.0800 
 19 H       -5.2870    -0.7440     1.5590 H     1 <1>   0.0800 
 20 H       -4.7340    -4.5000     0.0350 H     1 <1>   0.0800 
 21 H       -4.3740    -3.3750    -1.2560 H     1 <1>   0.0800 
 22 H       -5.6860    -1.3790    -1.3840 H     1 <1>   0.0800 
 23 H       -6.9330    -1.1520    -0.1800 H     1 <1>   0.0800 
@<TRIPOS>BOND
  1   1   2  1   
  2   1   3  2   
  3   1   4  2   
  4   1   5  1   
  5   5   6  1   
  6   5   7  1   
  7   5   8  1   
  8   8   9  2   
  9   8  10  am  
 10  10  11  1   
 11  10  12  1   
 12  11  13  1   
 13  11  16  1   
 14  11  17  1   
 15  12  14  1   
 16  12  18  1   
 17  12  19  1   
 18  13  15  1   
 19  13  20  1   
 20  13  21  1   
 21  14  15  1   
 22  14  22  1   
 23  14  23  1   
@<TRIPOS>SUBSTRUCTURE
  1 ****   8 GROUP 4 **** **** 0

# MOE 2024.06 (io_trps.svl 2023.06)
