@<TRIPOS>MOLECULE
NONAME
38 39 1 0 0 
SMALL
USER_CHARGES


@<TRIPOS>ATOM
  1 O        0.0620    -0.1850     0.9370 O.2   1 <1>  -0.5700 
  2 C        0.0640     0.8880     0.3670 C.2   1 <1>   0.6900 
  3 N       -1.0790     1.5150    -0.0240 N.am  1 <1>  -0.5470 
  4 N        1.2330     1.5160     0.0970 N.am  1 <1>  -0.7300 
  5 C       -2.4470     1.1910     0.0480 C.ar  1 <1>   0.1170 
  6 C        2.5720     1.0080     0.4360 C.3   1 <1>   0.2200 
  7 C       -3.3730     2.1730    -0.3220 C.ar  1 <1>   0.0830 
  8 C       -2.9190    -0.0510     0.4590 C.ar  1 <1>  -0.1500 
  9 C        3.3270     2.0880     1.2010 C.3   1 <1>  -0.1600 
 10 C        3.3790     0.8590    -0.8480 C.3   1 <1>  -0.1600 
 11 O       -2.8740     3.3820    -0.7290 O.3   1 <1>  -0.3630 
 12 C       -4.7360     1.9000    -0.2700 C.ar  1 <1>  -0.1500 
 13 C       -4.2760    -0.3220     0.5130 C.ar  1 <1>  -0.1430 
 14 C        3.8720     3.0500     0.1380 C.3   1 <1>  -0.1600 
 15 C        3.9050     2.2610    -1.1770 C.3   1 <1>  -0.1600 
 16 C       -3.7340     4.4420    -1.0880 C.3   1 <1>   0.0400 
 17 C       -5.1820     0.6580     0.1470 C.ar  1 <1>  -0.1500 
 18 C       -4.7630    -1.6860     0.9680 C.3   1 <1>  -0.0970 
 19 H       -0.9400     2.4510    -0.3930 H     1 <1>   0.3700 
 20 H        1.2350     2.3830    -0.4300 H     1 <1>   0.3700 
 21 H        2.5060     0.0850     0.9890 H     1 <1>   0.0800 
 22 H       -2.2240    -0.8190     0.7380 H     1 <1>   0.1500 
 23 H        4.1540     1.6260     1.7110 H     1 <1>   0.0800 
 24 H        2.7050     2.5780     1.9300 H     1 <1>   0.0800 
 25 H        2.7970     0.4310    -1.6450 H     1 <1>   0.0800 
 26 H        4.2140     0.2110    -0.6490 H     1 <1>   0.0800 
 27 H       -5.4680     2.6330    -0.5470 H     1 <1>   0.1500 
 28 H        4.8520     3.4050     0.4100 H     1 <1>   0.0800 
 29 H        3.2130     3.8960     0.0380 H     1 <1>   0.0800 
 30 H        3.2610     2.7330    -1.9000 H     1 <1>   0.0800 
 31 H        4.9010     2.2110    -1.5820 H     1 <1>   0.0800 
 32 H       -3.1280     5.2880    -1.3560 H     1 <1>   0.0800 
 33 H       -4.3540     4.6900    -0.2450 H     1 <1>   0.0800 
 34 H       -4.3290     4.1390    -1.9310 H     1 <1>   0.0800 
 35 H       -6.2380     0.4560     0.1830 H     1 <1>   0.1500 
 36 H       -4.0580    -2.1280     1.6490 H     1 <1>   0.0800 
 37 H       -4.8750    -2.3340     0.1170 H     1 <1>   0.0800 
 38 H       -5.7100    -1.6010     1.4690 H     1 <1>   0.0800 
@<TRIPOS>BOND
  1   1   2  2   
  2   2   3  am  
  3   2   4  am  
  4   3   5  1   
  5   3  19  1   
  6   4   6  1   
  7   4  20  1   
  8   5   7  ar  
  9   5   8  ar  
 10   6   9  1   
 11   6  10  1   
 12   6  21  1   
 13   7  11  1   
 14   7  12  ar  
 15   8  13  ar  
 16   8  22  1   
 17   9  14  1   
 18   9  23  1   
 19   9  24  1   
 20  10  15  1   
 21  10  25  1   
 22  10  26  1   
 23  11  16  1   
 24  12  17  ar  
 25  12  27  1   
 26  13  17  ar  
 27  13  18  1   
 28  14  15  1   
 29  14  28  1   
 30  14  29  1   
 31  15  30  1   
 32  15  31  1   
 33  16  32  1   
 34  16  33  1   
 35  16  34  1   
 36  17  35  1   
 37  18  36  1   
 38  18  37  1   
 39  18  38  1   
@<TRIPOS>SUBSTRUCTURE
  1 ****   3 GROUP 4 **** **** 0

# MOE 2024.06 (io_trps.svl 2023.06)
