@<TRIPOS>MOLECULE
NONAME
42 44 1 0 0 
SMALL
USER_CHARGES


@<TRIPOS>ATOM
  1 CL      -0.5540     1.0930     2.6440 Cl    1 <1>  -0.1770 
  2 C       -0.5320     2.2890     1.3730 C.ar  1 <1>   0.1770 
  3 C       -1.6480     3.0710     1.1630 C.ar  1 <1>  -0.1500 
  4 C        0.6060     2.4290     0.5980 C.ar  1 <1>  -0.1500 
  5 C       -1.6400     4.0250     0.1530 C.ar  1 <1>   0.1000 
  6 C        0.6190     3.3780    -0.4110 C.ar  1 <1>  -0.1500 
  7 N       -2.7410     4.8340    -0.0930 N.pl3 1 <1>  -0.8380 
  8 C       -0.4980     4.1680    -0.6270 C.ar  1 <1>  -0.1500 
  9 C       -3.0970     5.8100     0.9810 C.3   1 <1>   0.2090 
 10 C       -3.9460     4.1490    -0.6500 C.3   1 <1>   0.2090 
 11 C       -4.2020     6.7790     0.5180 C.3   1 <1>   0.1960 
 12 C       -5.0180     5.1690    -1.0770 C.3   1 <1>   0.1960 
 13 N       -5.4000     6.0690     0.0310 N.am  1 <1>  -0.8490 
 14 S       -6.6180     7.1580    -0.4120 S.o2  1 <1>   1.5010 
 15 O       -6.2490     7.6930    -1.7050 O.2   1 <1>  -0.6500 
 16 O       -6.8070     8.0550     0.7070 O.2   1 <1>  -0.6500 
 17 C       -8.0550     6.0930    -0.5830 C.2   1 <1>  -0.0630 
 18 C       -8.7460     5.9060    -1.7720 C.2   1 <1>   0.1390 
 19 C       -8.7110     5.2980     0.3000 C.2   1 <1>  -0.3020 
 20 N       -9.7320     5.0710    -1.6540 N.2   1 <1>  -0.7070 
 21 N       -9.7150     4.6960    -0.3640 N.pl3 1 <1>   0.3140 
 22 C      -10.7010     3.7470     0.1920 C.3   1 <1>   0.0960 
 23 C      -10.0980     2.3440     0.3380 C.3   1 <1>  -0.2400 
 24 H       -2.5170     2.9410     1.7780 H     1 <1>   0.1500 
 25 H        1.4610     1.8050     0.7830 H     1 <1>   0.1500 
 26 H        1.4950     3.5030    -1.0240 H     1 <1>   0.1500 
 27 H       -0.4980     4.9080    -1.4060 H     1 <1>   0.1500 
 28 H       -2.2200     6.3720     1.2510 H     1 <1>   0.0800 
 29 H       -3.4370     5.2810     1.8530 H     1 <1>   0.0800 
 30 H       -4.3610     3.4870     0.0900 H     1 <1>   0.0800 
 31 H       -3.6540     3.5590    -1.5020 H     1 <1>   0.0800 
 32 H       -3.8080     7.4110    -0.2610 H     1 <1>   0.0800 
 33 H       -4.4680     7.4090     1.3500 H     1 <1>   0.0800 
 34 H       -5.8840     4.6290    -1.4200 H     1 <1>   0.0800 
 35 H       -4.6330     5.7410    -1.9040 H     1 <1>   0.0800 
 36 H       -8.4930     6.3970    -2.6980 H     1 <1>   0.1500 
 37 H       -8.5110     5.1380     1.3430 H     1 <1>   0.1500 
 38 H      -11.5470     3.7160    -0.4720 H     1 <1>   0.0800 
 39 H      -11.0290     4.1150     1.1460 H     1 <1>   0.0800 
 40 H       -9.7760     1.9800    -0.6220 H     1 <1>   0.0800 
 41 H      -10.8380     1.6690     0.7270 H     1 <1>   0.0800 
 42 H       -9.2610     2.3620     1.0130 H     1 <1>   0.0800 
@<TRIPOS>BOND
  1   1   2  1   
  2   2   3  ar  
  3   2   4  ar  
  4   3   5  ar  
  5   3  24  1   
  6   4   6  ar  
  7   4  25  1   
  8   5   7  1   
  9   5   8  ar  
 10   6   8  ar  
 11   6  26  1   
 12   7   9  1   
 13   7  10  1   
 14   8  27  1   
 15   9  11  1   
 16   9  28  1   
 17   9  29  1   
 18  10  12  1   
 19  10  30  1   
 20  10  31  1   
 21  11  13  1   
 22  11  32  1   
 23  11  33  1   
 24  12  13  1   
 25  12  34  1   
 26  12  35  1   
 27  13  14  am  
 28  14  15  2   
 29  14  16  2   
 30  14  17  1   
 31  17  18  1   
 32  17  19  2   
 33  18  20  2   
 34  18  36  1   
 35  19  21  1   
 36  19  37  1   
 37  20  21  1   
 38  21  22  1   
 39  22  23  1   
 40  22  38  1   
 41  22  39  1   
 42  23  40  1   
 43  23  41  1   
 44  23  42  1   
@<TRIPOS>SUBSTRUCTURE
  1 ****  12 GROUP 4 **** **** 0

# MOE 2024.06 (io_trps.svl 2023.06)
