@<TRIPOS>MOLECULE
NONAME
49 51 1 0 0 
SMALL
USER_CHARGES


@<TRIPOS>ATOM
  1 F        0.5160    -0.4490     0.5970 F     1 <1>  -0.1900 
  2 C        1.6480    -1.0610     0.3550 C.ar  1 <1>   0.1900 
  3 C        1.9840    -1.3480    -0.9550 C.ar  1 <1>  -0.1500 
  4 C        2.4640    -1.3970     1.4180 C.ar  1 <1>  -0.1500 
  5 C        3.1820    -1.9950    -1.2010 C.ar  1 <1>  -0.1500 
  6 C        3.6600    -2.0440     1.1550 C.ar  1 <1>  -0.1500 
  7 C        4.0290    -2.3480    -0.1540 C.ar  1 <1>   0.1000 
  8 N        5.2240    -2.9990    -0.4360 N.pl3 1 <1>  -0.8380 
  9 C        5.3020    -4.4360    -0.0440 C.3   1 <1>   0.2090 
 10 C        6.4750    -2.2220    -0.1890 C.3   1 <1>   0.2090 
 11 C        6.5220    -5.1170    -0.7020 C.3   1 <1>   0.3430 
 12 C        7.6880    -2.9170    -0.8430 C.3   1 <1>   0.3430 
 13 N        7.8090    -4.3720    -0.4490 N.4   1 <1>  -0.9590 
 14 C        8.9680    -5.0230    -1.1170 C.3   1 <1>   0.4860 
 15 C       10.2320    -4.3270    -0.6570 C.ar  1 <1>  -0.1430 
 16 C       10.7340    -4.5500     0.6170 C.ar  1 <1>  -0.1500 
 17 C       10.8950    -3.4510    -1.5040 C.ar  1 <1>  -0.1500 
 18 C       11.8740    -3.8920     1.0410 C.ar  1 <1>  -0.1500 
 19 C       12.0350    -2.7960    -1.0740 C.ar  1 <1>  -0.1500 
 20 C       12.5340    -3.0070     0.2030 C.ar  1 <1>  -0.1430 
 21 C       13.7940    -2.2930     0.6890 C.3   1 <1>   0.0630 
 22 C       13.5950    -0.7740     0.7000 C.3   1 <1>  -0.2400 
 23 C       15.0050    -2.6750    -0.1690 C.3   1 <1>  -0.2400 
 24 H        1.3220    -1.0700    -1.7550 H     1 <1>   0.1500 
 25 H        2.1650    -1.1540     2.4220 H     1 <1>   0.1500 
 26 H        3.4710    -2.2320    -2.2090 H     1 <1>   0.1500 
 27 H        4.3070    -2.3120     1.9680 H     1 <1>   0.1500 
 28 H        4.4010    -4.9350    -0.3580 H     1 <1>   0.0800 
 29 H        5.3680    -4.5170     1.0270 H     1 <1>   0.0800 
 30 H        6.6380    -2.1210     0.8700 H     1 <1>   0.0800 
 31 H        6.3650    -1.2330    -0.6020 H     1 <1>   0.0800 
 32 H        6.3380    -5.1660    -1.7630 H     1 <1>   0.0800 
 33 H        6.6000    -6.1260    -0.3330 H     1 <1>   0.0800 
 34 H        8.5840    -2.3850    -0.5670 H     1 <1>   0.0800 
 35 H        7.5770    -2.8410    -1.9120 H     1 <1>   0.0800 
 36 H        8.0060    -4.3850     0.5590 H     1 <1>   0.4500 
 37 H        8.8750    -4.9480    -2.1880 H     1 <1>   0.0800 
 38 H        9.0190    -6.0650    -0.8480 H     1 <1>   0.0800 
 39 H       10.2540    -5.2360     1.2940 H     1 <1>   0.1500 
 40 H       10.5410    -3.2680    -2.5040 H     1 <1>   0.1500 
 41 H       12.2530    -4.0750     2.0330 H     1 <1>   0.1500 
 42 H       12.5400    -2.1200    -1.7420 H     1 <1>   0.1500 
 43 H       14.0010    -2.6020     1.7000 H     1 <1>   0.0800 
 44 H       13.4340    -0.3990    -0.2950 H     1 <1>   0.0800 
 45 H       14.4620    -0.2890     1.1120 H     1 <1>   0.0800 
 46 H       12.7430    -0.5200     1.3060 H     1 <1>   0.0800 
 47 H       14.8800    -2.3420    -1.1830 H     1 <1>   0.0800 
 48 H       15.1290    -3.7430    -0.1720 H     1 <1>   0.0800 
 49 H       15.8980    -2.2290     0.2300 H     1 <1>   0.0800 
@<TRIPOS>BOND
  1   1   2  1   
  2   2   3  ar  
  3   2   4  ar  
  4   3   5  ar  
  5   3  24  1   
  6   4   6  ar  
  7   4  25  1   
  8   5   7  ar  
  9   5  26  1   
 10   6   7  ar  
 11   6  27  1   
 12   7   8  1   
 13   8   9  1   
 14   8  10  1   
 15   9  11  1   
 16   9  28  1   
 17   9  29  1   
 18  10  12  1   
 19  10  30  1   
 20  10  31  1   
 21  11  13  1   
 22  11  32  1   
 23  11  33  1   
 24  12  13  1   
 25  12  34  1   
 26  12  35  1   
 27  13  14  1   
 28  13  36  1   
 29  14  15  1   
 30  14  37  1   
 31  14  38  1   
 32  15  16  ar  
 33  15  17  ar  
 34  16  18  ar  
 35  16  39  1   
 36  17  19  ar  
 37  17  40  1   
 38  18  20  ar  
 39  18  41  1   
 40  19  20  ar  
 41  19  42  1   
 42  20  21  1   
 43  21  22  1   
 44  21  23  1   
 45  21  43  1   
 46  22  44  1   
 47  22  45  1   
 48  22  46  1   
 49  23  47  1   
 50  23  48  1   
 51  23  49  1   
@<TRIPOS>SUBSTRUCTURE
  1 ****  12 GROUP 4 **** **** 0

# MOE 2024.06 (io_trps.svl 2023.06)
