@<TRIPOS>MOLECULE
NONAME
46 47 1 0 0 
SMALL
USER_CHARGES


@<TRIPOS>ATOM
  1 O       -0.4270     0.1850    -0.5180 O.3   1 <1>  -0.3630 
  2 C       -1.5810    -0.5220    -0.6160 C.ar  1 <1>   0.0830 
  3 C       -0.3280     1.4970    -1.0170 C.3   1 <1>   0.1200 
  4 C       -1.6060    -1.7620     0.0010 C.ar  1 <1>  -0.1500 
  5 C       -2.7130    -0.0690    -1.2890 C.ar  1 <1>  -0.1500 
  6 C        1.0810     2.0090    -0.7160 C.3   1 <1>  -0.1600 
  7 C       -2.7410    -2.5560    -0.0420 C.ar  1 <1>  -0.1440 
  8 C       -3.8490    -0.8580    -1.3330 C.ar  1 <1>  -0.1500 
  9 C        1.2750     3.4700    -1.1360 C.3   1 <1>   0.1100 
 10 C       -3.8640    -2.0950    -0.7120 C.ar  1 <1>  -0.1500 
 11 C       -2.7540    -3.9150     0.6380 C.3   1 <1>  -0.0170 
 12 N        0.2790     4.3660    -0.5170 N.3   1 <1>  -0.8100 
 13 C       -3.2490    -3.7890     2.0810 C.3   1 <1>  -0.2400 
 14 C        0.4690     4.4930     0.9540 C.3   1 <1>   0.1100 
 15 C        0.3150     5.7050    -1.1540 C.3   1 <1>   0.1100 
 16 C       -0.4910     5.5230     1.6010 C.3   1 <1>   0.3430 
 17 C       -0.7360     6.6770    -0.5610 C.3   1 <1>   0.3430 
 18 N       -1.4650     6.0580     0.5950 N.4   1 <1>  -0.9590 
 19 C       -2.5050     6.9470     1.1870 C.3   1 <1>   0.2630 
 20 H       -1.0720     2.0980    -0.5240 H     1 <1>   0.0800 
 21 H       -0.5080     1.4770    -2.0780 H     1 <1>   0.0800 
 22 H       -0.7250    -2.0990     0.5160 H     1 <1>   0.1500 
 23 H       -2.7280     0.8820    -1.7830 H     1 <1>   0.1500 
 24 H        1.7850     1.4040    -1.2590 H     1 <1>   0.0800 
 25 H        1.2960     1.8920     0.3300 H     1 <1>   0.0800 
 26 H       -4.7260    -0.5110    -1.8520 H     1 <1>   0.1500 
 27 H        1.1770     3.5230    -2.2090 H     1 <1>   0.0800 
 28 H        2.2720     3.7910    -0.8820 H     1 <1>   0.0800 
 29 H       -4.7530    -2.6990    -0.7510 H     1 <1>   0.1500 
 30 H       -1.7620    -4.3320     0.6320 H     1 <1>   0.0800 
 31 H       -3.3940    -4.5870     0.0930 H     1 <1>   0.0800 
 32 H       -2.6050    -3.1300     2.6360 H     1 <1>   0.0800 
 33 H       -3.2540    -4.7530     2.5570 H     1 <1>   0.0800 
 34 H       -4.2470    -3.3880     2.0960 H     1 <1>   0.0800 
 35 H        1.4850     4.7760     1.1720 H     1 <1>   0.0800 
 36 H        0.2940     3.5400     1.4220 H     1 <1>   0.0800 
 37 H        0.1310     5.6030    -2.2110 H     1 <1>   0.0800 
 38 H        1.2960     6.1360    -1.0390 H     1 <1>   0.0800 
 39 H        0.0870     6.3310     2.0170 H     1 <1>   0.0800 
 40 H       -1.0190     5.0470     2.4100 H     1 <1>   0.0800 
 41 H       -1.4380     6.9420    -1.3350 H     1 <1>   0.0800 
 42 H       -0.2410     7.5810    -0.2460 H     1 <1>   0.0800 
 43 H       -1.8920     5.2070     0.1910 H     1 <1>   0.4500 
 44 H       -2.0500     7.8290     1.6070 H     1 <1>   0.0800 
 45 H       -3.0390     6.4280     1.9660 H     1 <1>   0.0800 
 46 H       -3.2120     7.2490     0.4310 H     1 <1>   0.0800 
@<TRIPOS>BOND
  1   1   2  1   
  2   1   3  1   
  3   2   4  ar  
  4   2   5  ar  
  5   3   6  1   
  6   3  20  1   
  7   3  21  1   
  8   4   7  ar  
  9   4  22  1   
 10   5   8  ar  
 11   5  23  1   
 12   6   9  1   
 13   6  24  1   
 14   6  25  1   
 15   7  10  ar  
 16   7  11  1   
 17   8  10  ar  
 18   8  26  1   
 19   9  12  1   
 20   9  27  1   
 21   9  28  1   
 22  10  29  1   
 23  11  13  1   
 24  11  30  1   
 25  11  31  1   
 26  12  14  1   
 27  12  15  1   
 28  13  32  1   
 29  13  33  1   
 30  13  34  1   
 31  14  16  1   
 32  14  35  1   
 33  14  36  1   
 34  15  17  1   
 35  15  37  1   
 36  15  38  1   
 37  16  18  1   
 38  16  39  1   
 39  16  40  1   
 40  17  18  1   
 41  17  41  1   
 42  17  42  1   
 43  18  19  1   
 44  18  43  1   
 45  19  44  1   
 46  19  45  1   
 47  19  46  1   
@<TRIPOS>SUBSTRUCTURE
  1 ****   3 GROUP 4 **** **** 0

# MOE 2024.06 (io_trps.svl 2023.06)
