@<TRIPOS>MOLECULE
NONAME
55 56 1 0 0 
SMALL
USER_CHARGES


@<TRIPOS>ATOM
  1 BR       0.9470     0.3550    -1.2360 Br    1 <1>  -0.1110 
  2 C        0.2700    -1.4320    -0.9590 C.ar  1 <1>   0.1110 
  3 C        1.0510    -2.3750    -0.3040 C.ar  1 <1>   0.0820 
  4 C       -0.9960    -1.7140    -1.4310 C.ar  1 <1>  -0.1500 
  5 O        2.2850    -1.9990     0.1250 O.3   1 <1>  -0.3630 
  6 C        0.5250    -3.6500    -0.1220 C.ar  1 <1>  -0.1500 
  7 C       -1.5150    -2.9870    -1.2440 C.ar  1 <1>  -0.1430 
  8 C        3.1690    -2.9050     0.7480 C.3   1 <1>   0.0400 
  9 C       -0.7540    -3.9560    -0.5890 C.ar  1 <1>   0.0830 
 10 C       -2.9050    -3.3170    -1.7550 C.3   1 <1>   0.4870 
 11 O       -1.3210    -5.1840    -0.4290 O.3   1 <1>  -0.3630 
 12 N       -3.7550    -3.7100    -0.6040 N.4   1 <1>  -0.9590 
 13 C       -0.5470    -6.3010    -0.0350 C.3   1 <1>   0.0400 
 14 C       -5.0430    -4.3150    -1.0640 C.3   1 <1>   0.3430 
 15 C       -3.9560    -2.5860     0.3550 C.3   1 <1>   0.3430 
 16 C       -5.8790    -4.8250     0.1160 C.3   1 <1>  -0.0190 
 17 C       -4.7440    -3.0820     1.5690 C.3   1 <1>  -0.1600 
 18 C       -7.2130    -5.3260    -0.4290 C.2   1 <1>   0.5690 
 19 C       -6.0860    -3.7080     1.1600 C.3   1 <1>  -0.1600 
 20 O       -7.6240    -4.7760    -1.4240 O.2   1 <1>  -0.5700 
 21 N       -7.9050    -6.3470     0.1750 N.am  1 <1>  -0.6600 
 22 C       -7.4890    -7.0560     1.4160 C.3   1 <1>   0.1400 
 23 C       -9.2070    -6.8000    -0.3890 C.3   1 <1>   0.1400 
 24 C       -6.7030    -8.3130     1.0480 C.3   1 <1>  -0.2400 
 25 C      -10.3470    -6.0300     0.2720 C.3   1 <1>  -0.2400 
 26 H       -1.5490    -0.9400    -1.9350 H     1 <1>   0.1500 
 27 H        1.1080    -4.3920     0.3840 H     1 <1>   0.1500 
 28 H        4.0810    -2.3800     0.9700 H     1 <1>   0.0800 
 29 H        3.3730    -3.7170     0.0730 H     1 <1>   0.0800 
 30 H        2.7230    -3.2600     1.6600 H     1 <1>   0.0800 
 31 H       -2.8330    -4.1340    -2.4540 H     1 <1>   0.0800 
 32 H       -3.3310    -2.4670    -2.2620 H     1 <1>   0.0800 
 33 H       -3.1940    -4.4340    -0.1240 H     1 <1>   0.4500 
 34 H       -0.2090    -6.1590     0.9760 H     1 <1>   0.0800 
 35 H        0.2880    -6.4060    -0.7070 H     1 <1>   0.0800 
 36 H       -1.1660    -7.1790    -0.0900 H     1 <1>   0.0800 
 37 H       -4.8510    -5.1340    -1.7380 H     1 <1>   0.0800 
 38 H       -5.6170    -3.5740    -1.5990 H     1 <1>   0.0800 
 39 H       -4.5020    -1.7900    -0.1260 H     1 <1>   0.0800 
 40 H       -3.0030    -2.1990     0.6790 H     1 <1>   0.0800 
 41 H       -5.3480    -5.6450     0.5590 H     1 <1>   0.0800 
 42 H       -4.9270    -2.2520     2.2280 H     1 <1>   0.0800 
 43 H       -4.1510    -3.7980     2.1110 H     1 <1>   0.0800 
 44 H       -6.5850    -4.1010     2.0290 H     1 <1>   0.0800 
 45 H       -6.7220    -2.9460     0.7410 H     1 <1>   0.0800 
 46 H       -8.3620    -7.3300     1.9860 H     1 <1>   0.0800 
 47 H       -6.8900    -6.4150     2.0370 H     1 <1>   0.0800 
 48 H       -9.3310    -7.8570    -0.2270 H     1 <1>   0.0800 
 49 H       -9.2270    -6.6290    -1.4530 H     1 <1>   0.0800 
 50 H       -7.3170    -8.9860     0.4770 H     1 <1>   0.0800 
 51 H       -6.3940    -8.8200     1.9440 H     1 <1>   0.0800 
 52 H       -5.8280    -8.0640     0.4780 H     1 <1>   0.0800 
 53 H      -10.3690    -6.2110     1.3310 H     1 <1>   0.0800 
 54 H      -11.2850    -6.3460    -0.1470 H     1 <1>   0.0800 
 55 H      -10.2330    -4.9760     0.0900 H     1 <1>   0.0800 
@<TRIPOS>BOND
  1   1   2  1   
  2   2   3  ar  
  3   2   4  ar  
  4   3   5  1   
  5   3   6  ar  
  6   4   7  ar  
  7   4  26  1   
  8   5   8  1   
  9   6   9  ar  
 10   6  27  1   
 11   7   9  ar  
 12   7  10  1   
 13   8  28  1   
 14   8  29  1   
 15   8  30  1   
 16   9  11  1   
 17  10  12  1   
 18  10  31  1   
 19  10  32  1   
 20  11  13  1   
 21  12  14  1   
 22  12  15  1   
 23  12  33  1   
 24  13  34  1   
 25  13  35  1   
 26  13  36  1   
 27  14  16  1   
 28  14  37  1   
 29  14  38  1   
 30  15  17  1   
 31  15  39  1   
 32  15  40  1   
 33  16  18  1   
 34  16  19  1   
 35  16  41  1   
 36  17  19  1   
 37  17  42  1   
 38  17  43  1   
 39  18  20  2   
 40  18  21  am  
 41  19  44  1   
 42  19  45  1   
 43  21  22  1   
 44  21  23  1   
 45  22  24  1   
 46  22  46  1   
 47  22  47  1   
 48  23  25  1   
 49  23  48  1   
 50  23  49  1   
 51  24  50  1   
 52  24  51  1   
 53  24  52  1   
 54  25  53  1   
 55  25  54  1   
 56  25  55  1   
@<TRIPOS>SUBSTRUCTURE
  1 ****  12 GROUP 4 **** **** 0

# MOE 2024.06 (io_trps.svl 2023.06)
