@<TRIPOS>MOLECULE
NONAME
28 28 1 0 0 
SMALL
USER_CHARGES


@<TRIPOS>ATOM
  1 CL       0.2080     0.0370    -0.6810 Cl    1 <1>  -0.2900 
  2 C        1.4670     1.1210    -0.1000 C.3   1 <1>   0.9310 
  3 CL       0.7740     2.0690     1.2120 Cl    1 <1>  -0.2900 
  4 CL       1.7880     2.2570    -1.4140 Cl    1 <1>  -0.2900 
  5 C        2.7510     0.3570     0.3140 C.2   1 <1>   0.5690 
  6 O        2.7430    -0.3150     1.3220 O.2   1 <1>  -0.5700 
  7 N        3.8820     0.4530    -0.4700 N.am  1 <1>  -0.5470 
  8 C        5.1420    -0.1230    -0.2510 C.ar  1 <1>   0.1170 
  9 C        6.2320     0.7070     0.0180 C.ar  1 <1>  -0.1440 
 10 C        5.3350    -1.5050    -0.3270 C.ar  1 <1>  -0.1430 
 11 C        7.4870     0.1560     0.2110 C.ar  1 <1>  -0.1500 
 12 C        6.0710     2.2200     0.1150 C.3   1 <1>  -0.0960 
 13 C        6.5990    -2.0340    -0.1250 C.ar  1 <1>  -0.1500 
 14 C        4.1900    -2.4650    -0.6320 C.3   1 <1>  -0.0970 
 15 C        7.6790    -1.2120     0.1440 C.ar  1 <1>  -0.1430 
 16 C        9.0590    -1.8070     0.3600 C.3   1 <1>  -0.0970 
 17 H        3.8570     1.1090    -1.2540 H     1 <1>   0.3700 
 18 H        8.3280     0.7940     0.4190 H     1 <1>   0.1500 
 19 H        5.3380     2.4630     0.8640 H     1 <1>   0.0800 
 20 H        5.7570     2.6210    -0.8310 H     1 <1>   0.0800 
 21 H        6.9980     2.6890     0.3910 H     1 <1>   0.0800 
 22 H        6.7490    -3.0970    -0.1780 H     1 <1>   0.1500 
 23 H        3.5800    -2.0850    -1.4300 H     1 <1>   0.0800 
 24 H        3.5820    -2.5950     0.2450 H     1 <1>   0.0800 
 25 H        4.5660    -3.4270    -0.9280 H     1 <1>   0.0800 
 26 H        9.6380    -1.1840     1.0180 H     1 <1>   0.0800 
 27 H        9.5710    -1.8890    -0.5810 H     1 <1>   0.0800 
 28 H        8.9810    -2.7840     0.8010 H     1 <1>   0.0800 
@<TRIPOS>BOND
  1   1   2  1   
  2   2   3  1   
  3   2   4  1   
  4   2   5  1   
  5   5   6  2   
  6   5   7  am  
  7   7   8  1   
  8   7  17  1   
  9   8   9  ar  
 10   8  10  ar  
 11   9  11  ar  
 12   9  12  1   
 13  10  13  ar  
 14  10  14  1   
 15  11  15  ar  
 16  11  18  1   
 17  12  19  1   
 18  12  20  1   
 19  12  21  1   
 20  13  15  ar  
 21  13  22  1   
 22  14  23  1   
 23  14  24  1   
 24  14  25  1   
 25  15  16  1   
 26  16  26  1   
 27  16  27  1   
 28  16  28  1   
@<TRIPOS>SUBSTRUCTURE
  1 ****   8 GROUP 4 **** **** 0

# MOE 2024.06 (io_trps.svl 2023.06)
