@<TRIPOS>MOLECULE
NONAME
39 39 1 0 0 
SMALL
USER_CHARGES


@<TRIPOS>ATOM
  1 F        3.9820    -4.9670     1.6460 F     1 <1>  -0.1900 
  2 C        4.0150    -3.8120     1.0420 C.ar  1 <1>   0.1900 
  3 C        2.9320    -3.4120     0.2590 C.ar  1 <1>   0.0860 
  4 C        5.1390    -3.0300     1.2360 C.ar  1 <1>  -0.1500 
  5 C        1.7700    -4.2460     0.0580 C.2   1 <1>   0.6340 
  6 C        3.0280    -2.1450    -0.3240 C.ar  1 <1>  -0.1500 
  7 C        5.2020    -1.7840     0.6390 C.ar  1 <1>  -0.1500 
  8 O        1.8070    -5.4420    -0.1340 O.2   1 <1>  -0.5700 
  9 O        0.5700    -3.6520     0.0700 O.3   1 <1>  -0.4300 
 10 C        4.1430    -1.3440    -0.1390 C.ar  1 <1>  -0.1500 
 11 C       -0.6090    -4.4120    -0.1030 C.3   1 <1>   0.1200 
 12 C       -1.8200    -3.4900     0.0730 C.3   1 <1>   0.3430 
 13 N       -3.1340    -4.1860    -0.1910 N.4   1 <1>  -0.9590 
 14 C       -4.2930    -3.2500    -0.3140 C.3   1 <1>   0.5030 
 15 C       -3.3490    -5.2860     0.8140 C.3   1 <1>   0.2630 
 16 C       -4.5190    -2.4720     0.9860 C.3   1 <1>  -0.2400 
 17 C       -5.5510    -4.0530    -0.6630 C.3   1 <1>  -0.2400 
 18 C       -4.0270    -2.2730    -1.4640 C.3   1 <1>  -0.2400 
 19 H        5.9460    -3.3920     1.8480 H     1 <1>   0.1500 
 20 H        2.2200    -1.7830    -0.9360 H     1 <1>   0.1500 
 21 H        6.0690    -1.1600     0.7780 H     1 <1>   0.1500 
 22 H        4.1920    -0.3730    -0.6030 H     1 <1>   0.1500 
 23 H       -0.6030    -5.1950     0.6360 H     1 <1>   0.0800 
 24 H       -0.5830    -4.8360    -1.0930 H     1 <1>   0.0800 
 25 H       -1.6990    -2.6690    -0.6120 H     1 <1>   0.0800 
 26 H       -1.8150    -3.0970     1.0760 H     1 <1>   0.0800 
 27 H       -3.0620    -4.6260    -1.1170 H     1 <1>   0.4500 
 28 H       -3.4420    -4.8760     1.8060 H     1 <1>   0.0800 
 29 H       -2.5210    -5.9760     0.8050 H     1 <1>   0.0800 
 30 H       -4.2430    -5.8420     0.5860 H     1 <1>   0.0800 
 31 H       -4.7420    -3.1280     1.8070 H     1 <1>   0.0800 
 32 H       -5.3610    -1.8120     0.8680 H     1 <1>   0.0800 
 33 H       -3.6710    -1.8630     1.2380 H     1 <1>   0.0800 
 34 H       -5.3900    -4.6670    -1.5300 H     1 <1>   0.0800 
 35 H       -6.3630    -3.3820    -0.8850 H     1 <1>   0.0800 
 36 H       -5.8770    -4.6660     0.1570 H     1 <1>   0.0800 
 37 H       -3.7830    -2.7980    -2.3700 H     1 <1>   0.0800 
 38 H       -3.2440    -1.5760    -1.2300 H     1 <1>   0.0800 
 39 H       -4.9090    -1.6870    -1.6550 H     1 <1>   0.0800 
@<TRIPOS>BOND
  1   1   2  1   
  2   2   3  ar  
  3   2   4  ar  
  4   3   5  1   
  5   3   6  ar  
  6   4   7  ar  
  7   4  19  1   
  8   5   8  2   
  9   5   9  1   
 10   6  10  ar  
 11   6  20  1   
 12   7  10  ar  
 13   7  21  1   
 14   9  11  1   
 15  10  22  1   
 16  11  12  1   
 17  11  23  1   
 18  11  24  1   
 19  12  13  1   
 20  12  25  1   
 21  12  26  1   
 22  13  14  1   
 23  13  15  1   
 24  13  27  1   
 25  14  16  1   
 26  14  17  1   
 27  14  18  1   
 28  15  28  1   
 29  15  29  1   
 30  15  30  1   
 31  16  31  1   
 32  16  32  1   
 33  16  33  1   
 34  17  34  1   
 35  17  35  1   
 36  17  36  1   
 37  18  37  1   
 38  18  38  1   
 39  18  39  1   
@<TRIPOS>SUBSTRUCTURE
  1 ****   9 GROUP 4 **** **** 0

# MOE 2024.06 (io_trps.svl 2023.06)
