@<TRIPOS>MOLECULE
NONAME
52 53 1 0 0 
SMALL
USER_CHARGES


@<TRIPOS>ATOM
  1 S       -0.0350    -0.0940    -0.9360 S.o2  1 <1>   1.3330 
  2 O        0.6900    -1.0560    -1.7290 O.2   1 <1>  -0.6500 
  3 O        0.6920     0.8630    -0.1390 O.2   1 <1>  -0.6500 
  4 N       -1.1000    -0.9950     0.1060 N.am  1 <1>  -0.6930 
  5 C       -1.1180     0.7750    -2.0520 C.3   1 <1>  -0.1350 
  6 C       -1.2510    -2.3670    -0.0770 C.ar  1 <1>   0.1990 
  7 C       -2.0910    -0.3260     1.0180 C.3   1 <1>   0.3370 
  8 C       -1.7190    -2.8930    -1.2770 C.ar  1 <1>  -0.1500 
  9 C       -0.9510    -3.2490     0.9540 C.ar  1 <1>  -0.1500 
 10 C       -3.5150    -0.3360     0.4040 C.2   1 <1>   0.5690 
 11 C       -1.6820     1.0680     1.5120 C.3   1 <1>  -0.2400 
 12 C       -1.8910    -4.2560    -1.4390 C.ar  1 <1>  -0.1500 
 13 C       -1.1330    -4.6120     0.8020 C.ar  1 <1>  -0.1500 
 14 O       -3.7480     0.4480    -0.4880 O.2   1 <1>  -0.5700 
 15 N       -4.4980    -1.2230     0.8040 N.am  1 <1>  -0.6600 
 16 C       -1.6090    -5.1240    -0.3950 C.ar  1 <1>  -0.1430 
 17 C       -5.8530    -1.1870     0.1710 C.3   1 <1>   0.1400 
 18 C       -4.2980    -2.4530     1.6330 C.3   1 <1>   0.1400 
 19 C       -1.7760    -6.6230    -0.5710 C.3   1 <1>  -0.0970 
 20 C       -6.0500    -2.4300    -0.7160 C.3   1 <1>   0.3430 
 21 C       -4.5130    -3.7160     0.7740 C.3   1 <1>   0.3430 
 22 N       -5.8350    -3.7170     0.0440 N.4   1 <1>  -0.9590 
 23 C       -5.9460    -4.8760    -0.8810 C.3   1 <1>   0.3430 
 24 C       -6.0510    -6.1710    -0.0840 C.3   1 <1>  -0.2400 
 25 H       -0.5370     1.2710    -2.8050 H     1 <1>   0.0800 
 26 H       -1.6890     1.5150    -1.5310 H     1 <1>   0.0800 
 27 H       -1.7890     0.0940    -2.5330 H     1 <1>   0.0800 
 28 H       -2.1200    -0.9120     1.9130 H     1 <1>   0.0800 
 29 H       -1.9320    -2.2310    -2.0960 H     1 <1>   0.1500 
 30 H       -0.5520    -2.8600     1.8750 H     1 <1>   0.1500 
 31 H       -1.6590     1.7840     0.7130 H     1 <1>   0.0800 
 32 H       -0.7210     1.0300     1.9940 H     1 <1>   0.0800 
 33 H       -2.3990     1.4150     2.2340 H     1 <1>   0.0800 
 34 H       -2.2270    -4.6400    -2.3870 H     1 <1>   0.1500 
 35 H       -0.8810    -5.2760     1.6110 H     1 <1>   0.1500 
 36 H       -5.9760    -0.3010    -0.4310 H     1 <1>   0.0800 
 37 H       -6.6080    -1.1570     0.9370 H     1 <1>   0.0800 
 38 H       -5.0000    -2.4490     2.4500 H     1 <1>   0.0800 
 39 H       -3.3160    -2.4950     2.0590 H     1 <1>   0.0800 
 40 H       -2.5040    -6.8420    -1.3300 H     1 <1>   0.0800 
 41 H       -2.0890    -7.0810     0.3500 H     1 <1>   0.0800 
 42 H       -0.8360    -7.0560    -0.8660 H     1 <1>   0.0800 
 43 H       -5.3480    -2.3700    -1.5330 H     1 <1>   0.0800 
 44 H       -7.0430    -2.4110    -1.1330 H     1 <1>   0.0800 
 45 H       -4.4390    -4.5850     1.4060 H     1 <1>   0.0800 
 46 H       -3.7140    -3.7680     0.0580 H     1 <1>   0.0800 
 47 H       -6.5850    -3.7970     0.7430 H     1 <1>   0.4500 
 48 H       -5.0880    -4.9130    -1.5340 H     1 <1>   0.0800 
 49 H       -6.8290    -4.7700    -1.4910 H     1 <1>   0.0800 
 50 H       -5.1440    -6.3830     0.4500 H     1 <1>   0.0800 
 51 H       -6.2220    -6.9870    -0.7650 H     1 <1>   0.0800 
 52 H       -6.8800    -6.1360     0.6000 H     1 <1>   0.0800 
@<TRIPOS>BOND
  1   1   2  2   
  2   1   3  2   
  3   1   4  am  
  4   1   5  1   
  5   4   6  1   
  6   4   7  1   
  7   5  25  1   
  8   5  26  1   
  9   5  27  1   
 10   6   8  ar  
 11   6   9  ar  
 12   7  10  1   
 13   7  11  1   
 14   7  28  1   
 15   8  12  ar  
 16   8  29  1   
 17   9  13  ar  
 18   9  30  1   
 19  10  14  2   
 20  10  15  am  
 21  11  31  1   
 22  11  32  1   
 23  11  33  1   
 24  12  16  ar  
 25  12  34  1   
 26  13  16  ar  
 27  13  35  1   
 28  15  17  1   
 29  15  18  1   
 30  16  19  1   
 31  17  20  1   
 32  17  36  1   
 33  17  37  1   
 34  18  21  1   
 35  18  38  1   
 36  18  39  1   
 37  19  40  1   
 38  19  41  1   
 39  19  42  1   
 40  20  22  1   
 41  20  43  1   
 42  20  44  1   
 43  21  22  1   
 44  21  45  1   
 45  21  46  1   
 46  22  23  1   
 47  22  47  1   
 48  23  24  1   
 49  23  48  1   
 50  23  49  1   
 51  24  50  1   
 52  24  51  1   
 53  24  52  1   
@<TRIPOS>SUBSTRUCTURE
  1 ****   6 GROUP 4 **** **** 0

# MOE 2024.06 (io_trps.svl 2023.06)
