@<TRIPOS>MOLECULE
NONAME
43 45 1 0 0 
SMALL
USER_CHARGES


@<TRIPOS>ATOM
  1 CL      -1.4670     1.1430     2.6890 Cl    1 <1>  -0.1770 
  2 C       -2.3500     1.0330     1.1910 C.ar  1 <1>   0.1770 
  3 C       -3.6550     0.5780     1.2130 C.ar  1 <1>  -0.1500 
  4 C       -1.7370     1.4040     0.0100 C.ar  1 <1>  -0.1500 
  5 C       -4.3720     0.4960     0.0260 C.ar  1 <1>  -0.1440 
  6 C       -2.4470     1.3140    -1.1750 C.ar  1 <1>  -0.1500 
  7 C       -3.7570     0.8610    -1.1660 C.ar  1 <1>  -0.1500 
  8 C       -5.8120     0.0170     0.0320 C.3   1 <1>   0.4870 
  9 N       -6.6690     1.0900     0.6030 N.4   1 <1>  -0.9590 
 10 C       -8.0890     0.6270     0.8080 C.3   1 <1>   0.3430 
 11 C       -6.6290     2.3500    -0.2320 C.3   1 <1>   0.3430 
 12 C       -8.9880     1.7180     1.4280 C.3   1 <1>   0.2090 
 13 C       -7.4940     3.4830     0.3570 C.3   1 <1>   0.2090 
 14 N       -8.8690     3.0110     0.6940 N.pl3 1 <1>  -0.8380 
 15 C       -9.9090     3.3670    -0.1620 C.ar  1 <1>   0.1000 
 16 C      -10.8480     4.3280     0.2140 C.ar  1 <1>  -0.1430 
 17 C      -10.0260     2.7630    -1.4110 C.ar  1 <1>  -0.1500 
 18 C      -11.8760     4.6640    -0.6520 C.ar  1 <1>  -0.1500 
 19 C      -10.7580     5.0160     1.5700 C.3   1 <1>  -0.0970 
 20 C      -11.0530     3.1030    -2.2700 C.ar  1 <1>  -0.1500 
 21 C      -11.9810     4.0560    -1.8900 C.ar  1 <1>  -0.1500 
 22 H       -4.0800     0.2920     2.1590 H     1 <1>   0.1500 
 23 H       -0.7190     1.7530     0.0210 H     1 <1>   0.1500 
 24 H       -1.9750     1.5940    -2.1030 H     1 <1>   0.1500 
 25 H       -4.2850     0.7960    -2.1040 H     1 <1>   0.1500 
 26 H       -5.8860    -0.8770     0.6300 H     1 <1>   0.0800 
 27 H       -6.1260    -0.2170    -0.9730 H     1 <1>   0.0800 
 28 H       -6.2790     1.3380     1.5210 H     1 <1>   0.4500 
 29 H       -8.1070    -0.2400     1.4480 H     1 <1>   0.0800 
 30 H       -8.5170     0.3460    -0.1400 H     1 <1>   0.0800 
 31 H       -6.9900     2.1370    -1.2240 H     1 <1>   0.0800 
 32 H       -5.6140     2.7020    -0.3210 H     1 <1>   0.0800 
 33 H       -8.7180     1.8740     2.4580 H     1 <1>   0.0800 
 34 H      -10.0140     1.3910     1.4080 H     1 <1>   0.0800 
 35 H       -7.5580     4.2900    -0.3540 H     1 <1>   0.0800 
 36 H       -7.0300     3.8730     1.2460 H     1 <1>   0.0800 
 37 H       -9.3140     2.0240    -1.7150 H     1 <1>   0.1500 
 38 H      -12.6040     5.4040    -0.3690 H     1 <1>   0.1500 
 39 H      -10.8350     4.2850     2.3540 H     1 <1>   0.0800 
 40 H      -11.5450     5.7360     1.6940 H     1 <1>   0.0800 
 41 H       -9.8140     5.5210     1.6590 H     1 <1>   0.0800 
 42 H      -11.1370     2.6320    -3.2340 H     1 <1>   0.1500 
 43 H      -12.7840     4.3250    -2.5550 H     1 <1>   0.1500 
@<TRIPOS>BOND
  1   1   2  1   
  2   2   3  ar  
  3   2   4  ar  
  4   3   5  ar  
  5   3  22  1   
  6   4   6  ar  
  7   4  23  1   
  8   5   7  ar  
  9   5   8  1   
 10   6   7  ar  
 11   6  24  1   
 12   7  25  1   
 13   8   9  1   
 14   8  26  1   
 15   8  27  1   
 16   9  10  1   
 17   9  11  1   
 18   9  28  1   
 19  10  12  1   
 20  10  29  1   
 21  10  30  1   
 22  11  13  1   
 23  11  31  1   
 24  11  32  1   
 25  12  14  1   
 26  12  33  1   
 27  12  34  1   
 28  13  14  1   
 29  13  35  1   
 30  13  36  1   
 31  14  15  1   
 32  15  16  ar  
 33  15  17  ar  
 34  16  18  ar  
 35  16  19  1   
 36  17  20  ar  
 37  17  37  1   
 38  18  21  ar  
 39  18  38  1   
 40  19  39  1   
 41  19  40  1   
 42  19  41  1   
 43  20  21  ar  
 44  20  42  1   
 45  21  43  1   
@<TRIPOS>SUBSTRUCTURE
  1 ****  11 GROUP 4 **** **** 0

# MOE 2024.06 (io_trps.svl 2023.06)
