@<TRIPOS>MOLECULE
NONAME
44 46 1 0 0 
SMALL
USER_CHARGES


@<TRIPOS>ATOM
  1 S       -0.5980     0.2530     0.1300 S.o2  1 <1>   1.3330 
  2 O       -0.6450     1.4730    -0.6350 O.2   1 <1>  -0.6500 
  3 O        0.1550    -0.8910    -0.3160 O.2   1 <1>  -0.6500 
  4 N       -2.1980    -0.3410     0.3060 N.am  1 <1>  -0.7570 
  5 C       -0.1460     0.6070     1.8150 C.3   1 <1>  -0.1350 
  6 C       -3.3870     0.3240     0.5870 C.ar  1 <1>   0.1990 
  7 C       -4.5430    -0.4230     0.7550 C.ar  1 <1>  -0.1500 
  8 C       -3.4710     1.7060     0.7150 C.ar  1 <1>  -0.1500 
  9 C       -5.7810     0.1520     1.0500 C.ar  1 <1>   0.0860 
 10 C       -4.6780     2.3100     1.0080 C.ar  1 <1>  -0.1500 
 11 C       -6.9540    -0.6790     1.2160 C.2   1 <1>   0.3030 
 12 C       -5.8160     1.5440     1.1740 C.ar  1 <1>  -0.1500 
 13 N       -6.9830    -1.9520     1.1970 N.2   1 <1>  -0.5120 
 14 C       -8.3230    -0.0740     1.4500 C.3   1 <1>  -0.0990 
 15 N       -8.2700    -2.4060     1.3700 N.am  1 <1>  -0.2980 
 16 C       -9.2390    -1.2940     1.4150 C.3   1 <1>   0.4000 
 17 C       -8.6820    -3.7100     1.5640 C.2   1 <1>   0.5690 
 18 C      -10.1270    -1.2670     0.1760 C.2   1 <1>  -0.1400 
 19 O       -9.8200    -3.9930     1.8580 O.2   1 <1>  -0.5700 
 20 C       -7.6730    -4.8400     1.4160 C.3   1 <1>  -0.0990 
 21 S      -11.4390    -0.0960     0.1690 S.3   1 <1>  -0.0800 
 22 C      -10.1290    -1.9740    -0.9710 C.2   1 <1>  -0.1500 
 23 C       -7.3870    -5.1850    -0.0540 C.3   1 <1>  -0.2400 
 24 C      -11.9580    -0.6140    -1.4240 C.2   1 <1>  -0.1100 
 25 C      -11.1700    -1.6040    -1.8810 C.2   1 <1>  -0.1500 
 26 H       -2.2310    -1.3240     0.0500 H     1 <1>   0.4200 
 27 H        0.8660     0.9590     1.8560 H     1 <1>   0.0800 
 28 H       -0.2270    -0.2780     2.4140 H     1 <1>   0.0800 
 29 H       -0.7900     1.3620     2.2220 H     1 <1>   0.0800 
 30 H       -4.4840    -1.4910     0.6540 H     1 <1>   0.1500 
 31 H       -2.6030     2.3240     0.5800 H     1 <1>   0.1500 
 32 H       -4.7300     3.3820     1.1020 H     1 <1>   0.1500 
 33 H       -6.7380     2.0480     1.4010 H     1 <1>   0.1500 
 34 H       -8.5750     0.6320     0.6800 H     1 <1>   0.0800 
 35 H       -8.3710     0.3980     2.4130 H     1 <1>   0.0800 
 36 H       -9.8350    -1.3680     2.3080 H     1 <1>   0.0800 
 37 H       -8.0600    -5.7100     1.9150 H     1 <1>   0.0800 
 38 H       -6.7590    -4.5620     1.9080 H     1 <1>   0.0800 
 39 H       -9.4330    -2.7560    -1.2210 H     1 <1>   0.1500 
 40 H       -8.2980    -5.4730    -0.5500 H     1 <1>   0.0800 
 41 H       -6.6870    -5.9980    -0.1150 H     1 <1>   0.0800 
 42 H       -6.9710    -4.3310    -0.5610 H     1 <1>   0.0800 
 43 H      -12.8100    -0.1190    -1.8540 H     1 <1>   0.1500 
 44 H      -11.2730    -2.1000    -2.8300 H     1 <1>   0.1500 
@<TRIPOS>BOND
  1   1   2  2   
  2   1   3  2   
  3   1   4  am  
  4   1   5  1   
  5   4   6  1   
  6   4  26  1   
  7   5  27  1   
  8   5  28  1   
  9   5  29  1   
 10   6   7  ar  
 11   6   8  ar  
 12   7   9  ar  
 13   7  30  1   
 14   8  10  ar  
 15   8  31  1   
 16   9  11  1   
 17   9  12  ar  
 18  10  12  ar  
 19  10  32  1   
 20  11  13  2   
 21  11  14  1   
 22  12  33  1   
 23  13  15  1   
 24  14  16  1   
 25  14  34  1   
 26  14  35  1   
 27  15  16  1   
 28  15  17  am  
 29  16  18  1   
 30  16  36  1   
 31  17  19  2   
 32  17  20  1   
 33  18  21  1   
 34  18  22  2   
 35  20  23  1   
 36  20  37  1   
 37  20  38  1   
 38  21  24  1   
 39  22  25  1   
 40  22  39  1   
 41  23  40  1   
 42  23  41  1   
 43  23  42  1   
 44  24  25  2   
 45  24  43  1   
 46  25  44  1   
@<TRIPOS>SUBSTRUCTURE
  1 ****  11 GROUP 4 **** **** 0

# MOE 2024.06 (io_trps.svl 2023.06)
