@<TRIPOS>MOLECULE
NONAME
41 42 1 0 0 
SMALL
USER_CHARGES


@<TRIPOS>ATOM
  1 BR      -0.2490     2.8010     2.3560 Br    1 <1>  -0.1110 
  2 C       -1.0630     2.1010     0.7450 C.ar  1 <1>   0.1110 
  3 C       -0.3960     2.2790    -0.4430 C.ar  1 <1>   0.0830 
  4 C       -2.3150     1.4580     0.8480 C.ar  1 <1>   0.0000 
  5 O        0.7870     2.9460    -0.4350 O.3   1 <1>  -0.3630 
  6 C       -0.9750     1.7780    -1.6210 C.ar  1 <1>  -0.1500 
  7 C       -2.8910     0.9840    -0.3520 C.ar  1 <1>   0.0000 
  8 C       -3.0290     1.2690     2.0540 C.ar  1 <1>  -0.1500 
  9 C        1.3990     3.4220    -1.6120 C.3   1 <1>   0.1200 
 10 C       -2.1910     1.1520    -1.5660 C.ar  1 <1>  -0.1500 
 11 C       -4.1520     0.3550    -0.3020 C.ar  1 <1>  -0.1500 
 12 C       -4.2500     0.6550     2.0710 C.ar  1 <1>  -0.1500 
 13 C        2.4610     4.4560    -1.2070 C.3   1 <1>  -0.1600 
 14 C       -4.8200     0.1950     0.8800 C.ar  1 <1>  -0.1500 
 15 C        1.8880     5.7680    -0.6560 C.3   1 <1>   0.3430 
 16 N        1.0080     5.5130     0.5030 N.4   1 <1>  -0.9060 
 17 C        0.2340     6.6860     0.9830 C.3   1 <1>   0.3430 
 18 C       -1.2090     6.2460     1.2680 C.3   1 <1>   0.1200 
 19 O       -1.5990     5.3550     0.2620 O.3   1 <1>  -0.5600 
 20 C       -2.9150     4.9050     0.3800 C.3   1 <1>   0.0400 
 21 H       -0.4740     1.8750    -2.5660 H     1 <1>   0.1500 
 22 H       -2.6040     1.6110     2.9790 H     1 <1>   0.1500 
 23 H        0.6500     3.8690    -2.2440 H     1 <1>   0.0800 
 24 H        1.8490     2.5820    -2.1140 H     1 <1>   0.0800 
 25 H       -2.6400     0.7670    -2.4650 H     1 <1>   0.1500 
 26 H       -4.5850    -0.0020    -1.2190 H     1 <1>   0.1500 
 27 H       -4.7870     0.5150     2.9930 H     1 <1>   0.1500 
 28 H        3.0390     4.6950    -2.0810 H     1 <1>   0.0800 
 29 H        3.1390     4.0170    -0.4960 H     1 <1>   0.0800 
 30 H       -5.7820    -0.2870     0.9110 H     1 <1>   0.1500 
 31 H        1.3200     6.2560    -1.4330 H     1 <1>   0.0800 
 32 H        2.6950     6.4220    -0.3670 H     1 <1>   0.0800 
 33 H        1.4930     5.0170     1.2590 H     1 <1>   0.4500 
 34 H        0.2800     4.8340     0.1910 H     1 <1>   0.4500 
 35 H        0.2060     7.4430     0.2160 H     1 <1>   0.0800 
 36 H        0.6830     7.1130     1.8650 H     1 <1>   0.0800 
 37 H       -1.8710     7.0950     1.2690 H     1 <1>   0.0800 
 38 H       -1.2700     5.7420     2.2180 H     1 <1>   0.0800 
 39 H       -3.1090     4.2140    -0.4220 H     1 <1>   0.0800 
 40 H       -3.5890     5.7410     0.3060 H     1 <1>   0.0800 
 41 H       -3.0410     4.4010     1.3240 H     1 <1>   0.0800 
@<TRIPOS>BOND
  1   1   2  1   
  2   2   3  ar  
  3   2   4  ar  
  4   3   5  1   
  5   3   6  ar  
  6   4   7  ar  
  7   4   8  ar  
  8   5   9  1   
  9   6  10  ar  
 10   6  21  1   
 11   7  10  ar  
 12   7  11  ar  
 13   8  12  ar  
 14   8  22  1   
 15   9  13  1   
 16   9  23  1   
 17   9  24  1   
 18  10  25  1   
 19  11  14  ar  
 20  11  26  1   
 21  12  14  ar  
 22  12  27  1   
 23  13  15  1   
 24  13  28  1   
 25  13  29  1   
 26  14  30  1   
 27  15  16  1   
 28  15  31  1   
 29  15  32  1   
 30  16  17  1   
 31  16  33  1   
 32  16  34  1   
 33  17  18  1   
 34  17  35  1   
 35  17  36  1   
 36  18  19  1   
 37  18  37  1   
 38  18  38  1   
 39  19  20  1   
 40  20  39  1   
 41  20  40  1   
 42  20  41  1   
@<TRIPOS>SUBSTRUCTURE
  1 ****   2 GROUP 4 **** **** 0

# MOE 2024.06 (io_trps.svl 2023.06)
