@<TRIPOS>MOLECULE
NONAME
32 33 1 0 0 
SMALL
USER_CHARGES


@<TRIPOS>ATOM
  1 CL      -1.6420     0.7740     1.7240 Cl    1 <1>  -0.1770 
  2 C       -0.8200     2.1250     0.9810 C.ar  1 <1>   0.1770 
  3 C       -1.2640     2.5990    -0.2410 C.ar  1 <1>  -0.1440 
  4 C        0.2530     2.7030     1.6400 C.ar  1 <1>  -0.1500 
  5 C       -0.5950     3.6850    -0.7770 C.ar  1 <1>   0.1900 
  6 C       -2.4250     1.9570    -0.9690 C.3   1 <1>   0.4860 
  7 C        0.9060     3.7870     1.0730 C.ar  1 <1>  -0.1500 
  8 F       -1.0020     4.1680    -1.9200 F     1 <1>  -0.1900 
  9 C        0.4800     4.2870    -0.1480 C.ar  1 <1>  -0.1500 
 10 N       -3.6960     2.2600    -0.2510 N.4   1 <1>  -0.9590 
 11 C       -4.8160     1.4270    -0.7790 C.3   1 <1>   0.3430 
 12 C       -4.0060     3.7230    -0.2750 C.3   1 <1>   0.3430 
 13 C       -6.0750     1.6690     0.0500 C.3   1 <1>  -0.1600 
 14 C       -5.2540     4.0020     0.5590 C.3   1 <1>  -0.1600 
 15 C       -6.4210     3.1550     0.0580 C.3   1 <1>   0.2000 
 16 O       -7.4960     3.3510     0.8890 O.3   1 <1>  -0.6800 
 17 H        0.5760     2.3080     2.5890 H     1 <1>   0.1500 
 18 H       -2.2670     0.8910    -1.0020 H     1 <1>   0.0800 
 19 H       -2.4750     2.3210    -1.9830 H     1 <1>   0.0800 
 20 H        1.7440     4.2400     1.5800 H     1 <1>   0.1500 
 21 H        0.9740     5.1280    -0.6030 H     1 <1>   0.1500 
 22 H       -3.5400     1.9870     0.7310 H     1 <1>   0.4500 
 23 H       -4.5550     0.3810    -0.7340 H     1 <1>   0.0800 
 24 H       -5.0100     1.6840    -1.8090 H     1 <1>   0.0800 
 25 H       -4.1730     4.0450    -1.2910 H     1 <1>   0.0800 
 26 H       -3.1790     4.2880     0.1250 H     1 <1>   0.0800 
 27 H       -5.9180     1.3090     1.0510 H     1 <1>   0.0800 
 28 H       -6.8910     1.1180    -0.3850 H     1 <1>   0.0800 
 29 H       -5.5080     5.0440     0.4700 H     1 <1>   0.0800 
 30 H       -5.0450     3.7900     1.5920 H     1 <1>   0.0800 
 31 H       -6.7180     3.4750    -0.9290 H     1 <1>   0.0800 
 32 H       -7.3010     3.0920     1.8100 H     1 <1>   0.4000 
@<TRIPOS>BOND
  1   1   2  1   
  2   2   3  ar  
  3   2   4  ar  
  4   3   5  ar  
  5   3   6  1   
  6   4   7  ar  
  7   4  17  1   
  8   5   8  1   
  9   5   9  ar  
 10   6  10  1   
 11   6  18  1   
 12   6  19  1   
 13   7   9  ar  
 14   7  20  1   
 15   9  21  1   
 16  10  11  1   
 17  10  12  1   
 18  10  22  1   
 19  11  13  1   
 20  11  23  1   
 21  11  24  1   
 22  12  14  1   
 23  12  25  1   
 24  12  26  1   
 25  13  15  1   
 26  13  27  1   
 27  13  28  1   
 28  14  15  1   
 29  14  29  1   
 30  14  30  1   
 31  15  16  1   
 32  15  31  1   
 33  16  32  1   
@<TRIPOS>SUBSTRUCTURE
  1 ****  10 GROUP 4 **** **** 0

# MOE 2024.06 (io_trps.svl 2023.06)
