@<TRIPOS>MOLECULE
NONAME
40 41 1 0 0 
SMALL
USER_CHARGES


@<TRIPOS>ATOM
  1 N        0.1260     0.1170     1.0340 N.4   1 <1>  -0.9590 
  2 C        1.1260     1.2170     1.2580 C.3   1 <1>   0.4230 
  3 C        0.2050    -0.5360    -0.3320 C.3   1 <1>   0.3430 
  4 C       -1.2730     0.5970     1.3540 C.3   1 <1>   0.3430 
  5 C        1.1040     2.3020     0.1790 C.3   1 <1>  -0.1600 
  6 C        2.5530     0.6740     1.2200 C.3   1 <1>  -0.1600 
  7 C       -0.8880    -1.6170    -0.5670 C.3   1 <1>   0.3430 
  8 C       -2.3710    -0.4790     1.1110 C.3   1 <1>   0.3430 
  9 C        2.1610     1.9250    -0.8700 C.3   1 <1>  -0.0800 
 10 C        3.1130     0.9350    -0.1850 C.3   1 <1>  -0.1600 
 11 N       -2.2870    -1.1350    -0.2520 N.4   1 <1>  -0.9590 
 12 C        2.8930     3.1560    -1.4150 C.3   1 <1>  -0.2400 
 13 C       -3.2640    -2.2570    -0.3920 C.3   1 <1>   0.3430 
 14 C       -4.6810    -1.7010    -0.4580 C.3   1 <1>  -0.2400 
 15 H        0.3830    -0.5970     1.7330 H     1 <1>   0.4500 
 16 H        0.9460     1.6650     2.2240 H     1 <1>   0.0800 
 17 H        1.1760    -0.9850    -0.4630 H     1 <1>   0.0800 
 18 H        0.0960     0.2180    -1.0930 H     1 <1>   0.0800 
 19 H       -1.5030     1.4570     0.7480 H     1 <1>   0.0800 
 20 H       -1.3190     0.9140     2.3840 H     1 <1>   0.0800 
 21 H        1.4070     3.2210     0.6520 H     1 <1>   0.0800 
 22 H        0.1370     2.4660    -0.2580 H     1 <1>   0.0800 
 23 H        2.6290    -0.3600     1.5080 H     1 <1>   0.0800 
 24 H        3.1390     1.2510     1.9150 H     1 <1>   0.0800 
 25 H       -0.6580    -2.4720     0.0480 H     1 <1>   0.0800 
 26 H       -0.8400    -1.9420    -1.5940 H     1 <1>   0.0800 
 27 H       -3.3380    -0.0180     1.2320 H     1 <1>   0.0800 
 28 H       -2.2820    -1.2350     1.8750 H     1 <1>   0.0800 
 29 H        1.6870     1.4330    -1.7030 H     1 <1>   0.0800 
 30 H        3.1700     0.0230    -0.7530 H     1 <1>   0.0800 
 31 H        4.1120     1.3350    -0.1110 H     1 <1>   0.0800 
 32 H       -2.5620    -0.4420    -0.9680 H     1 <1>   0.4500 
 33 H        3.4110     3.6790    -0.6290 H     1 <1>   0.0800 
 34 H        2.1980     3.8350    -1.8770 H     1 <1>   0.0800 
 35 H        3.6160     2.8610    -2.1560 H     1 <1>   0.0800 
 36 H       -3.1750    -2.9440     0.4360 H     1 <1>   0.0800 
 37 H       -3.0670    -2.8030    -1.3030 H     1 <1>   0.0800 
 38 H       -4.9740    -1.2370     0.4660 H     1 <1>   0.0800 
 39 H       -5.3650    -2.5120    -0.6380 H     1 <1>   0.0800 
 40 H       -4.7870    -1.0010    -1.2690 H     1 <1>   0.0800 
@<TRIPOS>BOND
  1   1   2  1   
  2   1   3  1   
  3   1   4  1   
  4   1  15  1   
  5   2   5  1   
  6   2   6  1   
  7   2  16  1   
  8   3   7  1   
  9   3  17  1   
 10   3  18  1   
 11   4   8  1   
 12   4  19  1   
 13   4  20  1   
 14   5   9  1   
 15   5  21  1   
 16   5  22  1   
 17   6  10  1   
 18   6  23  1   
 19   6  24  1   
 20   7  11  1   
 21   7  25  1   
 22   7  26  1   
 23   8  11  1   
 24   8  27  1   
 25   8  28  1   
 26   9  10  1   
 27   9  12  1   
 28   9  29  1   
 29  10  30  1   
 30  10  31  1   
 31  11  13  1   
 32  11  32  1   
 33  12  33  1   
 34  12  34  1   
 35  12  35  1   
 36  13  14  1   
 37  13  36  1   
 38  13  37  1   
 39  14  38  1   
 40  14  39  1   
 41  14  40  1   
@<TRIPOS>SUBSTRUCTURE
  1 ****   3 GROUP 4 **** **** 0

# MOE 2024.06 (io_trps.svl 2023.06)
