@<TRIPOS>MOLECULE
NONAME
32 32 1 0 0 
SMALL
USER_CHARGES


@<TRIPOS>ATOM
  1 O        0.4050     1.1550    -0.6560 O.2   1 <1>  -0.5700 
  2 C        0.6570     2.0070     0.1620 C.2   1 <1>   0.5690 
  3 N        1.8730     2.1100     0.7750 N.am  1 <1>  -0.5470 
  4 C       -0.3970     3.0590     0.5300 C.3   1 <1>  -0.0190 
  5 C        3.0450     1.3410     0.6310 C.ar  1 <1>   0.1170 
  6 C       -1.8350     2.6140     0.2060 C.3   1 <1>  -0.2400 
  7 C       -0.1040     4.4020    -0.1590 C.3   1 <1>  -0.2400 
  8 C        4.2950     1.9520     0.8210 C.ar  1 <1>   0.1170 
  9 C        3.0010    -0.0150     0.3360 C.ar  1 <1>  -0.1500 
 10 N        4.3980     3.3260     1.0990 N.am  1 <1>  -0.5470 
 11 C        5.4520     1.1940     0.7290 C.ar  1 <1>  -0.1500 
 12 C        4.1630    -0.7610     0.2380 C.ar  1 <1>  -0.1500 
 13 C        4.1320     4.3730     0.2780 C.2   1 <1>   0.5690 
 14 C        5.3900    -0.1570     0.4380 C.ar  1 <1>  -0.1500 
 15 O        4.1150     5.4920     0.7180 O.2   1 <1>  -0.5700 
 16 C        3.8490     4.1470    -1.1890 C.3   1 <1>  -0.1790 
 17 H        2.0030     2.9510     1.3360 H     1 <1>   0.3700 
 18 H       -0.3430     3.2090     1.5940 H     1 <1>   0.0800 
 19 H       -1.9540     2.4710    -0.8540 H     1 <1>   0.0800 
 20 H       -2.5450     3.3510     0.5380 H     1 <1>   0.0800 
 21 H       -2.0520     1.6820     0.6980 H     1 <1>   0.0800 
 22 H       -0.1310     4.2830    -1.2290 H     1 <1>   0.0800 
 23 H        0.8670     4.7700     0.1190 H     1 <1>   0.0800 
 24 H       -0.8370     5.1380     0.1230 H     1 <1>   0.0800 
 25 H        2.0520    -0.4990     0.1840 H     1 <1>   0.1500 
 26 H        4.7290     3.5980     2.0250 H     1 <1>   0.3700 
 27 H        6.4080     1.6630     0.8790 H     1 <1>   0.1500 
 28 H        4.1080    -1.8110     0.0070 H     1 <1>   0.1500 
 29 H        6.2940    -0.7370     0.3650 H     1 <1>   0.1500 
 30 H        4.5890     3.4910    -1.6080 H     1 <1>   0.0800 
 31 H        3.8800     5.0850    -1.7130 H     1 <1>   0.0800 
 32 H        2.8780     3.7100    -1.3170 H     1 <1>   0.0800 
@<TRIPOS>BOND
  1   1   2  2   
  2   2   3  am  
  3   2   4  1   
  4   3   5  1   
  5   3  17  1   
  6   4   6  1   
  7   4   7  1   
  8   4  18  1   
  9   5   8  ar  
 10   5   9  ar  
 11   6  19  1   
 12   6  20  1   
 13   6  21  1   
 14   7  22  1   
 15   7  23  1   
 16   7  24  1   
 17   8  10  1   
 18   8  11  ar  
 19   9  12  ar  
 20   9  25  1   
 21  10  13  am  
 22  10  26  1   
 23  11  14  ar  
 24  11  27  1   
 25  12  14  ar  
 26  12  28  1   
 27  13  15  2   
 28  13  16  1   
 29  14  29  1   
 30  16  30  1   
 31  16  31  1   
 32  16  32  1   
@<TRIPOS>SUBSTRUCTURE
  1 ****   3 GROUP 4 **** **** 0

# MOE 2024.06 (io_trps.svl 2023.06)
