@<TRIPOS>MOLECULE
NONAME
46 49 1 0 0 
SMALL
USER_CHARGES


@<TRIPOS>ATOM
  1 S       -1.4940    -0.3880     0.4970 S.3   1 <1>  -0.0800 
  2 C       -1.4090    -0.4930    -1.2530 C.2   1 <1>  -0.0360 
  3 C        0.0100    -1.2680     0.6770 C.2   1 <1>  -0.1400 
  4 N       -2.4360     0.1180    -2.0030 N.pl3 1 <1>   0.6460 
  5 C       -0.2930    -1.1630    -1.6400 C.2   1 <1>   0.0190 
  6 C        0.5050    -1.6210    -0.5280 C.2   1 <1>  -0.1810 
  7 C        0.5040    -1.4660     2.0990 C.3   1 <1>   0.0200 
  8 N       -2.1680     0.9750    -2.9880 N.2   1 <1>  -0.7070 
  9 C       -3.7870     0.0130    -1.8900 C.2   1 <1>   0.1330 
 10 C        0.0680    -1.4060    -3.0080 C.1   1 <1>   0.5380 
 11 C        1.7850    -2.4320    -0.7400 C.3   1 <1>   0.0210 
 12 C        2.0370    -1.5060     2.1540 C.3   1 <1>  -0.1600 
 13 C       -3.3390     1.3430    -3.3780 C.2   1 <1>   0.3660 
 14 N       -4.3730     0.7970    -2.7410 N.2   1 <1>  -0.5650 
 15 C       -4.4770    -0.8530    -0.9640 C.ar  1 <1>   0.0530 
 16 N        0.3650    -1.6490    -4.0820 N.1   1 <1>  -0.5570 
 17 C        2.0410    -3.4320     0.3970 C.3   1 <1>  -0.1600 
 18 C        2.6580    -2.8260     1.6690 C.3   1 <1>  -0.1600 
 19 C       -4.1230    -2.1930    -0.7970 C.ar  1 <1>  -0.1500 
 20 C       -5.5400    -0.3680    -0.2040 C.ar  1 <1>  -0.1500 
 21 C       -4.7880    -3.0000     0.1060 C.ar  1 <1>  -0.1500 
 22 C       -6.2110    -1.1710     0.6990 C.ar  1 <1>  -0.1500 
 23 C       -5.8350    -2.5010     0.8630 C.ar  1 <1>   0.0820 
 24 O       -6.4270    -3.3640     1.7240 O.3   1 <1>  -0.3630 
 25 C       -7.5510    -3.0250     2.5090 C.3   1 <1>   0.1200 
 26 C       -8.8150    -3.1120     1.6520 C.3   1 <1>  -0.2400 
 27 H        0.0800    -2.3600     2.5200 H     1 <1>   0.0800 
 28 H        0.1710    -0.6320     2.6930 H     1 <1>   0.0800 
 29 H        2.6260    -1.7710    -0.8600 H     1 <1>   0.0800 
 30 H        1.6940    -3.0080    -1.6440 H     1 <1>   0.0800 
 31 H        2.3520    -1.3380     3.1690 H     1 <1>   0.0800 
 32 H        2.4220    -0.6910     1.5660 H     1 <1>   0.0800 
 33 H       -3.4980     2.0520    -4.1760 H     1 <1>   0.1500 
 34 H        2.7100    -4.1950     0.0380 H     1 <1>   0.0800 
 35 H        1.1140    -3.9220     0.6430 H     1 <1>   0.0800 
 36 H        2.5790    -3.5560     2.4570 H     1 <1>   0.0800 
 37 H        3.7090    -2.6590     1.5020 H     1 <1>   0.0800 
 38 H       -3.3220    -2.6140    -1.3780 H     1 <1>   0.1500 
 39 H       -5.8400     0.6580    -0.3300 H     1 <1>   0.1500 
 40 H       -4.5040    -4.0300     0.2300 H     1 <1>   0.1500 
 41 H       -7.0210    -0.7470     1.2600 H     1 <1>   0.1500 
 42 H       -7.4080    -2.0490     2.9360 H     1 <1>   0.0800 
 43 H       -7.6030    -3.7420     3.3100 H     1 <1>   0.0800 
 44 H       -8.7750    -2.4130     0.8370 H     1 <1>   0.0800 
 45 H       -9.6760    -2.8860     2.2540 H     1 <1>   0.0800 
 46 H       -8.9240    -4.1080     1.2620 H     1 <1>   0.0800 
@<TRIPOS>BOND
  1   1   2  1   
  2   1   3  1   
  3   2   4  1   
  4   2   5  2   
  5   3   6  2   
  6   3   7  1   
  7   4   8  1   
  8   4   9  1   
  9   5   6  1   
 10   5  10  1   
 11   6  11  1   
 12   7  12  1   
 13   7  27  1   
 14   7  28  1   
 15   8  13  2   
 16   9  14  2   
 17   9  15  1   
 18  10  16  3   
 19  11  17  1   
 20  11  29  1   
 21  11  30  1   
 22  12  18  1   
 23  12  31  1   
 24  12  32  1   
 25  13  14  1   
 26  13  33  1   
 27  15  19  ar  
 28  15  20  ar  
 29  17  18  1   
 30  17  34  1   
 31  17  35  1   
 32  18  36  1   
 33  18  37  1   
 34  19  21  ar  
 35  19  38  1   
 36  20  22  ar  
 37  20  39  1   
 38  21  23  ar  
 39  21  40  1   
 40  22  23  ar  
 41  22  41  1   
 42  23  24  1   
 43  24  25  1   
 44  25  26  1   
 45  25  42  1   
 46  25  43  1   
 47  26  44  1   
 48  26  45  1   
 49  26  46  1   
@<TRIPOS>SUBSTRUCTURE
  1 ****   2 GROUP 4 **** **** 0

# MOE 2024.06 (io_trps.svl 2023.06)
