@<TRIPOS>MOLECULE
NONAME
49 52 1 0 0 
SMALL
USER_CHARGES


@<TRIPOS>ATOM
  1 O       -0.6850     0.0600     0.1420 O.2   1 <1>  -0.5700 
  2 C       -1.2910     1.0790    -0.1080 C.2   1 <1>   0.5440 
  3 N       -2.4510     1.4530     0.5160 N.am  1 <1>  -0.4200 
  4 C       -0.9340     2.0890    -1.0640 C.ar  1 <1>   0.0860 
  5 C       -2.8480     2.6620     0.0090 C.2   1 <1>   0.5440 
  6 C       -3.1710     0.6520     1.5480 C.3   1 <1>   0.2010 
  7 C       -1.9040     3.0780    -0.9880 C.ar  1 <1>   0.0860 
  8 C        0.1240     2.2110    -1.9550 C.ar  1 <1>  -0.1500 
  9 O       -3.8510     3.2460     0.3660 O.2   1 <1>  -0.5700 
 10 C       -4.4770     0.0510     1.0380 C.2   1 <1>   0.5690 
 11 C       -1.8260     4.2010    -1.8030 C.ar  1 <1>  -0.1500 
 12 C        0.2010     3.3300    -2.7670 C.ar  1 <1>  -0.1500 
 13 O       -4.6560    -1.1380     1.1420 O.2   1 <1>  -0.5700 
 14 N       -5.4190     0.8700     0.5010 N.am  1 <1>  -0.7300 
 15 C       -0.7700     4.3210    -2.6910 C.ar  1 <1>  -0.1500 
 16 C       -6.7600     0.4560     0.0010 C.3   1 <1>   0.1400 
 17 C       -7.9310     1.2800     0.6040 C.3   1 <1>   0.1430 
 18 C       -9.2980     0.8600     0.0040 C.ar  1 <1>  -0.1430 
 19 C       -7.6880     2.7920     0.3690 C.3   1 <1>  -0.1600 
 20 C       -7.9590     1.1100     2.1450 C.3   1 <1>  -0.1600 
 21 C       -9.4330    -0.1160    -0.9810 C.ar  1 <1>  -0.1500 
 22 C      -10.4610     1.4720     0.4640 C.ar  1 <1>  -0.1500 
 23 C       -7.2370     3.3790     1.7070 C.3   1 <1>  -0.1600 
 24 C       -7.9180     2.5120     2.7570 C.3   1 <1>  -0.1600 
 25 C      -10.6760    -0.4590    -1.4860 C.ar  1 <1>  -0.1500 
 26 C      -11.7050     1.1330    -0.0370 C.ar  1 <1>  -0.1500 
 27 C      -11.8150     0.1640    -1.0150 C.ar  1 <1>  -0.1500 
 28 H       -3.3910     1.2830     2.3890 H     1 <1>   0.0800 
 29 H       -2.5350    -0.1470     1.8860 H     1 <1>   0.0800 
 30 H        0.8700     1.4350    -2.0040 H     1 <1>   0.1500 
 31 H       -2.5840     4.9630    -1.7360 H     1 <1>   0.1500 
 32 H        1.0180     3.4340    -3.4630 H     1 <1>   0.1500 
 33 H       -5.2190     1.8800     0.4470 H     1 <1>   0.3700 
 34 H       -0.6990     5.1880    -3.3290 H     1 <1>   0.1500 
 35 H       -6.9130    -0.5870     0.2210 H     1 <1>   0.0800 
 36 H       -6.7600     0.5750    -1.0680 H     1 <1>   0.0800 
 37 H       -8.5990     3.2800     0.0740 H     1 <1>   0.0800 
 38 H       -6.9620     2.9790    -0.4020 H     1 <1>   0.0800 
 39 H       -7.0990     0.5610     2.4840 H     1 <1>   0.0800 
 40 H       -8.8300     0.5710     2.4760 H     1 <1>   0.0800 
 41 H       -8.5870    -0.6390    -1.3840 H     1 <1>   0.1500 
 42 H      -10.4080     2.2290     1.2250 H     1 <1>   0.1500 
 43 H       -7.5050     4.4170     1.8030 H     1 <1>   0.0800 
 44 H       -6.1690     3.2860     1.8060 H     1 <1>   0.0800 
 45 H       -7.3890     2.5260     3.6940 H     1 <1>   0.0800 
 46 H       -8.9210     2.8680     2.9180 H     1 <1>   0.0800 
 47 H      -10.7550    -1.2150    -2.2470 H     1 <1>   0.1500 
 48 H      -12.5870     1.6230     0.3360 H     1 <1>   0.1500 
 49 H      -12.7810    -0.1030    -1.4070 H     1 <1>   0.1500 
@<TRIPOS>BOND
  1   1   2  2   
  2   2   3  am  
  3   2   4  1   
  4   3   5  am  
  5   3   6  1   
  6   4   7  ar  
  7   4   8  ar  
  8   5   7  1   
  9   5   9  2   
 10   6  10  1   
 11   6  28  1   
 12   6  29  1   
 13   7  11  ar  
 14   8  12  ar  
 15   8  30  1   
 16  10  13  2   
 17  10  14  am  
 18  11  15  ar  
 19  11  31  1   
 20  12  15  ar  
 21  12  32  1   
 22  14  16  1   
 23  14  33  1   
 24  15  34  1   
 25  16  17  1   
 26  16  35  1   
 27  16  36  1   
 28  17  18  1   
 29  17  19  1   
 30  17  20  1   
 31  18  21  ar  
 32  18  22  ar  
 33  19  23  1   
 34  19  37  1   
 35  19  38  1   
 36  20  24  1   
 37  20  39  1   
 38  20  40  1   
 39  21  25  ar  
 40  21  41  1   
 41  22  26  ar  
 42  22  42  1   
 43  23  24  1   
 44  23  43  1   
 45  23  44  1   
 46  24  45  1   
 47  24  46  1   
 48  25  27  ar  
 49  25  47  1   
 50  26  27  ar  
 51  26  48  1   
 52  27  49  1   
@<TRIPOS>SUBSTRUCTURE
  1 ****  14 GROUP 4 **** **** 0

# MOE 2024.06 (io_trps.svl 2023.06)
