@<TRIPOS>MOLECULE
NONAME
51 53 1 0 0 
SMALL
USER_CHARGES


@<TRIPOS>ATOM
  1 O       -1.9230     0.8590    -1.9180 O.3   1 <1>  -0.3630 
  2 C       -1.6110     2.0830    -1.4140 C.ar  1 <1>   0.0830 
  3 C       -1.1650     0.2470    -2.9400 C.3   1 <1>   0.0400 
  4 C       -2.3930     2.5760    -0.3570 C.ar  1 <1>   0.0280 
  5 C       -0.5490     2.8340    -1.9120 C.ar  1 <1>  -0.1500 
  6 C       -2.0690     3.8290     0.1620 C.ar  1 <1>  -0.1500 
  7 C       -3.5070     1.8170     0.1790 C.2   1 <1>  -0.1780 
  8 C       -0.2510     4.0720    -1.3740 C.ar  1 <1>  -0.1500 
  9 C       -1.0140     4.5690    -0.3350 C.ar  1 <1>  -0.1500 
 10 C       -4.1170     1.9600     1.3680 C.2   1 <1>  -0.2880 
 11 C       -5.2690     1.1040     1.8320 C.3   1 <1>   0.4810 
 12 N       -6.5020     1.9060     1.7070 N.4   1 <1>  -0.9590 
 13 C       -6.5990     3.0710     2.6490 C.3   1 <1>   0.3430 
 14 C       -7.7550     1.0860     1.7300 C.3   1 <1>   0.3430 
 15 C       -7.8900     3.8940     2.4050 C.3   1 <1>   0.1100 
 16 C       -8.9990     1.9540     1.4240 C.3   1 <1>   0.1100 
 17 N       -8.6640     3.3910     1.2500 N.3   1 <1>  -0.8100 
 18 C       -9.8610     4.2160     0.9870 C.3   1 <1>   0.2530 
 19 C      -10.5700     3.7460    -0.2750 C.ar  1 <1>  -0.1430 
 20 C       -9.9190     3.8000    -1.4990 C.ar  1 <1>  -0.1500 
 21 C      -11.8670     3.2580    -0.2170 C.ar  1 <1>  -0.1500 
 22 C      -10.5540     3.3680    -2.6500 C.ar  1 <1>  -0.1500 
 23 C      -12.5030     2.8250    -1.3680 C.ar  1 <1>  -0.1500 
 24 C      -11.8470     2.8790    -2.5850 C.ar  1 <1>  -0.1500 
 25 H       -1.5960    -0.7160    -3.1460 H     1 <1>   0.0800 
 26 H       -0.1520     0.1280    -2.5990 H     1 <1>   0.0800 
 27 H       -1.2060     0.8610    -3.8220 H     1 <1>   0.0800 
 28 H        0.0610     2.4760    -2.7190 H     1 <1>   0.1500 
 29 H       -2.6480     4.2450     0.9640 H     1 <1>   0.1500 
 30 H       -3.8510     1.0490    -0.4940 H     1 <1>   0.1500 
 31 H        0.5710     4.6470    -1.7630 H     1 <1>   0.1500 
 32 H       -0.7830     5.5340     0.0840 H     1 <1>   0.1500 
 33 H       -3.8160     2.6940     2.0920 H     1 <1>   0.1500 
 34 H       -5.1190     0.7770     2.8480 H     1 <1>   0.0800 
 35 H       -5.3370     0.2350     1.1960 H     1 <1>   0.0800 
 36 H       -6.5020     2.3430     0.7720 H     1 <1>   0.4500 
 37 H       -6.5870     2.7250     3.6690 H     1 <1>   0.0800 
 38 H       -5.7490     3.7190     2.5130 H     1 <1>   0.0800 
 39 H       -7.6950     0.2990     0.9970 H     1 <1>   0.0800 
 40 H       -7.8760     0.6260     2.6970 H     1 <1>   0.0800 
 41 H       -7.6160     4.9210     2.2320 H     1 <1>   0.0800 
 42 H       -8.4990     3.8660     3.2930 H     1 <1>   0.0800 
 43 H       -9.7190     1.8360     2.2160 H     1 <1>   0.0800 
 44 H       -9.4540     1.5780     0.5220 H     1 <1>   0.0800 
 45 H      -10.5330     4.1700     1.8270 H     1 <1>   0.0800 
 46 H       -9.5670     5.2430     0.8500 H     1 <1>   0.0800 
 47 H       -8.9130     4.1770    -1.5550 H     1 <1>   0.1500 
 48 H      -12.3920     3.2130     0.7200 H     1 <1>   0.1500 
 49 H      -10.0440     3.4130    -3.5970 H     1 <1>   0.1500 
 50 H      -13.5100     2.4490    -1.3190 H     1 <1>   0.1500 
 51 H      -12.3420     2.5440    -3.4800 H     1 <1>   0.1500 
@<TRIPOS>BOND
  1   1   2  1   
  2   1   3  1   
  3   2   4  ar  
  4   2   5  ar  
  5   3  25  1   
  6   3  26  1   
  7   3  27  1   
  8   4   6  ar  
  9   4   7  1   
 10   5   8  ar  
 11   5  28  1   
 12   6   9  ar  
 13   6  29  1   
 14   7  10  2   
 15   7  30  1   
 16   8   9  ar  
 17   8  31  1   
 18   9  32  1   
 19  10  11  1   
 20  10  33  1   
 21  11  12  1   
 22  11  34  1   
 23  11  35  1   
 24  12  13  1   
 25  12  14  1   
 26  12  36  1   
 27  13  15  1   
 28  13  37  1   
 29  13  38  1   
 30  14  16  1   
 31  14  39  1   
 32  14  40  1   
 33  15  17  1   
 34  15  41  1   
 35  15  42  1   
 36  16  17  1   
 37  16  43  1   
 38  16  44  1   
 39  17  18  1   
 40  18  19  1   
 41  18  45  1   
 42  18  46  1   
 43  19  20  ar  
 44  19  21  ar  
 45  20  22  ar  
 46  20  47  1   
 47  21  23  ar  
 48  21  48  1   
 49  22  24  ar  
 50  22  49  1   
 51  23  24  ar  
 52  23  50  1   
 53  24  51  1   
@<TRIPOS>SUBSTRUCTURE
  1 ****  12 GROUP 4 **** **** 0

# MOE 2024.06 (io_trps.svl 2023.06)
