@<TRIPOS>MOLECULE
NONAME
46 48 1 0 0 
SMALL
USER_CHARGES


@<TRIPOS>ATOM
  1 F       -3.3870     1.8370    -3.2050 F     1 <1>  -0.1900 
  2 C       -3.5910     1.6820    -1.9240 C.ar  1 <1>   0.1900 
  3 C       -4.4650     0.7000    -1.5040 C.ar  1 <1>  -0.1500 
  4 C       -2.9220     2.5080    -1.0430 C.ar  1 <1>  -0.1500 
  5 C       -4.6930     0.5300    -0.1430 C.ar  1 <1>   0.1170 
  6 C       -3.1440     2.3410     0.3140 C.ar  1 <1>  -0.1500 
  7 N       -5.5870    -0.4640     0.3150 N.am  1 <1>  -0.2370 
  8 C       -4.0200     1.3610     0.7540 C.ar  1 <1>  -0.1500 
  9 C       -6.6030    -0.2690     1.2110 C.2   1 <1>   0.5690 
 10 C       -5.5670    -1.7760    -0.0690 C.2   1 <1>   0.5690 
 11 O       -6.7650     0.7220     1.8820 O.2   1 <1>  -0.5700 
 12 C       -7.4860    -1.5220     1.3350 C.3   1 <1>   0.2510 
 13 O       -4.7820    -2.2840    -0.8280 O.2   1 <1>  -0.5700 
 14 C       -6.6510    -2.5800     0.5990 C.3   1 <1>  -0.0990 
 15 N       -8.8410    -1.4500     0.7060 N.3   1 <1>  -0.8100 
 16 C       -9.5530    -0.1860     1.0210 C.3   1 <1>   0.1100 
 17 C       -9.6690    -2.6060     1.1100 C.3   1 <1>   0.1100 
 18 C      -10.8860    -0.1000     0.2640 C.3   1 <1>  -0.0190 
 19 C      -10.9840    -2.6150     0.3270 C.3   1 <1>  -0.1600 
 20 C      -11.6020     1.1970     0.6090 C.2   1 <1>   0.6590 
 21 C      -11.7730    -1.3220     0.5600 C.3   1 <1>  -0.1600 
 22 O      -11.7740     1.5480     1.7490 O.2   1 <1>  -0.5700 
 23 O      -12.0340     1.9140    -0.4200 O.3   1 <1>  -0.4300 
 24 C      -12.7170     3.1300    -0.2310 C.3   1 <1>   0.1200 
 25 C      -13.0720     3.6930    -1.6040 C.3   1 <1>  -0.2400 
 26 H       -4.9570     0.0780    -2.2290 H     1 <1>   0.1500 
 27 H       -2.2490     3.2610    -1.4110 H     1 <1>   0.1500 
 28 H       -2.6380     2.9710     1.0250 H     1 <1>   0.1500 
 29 H       -4.1870     1.2440     1.8100 H     1 <1>   0.1500 
 30 H       -7.5820    -1.7660     2.3790 H     1 <1>   0.0800 
 31 H       -6.2010    -3.2650     1.2930 H     1 <1>   0.0800 
 32 H       -7.2070    -3.1170    -0.1470 H     1 <1>   0.0800 
 33 H       -8.9590     0.6600     0.7210 H     1 <1>   0.0800 
 34 H       -9.7250    -0.1160     2.0830 H     1 <1>   0.0800 
 35 H       -9.8770    -2.5550     2.1670 H     1 <1>   0.0800 
 36 H       -9.1500    -3.5280     0.9140 H     1 <1>   0.0800 
 37 H      -10.6620    -0.0820    -0.7870 H     1 <1>   0.0800 
 38 H      -11.5760    -3.4590     0.6330 H     1 <1>   0.0800 
 39 H      -10.7650    -2.7290    -0.7210 H     1 <1>   0.0800 
 40 H      -12.6460    -1.3050    -0.0690 H     1 <1>   0.0800 
 41 H      -12.0990    -1.2850     1.5860 H     1 <1>   0.0800 
 42 H      -12.0730     3.8030     0.3090 H     1 <1>   0.0800 
 43 H      -13.6040     2.9360     0.3490 H     1 <1>   0.0800 
 44 H      -12.1780     3.8710    -2.1740 H     1 <1>   0.0800 
 45 H      -13.5960     4.6240    -1.4890 H     1 <1>   0.0800 
 46 H      -13.7070     3.0050    -2.1340 H     1 <1>   0.0800 
@<TRIPOS>BOND
  1   1   2  1   
  2   2   3  ar  
  3   2   4  ar  
  4   3   5  ar  
  5   3  26  1   
  6   4   6  ar  
  7   4  27  1   
  8   5   7  1   
  9   5   8  ar  
 10   6   8  ar  
 11   6  28  1   
 12   7   9  am  
 13   7  10  am  
 14   8  29  1   
 15   9  11  2   
 16   9  12  1   
 17  10  13  2   
 18  10  14  1   
 19  12  14  1   
 20  12  15  1   
 21  12  30  1   
 22  14  31  1   
 23  14  32  1   
 24  15  16  1   
 25  15  17  1   
 26  16  18  1   
 27  16  33  1   
 28  16  34  1   
 29  17  19  1   
 30  17  35  1   
 31  17  36  1   
 32  18  20  1   
 33  18  21  1   
 34  18  37  1   
 35  19  21  1   
 36  19  38  1   
 37  19  39  1   
 38  20  22  2   
 39  20  23  1   
 40  21  40  1   
 41  21  41  1   
 42  23  24  1   
 43  24  25  1   
 44  24  42  1   
 45  24  43  1   
 46  25  44  1   
 47  25  45  1   
 48  25  46  1   
@<TRIPOS>SUBSTRUCTURE
  1 ****   9 GROUP 4 **** **** 0

# MOE 2024.06 (io_trps.svl 2023.06)
