@<TRIPOS>MOLECULE
NONAME
51 53 1 0 0 
SMALL
USER_CHARGES


@<TRIPOS>ATOM
  1 O        2.0830    -1.4640     3.0590 O.2   1 <1>  -0.5700 
  2 C        1.2280    -1.6300     2.2210 C.2   1 <1>   0.5690 
  3 N        1.2300    -1.0450     0.9910 N.am  1 <1>  -0.5470 
  4 C        0.0320    -2.5370     2.5280 C.3   1 <1>   0.1710 
  5 C        1.9980    -0.0440     0.3790 C.ar  1 <1>   0.1170 
  6 N       -1.1200    -2.3240     1.6020 N.3   1 <1>  -0.8100 
  7 C        1.4480     0.6400    -0.7100 C.ar  1 <1>   0.0830 
  8 C        3.2760     0.2870     0.8110 C.ar  1 <1>  -0.1500 
  9 C       -1.8440    -1.0610     1.9000 C.3   1 <1>   0.1100 
 10 C       -2.0780    -3.4500     1.6220 C.3   1 <1>   0.1100 
 11 O        0.1840     0.2850    -1.0940 O.3   1 <1>  -0.3630 
 12 C        2.1830     1.6350    -1.3480 C.ar  1 <1>  -0.1500 
 13 C        4.0010     1.2780     0.1750 C.ar  1 <1>  -0.1500 
 14 C       -2.9790    -0.8040     0.8920 C.3   1 <1>   0.2090 
 15 C       -3.2240    -3.2390     0.6120 C.3   1 <1>   0.2090 
 16 C       -0.4780     0.9350    -2.1560 C.3   1 <1>   0.0400 
 17 C        3.4560     1.9510    -0.9040 C.ar  1 <1>  -0.1500 
 18 N       -3.9360    -1.9500     0.8600 N.pl3 1 <1>  -0.8380 
 19 C       -5.0880    -1.7440     0.0880 C.ar  1 <1>   0.1000 
 20 C       -5.0930    -1.5590    -1.3080 C.ar  1 <1>   0.0830 
 21 C       -6.3000    -1.7280     0.7630 C.ar  1 <1>  -0.1500 
 22 O       -3.9010    -1.5790    -1.9810 O.3   1 <1>  -0.3630 
 23 C       -6.2990    -1.3590    -1.9720 C.ar  1 <1>  -0.1500 
 24 C       -7.4950    -1.5340     0.0950 C.ar  1 <1>  -0.1500 
 25 C       -3.8580    -1.8480    -3.3650 C.3   1 <1>   0.0400 
 26 C       -7.4950    -1.3480    -1.2740 C.ar  1 <1>  -0.1500 
 27 H        0.3710    -1.2720     0.4710 H     1 <1>   0.3700 
 28 H       -0.2780    -2.3790     3.5460 H     1 <1>   0.0800 
 29 H        0.3760    -3.5520     2.4390 H     1 <1>   0.0800 
 30 H        3.7070    -0.2340     1.6470 H     1 <1>   0.1500 
 31 H       -1.1650    -0.2270     1.8630 H     1 <1>   0.0800 
 32 H       -2.2660    -1.1040     2.8890 H     1 <1>   0.0800 
 33 H       -2.4990    -3.5580     2.6070 H     1 <1>   0.0800 
 34 H       -1.5640    -4.3610     1.3720 H     1 <1>   0.0800 
 35 H        1.7860     2.1740    -2.1860 H     1 <1>   0.1500 
 36 H        4.9910     1.5230     0.5210 H     1 <1>   0.1500 
 37 H       -2.5510    -0.6550    -0.0840 H     1 <1>   0.0800 
 38 H       -3.5090     0.0900     1.1660 H     1 <1>   0.0800 
 39 H       -3.9270    -4.0490     0.6900 H     1 <1>   0.0800 
 40 H       -2.8170    -3.2420    -0.3840 H     1 <1>   0.0800 
 41 H       -1.4550     0.4940    -2.2580 H     1 <1>   0.0800 
 42 H        0.0850     0.7890    -3.0600 H     1 <1>   0.0800 
 43 H       -0.5720     1.9800    -1.9220 H     1 <1>   0.0800 
 44 H        4.0230     2.7210    -1.3980 H     1 <1>   0.1500 
 45 H       -6.2930    -1.8710     1.8280 H     1 <1>   0.1500 
 46 H       -6.3310    -1.2040    -3.0330 H     1 <1>   0.1500 
 47 H       -8.4210    -1.5260     0.6430 H     1 <1>   0.1500 
 48 H       -2.8310    -1.9990    -3.6420 H     1 <1>   0.0800 
 49 H       -4.2600    -1.0050    -3.8980 H     1 <1>   0.0800 
 50 H       -4.4260    -2.7390    -3.5650 H     1 <1>   0.0800 
 51 H       -8.4230    -1.1940    -1.7960 H     1 <1>   0.1500 
@<TRIPOS>BOND
  1   1   2  2   
  2   2   3  am  
  3   2   4  1   
  4   3   5  1   
  5   3  27  1   
  6   4   6  1   
  7   4  28  1   
  8   4  29  1   
  9   5   7  ar  
 10   5   8  ar  
 11   6   9  1   
 12   6  10  1   
 13   7  11  1   
 14   7  12  ar  
 15   8  13  ar  
 16   8  30  1   
 17   9  14  1   
 18   9  31  1   
 19   9  32  1   
 20  10  15  1   
 21  10  33  1   
 22  10  34  1   
 23  11  16  1   
 24  12  17  ar  
 25  12  35  1   
 26  13  17  ar  
 27  13  36  1   
 28  14  18  1   
 29  14  37  1   
 30  14  38  1   
 31  15  18  1   
 32  15  39  1   
 33  15  40  1   
 34  16  41  1   
 35  16  42  1   
 36  16  43  1   
 37  17  44  1   
 38  18  19  1   
 39  19  20  ar  
 40  19  21  ar  
 41  20  22  1   
 42  20  23  ar  
 43  21  24  ar  
 44  21  45  1   
 45  22  25  1   
 46  23  26  ar  
 47  23  46  1   
 48  24  26  ar  
 49  24  47  1   
 50  25  48  1   
 51  25  49  1   
 52  25  50  1   
 53  26  51  1   
@<TRIPOS>SUBSTRUCTURE
  1 ****  14 GROUP 4 **** **** 0

# MOE 2024.06 (io_trps.svl 2023.06)
