@<TRIPOS>MOLECULE
NONAME
29 30 1 0 0 
SMALL
USER_CHARGES


@<TRIPOS>ATOM
  1 BR       0.1220    -0.4260     0.5590 Br    1 <1>  -0.1110 
  2 C        1.9970    -0.1780     0.2060 C.ar  1 <1>   0.1110 
  3 C        2.8790    -0.1620     1.2680 C.ar  1 <1>  -0.1500 
  4 C        2.4150    -0.0230    -1.1010 C.ar  1 <1>  -0.1500 
  5 C        4.2270     0.0170     1.0080 C.ar  1 <1>  -0.1500 
  6 C        3.7660     0.1550    -1.3480 C.ar  1 <1>  -0.1500 
  7 C        4.6800     0.1780    -0.3000 C.ar  1 <1>  -0.1430 
  8 C        6.1620     0.3700    -0.6070 C.3   1 <1>   0.3640 
  9 N        6.8670    -0.8530    -0.2240 N.am  1 <1>  -0.7300 
 10 C        6.7640     1.5490     0.1530 C.3   1 <1>  -0.2400 
 11 C        7.9290    -1.3720    -0.8820 C.2   1 <1>   0.6300 
 12 O        8.4440    -0.8030    -1.8120 O.2   1 <1>  -0.5700 
 13 C        8.4850    -2.7200    -0.4360 C.3   1 <1>  -0.1000 
 14 C        7.5840    -3.8370     0.0110 C.3   1 <1>  -0.2000 
 15 C        8.4730    -3.1540     1.0030 C.3   1 <1>  -0.2000 
 16 H        2.5170    -0.2850     2.2730 H     1 <1>   0.1500 
 17 H        1.7000    -0.0430    -1.9040 H     1 <1>   0.1500 
 18 H        4.9200     0.0310     1.8300 H     1 <1>   0.1500 
 19 H        4.1030     0.2730    -2.3640 H     1 <1>   0.1500 
 20 H        6.2940     0.5370    -1.6640 H     1 <1>   0.0800 
 21 H        6.4130    -1.3980     0.5040 H     1 <1>   0.3700 
 22 H        6.7280     1.3890     1.2140 H     1 <1>   0.0800 
 23 H        6.2180     2.4440    -0.0810 H     1 <1>   0.0800 
 24 H        7.7870     1.6870    -0.1490 H     1 <1>   0.0800 
 25 H        9.3460    -2.9920    -1.0200 H     1 <1>   0.1000 
 26 H        7.8240    -4.8390    -0.3000 H     1 <1>   0.1000 
 27 H        6.5220    -3.6680     0.0550 H     1 <1>   0.1000 
 28 H        8.0330    -2.5090     1.7440 H     1 <1>   0.1000 
 29 H        9.3310    -3.6840     1.3820 H     1 <1>   0.1000 
@<TRIPOS>BOND
  1   1   2  1   
  2   2   3  ar  
  3   2   4  ar  
  4   3   5  ar  
  5   3  16  1   
  6   4   6  ar  
  7   4  17  1   
  8   5   7  ar  
  9   5  18  1   
 10   6   7  ar  
 11   6  19  1   
 12   7   8  1   
 13   8   9  1   
 14   8  10  1   
 15   8  20  1   
 16   9  11  am  
 17   9  21  1   
 18  10  22  1   
 19  10  23  1   
 20  10  24  1   
 21  11  12  2   
 22  11  13  1   
 23  13  14  1   
 24  13  15  1   
 25  13  25  1   
 26  14  15  1   
 27  14  26  1   
 28  14  27  1   
 29  15  28  1   
 30  15  29  1   
@<TRIPOS>SUBSTRUCTURE
  1 ****   7 GROUP 4 **** **** 0

# MOE 2024.06 (io_trps.svl 2023.06)
