@<TRIPOS>MOLECULE
NONAME
42 44 1 0 0 
SMALL
USER_CHARGES


@<TRIPOS>ATOM
  1 O       -3.2100     0.7460     2.0750 O.3   1 <1>  -0.3630 
  2 C       -3.1260     1.0750     0.7550 C.ar  1 <1>   0.0830 
  3 C       -2.0460     0.5410     2.8440 C.3   1 <1>   0.0400 
  4 C       -2.1390     1.8920     0.1790 C.ar  1 <1>   0.0830 
  5 C       -4.1240     0.5430    -0.0440 C.ar  1 <1>  -0.1500 
  6 O       -1.1750     2.4550     0.9660 O.3   1 <1>  -0.3630 
  7 C       -2.1800     2.1260    -1.1950 C.ar  1 <1>  -0.1500 
  8 C       -4.1610     0.7830    -1.4080 C.ar  1 <1>  -0.1430 
  9 C       -0.2820     3.4300     0.4770 C.3   1 <1>   0.0400 
 10 C       -3.1810     1.5780    -1.9780 C.ar  1 <1>  -0.1500 
 11 C       -5.2730     0.1850    -2.2510 C.3   1 <1>   0.3530 
 12 N       -6.4860     0.9910    -2.0300 N.pl3 1 <1>  -0.8690 
 13 C       -7.5420     0.3560    -1.3940 C.ar  1 <1>   0.1000 
 14 C       -7.8830     0.7070    -0.0930 C.ar  1 <1>  -0.1500 
 15 C       -8.2650    -0.6440    -2.0410 C.ar  1 <1>  -0.1500 
 16 C       -8.9230     0.0530     0.5390 C.ar  1 <1>  -0.1430 
 17 C       -9.3070    -1.2950    -1.4020 C.ar  1 <1>  -0.1500 
 18 C       -9.6250    -0.9350    -0.1050 C.ar  1 <1>  -0.1430 
 19 C       -9.4430     0.2750     1.9370 C.3   1 <1>  -0.0170 
 20 C      -10.7080    -1.5020     0.7790 C.3   1 <1>  -0.0170 
 21 C      -10.7670    -0.5090     1.9530 C.3   1 <1>  -0.1600 
 22 H       -2.3090    -0.0640     3.6930 H     1 <1>   0.0800 
 23 H       -1.6780     1.4940     3.1770 H     1 <1>   0.0800 
 24 H       -1.3110     0.0350     2.2440 H     1 <1>   0.0800 
 25 H       -4.8820    -0.0680     0.4150 H     1 <1>   0.1500 
 26 H       -1.4420     2.7350    -1.6800 H     1 <1>   0.1500 
 27 H        0.3190     3.7740     1.2990 H     1 <1>   0.0800 
 28 H       -0.8480     4.2500     0.0710 H     1 <1>   0.0800 
 29 H        0.3470     2.9840    -0.2730 H     1 <1>   0.0800 
 30 H       -3.1960     1.7780    -3.0360 H     1 <1>   0.1500 
 31 H       -5.4430    -0.8390    -1.9640 H     1 <1>   0.0800 
 32 H       -5.0140     0.2100    -3.2960 H     1 <1>   0.0800 
 33 H       -6.2020     1.8480    -1.5430 H     1 <1>   0.4000 
 34 H       -7.3360     1.4780     0.4160 H     1 <1>   0.1500 
 35 H       -8.0060    -0.9000    -3.0500 H     1 <1>   0.1500 
 36 H       -9.8610    -2.0660    -1.9060 H     1 <1>   0.1500 
 37 H       -9.5980     1.3200     2.1390 H     1 <1>   0.0800 
 38 H       -8.7470    -0.1380     2.6450 H     1 <1>   0.0800 
 39 H      -10.4150    -2.4790     1.1210 H     1 <1>   0.0800 
 40 H      -11.6490    -1.5610     0.2620 H     1 <1>   0.0800 
 41 H      -11.5770     0.1790     1.7810 H     1 <1>   0.0800 
 42 H      -10.9250    -1.0090     2.8920 H     1 <1>   0.0800 
@<TRIPOS>BOND
  1   1   2  1   
  2   1   3  1   
  3   2   4  ar  
  4   2   5  ar  
  5   3  22  1   
  6   3  23  1   
  7   3  24  1   
  8   4   6  1   
  9   4   7  ar  
 10   5   8  ar  
 11   5  25  1   
 12   6   9  1   
 13   7  10  ar  
 14   7  26  1   
 15   8  10  ar  
 16   8  11  1   
 17   9  27  1   
 18   9  28  1   
 19   9  29  1   
 20  10  30  1   
 21  11  12  1   
 22  11  31  1   
 23  11  32  1   
 24  12  13  1   
 25  12  33  1   
 26  13  14  ar  
 27  13  15  ar  
 28  14  16  ar  
 29  14  34  1   
 30  15  17  ar  
 31  15  35  1   
 32  16  18  ar  
 33  16  19  1   
 34  17  18  ar  
 35  17  36  1   
 36  18  20  1   
 37  19  21  1   
 38  19  37  1   
 39  19  38  1   
 40  20  21  1   
 41  20  39  1   
 42  20  40  1   
 43  21  41  1   
 44  21  42  1   
@<TRIPOS>SUBSTRUCTURE
  1 ****   5 GROUP 4 **** **** 0

# MOE 2024.06 (io_trps.svl 2023.06)
