@<TRIPOS>MOLECULE
NONAME
37 37 1 0 0 
SMALL
USER_CHARGES


@<TRIPOS>ATOM
  1 CL       0.4920     0.1120     0.0530 Cl    1 <1>  -0.1770 
  2 C        0.2820    -1.6260     0.0190 C.ar  1 <1>   0.1770 
  3 C        1.3940    -2.4610    -0.0020 C.ar  1 <1>   0.0820 
  4 C       -1.0010    -2.1360     0.0150 C.ar  1 <1>  -0.1500 
  5 O        2.6250    -1.8810     0.0050 O.3   1 <1>  -0.3630 
  6 C        1.1940    -3.8390    -0.0290 C.ar  1 <1>  -0.1500 
  7 C       -1.1860    -3.5080    -0.0120 C.ar  1 <1>  -0.1500 
  8 C        3.8080    -2.6360    -0.0070 C.3   1 <1>   0.1200 
  9 C       -0.0920    -4.3610    -0.0360 C.ar  1 <1>  -0.1440 
 10 C        4.9650    -1.6350     0.0120 C.3   1 <1>   0.3430 
 11 C       -0.3100    -5.8640    -0.0630 C.3   1 <1>  -0.0960 
 12 N        6.2960    -2.3130     0.0030 N.4   1 <1>  -0.9060 
 13 C        7.4100    -1.3350     0.0220 C.3   1 <1>   0.3430 
 14 C        8.7350    -2.0940     0.0110 C.3   1 <1>  -0.1600 
 15 C        9.9200    -1.1200     0.0300 C.3   1 <1>  -0.1600 
 16 C       11.2510    -1.8780     0.0200 C.3   1 <1>  -0.2400 
 17 H       -1.8430    -1.4680     0.0320 H     1 <1>   0.1500 
 18 H        2.0200    -4.5230    -0.0450 H     1 <1>   0.1500 
 19 H       -2.1860    -3.9080    -0.0140 H     1 <1>   0.1500 
 20 H        3.8170    -3.2280    -0.9060 H     1 <1>   0.0800 
 21 H        3.8150    -3.2590     0.8710 H     1 <1>   0.0800 
 22 H        4.8750    -1.0240     0.8970 H     1 <1>   0.0800 
 23 H        4.8780    -0.9950    -0.8520 H     1 <1>   0.0800 
 24 H        0.4990    -6.3560    -0.5720 H     1 <1>   0.0800 
 25 H       -1.2240    -6.1020    -0.5770 H     1 <1>   0.0800 
 26 H       -0.3700    -6.2420     0.9410 H     1 <1>   0.0800 
 27 H        6.3890    -2.9020    -0.8350 H     1 <1>   0.4500 
 28 H        6.3860    -2.9300     0.8210 H     1 <1>   0.4500 
 29 H        7.3520    -0.7220     0.9070 H     1 <1>   0.0800 
 30 H        7.3560    -0.6920    -0.8430 H     1 <1>   0.0800 
 31 H        8.8010    -2.7020    -0.8750 H     1 <1>   0.0800 
 32 H        8.7980    -2.7310     0.8770 H     1 <1>   0.0800 
 33 H        9.8800    -0.5030     0.9120 H     1 <1>   0.0800 
 34 H        9.8830    -0.4740    -0.8310 H     1 <1>   0.0800 
 35 H       11.3360    -2.5130     0.8850 H     1 <1>   0.0800 
 36 H       12.0710    -1.1810     0.0330 H     1 <1>   0.0800 
 37 H       11.3390    -2.4840    -0.8650 H     1 <1>   0.0800 
@<TRIPOS>BOND
  1   1   2  1   
  2   2   3  ar  
  3   2   4  ar  
  4   3   5  1   
  5   3   6  ar  
  6   4   7  ar  
  7   4  17  1   
  8   5   8  1   
  9   6   9  ar  
 10   6  18  1   
 11   7   9  ar  
 12   7  19  1   
 13   8  10  1   
 14   8  20  1   
 15   8  21  1   
 16   9  11  1   
 17  10  12  1   
 18  10  22  1   
 19  10  23  1   
 20  11  24  1   
 21  11  25  1   
 22  11  26  1   
 23  12  13  1   
 24  12  27  1   
 25  12  28  1   
 26  13  14  1   
 27  13  29  1   
 28  13  30  1   
 29  14  15  1   
 30  14  31  1   
 31  14  32  1   
 32  15  16  1   
 33  15  33  1   
 34  15  34  1   
 35  16  35  1   
 36  16  36  1   
 37  16  37  1   
@<TRIPOS>SUBSTRUCTURE
  1 ****   8 GROUP 4 **** **** 0

# MOE 2024.06 (io_trps.svl 2023.06)
