@<TRIPOS>MOLECULE
NONAME
38 40 1 0 0 
SMALL
USER_CHARGES


@<TRIPOS>ATOM
  1 S       -0.1970    -0.0530     1.2450 S.3   1 <1>  -0.0800 
  2 C        0.0310     1.5450     0.5490 C.2   1 <1>   0.3250 
  3 C       -1.7850    -0.1350     0.5500 C.2   1 <1>  -0.1100 
  4 N       -0.9990     1.9490    -0.1130 N.2   1 <1>  -0.5650 
  5 C        1.2740     2.2310     0.7960 C.ar  1 <1>   0.0530 
  6 C       -2.0130     1.0030    -0.1240 C.2   1 <1>   0.0460 
  7 C        2.5010     1.8030     0.2700 C.ar  1 <1>  -0.1440 
  8 C        1.2660     3.3790     1.5890 C.ar  1 <1>  -0.1500 
  9 C       -3.2780     1.3650    -0.8900 C.3   1 <1>   0.5240 
 10 C        3.6610     2.5040     0.5520 C.ar  1 <1>  -0.1500 
 11 C        2.5950     0.5740    -0.6260 C.3   1 <1>  -0.0970 
 12 C        2.4260     4.0760     1.8640 C.ar  1 <1>  -0.1500 
 13 N       -3.5660     2.8010    -0.6270 N.4   1 <1>  -0.9590 
 14 C        3.6290     3.6360     1.3460 C.ar  1 <1>  -0.1500 
 15 C       -4.1060     3.0320     0.7550 C.3   1 <1>   0.3430 
 16 C       -4.4150     3.4500    -1.6790 C.3   1 <1>   0.3430 
 17 C       -4.4300     4.5200     0.9840 C.3   1 <1>   0.1200 
 18 C       -4.7240     4.9160    -1.3200 C.3   1 <1>   0.1200 
 19 O       -5.2660     4.9950    -0.0320 O.3   1 <1>  -0.5600 
 20 H       -2.3590    -1.0280     0.7260 H     1 <1>   0.1500 
 21 H        0.3350     3.7270     1.9970 H     1 <1>   0.1500 
 22 H       -4.1030     0.7400    -0.5920 H     1 <1>   0.0800 
 23 H       -3.0900     1.2210    -1.9410 H     1 <1>   0.0800 
 24 H        4.6060     2.1760     0.1540 H     1 <1>   0.1500 
 25 H        1.7960     0.5670    -1.3450 H     1 <1>   0.0800 
 26 H        2.5420    -0.3200    -0.0310 H     1 <1>   0.0800 
 27 H        3.5250     0.5650    -1.1660 H     1 <1>   0.0800 
 28 H        2.3980     4.9580     2.4810 H     1 <1>   0.1500 
 29 H       -2.6200     3.2240    -0.6430 H     1 <1>   0.4500 
 30 H        4.5370     4.1740     1.5580 H     1 <1>   0.1500 
 31 H       -3.3870     2.7070     1.4900 H     1 <1>   0.0800 
 32 H       -5.0100     2.4630     0.8960 H     1 <1>   0.0800 
 33 H       -5.3490     2.9210    -1.7730 H     1 <1>   0.0800 
 34 H       -3.9130     3.4150    -2.6330 H     1 <1>   0.0800 
 35 H       -3.5330     5.1150     1.0050 H     1 <1>   0.0800 
 36 H       -4.9470     4.6480     1.9200 H     1 <1>   0.0800 
 37 H       -5.4490     5.3210    -2.0050 H     1 <1>   0.0800 
 38 H       -3.8370     5.5230    -1.3620 H     1 <1>   0.0800 
@<TRIPOS>BOND
  1   1   2  1   
  2   1   3  1   
  3   2   4  2   
  4   2   5  1   
  5   3   6  2   
  6   3  20  1   
  7   4   6  1   
  8   5   7  ar  
  9   5   8  ar  
 10   6   9  1   
 11   7  10  ar  
 12   7  11  1   
 13   8  12  ar  
 14   8  21  1   
 15   9  13  1   
 16   9  22  1   
 17   9  23  1   
 18  10  14  ar  
 19  10  24  1   
 20  11  25  1   
 21  11  26  1   
 22  11  27  1   
 23  12  14  ar  
 24  12  28  1   
 25  13  15  1   
 26  13  16  1   
 27  13  29  1   
 28  14  30  1   
 29  15  17  1   
 30  15  31  1   
 31  15  32  1   
 32  16  18  1   
 33  16  33  1   
 34  16  34  1   
 35  17  19  1   
 36  17  35  1   
 37  17  36  1   
 38  18  19  1   
 39  18  37  1   
 40  18  38  1   
@<TRIPOS>SUBSTRUCTURE
  1 ****   4 GROUP 4 **** **** 0

# MOE 2024.06 (io_trps.svl 2023.06)
