@<TRIPOS>MOLECULE
NONAME
44 47 1 0 0 
SMALL
USER_CHARGES


@<TRIPOS>ATOM
  1 O        0.1440     0.8070    -0.5580 O.2   1 <1>  -0.5700 
  2 C        0.0080     2.0180    -0.6350 C.2   1 <1>   0.7160 
  3 N        1.1580     2.7880    -0.7330 N.am  1 <1>  -0.6600 
  4 C       -1.3460     2.5620    -0.6070 C.2   1 <1>   0.2030 
  5 C        1.2320     4.2420    -0.4020 C.3   1 <1>   0.1400 
  6 C        2.4570     2.2000    -1.1710 C.3   1 <1>   0.1400 
  7 N       -1.7660     3.7100    -1.0540 N.2   1 <1>  -0.4100 
  8 C       -2.4380     1.8840    -0.0970 C.2   1 <1>  -0.1500 
  9 C        2.2790     4.4680     0.6890 C.3   1 <1>  -0.1600 
 10 C        3.5050     2.3890    -0.0760 C.3   1 <1>  -0.1600 
 11 O       -3.0550     3.8270    -0.8600 O.3   1 <1>  -0.0190 
 12 C       -3.4790     2.7160    -0.2780 C.2   1 <1>   0.0870 
 13 C        3.6220     3.8680     0.2950 C.3   1 <1>   0.5600 
 14 C       -4.8780     2.5580     0.0560 C.ar  1 <1>   0.0530 
 15 O        4.1500     4.5930    -0.7670 O.3   1 <1>  -0.5600 
 16 O        4.5180     4.0400     1.3380 O.3   1 <1>  -0.5600 
 17 C       -5.7960     3.5920    -0.1310 C.ar  1 <1>  -0.1500 
 18 C       -5.3670     1.3620     0.5790 C.ar  1 <1>  -0.1500 
 19 C        5.5200     4.6970    -0.6130 C.3   1 <1>   0.1200 
 20 C        5.7770     4.2690     0.8190 C.3   1 <1>   0.1200 
 21 C       -7.1320     3.4410     0.1910 C.ar  1 <1>  -0.1500 
 22 C       -6.7030     1.2060     0.9030 C.ar  1 <1>  -0.1500 
 23 C       -7.5950     2.2460     0.7120 C.ar  1 <1>  -0.1430 
 24 C       -9.0620     2.0780     1.0650 C.3   1 <1>  -0.0970 
 25 H        0.2890     4.6130    -0.0470 H     1 <1>   0.0800 
 26 H        1.5000     4.7920    -1.2890 H     1 <1>   0.0800 
 27 H        2.7780     2.6970    -2.0710 H     1 <1>   0.0800 
 28 H        2.3510     1.1520    -1.3940 H     1 <1>   0.0800 
 29 H       -2.4070     0.9020     0.3360 H     1 <1>   0.1500 
 30 H        1.9380     4.0030     1.5960 H     1 <1>   0.0800 
 31 H        2.3970     5.5200     0.8700 H     1 <1>   0.0800 
 32 H        4.4510     2.0100    -0.4110 H     1 <1>   0.0800 
 33 H        3.2010     1.8290     0.7900 H     1 <1>   0.0800 
 34 H       -5.4620     4.5320    -0.5340 H     1 <1>   0.1500 
 35 H       -4.6990     0.5350     0.7360 H     1 <1>   0.1500 
 36 H        5.8130     5.7170    -0.7870 H     1 <1>   0.0800 
 37 H        6.0050     4.0440    -1.3170 H     1 <1>   0.0800 
 38 H        6.3460     3.3580     0.8640 H     1 <1>   0.0800 
 39 H        6.2600     5.0400     1.3930 H     1 <1>   0.0800 
 40 H       -7.8120     4.2600     0.0320 H     1 <1>   0.1500 
 41 H       -7.0470     0.2680     1.3040 H     1 <1>   0.1500 
 42 H       -9.4860     3.0180     1.3680 H     1 <1>   0.0800 
 43 H       -9.1770     1.3790     1.8740 H     1 <1>   0.0800 
 44 H       -9.6020     1.7120     0.2100 H     1 <1>   0.0800 
@<TRIPOS>BOND
  1   1   2  2   
  2   2   3  am  
  3   2   4  1   
  4   3   5  1   
  5   3   6  1   
  6   4   7  2   
  7   4   8  1   
  8   5   9  1   
  9   5  25  1   
 10   5  26  1   
 11   6  10  1   
 12   6  27  1   
 13   6  28  1   
 14   7  11  1   
 15   8  12  2   
 16   8  29  1   
 17   9  13  1   
 18   9  30  1   
 19   9  31  1   
 20  10  13  1   
 21  10  32  1   
 22  10  33  1   
 23  11  12  1   
 24  12  14  1   
 25  13  15  1   
 26  13  16  1   
 27  14  17  ar  
 28  14  18  ar  
 29  15  19  1   
 30  16  20  1   
 31  17  21  ar  
 32  17  34  1   
 33  18  22  ar  
 34  18  35  1   
 35  19  20  1   
 36  19  36  1   
 37  19  37  1   
 38  20  38  1   
 39  20  39  1   
 40  21  23  ar  
 41  21  40  1   
 42  22  23  ar  
 43  22  41  1   
 44  23  24  1   
 45  24  42  1   
 46  24  43  1   
 47  24  44  1   
@<TRIPOS>SUBSTRUCTURE
  1 ****   4 GROUP 4 **** **** 0

# MOE 2024.06 (io_trps.svl 2023.06)
