@<TRIPOS>MOLECULE
NONAME
35 36 1 0 0 
SMALL
USER_CHARGES


@<TRIPOS>ATOM
  1 O        2.0260    -1.4240     1.5310 O.2   1 <1>  -0.5700 
  2 C        1.3610    -1.7630     0.5660 C.2   1 <1>   0.7150 
  3 N        1.9110    -1.5060    -0.6690 N.am  1 <1>  -0.6600 
  4 C        0.1330    -2.5080     0.7260 C.2   1 <1>   0.0550 
  5 C        2.4530    -2.6410    -1.4710 C.3   1 <1>   0.1400 
  6 C        2.4410    -0.1590    -1.0160 C.3   1 <1>   0.1400 
  7 O       -0.5010    -3.0310    -0.3210 O.3   1 <1>  -0.2800 
  8 C       -0.5680    -2.8190     1.8510 C.2   1 <1>  -0.1500 
  9 C        3.7040    -3.2490    -0.7970 C.3   1 <1>   0.3430 
 10 C        3.8550     0.0840    -0.4620 C.3   1 <1>  -0.1600 
 11 C       -1.5760    -3.6550     0.1010 C.2   1 <1>  -0.0400 
 12 C       -1.6760    -3.5630     1.4430 C.2   1 <1>  -0.1500 
 13 N        4.4350    -2.2540     0.0620 N.4   1 <1>  -0.9590 
 14 C        4.8660    -1.0440    -0.6880 C.3   1 <1>   0.3430 
 15 C       -2.4770    -4.3310    -0.9100 C.3   1 <1>  -0.0600 
 16 C        5.5450    -2.8800     0.8350 C.3   1 <1>   0.2630 
 17 H        2.7070    -2.2970    -2.4580 H     1 <1>   0.0800 
 18 H        1.7020    -3.4040    -1.5850 H     1 <1>   0.0800 
 19 H        1.7740     0.5900    -0.6200 H     1 <1>   0.0800 
 20 H        2.4420    -0.0490    -2.0880 H     1 <1>   0.0800 
 21 H       -0.3330    -2.5520     2.8660 H     1 <1>   0.1500 
 22 H        4.3600    -3.6500    -1.5510 H     1 <1>   0.0800 
 23 H        3.3810    -4.0700    -0.1780 H     1 <1>   0.0800 
 24 H        3.7930     0.3000     0.5910 H     1 <1>   0.0800 
 25 H        4.2380     0.9750    -0.9270 H     1 <1>   0.0800 
 26 H       -2.4370    -3.9630     2.0900 H     1 <1>   0.1500 
 27 H        3.7170    -1.9050     0.7380 H     1 <1>   0.4500 
 28 H        5.8290    -0.7180    -0.3270 H     1 <1>   0.0800 
 29 H        4.9560    -1.2630    -1.7390 H     1 <1>   0.0800 
 30 H       -2.8450    -3.6040    -1.6120 H     1 <1>   0.0800 
 31 H       -3.3120    -4.7910    -0.4150 H     1 <1>   0.0800 
 32 H       -1.9270    -5.0850    -1.4430 H     1 <1>   0.0800 
 33 H        6.3060    -3.2510     0.1670 H     1 <1>   0.0800 
 34 H        5.1710    -3.7000     1.4260 H     1 <1>   0.0800 
 35 H        5.9890    -2.1560     1.4990 H     1 <1>   0.0800 
@<TRIPOS>BOND
  1   1   2  2   
  2   2   3  am  
  3   2   4  1   
  4   3   5  1   
  5   3   6  1   
  6   4   7  1   
  7   4   8  2   
  8   5   9  1   
  9   5  17  1   
 10   5  18  1   
 11   6  10  1   
 12   6  19  1   
 13   6  20  1   
 14   7  11  1   
 15   8  12  1   
 16   8  21  1   
 17   9  13  1   
 18   9  22  1   
 19   9  23  1   
 20  10  14  1   
 21  10  24  1   
 22  10  25  1   
 23  11  12  2   
 24  11  15  1   
 25  12  26  1   
 26  13  14  1   
 27  13  16  1   
 28  13  27  1   
 29  14  28  1   
 30  14  29  1   
 31  15  30  1   
 32  15  31  1   
 33  15  32  1   
 34  16  33  1   
 35  16  34  1   
 36  16  35  1   
@<TRIPOS>SUBSTRUCTURE
  1 ****   2 GROUP 4 **** **** 0

# MOE 2024.06 (io_trps.svl 2023.06)
