@<TRIPOS>MOLECULE
NONAME
29 30 1 0 0 
SMALL
USER_CHARGES


@<TRIPOS>ATOM
  1 O       -1.8910    -1.8210    -2.3270 O.2   1 <1>  -0.1620 
  2 N       -2.9920    -2.2420    -2.4500 N.2   1 <1>  -0.1320 
  3 C       -4.0160    -1.6300    -1.7840 C.2   1 <1>   0.1440 
  4 C       -4.0360    -0.5410    -0.9490 C.2   1 <1>   0.0720 
  5 N       -2.8890     0.1850    -0.6640 N.pl3 1 <1>  -0.8690 
  6 C       -5.2640    -0.0660    -0.3250 C.ar  1 <1>   0.0280 
  7 C       -2.8590     1.4800     0.0220 C.3   1 <1>   0.3690 
  8 C       -5.3850     1.2790     0.0400 C.ar  1 <1>  -0.1430 
  9 C       -6.3470    -0.9040    -0.0500 C.ar  1 <1>  -0.1500 
 10 C       -4.2000     2.2030    -0.2120 C.3   1 <1>  -0.0170 
 11 C       -2.6140     1.2010     1.5050 C.3   1 <1>  -0.2400 
 12 C       -1.6970     2.2770    -0.5640 C.3   1 <1>  -0.2400 
 13 C       -6.5440     1.7640     0.6210 C.ar  1 <1>  -0.1500 
 14 C       -7.5050    -0.4220     0.5310 C.ar  1 <1>  -0.1500 
 15 C       -7.6080     0.9160     0.8650 C.ar  1 <1>  -0.1500 
 16 H       -4.9520    -2.1110    -1.9860 H     1 <1>   0.1500 
 17 H       -1.9960    -0.1310    -1.0610 H     1 <1>   0.4000 
 18 H       -6.2910    -1.9510    -0.2780 H     1 <1>   0.1500 
 19 H       -4.2470     2.5390    -1.2320 H     1 <1>   0.0800 
 20 H       -4.2560     3.0690     0.4220 H     1 <1>   0.0800 
 21 H       -3.4130     0.6070     1.9100 H     1 <1>   0.0800 
 22 H       -2.5650     2.1230     2.0540 H     1 <1>   0.0800 
 23 H       -1.6880     0.6720     1.6380 H     1 <1>   0.0800 
 24 H       -1.8380     2.4190    -1.6210 H     1 <1>   0.0800 
 25 H       -0.7680     1.7630    -0.4000 H     1 <1>   0.0800 
 26 H       -1.6380     3.2420    -0.0960 H     1 <1>   0.0800 
 27 H       -6.6250     2.8030     0.8890 H     1 <1>   0.1500 
 28 H       -8.3270    -1.0870     0.7290 H     1 <1>   0.1500 
 29 H       -8.5090     1.2940     1.3150 H     1 <1>   0.1500 
@<TRIPOS>BOND
  1   1   2  2   
  2   2   3  1   
  3   3   4  2   
  4   3  16  1   
  5   4   5  1   
  6   4   6  1   
  7   5   7  1   
  8   5  17  1   
  9   6   8  ar  
 10   6   9  ar  
 11   7  10  1   
 12   7  11  1   
 13   7  12  1   
 14   8  10  1   
 15   8  13  ar  
 16   9  14  ar  
 17   9  18  1   
 18  10  19  1   
 19  10  20  1   
 20  11  21  1   
 21  11  22  1   
 22  11  23  1   
 23  12  24  1   
 24  12  25  1   
 25  12  26  1   
 26  13  15  ar  
 27  13  27  1   
 28  14  15  ar  
 29  14  28  1   
 30  15  29  1   
@<TRIPOS>SUBSTRUCTURE
  1 ****   6 GROUP 4 **** **** 0

# MOE 2024.06 (io_trps.svl 2023.06)
