@<TRIPOS>MOLECULE
NONAME
40 41 1 0 0 
SMALL
USER_CHARGES


@<TRIPOS>ATOM
  1 O       -0.3850    -0.1290    -0.3330 O.3   1 <1>  -0.3630 
  2 C        0.8630     0.4030    -0.3250 C.ar  1 <1>   0.0830 
  3 C       -1.5040     0.6410     0.0530 C.3   1 <1>   0.1200 
  4 C        1.1430     1.7130     0.0520 C.ar  1 <1>  -0.1500 
  5 C        1.8990    -0.4280    -0.7200 C.ar  1 <1>  -0.1500 
  6 C       -2.7490    -0.2300    -0.0620 C.3   1 <1>   0.1200 
  7 C        2.4450     2.1840     0.0330 C.ar  1 <1>   0.0830 
  8 C        3.2020     0.0360    -0.7400 C.ar  1 <1>  -0.1500 
  9 O       -3.8670     0.5410     0.3240 O.3   1 <1>  -0.3630 
 10 O        2.6310     3.4730     0.4160 O.3   1 <1>  -0.3630 
 11 C        3.4790     1.3390    -0.3650 C.ar  1 <1>  -0.1500 
 12 C       -5.1180     0.0170     0.3140 C.ar  1 <1>   0.0830 
 13 C        3.9160     4.0540     0.4340 C.3   1 <1>   0.0400 
 14 C       -5.4080    -1.2920    -0.0600 C.ar  1 <1>  -0.1500 
 15 C       -6.1490     0.8560     0.7020 C.ar  1 <1>  -0.1500 
 16 C       -6.7170    -1.7440    -0.0410 C.ar  1 <1>  -0.1500 
 17 C       -7.4550     0.4010     0.7210 C.ar  1 <1>  -0.1500 
 18 C       -7.7470    -0.9020     0.3500 C.ar  1 <1>  -0.1430 
 19 C       -9.1820    -1.4030     0.3690 C.3   1 <1>  -0.0170 
 20 C       -9.8530    -1.1620    -0.9850 C.3   1 <1>  -0.2400 
 21 H       -1.5770     1.4870    -0.6070 H     1 <1>   0.0800 
 22 H       -1.3620     0.9580     1.0710 H     1 <1>   0.0800 
 23 H        0.3730     2.3900     0.3640 H     1 <1>   0.1500 
 24 H        1.6770    -1.4390    -1.0100 H     1 <1>   0.1500 
 25 H       -2.6770    -1.0760     0.5990 H     1 <1>   0.0800 
 26 H       -2.8910    -0.5460    -1.0800 H     1 <1>   0.0800 
 27 H        3.9990    -0.6180    -1.0480 H     1 <1>   0.1500 
 28 H        4.4980     1.6760    -0.3900 H     1 <1>   0.1500 
 29 H        3.8170     5.0710     0.7670 H     1 <1>   0.0800 
 30 H        4.3220     4.0330    -0.5610 H     1 <1>   0.0800 
 31 H        4.5380     3.5040     1.1180 H     1 <1>   0.0800 
 32 H       -4.6360    -1.9710    -0.3680 H     1 <1>   0.1500 
 33 H       -5.9220     1.8660     0.9900 H     1 <1>   0.1500 
 34 H       -6.9330    -2.7560    -0.3330 H     1 <1>   0.1500 
 35 H       -8.2450     1.0660     1.0230 H     1 <1>   0.1500 
 36 H       -9.7340    -0.8940     1.1400 H     1 <1>   0.0800 
 37 H       -9.1970    -2.4540     0.5980 H     1 <1>   0.0800 
 38 H       -9.8580    -0.1110    -1.2140 H     1 <1>   0.0800 
 39 H      -10.8670    -1.5180    -0.9650 H     1 <1>   0.0800 
 40 H       -9.3180    -1.6810    -1.7610 H     1 <1>   0.0800 
@<TRIPOS>BOND
  1   1   2  1   
  2   1   3  1   
  3   2   4  ar  
  4   2   5  ar  
  5   3   6  1   
  6   3  21  1   
  7   3  22  1   
  8   4   7  ar  
  9   4  23  1   
 10   5   8  ar  
 11   5  24  1   
 12   6   9  1   
 13   6  25  1   
 14   6  26  1   
 15   7  10  1   
 16   7  11  ar  
 17   8  11  ar  
 18   8  27  1   
 19   9  12  1   
 20  10  13  1   
 21  11  28  1   
 22  12  14  ar  
 23  12  15  ar  
 24  13  29  1   
 25  13  30  1   
 26  13  31  1   
 27  14  16  ar  
 28  14  32  1   
 29  15  17  ar  
 30  15  33  1   
 31  16  18  ar  
 32  16  34  1   
 33  17  18  ar  
 34  17  35  1   
 35  18  19  1   
 36  19  20  1   
 37  19  36  1   
 38  19  37  1   
 39  20  38  1   
 40  20  39  1   
 41  20  40  1   
@<TRIPOS>SUBSTRUCTURE
  1 ****   6 GROUP 4 **** **** 0

# MOE 2024.06 (io_trps.svl 2023.06)
