@<TRIPOS>MOLECULE
NONAME
24 25 1 0 0 
SMALL
USER_CHARGES


@<TRIPOS>ATOM
  1 CL      -0.9330     1.5790    -1.0020 Cl    1 <1>  -0.1770 
  2 C        0.5120     2.1830    -0.2330 C.ar  1 <1>   0.1770 
  3 C        1.7460     1.8660    -0.7720 C.ar  1 <1>  -0.1500 
  4 C        0.4000     2.9680     0.8980 C.ar  1 <1>  -0.1500 
  5 C        2.9030     2.3430    -0.1700 C.ar  1 <1>  -0.1440 
  6 C        1.5500     3.4440     1.5030 C.ar  1 <1>  -0.1500 
  7 C        2.7910     3.1320     0.9710 C.ar  1 <1>  -0.1500 
  8 C        4.2630     1.9980    -0.7660 C.3   1 <1>   0.5940 
  9 S        5.2030     0.9970     0.4070 S.3   1 <1>  -0.4600 
 10 N        5.0950     3.1850    -0.9480 N.am  1 <1>  -0.7300 
 11 C        6.6400     2.0860     0.5650 C.3   1 <1>   0.2110 
 12 C        6.2590     3.2930    -0.2800 C.2   1 <1>   0.5690 
 13 C        7.8650     1.3140     0.0670 C.3   1 <1>  -0.2400 
 14 O        6.9360     4.2890    -0.3320 O.2   1 <1>  -0.5700 
 15 H        1.7850     1.2500    -1.6520 H     1 <1>   0.1500 
 16 H       -0.5710     3.1990     1.2960 H     1 <1>   0.1500 
 17 H        1.4810     4.0560     2.3860 H     1 <1>   0.1500 
 18 H        3.6770     3.5080     1.4540 H     1 <1>   0.1500 
 19 H        4.1790     1.4370    -1.6820 H     1 <1>   0.0800 
 20 H        4.7120     3.9790    -1.4570 H     1 <1>   0.3700 
 21 H        6.7310     2.3620     1.6000 H     1 <1>   0.0800 
 22 H        7.7270     1.0110    -0.9560 H     1 <1>   0.0800 
 23 H        8.0250     0.4420     0.6750 H     1 <1>   0.0800 
 24 H        8.7360     1.9420     0.1250 H     1 <1>   0.0800 
@<TRIPOS>BOND
  1   1   2  1   
  2   2   3  ar  
  3   2   4  ar  
  4   3   5  ar  
  5   3  15  1   
  6   4   6  ar  
  7   4  16  1   
  8   5   7  ar  
  9   5   8  1   
 10   6   7  ar  
 11   6  17  1   
 12   7  18  1   
 13   8   9  1   
 14   8  10  1   
 15   8  19  1   
 16   9  11  1   
 17  10  12  am  
 18  10  20  1   
 19  11  12  1   
 20  11  13  1   
 21  11  21  1   
 22  12  14  2   
 23  13  22  1   
 24  13  23  1   
 25  13  24  1   
@<TRIPOS>SUBSTRUCTURE
  1 ****   5 GROUP 4 **** **** 0

# MOE 2024.06 (io_trps.svl 2023.06)
