@<TRIPOS>MOLECULE
NONAME
40 41 1 0 0 
SMALL
USER_CHARGES


@<TRIPOS>ATOM
  1 CL       0.0610     0.7410    -0.8430 Cl    1 <1>  -0.1770 
  2 C       -1.5680     1.2430    -0.4660 C.ar  1 <1>   0.1770 
  3 C       -2.5700     0.2940    -0.3890 C.ar  1 <1>  -0.1500 
  4 C       -1.8320     2.5800    -0.2490 C.ar  1 <1>  -0.1500 
  5 C       -3.8680     0.6800    -0.0880 C.ar  1 <1>  -0.1440 
  6 C       -3.1260     2.9690     0.0480 C.ar  1 <1>  -0.1500 
  7 C       -4.1530     2.0330     0.1280 C.ar  1 <1>   0.1170 
  8 C       -4.9430    -0.3960    -0.0010 C.3   1 <1>  -0.0960 
  9 N       -5.4380     2.4930     0.4450 N.am  1 <1>  -0.5470 
 10 C       -6.5600     2.4560    -0.3320 C.2   1 <1>   0.5690 
 11 O       -6.5730     1.9760    -1.4390 O.2   1 <1>  -0.5700 
 12 C       -7.8340     3.0630     0.2380 C.3   1 <1>  -0.0190 
 13 C       -9.0820     2.4790    -0.4420 C.3   1 <1>   0.1960 
 14 C       -7.8330     4.5970     0.1100 C.3   1 <1>  -0.1600 
 15 N      -10.3050     3.0290     0.1700 N.am  1 <1>  -0.8490 
 16 C       -9.1630     5.1680     0.6200 C.3   1 <1>  -0.1600 
 17 S      -11.7080     2.2750    -0.4070 S.o2  1 <1>   1.3330 
 18 C      -10.3670     4.4810    -0.0360 C.3   1 <1>   0.1960 
 19 O      -11.5120     1.9840    -1.8080 O.2   1 <1>  -0.6500 
 20 O      -12.8460     3.0600     0.0140 O.2   1 <1>  -0.6500 
 21 C      -11.7460     0.7490     0.5090 C.3   1 <1>  -0.1350 
 22 H       -2.3250    -0.7370    -0.5670 H     1 <1>   0.1500 
 23 H       -1.0360     3.3000    -0.3150 H     1 <1>   0.1500 
 24 H       -3.3410     4.0090     0.2110 H     1 <1>   0.1500 
 25 H       -4.5030    -1.3700     0.1200 H     1 <1>   0.0800 
 26 H       -5.5290    -0.3970    -0.9030 H     1 <1>   0.0800 
 27 H       -5.5910    -0.2160     0.8370 H     1 <1>   0.0800 
 28 H       -5.5090     3.0120     1.3190 H     1 <1>   0.3700 
 29 H       -7.8850     2.7970     1.2790 H     1 <1>   0.0800 
 30 H       -9.0680     1.4080    -0.3360 H     1 <1>   0.0800 
 31 H       -9.0650     2.7050    -1.4970 H     1 <1>   0.0800 
 32 H       -7.7050     4.8660    -0.9260 H     1 <1>   0.0800 
 33 H       -7.0160     5.0220     0.6680 H     1 <1>   0.0800 
 34 H       -9.2050     6.2230     0.4180 H     1 <1>   0.0800 
 35 H       -9.2330     5.0360     1.6860 H     1 <1>   0.0800 
 36 H      -11.2660     4.8760     0.4080 H     1 <1>   0.0800 
 37 H      -10.3910     4.6990    -1.0920 H     1 <1>   0.0800 
 38 H      -11.7580     0.9540     1.5610 H     1 <1>   0.0800 
 39 H      -10.8880     0.1510     0.2790 H     1 <1>   0.0800 
 40 H      -12.6280     0.1950     0.2560 H     1 <1>   0.0800 
@<TRIPOS>BOND
  1   1   2  1   
  2   2   3  ar  
  3   2   4  ar  
  4   3   5  ar  
  5   3  22  1   
  6   4   6  ar  
  7   4  23  1   
  8   5   7  ar  
  9   5   8  1   
 10   6   7  ar  
 11   6  24  1   
 12   7   9  1   
 13   8  25  1   
 14   8  26  1   
 15   8  27  1   
 16   9  10  am  
 17   9  28  1   
 18  10  11  2   
 19  10  12  1   
 20  12  13  1   
 21  12  14  1   
 22  12  29  1   
 23  13  15  1   
 24  13  30  1   
 25  13  31  1   
 26  14  16  1   
 27  14  32  1   
 28  14  33  1   
 29  15  17  am  
 30  15  18  1   
 31  16  18  1   
 32  16  34  1   
 33  16  35  1   
 34  17  19  2   
 35  17  20  2   
 36  17  21  1   
 37  18  36  1   
 38  18  37  1   
 39  21  38  1   
 40  21  39  1   
 41  21  40  1   
@<TRIPOS>SUBSTRUCTURE
  1 ****  10 GROUP 4 **** **** 0

# MOE 2024.06 (io_trps.svl 2023.06)
