@<TRIPOS>MOLECULE
NONAME
44 47 1 0 0 
SMALL
USER_CHARGES


@<TRIPOS>ATOM
  1 BR       1.1370    -2.0320     2.8820 Br    1 <1>  -0.1110 
  2 C        0.0660    -3.4550     2.1500 C.ar  1 <1>   0.1110 
  3 C       -0.1790    -4.5710     2.9270 C.ar  1 <1>  -0.1500 
  4 C       -0.4290    -3.3220     0.8660 C.ar  1 <1>  -0.1500 
  5 C       -0.9500    -5.5890     2.3920 C.ar  1 <1>  -0.1500 
  6 C       -1.1990    -4.3460     0.3400 C.ar  1 <1>  -0.1500 
  7 C       -1.4620    -5.4850     1.1050 C.ar  1 <1>   0.0830 
  8 O       -2.2060    -6.5300     0.6650 O.3   1 <1>  -0.3630 
  9 C       -2.7790    -6.5280    -0.6390 C.3   1 <1>   0.1810 
 10 C       -3.5710    -7.8010    -0.9120 C.2   1 <1>   0.5690 
 11 O       -4.1050    -7.9130    -1.9900 O.2   1 <1>  -0.5700 
 12 N       -3.6450    -8.7530     0.0570 N.am  1 <1>  -0.7300 
 13 C       -4.3390   -10.0510     0.0370 C.3   1 <1>   0.3000 
 14 C       -4.0960   -10.7300     1.3980 C.3   1 <1>  -0.1600 
 15 C       -3.7770   -10.9540    -1.0770 C.3   1 <1>  -0.1600 
 16 C       -5.8540    -9.8580    -0.1610 C.3   1 <1>  -0.1600 
 17 C       -4.7990   -12.1010     1.4450 C.3   1 <1>  -0.0800 
 18 C       -4.4830   -12.3240    -1.0500 C.3   1 <1>  -0.0800 
 19 C       -6.5670   -11.2240    -0.1300 C.3   1 <1>  -0.0800 
 20 C       -4.2420   -12.9910     0.3170 C.3   1 <1>  -0.1600 
 21 C       -6.3110   -11.8990     1.2310 C.3   1 <1>  -0.1600 
 22 C       -5.9970   -12.1160    -1.2510 C.3   1 <1>  -0.1600 
 23 H        0.2230    -4.6390     3.9220 H     1 <1>   0.1500 
 24 H       -0.2140    -2.4370     0.2950 H     1 <1>   0.1500 
 25 H       -1.1590    -6.4700     2.9720 H     1 <1>   0.1500 
 26 H       -1.5810    -4.2370    -0.6570 H     1 <1>   0.1500 
 27 H       -1.9860    -6.4480    -1.3590 H     1 <1>   0.0800 
 28 H       -3.4370    -5.6830    -0.7200 H     1 <1>   0.0800 
 29 H       -3.1550    -8.5540     0.9300 H     1 <1>   0.3700 
 30 H       -4.4790   -10.1090     2.1890 H     1 <1>   0.0800 
 31 H       -3.0410   -10.8680     1.5540 H     1 <1>   0.0800 
 32 H       -2.7190   -11.0870    -0.9420 H     1 <1>   0.0800 
 33 H       -3.9380   -10.4960    -2.0370 H     1 <1>   0.0800 
 34 H       -6.0430    -9.3850    -1.1080 H     1 <1>   0.0800 
 35 H       -6.2470    -9.2250     0.6150 H     1 <1>   0.0800 
 36 H       -4.6250   -12.5690     2.3990 H     1 <1>   0.0800 
 37 H       -4.0940   -12.9490    -1.8360 H     1 <1>   0.0800 
 38 H       -7.6250   -11.0860    -0.2770 H     1 <1>   0.0800 
 39 H       -4.7240   -13.9530     0.3420 H     1 <1>   0.0800 
 40 H       -3.1880   -13.1510     0.4640 H     1 <1>   0.0800 
 41 H       -6.7150   -11.2900     2.0210 H     1 <1>   0.0800 
 42 H       -6.8140   -12.8500     1.2640 H     1 <1>   0.0800 
 43 H       -6.4990   -13.0680    -1.2500 H     1 <1>   0.0800 
 44 H       -6.1760   -11.6550    -2.2080 H     1 <1>   0.0800 
@<TRIPOS>BOND
  1   1   2  1   
  2   2   3  ar  
  3   2   4  ar  
  4   3   5  ar  
  5   3  23  1   
  6   4   6  ar  
  7   4  24  1   
  8   5   7  ar  
  9   5  25  1   
 10   6   7  ar  
 11   6  26  1   
 12   7   8  1   
 13   8   9  1   
 14   9  10  1   
 15   9  27  1   
 16   9  28  1   
 17  10  11  2   
 18  10  12  am  
 19  12  13  1   
 20  12  29  1   
 21  13  14  1   
 22  13  15  1   
 23  13  16  1   
 24  14  17  1   
 25  14  30  1   
 26  14  31  1   
 27  15  18  1   
 28  15  32  1   
 29  15  33  1   
 30  16  19  1   
 31  16  34  1   
 32  16  35  1   
 33  17  20  1   
 34  17  21  1   
 35  17  36  1   
 36  18  20  1   
 37  18  22  1   
 38  18  37  1   
 39  19  21  1   
 40  19  22  1   
 41  19  38  1   
 42  20  39  1   
 43  20  40  1   
 44  21  41  1   
 45  21  42  1   
 46  22  43  1   
 47  22  44  1   
@<TRIPOS>SUBSTRUCTURE
  1 ****  12 GROUP 4 **** **** 0

# MOE 2024.06 (io_trps.svl 2023.06)
