@<TRIPOS>MOLECULE
ka-07020
29 29 1 0 0 
SMALL
USER_CHARGES


@<TRIPOS>ATOM
  1 O       -0.4700    -0.2660    -0.5940 O.3   1 <1>  -0.3630 
  2 C       -1.8170    -0.2500    -0.4330 C.ar  1 <1>   0.0830 
  3 C        0.3810    -0.7750     0.4090 C.3   1 <1>   0.0400 
  4 C       -2.5660     0.2560    -1.4830 C.ar  1 <1>  -0.1500 
  5 C       -2.4680    -0.7060     0.7100 C.ar  1 <1>  -0.1500 
  6 C       -3.9460     0.3100    -1.4010 C.ar  1 <1>  -0.1500 
  7 C       -3.8490    -0.6510     0.7890 C.ar  1 <1>  -0.1500 
  8 C       -4.5950    -0.1430    -0.2630 C.ar  1 <1>  -0.1430 
  9 C       -6.1150    -0.0740    -0.1670 C.3   1 <1>  -0.0170 
 10 C       -6.5960     1.3340     0.2190 C.3   1 <1>   0.2000 
 11 O       -5.9530     1.7060     1.3830 O.3   1 <1>  -0.6800 
 12 C       -8.1040     1.4320     0.4810 C.3   1 <1>  -0.1600 
 13 C       -8.9560     1.1670    -0.7700 C.3   1 <1>  -0.2400 
 14 H        1.3940    -0.6910     0.0600 H     1 <1>   0.0800 
 15 H        0.1370    -1.8080     0.5820 H     1 <1>   0.0800 
 16 H        0.2530    -0.1920     1.3040 H     1 <1>   0.0800 
 17 H       -2.0580     0.6060    -2.3630 H     1 <1>   0.1500 
 18 H       -1.9200    -1.1050     1.5420 H     1 <1>   0.1500 
 19 H       -4.5090     0.7060    -2.2280 H     1 <1>   0.1500 
 20 H       -4.3420    -1.0050     1.6780 H     1 <1>   0.1500 
 21 H       -6.4740    -0.7850     0.5560 H     1 <1>   0.0800 
 22 H       -6.5340    -0.3460    -1.1180 H     1 <1>   0.0800 
 23 H       -6.3090     2.0380    -0.5440 H     1 <1>   0.0800 
 24 H       -4.9930     1.5440     1.2720 H     1 <1>   0.4000 
 25 H       -8.3230     2.4250     0.8350 H     1 <1>   0.0800 
 26 H       -8.3800     0.7350     1.2530 H     1 <1>   0.0800 
 27 H       -8.6720     1.8330    -1.5660 H     1 <1>   0.0800 
 28 H       -9.9950     1.3330    -0.5430 H     1 <1>   0.0800 
 29 H       -8.8440     0.1520    -1.1050 H     1 <1>   0.0800 
@<TRIPOS>BOND
  1   1   2  1   
  2   1   3  1   
  3   2   4  ar  
  4   2   5  ar  
  5   3  14  1   
  6   3  15  1   
  7   3  16  1   
  8   4   6  ar  
  9   4  17  1   
 10   5   7  ar  
 11   5  18  1   
 12   6   8  ar  
 13   6  19  1   
 14   7   8  ar  
 15   7  20  1   
 16   8   9  1   
 17   9  10  1   
 18   9  21  1   
 19   9  22  1   
 20  10  11  1   
 21  10  12  1   
 22  10  23  1   
 23  11  24  1   
 24  12  13  1   
 25  12  25  1   
 26  12  26  1   
 27  13  27  1   
 28  13  28  1   
 29  13  29  1   
@<TRIPOS>SUBSTRUCTURE
  1 ****   8 GROUP 4 **** **** 0

# MOE 2024.06 (io_trps.svl 2023.06)
