@<TRIPOS>MOLECULE
NONAME
44 47 1 0 0 
SMALL
USER_CHARGES


@<TRIPOS>ATOM
  1 CL       0.1960    -0.6590    -0.4170 Cl    1 <1>  -0.1770 
  2 C        1.7360    -1.0970     0.2780 C.ar  1 <1>   0.1770 
  3 C        2.8620    -0.3820    -0.0770 C.ar  1 <1>  -0.1500 
  4 C        1.8000    -2.1500     1.1710 C.ar  1 <1>  -0.1500 
  5 C        4.0940    -0.7220     0.4700 C.ar  1 <1>   0.1000 
  6 C        3.0250    -2.4930     1.7200 C.ar  1 <1>  -0.1500 
  7 N        5.2510    -0.0290     0.1390 N.pl3 1 <1>  -0.8380 
  8 C        4.1600    -1.7820     1.3680 C.ar  1 <1>  -0.1500 
  9 C        5.3540     1.3710     0.6410 C.3   1 <1>   0.2090 
 10 C        5.7760    -0.2370    -1.2420 C.3   1 <1>   0.2090 
 11 C        6.7970     1.8990     0.4990 C.3   1 <1>   0.3430 
 12 C        7.2150     0.3090    -1.3700 C.3   1 <1>   0.3430 
 13 N        7.3410     1.7430    -0.9080 N.4   1 <1>  -0.9590 
 14 C        8.7430     2.2380    -1.0930 C.3   1 <1>   0.4230 
 15 C        9.8780     1.4630    -0.1990 C.3   1 <1>  -0.0800 
 16 C        8.8790     3.8730    -0.7770 C.3   1 <1>  -0.1600 
 17 C       10.0660     2.7830    -0.0570 C.3   1 <1>  -0.1600 
 18 C       11.2440     1.6850     0.6740 C.3   1 <1>  -0.1600 
 19 C       10.2270     4.0960     0.1260 C.3   1 <1>  -0.0800 
 20 C       11.3960     3.3240     0.9730 C.3   1 <1>  -0.1600 
 21 H        2.7760     0.4280    -0.7730 H     1 <1>   0.1500 
 22 H        0.9070    -2.6900     1.4300 H     1 <1>   0.1500 
 23 H        3.0930    -3.3110     2.4170 H     1 <1>   0.1500 
 24 H        5.1120    -2.0450     1.7920 H     1 <1>   0.1500 
 25 H        5.0670     1.3950     1.6790 H     1 <1>   0.0800 
 26 H        4.6760     2.0040     0.0960 H     1 <1>   0.0800 
 27 H        5.1330     0.2520    -1.9520 H     1 <1>   0.0800 
 28 H        5.7740    -1.2910    -1.4650 H     1 <1>   0.0800 
 29 H        7.4150     1.3510     1.1900 H     1 <1>   0.0800 
 30 H        6.8180     2.9340     0.7930 H     1 <1>   0.0800 
 31 H        7.5300     0.2240    -2.3970 H     1 <1>   0.0800 
 32 H        7.8600    -0.3180    -0.7760 H     1 <1>   0.0800 
 33 H        6.7420     2.3090    -1.5200 H     1 <1>   0.4500 
 34 H        9.0130     2.0970    -2.1290 H     1 <1>   0.0800 
 35 H        9.2910     0.8930     0.5040 H     1 <1>   0.0800 
 36 H        8.0230     4.2630    -0.2510 H     1 <1>   0.0800 
 37 H        8.9620     4.4170    -1.7050 H     1 <1>   0.0800 
 38 H       10.7540     2.8270    -1.0130 H     1 <1>   0.0800 
 39 H        9.3940     2.7520     0.9100 H     1 <1>   0.0800 
 40 H       12.1030     1.3290     0.1230 H     1 <1>   0.0800 
 41 H       11.2100     1.1350     1.6020 H     1 <1>   0.0800 
 42 H       10.8300     4.6950    -0.5460 H     1 <1>   0.0800 
 43 H       12.3780     3.6690     0.6870 H     1 <1>   0.0800 
 44 H       11.2830     3.5230     2.0290 H     1 <1>   0.0800 
@<TRIPOS>BOND
  1   1   2  1   
  2   2   3  ar  
  3   2   4  ar  
  4   3   5  ar  
  5   3  21  1   
  6   4   6  ar  
  7   4  22  1   
  8   5   7  1   
  9   5   8  ar  
 10   6   8  ar  
 11   6  23  1   
 12   7   9  1   
 13   7  10  1   
 14   8  24  1   
 15   9  11  1   
 16   9  25  1   
 17   9  26  1   
 18  10  12  1   
 19  10  27  1   
 20  10  28  1   
 21  11  13  1   
 22  11  29  1   
 23  11  30  1   
 24  12  13  1   
 25  12  31  1   
 26  12  32  1   
 27  13  14  1   
 28  13  33  1   
 29  14  15  1   
 30  14  16  1   
 31  14  34  1   
 32  15  17  1   
 33  15  18  1   
 34  15  35  1   
 35  16  19  1   
 36  16  36  1   
 37  16  37  1   
 38  17  19  1   
 39  17  38  1   
 40  17  39  1   
 41  18  20  1   
 42  18  40  1   
 43  18  41  1   
 44  19  20  1   
 45  19  42  1   
 46  20  43  1   
 47  20  44  1   
@<TRIPOS>SUBSTRUCTURE
  1 ****   9 GROUP 4 **** **** 0

# MOE 2024.06 (io_trps.svl 2023.06)
