@<TRIPOS>MOLECULE
NONAME
31 32 1 0 0 
SMALL
USER_CHARGES


@<TRIPOS>ATOM
  1 S        0.3970    -0.6330    -0.9590 S.3   1 <1>  -0.0800 
  2 C        1.6700     0.4060    -0.3300 C.2   1 <1>  -0.1400 
  3 C       -0.7440     0.6860    -0.9870 C.2   1 <1>  -0.1100 
  4 C        1.2260     1.6770    -0.1890 C.2   1 <1>  -0.1810 
  5 C        2.9620    -0.3390    -0.0370 C.3   1 <1>   0.0200 
  6 C       -0.1620     1.8150    -0.5520 C.2   1 <1>  -0.1500 
  7 C        1.9830     2.8980     0.3480 C.3   1 <1>   0.4010 
  8 C        4.2450     0.4860    -0.1450 C.3   1 <1>  -0.1600 
  9 N        1.4870     4.0960    -0.3450 N.am  1 <1>  -0.7300 
 10 C        3.5020     2.9010     0.1390 C.3   1 <1>  -0.1600 
 11 C        4.2650     1.7240     0.7570 C.3   1 <1>  -0.1600 
 12 C        1.1460     5.2450     0.2650 C.2   1 <1>   0.6900 
 13 O        1.3260     5.3990     1.4560 O.2   1 <1>  -0.5700 
 14 N        0.5970     6.2190    -0.4960 N.am  1 <1>  -0.7300 
 15 C        0.1640     7.5490     0.0010 C.3   1 <1>   0.0600 
 16 H       -1.7430     0.4720    -1.3220 H     1 <1>   0.1500 
 17 H        3.0460    -1.1620    -0.7250 H     1 <1>   0.0800 
 18 H        2.8890    -0.7580     0.9510 H     1 <1>   0.0800 
 19 H       -0.6790     2.7550    -0.4600 H     1 <1>   0.1500 
 20 H        1.7740     2.9840     1.4020 H     1 <1>   0.0800 
 21 H        4.4020     0.7700    -1.1710 H     1 <1>   0.0800 
 22 H        5.0670    -0.1510     0.1350 H     1 <1>   0.0800 
 23 H        1.2270     3.9330    -1.3120 H     1 <1>   0.3700 
 24 H        3.8770     3.8020     0.5930 H     1 <1>   0.0800 
 25 H        3.7170     2.9580    -0.9130 H     1 <1>   0.0800 
 26 H        5.2920     2.0270     0.8730 H     1 <1>   0.0800 
 27 H        3.8860     1.4940     1.7380 H     1 <1>   0.0800 
 28 H        0.5490     6.0740    -1.5020 H     1 <1>   0.3700 
 29 H        0.2510     7.5960     1.0740 H     1 <1>   0.0800 
 30 H       -0.8620     7.7230    -0.2700 H     1 <1>   0.0800 
 31 H        0.7820     8.3180    -0.4300 H     1 <1>   0.0800 
@<TRIPOS>BOND
  1   1   2  1   
  2   1   3  1   
  3   2   4  2   
  4   2   5  1   
  5   3   6  2   
  6   3  16  1   
  7   4   6  1   
  8   4   7  1   
  9   5   8  1   
 10   5  17  1   
 11   5  18  1   
 12   6  19  1   
 13   7   9  1   
 14   7  10  1   
 15   7  20  1   
 16   8  11  1   
 17   8  21  1   
 18   8  22  1   
 19   9  12  am  
 20   9  23  1   
 21  10  11  1   
 22  10  24  1   
 23  10  25  1   
 24  11  26  1   
 25  11  27  1   
 26  12  13  2   
 27  12  14  am  
 28  14  15  1   
 29  14  28  1   
 30  15  29  1   
 31  15  30  1   
 32  15  31  1   
@<TRIPOS>SUBSTRUCTURE
  1 ****   7 GROUP 4 **** **** 0

# MOE 2024.06 (io_trps.svl 2023.06)
