@<TRIPOS>MOLECULE
NONAME
43 45 1 0 0 
SMALL
USER_CHARGES


@<TRIPOS>ATOM
  1 CL       0.5080    -2.6010     0.8170 Cl    1 <1>  -0.1770 
  2 C       -1.1600    -2.1490     0.5780 C.ar  1 <1>   0.1770 
  3 C       -1.9930    -2.9840    -0.1410 C.ar  1 <1>  -0.1500 
  4 C       -1.6210    -0.9620     1.1120 C.ar  1 <1>  -0.1500 
  5 C       -3.3280    -2.6530    -0.3500 C.ar  1 <1>  -0.0090 
  6 C       -2.9450    -0.6160     0.9180 C.ar  1 <1>  -0.1500 
  7 S       -4.3850    -3.7990    -1.2760 S.o2  1 <1>   1.4470 
  8 C       -3.7910    -1.4560     0.2030 C.ar  1 <1>   0.0830 
  9 O       -5.6500    -3.2220    -1.6730 O.2   1 <1>  -0.6500 
 10 O       -3.5770    -4.4530    -2.2820 O.2   1 <1>  -0.6500 
 11 N       -4.7510    -4.9550    -0.1150 N.am  1 <1>  -0.7890 
 12 O       -5.0710    -1.0640     0.0380 O.3   1 <1>  -0.3630 
 13 C       -5.4740    -6.0820    -0.6410 C.3   1 <1>   0.1310 
 14 C       -5.9310    -1.1290     1.1690 C.3   1 <1>   0.1810 
 15 C       -5.5800    -7.2930     0.2200 C.3   1 <1>  -0.2000 
 16 C       -4.7020    -7.3040    -0.9980 C.3   1 <1>  -0.2000 
 17 C       -6.7060    -2.4440     1.1920 C.2   1 <1>   0.5690 
 18 O       -6.1940    -3.3790     1.7660 O.2   1 <1>  -0.5700 
 19 N       -7.9300    -2.5660     0.5860 N.am  1 <1>  -0.6600 
 20 C       -8.8030    -3.7620     0.7980 C.3   1 <1>   0.1400 
 21 C       -8.4440    -1.6280    -0.4630 C.3   1 <1>   0.1400 
 22 C       -9.2280    -4.3830    -0.5420 C.3   1 <1>   0.1200 
 23 C       -8.9170    -2.3900    -1.7140 C.3   1 <1>   0.1200 
 24 O       -9.8050    -3.4130    -1.3650 O.3   1 <1>  -0.5600 
 25 H       -1.5970    -3.9020    -0.5410 H     1 <1>   0.1500 
 26 H       -0.9520    -0.3260     1.6640 H     1 <1>   0.1500 
 27 H       -3.3210     0.3100     1.3160 H     1 <1>   0.1500 
 28 H       -5.3790    -4.4770     0.5450 H     1 <1>   0.4200 
 29 H       -6.3180    -5.8080    -1.2560 H     1 <1>   0.1000 
 30 H       -6.6090    -0.2990     1.1170 H     1 <1>   0.0800 
 31 H       -5.3470    -1.0400     2.0660 H     1 <1>   0.0800 
 32 H       -6.4840    -7.8740     0.1980 H     1 <1>   0.1000 
 33 H       -5.1160    -7.2770     1.1910 H     1 <1>   0.1000 
 34 H       -3.6330    -7.2740    -0.8840 H     1 <1>   0.1000 
 35 H       -5.0130    -7.8740    -1.8550 H     1 <1>   0.1000 
 36 H       -9.6840    -3.4620     1.3380 H     1 <1>   0.0800 
 37 H       -8.2950    -4.5050     1.3860 H     1 <1>   0.0800 
 38 H       -7.6780    -0.9360    -0.7650 H     1 <1>   0.0800 
 39 H       -9.2690    -1.0670    -0.0630 H     1 <1>   0.0800 
 40 H       -9.9600    -5.1540    -0.3790 H     1 <1>   0.0800 
 41 H       -8.3810    -4.8080    -1.0500 H     1 <1>   0.0800 
 42 H       -8.0820    -2.8200    -2.2390 H     1 <1>   0.0800 
 43 H       -9.4320    -1.7220    -2.3820 H     1 <1>   0.0800 
@<TRIPOS>BOND
  1   1   2  1   
  2   2   3  ar  
  3   2   4  ar  
  4   3   5  ar  
  5   3  25  1   
  6   4   6  ar  
  7   4  26  1   
  8   5   7  1   
  9   5   8  ar  
 10   6   8  ar  
 11   6  27  1   
 12   7   9  2   
 13   7  10  2   
 14   7  11  am  
 15   8  12  1   
 16  11  13  1   
 17  11  28  1   
 18  12  14  1   
 19  13  15  1   
 20  13  16  1   
 21  13  29  1   
 22  14  17  1   
 23  14  30  1   
 24  14  31  1   
 25  15  16  1   
 26  15  32  1   
 27  15  33  1   
 28  16  34  1   
 29  16  35  1   
 30  17  18  2   
 31  17  19  am  
 32  19  20  1   
 33  19  21  1   
 34  20  22  1   
 35  20  36  1   
 36  20  37  1   
 37  21  23  1   
 38  21  38  1   
 39  21  39  1   
 40  22  24  1   
 41  22  40  1   
 42  22  41  1   
 43  23  24  1   
 44  23  42  1   
 45  23  43  1   
@<TRIPOS>SUBSTRUCTURE
  1 ****   7 GROUP 4 **** **** 0

# MOE 2024.06 (io_trps.svl 2023.06)
