@<TRIPOS>MOLECULE
NONAME
38 39 1 0 0 
SMALL
USER_CHARGES


@<TRIPOS>ATOM
  1 S       -0.3440     1.3430     0.6620 S.o2  1 <1>   1.4970 
  2 O       -0.3670     2.5520     1.4610 O.2   1 <1>  -0.6500 
  3 O        0.5440     0.2640     1.0490 O.2   1 <1>  -0.6500 
  4 N        0.0440     1.7760    -0.9030 N.2   1 <1>  -0.6380 
  5 C       -2.0340     0.7020     0.4880 C.ar  1 <1>  -0.0090 
  6 C        1.2030     2.2820    -1.0550 C.2   1 <1>   0.4860 
  7 C       -2.2790    -0.6490     0.2830 C.ar  1 <1>  -0.1500 
  8 C       -3.1330     1.5500     0.5260 C.ar  1 <1>  -0.1500 
  9 N        1.6550     2.6610    -2.2780 N.pl3 1 <1>  -0.4710 
 10 C        2.2960     2.5540    -0.1860 C.2   1 <1>  -0.1360 
 11 C       -3.5650    -1.1360     0.1290 C.ar  1 <1>  -0.1500 
 12 C       -4.4200     1.0670     0.3720 C.ar  1 <1>  -0.1500 
 13 O        2.9620     3.0900    -2.2080 O.3   1 <1>  -0.0560 
 14 C        3.3110     3.0210    -0.9340 C.2   1 <1>  -0.0620 
 15 C       -4.6660    -0.2860     0.1700 C.ar  1 <1>  -0.1430 
 16 C        4.7080     3.4580    -0.5450 C.3   1 <1>  -0.1020 
 17 C       -6.1200    -0.7780     0.0010 C.3   1 <1>   0.1440 
 18 C       -6.2240    -2.2980    -0.2110 C.3   1 <1>  -0.2400 
 19 C       -6.9300    -0.4290     1.2590 C.3   1 <1>  -0.2400 
 20 C       -6.7530    -0.0950    -1.2200 C.3   1 <1>  -0.2400 
 21 H       -1.4490    -1.3340     0.2440 H     1 <1>   0.1500 
 22 H       -2.9790     2.6050     0.6790 H     1 <1>   0.1500 
 23 H        1.3300     2.2310    -3.1450 H     1 <1>   0.4000 
 24 H        2.2820     2.3950     0.8760 H     1 <1>   0.1500 
 25 H       -3.6790    -2.1930    -0.0240 H     1 <1>   0.1500 
 26 H       -5.2350     1.7670     0.4110 H     1 <1>   0.1500 
 27 H        5.4360     2.8550    -1.0560 H     1 <1>   0.0800 
 28 H        4.8490     3.3520     0.5160 H     1 <1>   0.0800 
 29 H        4.8560     4.4880    -0.8140 H     1 <1>   0.0800 
 30 H       -5.8160    -2.8260     0.6320 H     1 <1>   0.0800 
 31 H       -5.6950    -2.5930    -1.1000 H     1 <1>   0.0800 
 32 H       -7.2520    -2.5950    -0.3230 H     1 <1>   0.0800 
 33 H       -6.4730    -0.8750     2.1250 H     1 <1>   0.0800 
 34 H       -7.9370    -0.7970     1.1760 H     1 <1>   0.0800 
 35 H       -6.9750     0.6330     1.4100 H     1 <1>   0.0800 
 36 H       -6.1720    -0.3040    -2.1010 H     1 <1>   0.0800 
 37 H       -6.7960     0.9700    -1.0910 H     1 <1>   0.0800 
 38 H       -7.7550    -0.4520    -1.3790 H     1 <1>   0.0800 
@<TRIPOS>BOND
  1   1   2  2   
  2   1   3  2   
  3   1   4  1   
  4   1   5  1   
  5   4   6  2   
  6   5   7  ar  
  7   5   8  ar  
  8   6   9  1   
  9   6  10  1   
 10   7  11  ar  
 11   7  21  1   
 12   8  12  ar  
 13   8  22  1   
 14   9  13  1   
 15   9  23  1   
 16  10  14  2   
 17  10  24  1   
 18  11  15  ar  
 19  11  25  1   
 20  12  15  ar  
 21  12  26  1   
 22  13  14  1   
 23  14  16  1   
 24  15  17  1   
 25  16  27  1   
 26  16  28  1   
 27  16  29  1   
 28  17  18  1   
 29  17  19  1   
 30  17  20  1   
 31  18  30  1   
 32  18  31  1   
 33  18  32  1   
 34  19  33  1   
 35  19  34  1   
 36  19  35  1   
 37  20  36  1   
 38  20  37  1   
 39  20  38  1   
@<TRIPOS>SUBSTRUCTURE
  1 ****   5 GROUP 4 **** **** 0

# MOE 2024.06 (io_trps.svl 2023.06)
