@<TRIPOS>MOLECULE
NONAME
29 29 1 0 0 
SMALL
USER_CHARGES


@<TRIPOS>ATOM
  1 BR      -1.5350     0.6940    -2.6060 Br    1 <1>  -0.1110 
  2 C       -2.7890     1.5070    -1.3940 C.ar  1 <1>   0.1110 
  3 C       -3.7090     2.4080    -1.8930 C.ar  1 <1>  -0.1500 
  4 C       -2.7370     1.1700    -0.0560 C.ar  1 <1>  -0.1500 
  5 C       -4.6090     2.9900    -1.0160 C.ar  1 <1>  -0.1500 
  6 C       -3.6420     1.7590     0.8110 C.ar  1 <1>  -0.1500 
  7 C       -4.5820     2.6660     0.3360 C.ar  1 <1>  -0.1430 
  8 C       -5.5740     3.3050     1.3050 C.3   1 <1>   0.0450 
  9 C       -6.3390     2.2810     2.1330 C.2   1 <1>   0.5690 
 10 O       -6.0570     2.1490     3.2970 O.2   1 <1>  -0.5700 
 11 N       -7.3360     1.5290     1.6060 N.am  1 <1>  -0.7300 
 12 C       -7.8110     1.4610     0.2000 C.3   1 <1>   0.1400 
 13 C       -9.1470     2.1890     0.0600 C.3   1 <1>   0.1200 
 14 O       -9.5150     2.1710    -1.2820 O.3   1 <1>  -0.5600 
 15 C      -10.7330     2.7890    -1.5430 C.3   1 <1>   0.0400 
 16 H       -3.7200     2.6470    -2.9410 H     1 <1>   0.1500 
 17 H       -2.0070     0.4650     0.2990 H     1 <1>   0.1500 
 18 H       -5.3290     3.6950    -1.3950 H     1 <1>   0.1500 
 19 H       -3.6140     1.5060     1.8580 H     1 <1>   0.1500 
 20 H       -6.2810     3.9140     0.7750 H     1 <1>   0.0800 
 21 H       -5.0340     3.9490     1.9740 H     1 <1>   0.0800 
 22 H       -7.7650     0.8660     2.2570 H     1 <1>   0.3700 
 23 H       -7.9310     0.4300    -0.0820 H     1 <1>   0.0800 
 24 H       -7.0910     1.9110    -0.4590 H     1 <1>   0.0800 
 25 H       -9.0500     3.2140     0.3730 H     1 <1>   0.0800 
 26 H       -9.9090     1.6900     0.6340 H     1 <1>   0.0800 
 27 H      -10.9220     2.7230    -2.6000 H     1 <1>   0.0800 
 28 H      -10.6790     3.8230    -1.2490 H     1 <1>   0.0800 
 29 H      -11.5140     2.2810    -1.0040 H     1 <1>   0.0800 
@<TRIPOS>BOND
  1   1   2  1   
  2   2   3  ar  
  3   2   4  ar  
  4   3   5  ar  
  5   3  16  1   
  6   4   6  ar  
  7   4  17  1   
  8   5   7  ar  
  9   5  18  1   
 10   6   7  ar  
 11   6  19  1   
 12   7   8  1   
 13   8   9  1   
 14   8  20  1   
 15   8  21  1   
 16   9  10  2   
 17   9  11  am  
 18  11  12  1   
 19  11  22  1   
 20  12  13  1   
 21  12  23  1   
 22  12  24  1   
 23  13  14  1   
 24  13  25  1   
 25  13  26  1   
 26  14  15  1   
 27  15  27  1   
 28  15  28  1   
 29  15  29  1   
@<TRIPOS>SUBSTRUCTURE
  1 ****   7 GROUP 4 **** **** 0

# MOE 2024.06 (io_trps.svl 2023.06)
