@<TRIPOS>MOLECULE
NONAME
55 57 1 0 0 
SMALL
USER_CHARGES


@<TRIPOS>ATOM
  1 O        0.0930    -0.0900     1.2380 O.2   1 <1>  -0.5700 
  2 C        0.0970     0.8080     0.4200 C.2   1 <1>   0.6900 
  3 N       -1.0400     1.3690    -0.0700 N.am  1 <1>  -0.5470 
  4 N        1.2820     1.2790    -0.0430 N.am  1 <1>  -0.7300 
  5 C       -2.4100     1.1240     0.1390 C.ar  1 <1>   0.1170 
  6 C        2.5810     0.7900     0.4340 C.3   1 <1>   0.2200 
  7 C       -3.3250     2.0370    -0.3980 C.ar  1 <1>   0.0820 
  8 C       -2.8960     0.0250     0.8390 C.ar  1 <1>  -0.1500 
  9 C        3.6300     1.8910     0.3090 C.3   1 <1>  -0.1600 
 10 C        2.9840    -0.4400    -0.3760 C.3   1 <1>  -0.1600 
 11 O       -2.8110     3.1020    -1.0880 O.3   1 <1>  -0.3630 
 12 C       -4.6900     1.8420    -0.2220 C.ar  1 <1>  -0.1500 
 13 C       -4.2550    -0.1660     1.0130 C.ar  1 <1>  -0.1500 
 14 C        4.9970     1.3660     0.7430 C.3   1 <1>   0.3430 
 15 C        4.3510    -0.9430     0.0740 C.3   1 <1>   0.3430 
 16 C       -3.6590     4.0890    -1.6360 C.3   1 <1>   0.0400 
 17 C       -5.1600     0.7460     0.4810 C.ar  1 <1>   0.0820 
 18 N        5.3560     0.1520    -0.0540 N.4   1 <1>  -0.9590 
 19 O       -6.5090     0.6350     0.6050 O.3   1 <1>  -0.3620 
 20 C        6.7260    -0.3310     0.2780 C.3   1 <1>   0.4860 
 21 C       -7.0830    -0.4400     1.3160 C.3   1 <1>   0.0400 
 22 C        7.7200     0.7410    -0.1180 C.ar  1 <1>  -0.1440 
 23 C        8.3380     1.5150     0.8550 C.ar  1 <1>  -0.1500 
 24 C        8.0160     0.9630    -1.4560 C.ar  1 <1>  -0.1500 
 25 C        9.2300     2.5090     0.4920 C.ar  1 <1>  -0.1500 
 26 C        8.9080     1.9570    -1.8170 C.ar  1 <1>  -0.1500 
 27 C        9.5130     2.7310    -0.8440 C.ar  1 <1>  -0.1500 
 28 H       -0.9030     2.1980    -0.6430 H     1 <1>   0.3700 
 29 H        1.2790     1.9470    -0.8110 H     1 <1>   0.3700 
 30 H        2.4850     0.5130     1.4740 H     1 <1>   0.0800 
 31 H       -2.2170    -0.6950     1.2560 H     1 <1>   0.1500 
 32 H        3.3580     2.7160     0.9440 H     1 <1>   0.0800 
 33 H        3.6890     2.2470    -0.7040 H     1 <1>   0.0800 
 34 H        3.0050    -0.2130    -1.4270 H     1 <1>   0.0800 
 35 H        2.2590    -1.2200    -0.2150 H     1 <1>   0.0800 
 36 H       -5.4180     2.5210    -0.6190 H     1 <1>   0.1500 
 37 H       -4.5830    -1.0280     1.5620 H     1 <1>   0.1500 
 38 H        4.9690     1.1190     1.7930 H     1 <1>   0.0800 
 39 H        5.7360     2.1380     0.5970 H     1 <1>   0.0800 
 40 H        4.6380    -1.7870    -0.5330 H     1 <1>   0.0800 
 41 H        4.2900    -1.2680     1.1010 H     1 <1>   0.0800 
 42 H       -3.0460     4.8300    -2.1170 H     1 <1>   0.0800 
 43 H       -4.2250     4.5440    -0.8420 H     1 <1>   0.0800 
 44 H       -4.3100     3.6290    -2.3580 H     1 <1>   0.0800 
 45 H        5.3940     0.4470    -1.0380 H     1 <1>   0.4500 
 46 H        6.9450    -1.2340    -0.2680 H     1 <1>   0.0800 
 47 H        6.8060    -0.5390     1.3320 H     1 <1>   0.0800 
 48 H       -8.1520    -0.3240     1.2910 H     1 <1>   0.0800 
 49 H       -6.7360    -0.4110     2.3340 H     1 <1>   0.0800 
 50 H       -6.8050    -1.3630     0.8390 H     1 <1>   0.0800 
 51 H        8.1400     1.3570     1.9020 H     1 <1>   0.1500 
 52 H        7.5660     0.3680    -2.2340 H     1 <1>   0.1500 
 53 H        9.7100     3.1100     1.2460 H     1 <1>   0.1500 
 54 H        9.1380     2.1310    -2.8550 H     1 <1>   0.1500 
 55 H       10.2090     3.5040    -1.1250 H     1 <1>   0.1500 
@<TRIPOS>BOND
  1   1   2  2   
  2   2   3  am  
  3   2   4  am  
  4   3   5  1   
  5   3  28  1   
  6   4   6  1   
  7   4  29  1   
  8   5   7  ar  
  9   5   8  ar  
 10   6   9  1   
 11   6  10  1   
 12   6  30  1   
 13   7  11  1   
 14   7  12  ar  
 15   8  13  ar  
 16   8  31  1   
 17   9  14  1   
 18   9  32  1   
 19   9  33  1   
 20  10  15  1   
 21  10  34  1   
 22  10  35  1   
 23  11  16  1   
 24  12  17  ar  
 25  12  36  1   
 26  13  17  ar  
 27  13  37  1   
 28  14  18  1   
 29  14  38  1   
 30  14  39  1   
 31  15  18  1   
 32  15  40  1   
 33  15  41  1   
 34  16  42  1   
 35  16  43  1   
 36  16  44  1   
 37  17  19  1   
 38  18  20  1   
 39  18  45  1   
 40  19  21  1   
 41  20  22  1   
 42  20  46  1   
 43  20  47  1   
 44  21  48  1   
 45  21  49  1   
 46  21  50  1   
 47  22  23  ar  
 48  22  24  ar  
 49  23  25  ar  
 50  23  51  1   
 51  24  26  ar  
 52  24  52  1   
 53  25  27  ar  
 54  25  53  1   
 55  26  27  ar  
 56  26  54  1   
 57  27  55  1   
@<TRIPOS>SUBSTRUCTURE
  1 ****   4 GROUP 4 **** **** 0

# MOE 2024.06 (io_trps.svl 2023.06)
