@<TRIPOS>MOLECULE
NONAME
47 50 1 0 0 
SMALL
USER_CHARGES


@<TRIPOS>ATOM
  1 O       -1.3060    -1.8160     2.3660 O.2   1 <1>  -0.5700 
  2 C       -1.8040    -1.7300     1.2730 C.2   1 <1>   0.5690 
  3 N       -1.6130    -2.5600     0.1840 N.am  1 <1>  -0.2370 
  4 C       -2.7530    -0.6560     0.8350 C.3   1 <1>  -0.0190 
  5 C       -0.4110    -3.2410    -0.0830 C.ar  1 <1>   0.1170 
  6 C       -2.5970    -2.3070    -0.7550 C.2   1 <1>   0.5690 
  7 C       -3.7040     0.4180     1.3810 C.3   1 <1>   0.1960 
  8 C       -3.6590    -1.4910    -0.0760 C.3   1 <1>  -0.0190 
  9 C        0.7240    -2.5350    -0.4890 C.ar  1 <1>   0.0830 
 10 C       -0.3520    -4.6190     0.0550 C.ar  1 <1>  -0.1500 
 11 O       -2.6540    -2.7010    -1.8910 O.2   1 <1>  -0.5700 
 12 C       -4.1670     0.8470    -0.0090 C.2   1 <1>  -0.2760 
 13 C       -5.0510    -0.1250     1.8390 C.2   1 <1>  -0.2880 
 14 C       -4.7760    -0.4820    -0.4320 C.3   1 <1>   0.1960 
 15 O        0.6200    -1.1860    -0.6200 O.3   1 <1>  -0.3630 
 16 C        1.8980    -3.2340    -0.7430 C.ar  1 <1>  -0.1500 
 17 C        0.8170    -5.3430    -0.1970 C.ar  1 <1>   0.0860 
 18 C       -4.0640     2.0150    -0.6600 C.2   1 <1>  -0.2760 
 19 C       -5.7010    -0.5970     0.7710 C.2   1 <1>  -0.2880 
 20 C        1.7090    -0.3900    -1.0320 C.3   1 <1>   0.0400 
 21 C        1.9350    -4.6080    -0.5970 C.ar  1 <1>  -0.1500 
 22 C        0.9030    -6.7830    -0.0600 C.2   1 <1>   0.4230 
 23 C       -3.4120     3.2650    -0.0850 C.3   1 <1>  -0.1020 
 24 C       -4.5890     2.2550    -2.0690 C.3   1 <1>  -0.1020 
 25 O        1.9160    -7.4030    -0.2560 O.2   1 <1>  -0.5700 
 26 C       -0.3150    -7.5920     0.3450 C.3   1 <1>  -0.1790 
 27 H       -2.0800    -0.0710     0.2210 H     1 <1>   0.0800 
 28 H       -3.2670     1.1920     1.9860 H     1 <1>   0.0800 
 29 H       -4.1470    -2.2550     0.5090 H     1 <1>   0.0800 
 30 H       -1.2440    -5.1270     0.3670 H     1 <1>   0.1500 
 31 H       -5.3350    -0.0700     2.8750 H     1 <1>   0.1500 
 32 H       -5.2410    -0.5630    -1.3980 H     1 <1>   0.0800 
 33 H        2.7930    -2.7280    -1.0560 H     1 <1>   0.1500 
 34 H       -6.6780    -1.0370     0.6720 H     1 <1>   0.1500 
 35 H        1.3820     0.6340    -1.0620 H     1 <1>   0.0800 
 36 H        2.0200    -0.7020    -2.0130 H     1 <1>   0.0800 
 37 H        2.5090    -0.4960    -0.3200 H     1 <1>   0.0800 
 38 H        2.8550    -5.1320    -0.7990 H     1 <1>   0.1500 
 39 H       -2.5900     3.5710    -0.7080 H     1 <1>   0.0800 
 40 H       -3.0370     3.1050     0.9070 H     1 <1>   0.0800 
 41 H       -4.1290     4.0660    -0.0440 H     1 <1>   0.0800 
 42 H       -3.7830     2.5450    -2.7180 H     1 <1>   0.0800 
 43 H       -5.3230     3.0410    -2.0580 H     1 <1>   0.0800 
 44 H       -5.0490     1.3780    -2.4810 H     1 <1>   0.0800 
 45 H       -1.1060    -7.4490    -0.3660 H     1 <1>   0.0800 
 46 H       -0.6440    -7.2960     1.3240 H     1 <1>   0.0800 
 47 H       -0.0650    -8.6380     0.3720 H     1 <1>   0.0800 
@<TRIPOS>BOND
  1   1   2  2   
  2   2   3  am  
  3   2   4  1   
  4   3   5  1   
  5   3   6  am  
  6   4   7  1   
  7   4   8  1   
  8   4  27  1   
  9   5   9  ar  
 10   5  10  ar  
 11   6   8  1   
 12   6  11  2   
 13   7  12  1   
 14   7  13  1   
 15   7  28  1   
 16   8  14  1   
 17   8  29  1   
 18   9  15  1   
 19   9  16  ar  
 20  10  17  ar  
 21  10  30  1   
 22  12  14  1   
 23  12  18  2   
 24  13  19  2   
 25  13  31  1   
 26  14  19  1   
 27  14  32  1   
 28  15  20  1   
 29  16  21  ar  
 30  16  33  1   
 31  17  21  ar  
 32  17  22  1   
 33  18  23  1   
 34  18  24  1   
 35  19  34  1   
 36  20  35  1   
 37  20  36  1   
 38  20  37  1   
 39  21  38  1   
 40  22  25  2   
 41  22  26  1   
 42  23  39  1   
 43  23  40  1   
 44  23  41  1   
 45  24  42  1   
 46  24  43  1   
 47  24  44  1   
 48  26  45  1   
 49  26  46  1   
 50  26  47  1   
@<TRIPOS>SUBSTRUCTURE
  1 ****   3 GROUP 4 **** **** 0

# MOE 2024.06 (io_trps.svl 2023.06)
