@<TRIPOS>MOLECULE
NONAME
39 42 1 0 0 
SMALL
USER_CHARGES


@<TRIPOS>ATOM
  1 O       -0.2510     0.1130     0.4900 O.2   1 <1>  -0.5700 
  2 C       -1.4140    -0.2210     0.3780 C.2   1 <1>   0.6160 
  3 N       -1.7280    -1.5340     0.3660 N.am  1 <1>  -0.7300 
  4 C       -2.5600     0.6330     0.2760 C.2   1 <1>   0.0290 
  5 C       -3.1850    -1.7080     0.3270 C.3   1 <1>   0.2010 
  6 C       -3.6730    -0.2680     0.2530 C.2   1 <1>   0.4950 
  7 C       -2.3900     2.0040     0.2270 C.2   1 <1>  -0.0500 
  8 O       -4.8650    -0.0800     0.1960 O.2   1 <1>  -0.5700 
  9 N       -3.1790     3.1200     0.1270 N.pl3 1 <1>  -0.8690 
 10 C       -4.6220     3.4090     0.0060 C.3   1 <1>   0.3690 
 11 C       -5.2030     2.8090    -1.2860 C.3   1 <1>  -0.1600 
 12 C       -4.7590     4.9430    -0.0950 C.3   1 <1>  -0.1600 
 13 C       -5.3850     2.9600     1.2630 C.3   1 <1>  -0.1600 
 14 C       -6.6980     3.1660    -1.4010 C.3   1 <1>  -0.0800 
 15 C       -6.2430     5.3490    -0.2240 C.3   1 <1>  -0.0800 
 16 C       -6.8780     3.3150     1.1240 C.3   1 <1>  -0.0800 
 17 C       -6.8390     4.6970    -1.4860 C.3   1 <1>  -0.1600 
 18 C       -7.4410     2.6530    -0.1500 C.3   1 <1>  -0.1600 
 19 C       -7.0160     4.8440     1.0080 C.3   1 <1>  -0.1600 
 20 H       -1.0480    -2.2660     0.5840 H     1 <1>   0.3700 
 21 H       -3.4850    -2.2570    -0.5470 H     1 <1>   0.0800 
 22 H       -3.5420    -2.1840     1.2230 H     1 <1>   0.0800 
 23 H       -1.3490     2.2890     0.2830 H     1 <1>   0.1500 
 24 H       -2.6860     4.0190     0.1250 H     1 <1>   0.4000 
 25 H       -4.6710     3.1970    -2.1350 H     1 <1>   0.0800 
 26 H       -5.0930     1.7480    -1.2980 H     1 <1>   0.0800 
 27 H       -4.3430     5.4040     0.7830 H     1 <1>   0.0800 
 28 H       -4.2200     5.3010    -0.9530 H     1 <1>   0.0800 
 29 H       -4.9750     3.4500     2.1280 H     1 <1>   0.0800 
 30 H       -5.2850     1.9080     1.4150 H     1 <1>   0.0800 
 31 H       -7.1120     2.7100    -2.2840 H     1 <1>   0.0800 
 32 H       -6.3260     6.4200    -0.2940 H     1 <1>   0.0800 
 33 H       -7.4160     2.9630     1.9870 H     1 <1>   0.0800 
 34 H       -6.3290     5.0610    -2.3610 H     1 <1>   0.0800 
 35 H       -7.8780     4.9630    -1.5800 H     1 <1>   0.0800 
 36 H       -7.3330     1.5830    -0.0790 H     1 <1>   0.0800 
 37 H       -8.4910     2.8700    -0.2380 H     1 <1>   0.0800 
 38 H       -8.0560     5.1100     0.9230 H     1 <1>   0.0800 
 39 H       -6.6320     5.3130     1.8980 H     1 <1>   0.0800 
@<TRIPOS>BOND
  1   1   2  2   
  2   2   3  am  
  3   2   4  1   
  4   3   5  1   
  5   3  20  1   
  6   4   6  1   
  7   4   7  2   
  8   5   6  1   
  9   5  21  1   
 10   5  22  1   
 11   6   8  2   
 12   7   9  1   
 13   7  23  1   
 14   9  10  1   
 15   9  24  1   
 16  10  11  1   
 17  10  12  1   
 18  10  13  1   
 19  11  14  1   
 20  11  25  1   
 21  11  26  1   
 22  12  15  1   
 23  12  27  1   
 24  12  28  1   
 25  13  16  1   
 26  13  29  1   
 27  13  30  1   
 28  14  17  1   
 29  14  18  1   
 30  14  31  1   
 31  15  17  1   
 32  15  19  1   
 33  15  32  1   
 34  16  18  1   
 35  16  19  1   
 36  16  33  1   
 37  17  34  1   
 38  17  35  1   
 39  18  36  1   
 40  18  37  1   
 41  19  38  1   
 42  19  39  1   
@<TRIPOS>SUBSTRUCTURE
  1 ****  10 GROUP 4 **** **** 0

# MOE 2024.06 (io_trps.svl 2023.06)
