@<TRIPOS>MOLECULE
NONAME
50 52 1 0 0 
SMALL
USER_CHARGES


@<TRIPOS>ATOM
  1 BR       2.9700     0.6380     3.3590 Br    1 <1>  -0.1110 
  2 C        2.7930     2.0380     2.0490 C.ar  1 <1>   0.1110 
  3 C        3.4950     1.9300     0.8650 C.ar  1 <1>  -0.1500 
  4 C        1.9740     3.1130     2.3280 C.ar  1 <1>  -0.1500 
  5 C        3.3890     2.9400    -0.0810 C.ar  1 <1>  -0.1440 
  6 C        1.8540     4.1140     1.3800 C.ar  1 <1>  -0.1500 
  7 C        2.5530     4.0310     0.1740 C.ar  1 <1>   0.0830 
  8 C        4.1680     2.8170    -1.3910 C.3   1 <1>   0.2540 
  9 O        2.4470     4.9870    -0.7870 O.3   1 <1>  -0.3630 
 10 N        5.5300     3.4000    -1.3230 N.3   1 <1>  -0.8100 
 11 C        1.4030     5.9380    -0.7680 C.3   1 <1>   0.0400 
 12 C        6.3950     2.7630    -0.3110 C.3   1 <1>   0.1100 
 13 C        5.4940     4.8680    -1.1640 C.3   1 <1>   0.1100 
 14 C        7.8240     3.3390    -0.3600 C.3   1 <1>   0.3430 
 15 C        6.9080     5.4740    -1.2180 C.3   1 <1>   0.3430 
 16 N        7.8220     4.8320    -0.2080 N.4   1 <1>  -0.9590 
 17 C        9.1910     5.4060    -0.2600 C.3   1 <1>   0.4860 
 18 C        9.1080     6.8750     0.1020 C.ar  1 <1>  -0.1430 
 19 C        9.2370     7.8450    -0.8810 C.ar  1 <1>  -0.1500 
 20 C        8.8940     7.2640     1.4170 C.ar  1 <1>  -0.1500 
 21 C        9.1380     9.1860    -0.5550 C.ar  1 <1>  -0.1500 
 22 C        8.7950     8.6060     1.7390 C.ar  1 <1>  -0.1500 
 23 C        8.9140     9.5730     0.7550 C.ar  1 <1>  -0.1430 
 24 C        8.8090    11.0450     1.1130 C.3   1 <1>  -0.0970 
 25 H        4.1100     1.0650     0.6940 H     1 <1>   0.1500 
 26 H        1.4430     3.1620     3.2620 H     1 <1>   0.1500 
 27 H        1.2140     4.9470     1.6000 H     1 <1>   0.1500 
 28 H        3.6190     3.2930    -2.1870 H     1 <1>   0.0800 
 29 H        4.2500     1.7770    -1.6550 H     1 <1>   0.0800 
 30 H        1.4410     6.4970    -1.6850 H     1 <1>   0.0800 
 31 H        1.5460     6.6000     0.0670 H     1 <1>   0.0800 
 32 H        0.4620     5.4220    -0.6940 H     1 <1>   0.0800 
 33 H        6.4370     1.7030    -0.4980 H     1 <1>   0.0800 
 34 H        5.9890     2.9140     0.6740 H     1 <1>   0.0800 
 35 H        5.0340     5.1310    -0.2270 H     1 <1>   0.0800 
 36 H        4.9010     5.2980    -1.9530 H     1 <1>   0.0800 
 37 H        8.2630     3.0700    -1.3070 H     1 <1>   0.0800 
 38 H        8.4130     2.8880     0.4220 H     1 <1>   0.0800 
 39 H        6.8430     6.5340    -1.0350 H     1 <1>   0.0800 
 40 H        7.3020     5.3300    -2.2100 H     1 <1>   0.0800 
 41 H        7.4320     5.0630     0.7130 H     1 <1>   0.4500 
 42 H        9.6070     5.2920    -1.2470 H     1 <1>   0.0800 
 43 H        9.8330     4.9030     0.4450 H     1 <1>   0.0800 
 44 H        9.4170     7.5760    -1.9080 H     1 <1>   0.1500 
 45 H        8.8050     6.5370     2.2050 H     1 <1>   0.1500 
 46 H        9.2420     9.9330    -1.3240 H     1 <1>   0.1500 
 47 H        8.6300     8.8990     2.7620 H     1 <1>   0.1500 
 48 H        8.1460    11.1840     1.9480 H     1 <1>   0.0800 
 49 H        8.4280    11.6100     0.2820 H     1 <1>   0.0800 
 50 H        9.7800    11.4260     1.3750 H     1 <1>   0.0800 
@<TRIPOS>BOND
  1   1   2  1   
  2   2   3  ar  
  3   2   4  ar  
  4   3   5  ar  
  5   3  25  1   
  6   4   6  ar  
  7   4  26  1   
  8   5   7  ar  
  9   5   8  1   
 10   6   7  ar  
 11   6  27  1   
 12   7   9  1   
 13   8  10  1   
 14   8  28  1   
 15   8  29  1   
 16   9  11  1   
 17  10  12  1   
 18  10  13  1   
 19  11  30  1   
 20  11  31  1   
 21  11  32  1   
 22  12  14  1   
 23  12  33  1   
 24  12  34  1   
 25  13  15  1   
 26  13  35  1   
 27  13  36  1   
 28  14  16  1   
 29  14  37  1   
 30  14  38  1   
 31  15  16  1   
 32  15  39  1   
 33  15  40  1   
 34  16  17  1   
 35  16  41  1   
 36  17  18  1   
 37  17  42  1   
 38  17  43  1   
 39  18  19  ar  
 40  18  20  ar  
 41  19  21  ar  
 42  19  44  1   
 43  20  22  ar  
 44  20  45  1   
 45  21  23  ar  
 46  21  46  1   
 47  22  23  ar  
 48  22  47  1   
 49  23  24  1   
 50  24  48  1   
 51  24  49  1   
 52  24  50  1   
@<TRIPOS>SUBSTRUCTURE
  1 ****  13 GROUP 4 **** **** 0

# MOE 2024.06 (io_trps.svl 2023.06)
