@<TRIPOS>MOLECULE
NONAME
30 29 1 0 0 
SMALL
USER_CHARGES


@<TRIPOS>ATOM
  1 O       -0.1890    -0.0240     0.6690 O.3   1 <1>  -0.6800 
  2 C       -0.8410     0.3000    -0.5140 C.3   1 <1>   0.1200 
  3 C       -1.7930    -0.8390    -0.9070 C.3   1 <1>  -0.1600 
  4 C       -2.8310    -1.1840     0.1740 C.3   1 <1>   0.4230 
  5 N       -2.1520    -1.8100     1.3120 N.4   1 <1>  -0.8530 
  6 C       -4.0080    -2.0730    -0.3050 C.3   1 <1>  -0.0800 
  7 C       -5.2570    -1.8490     0.5780 C.3   1 <1>  -0.1600 
  8 C       -3.7470    -3.6010    -0.3760 C.3   1 <1>  -0.1600 
  9 C       -5.7670    -0.4010     0.5740 C.3   1 <1>  -0.2400 
 10 C       -2.5840    -4.0390    -1.2740 C.3   1 <1>  -0.2400 
 11 H        0.5490     0.6100     0.8270 H     1 <1>   0.4000 
 12 H       -0.0970     0.4480    -1.2810 H     1 <1>   0.0800 
 13 H       -1.3760     1.2240    -0.3630 H     1 <1>   0.0800 
 14 H       -1.2100    -1.6930    -1.1900 H     1 <1>   0.0800 
 15 H       -2.3180    -0.5180    -1.7900 H     1 <1>   0.0800 
 16 H       -3.2410    -0.2420     0.4990 H     1 <1>   0.0800 
 17 H       -1.9050    -2.7740     1.0830 H     1 <1>   0.4500 
 18 H       -2.7190    -1.7790     2.1610 H     1 <1>   0.4500 
 19 H       -1.2740    -1.2760     1.4530 H     1 <1>   0.4500 
 20 H       -4.2770    -1.7480    -1.2970 H     1 <1>   0.0800 
 21 H       -5.0660    -2.1560     1.5920 H     1 <1>   0.0800 
 22 H       -6.0570    -2.4700     0.2090 H     1 <1>   0.0800 
 23 H       -4.6360    -4.0650    -0.7740 H     1 <1>   0.0800 
 24 H       -3.6110    -4.0140     0.6090 H     1 <1>   0.0800 
 25 H       -5.0950     0.2690     1.0770 H     1 <1>   0.0800 
 26 H       -6.7140    -0.3540     1.0870 H     1 <1>   0.0800 
 27 H       -5.9240    -0.0540    -0.4330 H     1 <1>   0.0800 
 28 H       -2.6430    -3.5600    -2.2370 H     1 <1>   0.0800 
 29 H       -2.6390    -5.1030    -1.4340 H     1 <1>   0.0800 
 30 H       -1.6300    -3.8340    -0.8260 H     1 <1>   0.0800 
@<TRIPOS>BOND
  1   1   2  1   
  2   1  11  1   
  3   2   3  1   
  4   2  12  1   
  5   2  13  1   
  6   3   4  1   
  7   3  14  1   
  8   3  15  1   
  9   4   5  1   
 10   4   6  1   
 11   4  16  1   
 12   5  17  1   
 13   5  18  1   
 14   5  19  1   
 15   6   7  1   
 16   6   8  1   
 17   6  20  1   
 18   7   9  1   
 19   7  21  1   
 20   7  22  1   
 21   8  10  1   
 22   8  23  1   
 23   8  24  1   
 24   9  25  1   
 25   9  26  1   
 26   9  27  1   
 27  10  28  1   
 28  10  29  1   
 29  10  30  1   
@<TRIPOS>SUBSTRUCTURE
  1 ****   4 GROUP 4 **** **** 0

# MOE 2024.06 (io_trps.svl 2023.06)
