@<TRIPOS>MOLECULE
NONAME
47 50 1 0 0 
SMALL
USER_CHARGES


@<TRIPOS>ATOM
  1 O        1.6720     0.9430     2.2460 O.2   1 <1>  -0.5700 
  2 C        1.1310     1.3100     1.2200 C.2   1 <1>   0.5440 
  3 N        1.6540     0.9380     0.0130 N.am  1 <1>  -0.7300 
  4 C       -0.0510     2.1500     1.2760 C.ar  1 <1>   0.0860 
  5 C        2.7960     0.0640    -0.2950 C.3   1 <1>   0.3000 
  6 C       -1.0870     2.0960     0.3270 C.ar  1 <1>   0.0830 
  7 C       -0.1830     3.0790     2.3100 C.ar  1 <1>  -0.1500 
  8 C        4.1060     0.6440     0.2690 C.3   1 <1>  -0.1600 
  9 C        2.9100    -0.0190    -1.8290 C.3   1 <1>  -0.1600 
 10 C        2.5670    -1.3540     0.2620 C.3   1 <1>  -0.1600 
 11 O       -1.0610     1.1920    -0.6780 O.3   1 <1>  -0.3630 
 12 C       -2.1720     2.9690     0.3890 C.ar  1 <1>  -0.1430 
 13 C       -1.2650     3.9320     2.3880 C.ar  1 <1>  -0.1500 
 14 C        5.2920    -0.2630    -0.1140 C.3   1 <1>  -0.0800 
 15 C        4.0890    -0.9260    -2.2320 C.3   1 <1>  -0.0800 
 16 C        3.7490    -2.2670    -0.1210 C.3   1 <1>  -0.0800 
 17 C       -1.4390    -0.1280    -0.3530 C.3   1 <1>   0.0400 
 18 C       -2.2550     3.8820     1.4240 C.ar  1 <1>  -0.1500 
 19 C       -3.2700     2.9300    -0.6660 C.3   1 <1>  -0.0970 
 20 C        5.3920    -0.3460    -1.6490 C.3   1 <1>  -0.1600 
 21 C        5.0510    -1.6750     0.4540 C.3   1 <1>  -0.1600 
 22 C        3.8600    -2.3360    -1.6560 C.3   1 <1>  -0.1600 
 23 H        1.0880     1.1790    -0.8030 H     1 <1>   0.3700 
 24 H        0.5860     3.1280     3.0620 H     1 <1>   0.1500 
 25 H        4.0480     0.7090     1.3410 H     1 <1>   0.0800 
 26 H        4.2630     1.6350    -0.1180 H     1 <1>   0.0800 
 27 H        3.0640     0.9650    -2.2350 H     1 <1>   0.0800 
 28 H        2.0000    -0.4170    -2.2420 H     1 <1>   0.0800 
 29 H        1.6530    -1.7590    -0.1310 H     1 <1>   0.0800 
 30 H        2.4870    -1.3170     1.3340 H     1 <1>   0.0800 
 31 H       -1.3370     4.6400     3.1970 H     1 <1>   0.1500 
 32 H        6.2040     0.1420     0.2900 H     1 <1>   0.0800 
 33 H        4.1610    -0.9770    -3.3050 H     1 <1>   0.0800 
 34 H        3.5900    -3.2540     0.2790 H     1 <1>   0.0800 
 35 H       -1.4050    -0.7200    -1.2500 H     1 <1>   0.0800 
 36 H       -2.4390    -0.1160     0.0440 H     1 <1>   0.0800 
 37 H       -0.7540    -0.5260     0.3760 H     1 <1>   0.0800 
 38 H       -3.0900     4.5580     1.4910 H     1 <1>   0.1500 
 39 H       -3.8270     2.0150    -0.5800 H     1 <1>   0.0800 
 40 H       -2.8360     2.9800    -1.6490 H     1 <1>   0.0800 
 41 H       -3.9470     3.7570    -0.5520 H     1 <1>   0.0800 
 42 H        6.2240    -0.9690    -1.9260 H     1 <1>   0.0800 
 43 H        5.5690     0.6350    -2.0560 H     1 <1>   0.0800 
 44 H        4.9840    -1.6270     1.5280 H     1 <1>   0.0800 
 45 H        5.8810    -2.3140     0.2080 H     1 <1>   0.0800 
 46 H        4.6770    -2.9790    -1.9320 H     1 <1>   0.0800 
 47 H        2.9590    -2.7570    -2.0680 H     1 <1>   0.0800 
@<TRIPOS>BOND
  1   1   2  2   
  2   2   3  am  
  3   2   4  1   
  4   3   5  1   
  5   3  23  1   
  6   4   6  ar  
  7   4   7  ar  
  8   5   8  1   
  9   5   9  1   
 10   5  10  1   
 11   6  11  1   
 12   6  12  ar  
 13   7  13  ar  
 14   7  24  1   
 15   8  14  1   
 16   8  25  1   
 17   8  26  1   
 18   9  15  1   
 19   9  27  1   
 20   9  28  1   
 21  10  16  1   
 22  10  29  1   
 23  10  30  1   
 24  11  17  1   
 25  12  18  ar  
 26  12  19  1   
 27  13  18  ar  
 28  13  31  1   
 29  14  20  1   
 30  14  21  1   
 31  14  32  1   
 32  15  20  1   
 33  15  22  1   
 34  15  33  1   
 35  16  21  1   
 36  16  22  1   
 37  16  34  1   
 38  17  35  1   
 39  17  36  1   
 40  17  37  1   
 41  18  38  1   
 42  19  39  1   
 43  19  40  1   
 44  19  41  1   
 45  20  42  1   
 46  20  43  1   
 47  21  44  1   
 48  21  45  1   
 49  22  46  1   
 50  22  47  1   
@<TRIPOS>SUBSTRUCTURE
  1 ****   3 GROUP 4 **** **** 0

# MOE 2024.06 (io_trps.svl 2023.06)
