@<TRIPOS>MOLECULE
NONAME
47 49 1 0 0 
SMALL
USER_CHARGES


@<TRIPOS>ATOM
  1 S       -0.7510    -0.9170     1.2420 S.3   1 <1>  -0.3320 
  2 C       -2.2270    -1.4080     0.3350 C.ar  1 <1>   0.1020 
  3 C       -0.8460    -1.7220     2.9020 C.3   1 <1>  -0.0100 
  4 C       -2.3390    -0.9590    -0.9670 C.ar  1 <1>  -0.1500 
  5 C       -3.2140    -2.1980     0.8990 C.ar  1 <1>  -0.1500 
  6 C       -3.4520    -1.2980    -1.7160 C.ar  1 <1>  -0.1500 
  7 C       -4.3270    -2.5360     0.1470 C.ar  1 <1>  -0.1500 
  8 C       -4.4530    -2.0840    -1.1610 C.ar  1 <1>  -0.1430 
  9 C       -5.6800    -2.4390    -1.9810 C.3   1 <1>   0.4860 
 10 N       -6.8410    -1.6660    -1.4730 N.4   1 <1>  -0.9590 
 11 C       -8.1460    -2.0240    -2.1160 C.3   1 <1>   0.3430 
 12 C       -6.6380    -0.1780    -1.4550 C.3   1 <1>   0.3430 
 13 C       -9.3220    -1.2780    -1.4410 C.3   1 <1>   0.1100 
 14 C       -7.8330     0.5400    -0.7780 C.3   1 <1>   0.1100 
 15 N       -8.8740    -0.4110    -0.3210 N.3   1 <1>  -0.8100 
 16 C      -10.0020     0.2860     0.3320 C.3   1 <1>   0.2530 
 17 C      -10.9930    -0.7160     0.9020 C.ar  1 <1>  -0.1430 
 18 C      -12.2900    -0.7850     0.4120 C.ar  1 <1>  -0.1500 
 19 C      -10.6060    -1.5760     1.9190 C.ar  1 <1>  -0.1500 
 20 C      -13.1850    -1.7060     0.9300 C.ar  1 <1>  -0.1500 
 21 C      -11.5000    -2.4960     2.4390 C.ar  1 <1>  -0.1500 
 22 C      -12.7900    -2.5620     1.9430 C.ar  1 <1>  -0.1500 
 23 H        0.0450    -1.4560     3.4420 H     1 <1>   0.0800 
 24 H       -0.8970    -2.7850     2.7540 H     1 <1>   0.0800 
 25 H       -1.7200    -1.3490     3.4040 H     1 <1>   0.0800 
 26 H       -1.5550    -0.3510    -1.3840 H     1 <1>   0.1500 
 27 H       -3.1300    -2.5530     1.9090 H     1 <1>   0.1500 
 28 H       -3.5190    -0.9440    -2.7310 H     1 <1>   0.1500 
 29 H       -5.0850    -3.1560     0.5940 H     1 <1>   0.1500 
 30 H       -5.8730    -3.4960    -1.8950 H     1 <1>   0.0800 
 31 H       -5.5050    -2.2060    -3.0180 H     1 <1>   0.0800 
 32 H       -6.9810    -1.8900    -0.4760 H     1 <1>   0.4500 
 33 H       -8.3180    -3.0850    -2.0330 H     1 <1>   0.0800 
 34 H       -8.1240    -1.7750    -3.1630 H     1 <1>   0.0800 
 35 H       -6.5230     0.1930    -2.4600 H     1 <1>   0.0800 
 36 H       -5.7390     0.0640    -0.9120 H     1 <1>   0.0800 
 37 H      -10.0190    -2.0140    -1.0750 H     1 <1>   0.0800 
 38 H       -9.8400    -0.6880    -2.1780 H     1 <1>   0.0800 
 39 H       -8.2590     1.2450    -1.4720 H     1 <1>   0.0800 
 40 H       -7.4660     1.0980     0.0660 H     1 <1>   0.0800 
 41 H      -10.4940     0.9340    -0.3740 H     1 <1>   0.0800 
 42 H       -9.6290     0.8940     1.1390 H     1 <1>   0.0800 
 43 H      -12.6130    -0.1250    -0.3730 H     1 <1>   0.1500 
 44 H       -9.6040    -1.5290     2.3080 H     1 <1>   0.1500 
 45 H      -14.1900    -1.7550     0.5480 H     1 <1>   0.1500 
 46 H      -11.1940    -3.1590     3.2290 H     1 <1>   0.1500 
 47 H      -13.4870    -3.2750     2.3470 H     1 <1>   0.1500 
@<TRIPOS>BOND
  1   1   2  1   
  2   1   3  1   
  3   2   4  ar  
  4   2   5  ar  
  5   3  23  1   
  6   3  24  1   
  7   3  25  1   
  8   4   6  ar  
  9   4  26  1   
 10   5   7  ar  
 11   5  27  1   
 12   6   8  ar  
 13   6  28  1   
 14   7   8  ar  
 15   7  29  1   
 16   8   9  1   
 17   9  10  1   
 18   9  30  1   
 19   9  31  1   
 20  10  11  1   
 21  10  12  1   
 22  10  32  1   
 23  11  13  1   
 24  11  33  1   
 25  11  34  1   
 26  12  14  1   
 27  12  35  1   
 28  12  36  1   
 29  13  15  1   
 30  13  37  1   
 31  13  38  1   
 32  14  15  1   
 33  14  39  1   
 34  14  40  1   
 35  15  16  1   
 36  16  17  1   
 37  16  41  1   
 38  16  42  1   
 39  17  18  ar  
 40  17  19  ar  
 41  18  20  ar  
 42  18  43  1   
 43  19  21  ar  
 44  19  44  1   
 45  20  22  ar  
 46  20  45  1   
 47  21  22  ar  
 48  21  46  1   
 49  22  47  1   
@<TRIPOS>SUBSTRUCTURE
  1 ****  10 GROUP 4 **** **** 0

# MOE 2024.06 (io_trps.svl 2023.06)
