@<TRIPOS>MOLECULE
NONAME
44 46 1 0 0 
SMALL
USER_CHARGES


@<TRIPOS>ATOM
  1 O        0.4660    -0.0420    -0.2190 O.2   1 <1>  -0.5700 
  2 C        0.5020     1.1620    -0.1970 C.2   1 <1>   0.5690 
  3 N        1.6410     1.9260    -0.1830 N.am  1 <1>  -0.2370 
  4 C       -0.7510     2.0290    -0.1930 C.3   1 <1>  -0.0190 
  5 C        2.9620     1.4200    -0.2170 C.ar  1 <1>   0.1170 
  6 C        1.3100     3.2530    -0.1310 C.2   1 <1>   0.5690 
  7 C       -0.1830     3.4530    -0.0640 C.3   1 <1>  -0.0990 
  8 C       -1.7460     1.6900     0.9340 C.3   1 <1>  -0.0160 
  9 C        3.3240     0.4220    -1.1160 C.ar  1 <1>  -0.1500 
 10 C        3.9370     1.9070     0.6480 C.ar  1 <1>  -0.1500 
 11 O        2.0670     4.1890    -0.1270 O.2   1 <1>  -0.5700 
 12 C       -2.7280     0.6100     0.5100 C.ar  1 <1>  -0.1430 
 13 C        4.6150    -0.0730    -1.1500 C.ar  1 <1>  -0.1500 
 14 C        5.2290     1.4140     0.6160 C.ar  1 <1>  -0.1500 
 15 C       -2.4400    -0.7290     0.7150 C.ar  1 <1>  -0.1500 
 16 C       -3.9300     0.9600    -0.0870 C.ar  1 <1>  -0.1500 
 17 C        5.5750     0.4190    -0.2820 C.ar  1 <1>  -0.1430 
 18 C       -3.3350    -1.7120     0.3300 C.ar  1 <1>  -0.1430 
 19 C       -4.8350    -0.0140    -0.4750 C.ar  1 <1>  -0.1430 
 20 C        6.9930    -0.1220    -0.3190 C.3   1 <1>  -0.0970 
 21 C       -4.5330    -1.3490    -0.2620 C.ar  1 <1>  -0.1500 
 22 C       -2.9990    -3.1750     0.5570 C.3   1 <1>  -0.0970 
 23 C       -6.1510     0.3740    -1.1250 C.3   1 <1>  -0.0970 
 24 H       -1.2360     1.9260    -1.1490 H     1 <1>   0.0800 
 25 H       -0.4280     3.9140     0.8760 H     1 <1>   0.0800 
 26 H       -0.5070     4.0830    -0.8730 H     1 <1>   0.0800 
 27 H       -2.3150     2.5660     1.1940 H     1 <1>   0.0800 
 28 H       -1.2160     1.3790     1.8180 H     1 <1>   0.0800 
 29 H        2.5900     0.0240    -1.7940 H     1 <1>   0.1500 
 30 H        3.6880     2.6830     1.3500 H     1 <1>   0.1500 
 31 H        4.8680    -0.8460    -1.8550 H     1 <1>   0.1500 
 32 H        5.9650     1.8100     1.2940 H     1 <1>   0.1500 
 33 H       -1.5080    -1.0130     1.1740 H     1 <1>   0.1500 
 34 H       -4.1670     1.9950    -0.2500 H     1 <1>   0.1500 
 35 H        6.9960    -1.1480    -0.6410 H     1 <1>   0.0800 
 36 H        7.4400    -0.0730     0.6580 H     1 <1>   0.0800 
 37 H        7.5860     0.4590    -1.0030 H     1 <1>   0.0800 
 38 H       -5.2330    -2.1090    -0.5590 H     1 <1>   0.1500 
 39 H       -3.5200    -3.7960    -0.1490 H     1 <1>   0.0800 
 40 H       -3.2850    -3.4630     1.5520 H     1 <1>   0.0800 
 41 H       -1.9430    -3.3360     0.4360 H     1 <1>   0.0800 
 42 H       -6.0600     1.3190    -1.6280 H     1 <1>   0.0800 
 43 H       -6.9170     0.4510    -0.3740 H     1 <1>   0.0800 
 44 H       -6.4450    -0.3680    -1.8460 H     1 <1>   0.0800 
@<TRIPOS>BOND
  1   1   2  2   
  2   2   3  am  
  3   2   4  1   
  4   3   5  1   
  5   3   6  am  
  6   4   7  1   
  7   4   8  1   
  8   4  24  1   
  9   5   9  ar  
 10   5  10  ar  
 11   6   7  1   
 12   6  11  2   
 13   7  25  1   
 14   7  26  1   
 15   8  12  1   
 16   8  27  1   
 17   8  28  1   
 18   9  13  ar  
 19   9  29  1   
 20  10  14  ar  
 21  10  30  1   
 22  12  15  ar  
 23  12  16  ar  
 24  13  17  ar  
 25  13  31  1   
 26  14  17  ar  
 27  14  32  1   
 28  15  18  ar  
 29  15  33  1   
 30  16  19  ar  
 31  16  34  1   
 32  17  20  1   
 33  18  21  ar  
 34  18  22  1   
 35  19  21  ar  
 36  19  23  1   
 37  20  35  1   
 38  20  36  1   
 39  20  37  1   
 40  21  38  1   
 41  22  39  1   
 42  22  40  1   
 43  22  41  1   
 44  23  42  1   
 45  23  43  1   
 46  23  44  1   
@<TRIPOS>SUBSTRUCTURE
  1 ****   2 GROUP 4 **** **** 0

# MOE 2024.06 (io_trps.svl 2023.06)
