@<TRIPOS>MOLECULE
NONAME
58 59 1 0 0 
SMALL
USER_CHARGES


@<TRIPOS>ATOM
  1 O        0.3510     0.2190    -0.6750 O.3   1 <1>  -0.3630 
  2 C        1.4410     0.9350    -0.2840 C.ar  1 <1>   0.0830 
  3 C       -0.8620     0.5500    -0.0370 C.3   1 <1>   0.0400 
  4 C        1.6190     2.2300    -0.7790 C.ar  1 <1>   0.0830 
  5 C        2.3820     0.3940     0.6030 C.ar  1 <1>   0.0830 
  6 O        0.6950     2.7160    -1.6570 O.3   1 <1>  -0.3630 
  7 C        2.7200     2.9800    -0.3720 C.ar  1 <1>  -0.1500 
  8 O        2.3550    -0.8590     1.1390 O.3   1 <1>  -0.3630 
  9 C        3.4590     1.1650     1.0030 C.ar  1 <1>  -0.1500 
 10 C        0.7420     4.0300    -2.1690 C.3   1 <1>   0.0400 
 11 C        3.6420     2.4490     0.5180 C.ar  1 <1>  -0.1430 
 12 C        1.7490    -1.9390     0.4620 C.3   1 <1>   0.0400 
 13 C        4.8510     3.2450     0.9480 C.3   1 <1>   0.4860 
 14 N        5.9660     2.7960     0.0900 N.4   1 <1>  -0.9060 
 15 C        7.2710     3.4090     0.3940 C.3   1 <1>   0.4230 
 16 C        7.2700     4.8850    -0.0150 C.3   1 <1>  -0.1600 
 17 C        8.3470     2.6420    -0.3730 C.3   1 <1>  -0.1600 
 18 C        8.6530     5.5190     0.2000 C.3   1 <1>  -0.1600 
 19 C        9.7330     3.2640    -0.1550 C.3   1 <1>  -0.1600 
 20 C        9.7730     4.7600    -0.5530 C.3   1 <1>  -0.0800 
 21 C       11.1890     5.4150    -0.4060 C.3   1 <1>   0.0000 
 22 C       12.2260     4.6640    -1.2620 C.3   1 <1>  -0.2400 
 23 C       11.1690     6.8700    -0.9130 C.3   1 <1>  -0.2400 
 24 C       11.6990     5.4300     1.0470 C.3   1 <1>  -0.2400 
 25 H       -1.6240    -0.1150    -0.4000 H     1 <1>   0.0800 
 26 H       -1.1210     1.5660    -0.2750 H     1 <1>   0.0800 
 27 H       -0.7400     0.4310     1.0250 H     1 <1>   0.0800 
 28 H        2.8610     3.9770    -0.7460 H     1 <1>   0.1500 
 29 H        4.1490     0.7260     1.7040 H     1 <1>   0.1500 
 30 H       -0.1100     4.1660    -2.8100 H     1 <1>   0.0800 
 31 H        1.6460     4.1530    -2.7380 H     1 <1>   0.0800 
 32 H        0.6950     4.7270    -1.3510 H     1 <1>   0.0800 
 33 H        2.1280    -2.8540     0.8810 H     1 <1>   0.0800 
 34 H        1.9940    -1.8840    -0.5850 H     1 <1>   0.0800 
 35 H        0.6850    -1.8890     0.6060 H     1 <1>   0.0800 
 36 H        5.0690     3.0530     1.9860 H     1 <1>   0.0800 
 37 H        4.6680     4.2990     0.8170 H     1 <1>   0.0800 
 38 H        5.7190     2.9700    -0.8890 H     1 <1>   0.4500 
 39 H        6.0340     1.7770     0.1820 H     1 <1>   0.4500 
 40 H        7.4790     3.3320     1.4500 H     1 <1>   0.0800 
 41 H        6.5570     5.4380     0.5690 H     1 <1>   0.0800 
 42 H        7.0110     4.9790    -1.0560 H     1 <1>   0.0800 
 43 H        8.1300     2.6530    -1.4280 H     1 <1>   0.0800 
 44 H        8.3760     1.6190    -0.0400 H     1 <1>   0.0800 
 45 H        8.8690     5.5370     1.2540 H     1 <1>   0.0800 
 46 H        8.6020     6.5380    -0.1390 H     1 <1>   0.0800 
 47 H       10.4390     2.7040    -0.7410 H     1 <1>   0.0800 
 48 H       10.0090     3.1530     0.8800 H     1 <1>   0.0800 
 49 H        9.5290     4.8080    -1.6010 H     1 <1>   0.0800 
 50 H       13.1650     5.1890    -1.2680 H     1 <1>   0.0800 
 51 H       11.8870     4.5760    -2.2790 H     1 <1>   0.0800 
 52 H       12.4180     3.6800    -0.8760 H     1 <1>   0.0800 
 53 H       10.7650     6.9200    -1.9090 H     1 <1>   0.0800 
 54 H       12.1650     7.2760    -0.9380 H     1 <1>   0.0800 
 55 H       10.5860     7.5040    -0.2710 H     1 <1>   0.0800 
 56 H       11.7920     4.4350     1.4390 H     1 <1>   0.0800 
 57 H       11.0460     5.9940     1.6860 H     1 <1>   0.0800 
 58 H       12.6720     5.8880     1.0920 H     1 <1>   0.0800 
@<TRIPOS>BOND
  1   1   2  1   
  2   1   3  1   
  3   2   4  ar  
  4   2   5  ar  
  5   3  25  1   
  6   3  26  1   
  7   3  27  1   
  8   4   6  1   
  9   4   7  ar  
 10   5   8  1   
 11   5   9  ar  
 12   6  10  1   
 13   7  11  ar  
 14   7  28  1   
 15   8  12  1   
 16   9  11  ar  
 17   9  29  1   
 18  10  30  1   
 19  10  31  1   
 20  10  32  1   
 21  11  13  1   
 22  12  33  1   
 23  12  34  1   
 24  12  35  1   
 25  13  14  1   
 26  13  36  1   
 27  13  37  1   
 28  14  15  1   
 29  14  38  1   
 30  14  39  1   
 31  15  16  1   
 32  15  17  1   
 33  15  40  1   
 34  16  18  1   
 35  16  41  1   
 36  16  42  1   
 37  17  19  1   
 38  17  43  1   
 39  17  44  1   
 40  18  20  1   
 41  18  45  1   
 42  18  46  1   
 43  19  20  1   
 44  19  47  1   
 45  19  48  1   
 46  20  21  1   
 47  20  49  1   
 48  21  22  1   
 49  21  23  1   
 50  21  24  1   
 51  22  50  1   
 52  22  51  1   
 53  22  52  1   
 54  23  53  1   
 55  23  54  1   
 56  23  55  1   
 57  24  56  1   
 58  24  57  1   
 59  24  58  1   
@<TRIPOS>SUBSTRUCTURE
  1 ****  14 GROUP 4 **** **** 0

# MOE 2024.06 (io_trps.svl 2023.06)
