@<TRIPOS>MOLECULE
NONAME
49 51 1 0 0 
SMALL
USER_CHARGES


@<TRIPOS>ATOM
  1 O       -0.3600    -0.9630     1.9000 O.2   1 <1>  -0.5700 
  2 C        0.7270    -1.2230     1.4070 C.2   1 <1>   0.5440 
  3 N        1.5890    -0.1830     1.1240 N.am  1 <1>  -0.6600 
  4 C        1.0580    -2.6020     1.1050 C.ar  1 <1>   0.0860 
  5 C        2.6620    -0.2640     0.0910 C.3   1 <1>   0.1400 
  6 C        1.3660     1.1890     1.6620 C.3   1 <1>   0.1400 
  7 C        0.1650    -3.4200     0.3920 C.ar  1 <1>   0.1170 
  8 C        2.2770    -3.1460     1.5160 C.ar  1 <1>  -0.1500 
  9 C        2.3320     0.6830    -1.0680 C.3   1 <1>  -0.1600 
 10 C        1.0190     2.1430     0.5150 C.3   1 <1>  -0.1600 
 11 N       -1.0840    -2.8970     0.0250 N.am  1 <1>  -0.5470 
 12 C        0.5330    -4.7290     0.0900 C.ar  1 <1>  -0.1500 
 13 C        2.6260    -4.4460     1.2130 C.ar  1 <1>  -0.1500 
 14 C        2.0930     2.1200    -0.5830 C.3   1 <1>  -0.1600 
 15 C       -2.0310    -3.2770    -0.8810 C.2   1 <1>   0.5690 
 16 C        1.7510    -5.2390     0.4920 C.ar  1 <1>  -0.1500 
 17 O       -1.9200    -4.2210    -1.6230 O.2   1 <1>  -0.5700 
 18 C       -3.2930    -2.4460    -0.9420 C.3   1 <1>  -0.0990 
 19 C       -4.2530    -2.8110     0.1940 C.3   1 <1>  -0.0160 
 20 C       -5.4620    -1.8910     0.1760 C.ar  1 <1>  -0.1440 
 21 C       -6.5670    -2.2030    -0.5990 C.ar  1 <1>  -0.1500 
 22 C       -5.4650    -0.7290     0.9310 C.ar  1 <1>  -0.1500 
 23 C       -7.6650    -1.3600    -0.6200 C.ar  1 <1>  -0.1500 
 24 C       -6.5620     0.1150     0.9110 C.ar  1 <1>  -0.1500 
 25 C       -7.6630    -0.2010     0.1350 C.ar  1 <1>  -0.1500 
 26 H        2.7570    -1.2640    -0.2930 H     1 <1>   0.0800 
 27 H        3.6000     0.0170     0.5380 H     1 <1>   0.0800 
 28 H        2.2640     1.5210     2.1540 H     1 <1>   0.0800 
 29 H        0.5720     1.1900     2.3890 H     1 <1>   0.0800 
 30 H        2.9550    -2.5320     2.0820 H     1 <1>   0.1500 
 31 H        1.4520     0.3200    -1.5710 H     1 <1>   0.0800 
 32 H        3.1410     0.6720    -1.7770 H     1 <1>   0.0800 
 33 H        0.9180     3.1420     0.9010 H     1 <1>   0.0800 
 34 H        0.0680     1.8540     0.1020 H     1 <1>   0.0800 
 35 H       -1.3160    -2.0470     0.5580 H     1 <1>   0.3700 
 36 H       -0.1390    -5.3630    -0.4580 H     1 <1>   0.1500 
 37 H        3.5730    -4.8460     1.5350 H     1 <1>   0.1500 
 38 H        1.7830     2.7370    -1.4080 H     1 <1>   0.0800 
 39 H        3.0120     2.5220    -0.1920 H     1 <1>   0.0800 
 40 H        2.0170    -6.2540     0.2490 H     1 <1>   0.1500 
 41 H       -3.7760    -2.6110    -1.8880 H     1 <1>   0.0800 
 42 H       -3.0340    -1.4050    -0.8820 H     1 <1>   0.0800 
 43 H       -3.7520    -2.7250     1.1430 H     1 <1>   0.0800 
 44 H       -4.5700    -3.8350     0.0850 H     1 <1>   0.0800 
 45 H       -6.5770    -3.1020    -1.1910 H     1 <1>   0.1500 
 46 H       -4.6130    -0.4730     1.5380 H     1 <1>   0.1500 
 47 H       -8.5210    -1.6070    -1.2250 H     1 <1>   0.1500 
 48 H       -6.5580     1.0150     1.4990 H     1 <1>   0.1500 
 49 H       -8.5160     0.4540     0.1190 H     1 <1>   0.1500 
@<TRIPOS>BOND
  1   1   2  2   
  2   2   3  am  
  3   2   4  1   
  4   3   5  1   
  5   3   6  1   
  6   4   7  ar  
  7   4   8  ar  
  8   5   9  1   
  9   5  26  1   
 10   5  27  1   
 11   6  10  1   
 12   6  28  1   
 13   6  29  1   
 14   7  11  1   
 15   7  12  ar  
 16   8  13  ar  
 17   8  30  1   
 18   9  14  1   
 19   9  31  1   
 20   9  32  1   
 21  10  14  1   
 22  10  33  1   
 23  10  34  1   
 24  11  15  am  
 25  11  35  1   
 26  12  16  ar  
 27  12  36  1   
 28  13  16  ar  
 29  13  37  1   
 30  14  38  1   
 31  14  39  1   
 32  15  17  2   
 33  15  18  1   
 34  16  40  1   
 35  18  19  1   
 36  18  41  1   
 37  18  42  1   
 38  19  20  1   
 39  19  43  1   
 40  19  44  1   
 41  20  21  ar  
 42  20  22  ar  
 43  21  23  ar  
 44  21  45  1   
 45  22  24  ar  
 46  22  46  1   
 47  23  25  ar  
 48  23  47  1   
 49  24  25  ar  
 50  24  48  1   
 51  25  49  1   
@<TRIPOS>SUBSTRUCTURE
  1 ****  11 GROUP 4 **** **** 0

# MOE 2024.06 (io_trps.svl 2023.06)
