@<TRIPOS>MOLECULE
NONAME
42 43 1 0 0 
SMALL
USER_CHARGES


@<TRIPOS>ATOM
  1 S        0.7970     0.0720    -1.6170 S.o2  1 <1>   1.2120 
  2 O        1.7400    -0.0230    -2.7060 O.2   1 <1>  -0.6500 
  3 O       -0.6290    -0.0030    -1.8360 O.2   1 <1>  -0.6500 
  4 C        1.1730     1.4850    -0.6150 C.2   1 <1>  -0.1670 
  5 C        1.2570    -1.0620    -0.3160 C.3   1 <1>  -0.0550 
  6 C        1.7320     1.2090     0.5600 C.2   1 <1>  -0.2880 
  7 C        1.9470    -0.2760     0.8190 C.3   1 <1>   0.3580 
  8 N        3.3950    -0.6250     0.8920 N.am  1 <1>  -0.4770 
  9 C        4.3410     0.2820     0.3840 C.ar  1 <1>   0.1170 
 10 C        3.7250    -1.8280     1.4780 C.2   1 <1>   0.5690 
 11 C        5.0280     1.1330     1.2420 C.ar  1 <1>  -0.1500 
 12 C        4.6040     0.3520    -0.9780 C.ar  1 <1>  -0.1500 
 13 O        2.8740    -2.5620     1.9240 O.2   1 <1>  -0.5700 
 14 C        5.1760    -2.2820     1.5840 C.3   1 <1>  -0.0990 
 15 C        5.9570     2.0310     0.7500 C.ar  1 <1>  -0.1500 
 16 C        5.5320     1.2510    -1.4710 C.ar  1 <1>  -0.1500 
 17 C        5.7430    -2.8740     0.2780 C.3   1 <1>  -0.0800 
 18 C        6.2160     2.0940    -0.6100 C.ar  1 <1>  -0.1430 
 19 C        4.9600    -4.1160    -0.1690 C.3   1 <1>  -0.2400 
 20 C        7.2220    -3.2330     0.4620 C.3   1 <1>  -0.2400 
 21 C        7.2330     3.0810    -1.1540 C.3   1 <1>  -0.0970 
 22 H        0.9370     2.4500    -1.0180 H     1 <1>   0.1500 
 23 H        1.8880    -1.8440    -0.6900 H     1 <1>   0.0800 
 24 H        0.3670    -1.5090     0.0830 H     1 <1>   0.0800 
 25 H        2.0540     1.8990     1.3210 H     1 <1>   0.1500 
 26 H        1.4810    -0.5320     1.7560 H     1 <1>   0.0800 
 27 H        4.8310     1.0910     2.2970 H     1 <1>   0.1500 
 28 H        4.0860    -0.2990    -1.6580 H     1 <1>   0.1500 
 29 H        5.2370    -3.0240     2.3600 H     1 <1>   0.0800 
 30 H        5.7820    -1.4530     1.8980 H     1 <1>   0.0800 
 31 H        6.4790     2.6830     1.4290 H     1 <1>   0.1500 
 32 H        5.7170     1.2920    -2.5300 H     1 <1>   0.1500 
 33 H        5.6770    -2.1330    -0.5000 H     1 <1>   0.0800 
 34 H        4.9830    -4.8730     0.5950 H     1 <1>   0.0800 
 35 H        5.3880    -4.5230    -1.0680 H     1 <1>   0.0800 
 36 H        3.9340    -3.8680    -0.3720 H     1 <1>   0.0800 
 37 H        7.3410    -3.9780     1.2290 H     1 <1>   0.0800 
 38 H        7.7870    -2.3600     0.7370 H     1 <1>   0.0800 
 39 H        7.6290    -3.6190    -0.4560 H     1 <1>   0.0800 
 40 H        6.7440     4.0050    -1.4050 H     1 <1>   0.0800 
 41 H        7.7040     2.6870    -2.0370 H     1 <1>   0.0800 
 42 H        7.9960     3.2780    -0.4230 H     1 <1>   0.0800 
@<TRIPOS>BOND
  1   1   2  2   
  2   1   3  2   
  3   1   4  1   
  4   1   5  1   
  5   4   6  2   
  6   4  22  1   
  7   5   7  1   
  8   5  23  1   
  9   5  24  1   
 10   6   7  1   
 11   6  25  1   
 12   7   8  1   
 13   7  26  1   
 14   8   9  1   
 15   8  10  am  
 16   9  11  ar  
 17   9  12  ar  
 18  10  13  2   
 19  10  14  1   
 20  11  15  ar  
 21  11  27  1   
 22  12  16  ar  
 23  12  28  1   
 24  14  17  1   
 25  14  29  1   
 26  14  30  1   
 27  15  18  ar  
 28  15  31  1   
 29  16  18  ar  
 30  16  32  1   
 31  17  19  1   
 32  17  20  1   
 33  17  33  1   
 34  18  21  1   
 35  19  34  1   
 36  19  35  1   
 37  19  36  1   
 38  20  37  1   
 39  20  38  1   
 40  20  39  1   
 41  21  40  1   
 42  21  41  1   
 43  21  42  1   
@<TRIPOS>SUBSTRUCTURE
  1 ****   9 GROUP 4 **** **** 0

# MOE 2024.06 (io_trps.svl 2023.06)
