@<TRIPOS>MOLECULE
NONAME
38 40 1 0 0 
SMALL
USER_CHARGES


@<TRIPOS>ATOM
  1 S       -0.3980     0.6750    -0.4730 S.3   1 <1>  -0.0800 
  2 C        1.0360    -0.1810    -0.9320 C.2   1 <1>   0.4420 
  3 C       -1.2780    -0.7900    -0.7530 C.2   1 <1>   0.1980 
  4 N        0.7920    -1.3990    -1.2530 N.2   1 <1>  -0.3380 
  5 N        2.2170     0.5230    -0.9160 N.am  1 <1>  -0.4940 
  6 N       -0.5260    -1.7410    -1.1430 N.2   1 <1>  -0.3380 
  7 C       -2.7830    -0.7650    -0.5130 C.3   1 <1>   0.1000 
  8 C        3.4980     0.1450    -1.1860 C.2   1 <1>   0.6160 
  9 C       -3.1560    -0.5510     0.9540 C.3   1 <1>  -0.1600 
 10 C       -3.5020    -2.0660    -0.8690 C.3   1 <1>  -0.1600 
 11 O        4.2240     1.0320    -1.5760 O.2   1 <1>  -0.5700 
 12 C        4.0330    -1.1770    -1.0130 C.2   1 <1>  -0.1360 
 13 C       -4.5860    -1.0830     1.0950 C.3   1 <1>  -0.1600 
 14 C       -4.8280    -2.0020    -0.1090 C.3   1 <1>  -0.1600 
 15 C        3.5980    -2.1980    -0.2370 C.2   1 <1>  -0.1780 
 16 C        4.1760    -3.5100    -0.0930 C.ar  1 <1>   0.0280 
 17 C        5.5120    -3.7790    -0.3880 C.ar  1 <1>  -0.1500 
 18 C        3.3900    -4.5660     0.3610 C.ar  1 <1>  -0.1500 
 19 C        6.0390    -5.0490    -0.2380 C.ar  1 <1>  -0.1500 
 20 C        3.9100    -5.8380     0.5140 C.ar  1 <1>  -0.1500 
 21 C        5.2380    -6.0830     0.2140 C.ar  1 <1>  -0.1500 
 22 H        2.1270     1.5340    -0.8890 H     1 <1>   0.3700 
 23 H       -3.2130     0.0290    -1.0990 H     1 <1>   0.0800 
 24 H       -2.4990    -1.1360     1.5760 H     1 <1>   0.0800 
 25 H       -3.0830     0.4840     1.2420 H     1 <1>   0.0800 
 26 H       -3.6440    -2.1700    -1.9300 H     1 <1>   0.0800 
 27 H       -2.9310    -2.9050    -0.5080 H     1 <1>   0.0800 
 28 H        4.9190    -1.3140    -1.6010 H     1 <1>   0.1500 
 29 H       -4.7000    -1.6200     2.0220 H     1 <1>   0.0800 
 30 H       -5.2900    -0.2690     1.0780 H     1 <1>   0.0800 
 31 H       -5.5880    -1.5740    -0.7410 H     1 <1>   0.0800 
 32 H       -5.1460    -2.9840     0.1980 H     1 <1>   0.0800 
 33 H        2.7150    -2.0610     0.3610 H     1 <1>   0.1500 
 34 H        6.1530    -2.9890    -0.7320 H     1 <1>   0.1500 
 35 H        2.3540    -4.3900     0.5900 H     1 <1>   0.1500 
 36 H        7.0720    -5.2350    -0.4720 H     1 <1>   0.1500 
 37 H        3.2820    -6.6390     0.8640 H     1 <1>   0.1500 
 38 H        5.6460    -7.0720     0.3310 H     1 <1>   0.1500 
@<TRIPOS>BOND
  1   1   2  1   
  2   1   3  1   
  3   2   4  2   
  4   2   5  1   
  5   3   6  2   
  6   3   7  1   
  7   4   6  1   
  8   5   8  am  
  9   5  22  1   
 10   7   9  1   
 11   7  10  1   
 12   7  23  1   
 13   8  11  2   
 14   8  12  1   
 15   9  13  1   
 16   9  24  1   
 17   9  25  1   
 18  10  14  1   
 19  10  26  1   
 20  10  27  1   
 21  12  15  2   
 22  12  28  1   
 23  13  14  1   
 24  13  29  1   
 25  13  30  1   
 26  14  31  1   
 27  14  32  1   
 28  15  16  1   
 29  15  33  1   
 30  16  17  ar  
 31  16  18  ar  
 32  17  19  ar  
 33  17  34  1   
 34  18  20  ar  
 35  18  35  1   
 36  19  21  ar  
 37  19  36  1   
 38  20  21  ar  
 39  20  37  1   
 40  21  38  1   
@<TRIPOS>SUBSTRUCTURE
  1 ****   4 GROUP 4 **** **** 0

# MOE 2024.06 (io_trps.svl 2023.06)
