@<TRIPOS>MOLECULE
NONAME
30 31 1 0 0 
SMALL
USER_CHARGES


@<TRIPOS>ATOM
  1 I       -0.4010    -0.0810    -0.0400 I     1 <1>  -0.0810 
  2 C        1.5620    -0.8900    -0.0820 C.ar  1 <1>   0.0810 
  3 C        1.8000    -2.0250    -0.8330 C.ar  1 <1>  -0.1500 
  4 C        2.5590    -0.2620     0.6400 C.ar  1 <1>  -0.1500 
  5 C        3.0830    -2.5440    -0.8510 C.ar  1 <1>  -0.1500 
  6 C        3.8340    -0.7970     0.6070 C.ar  1 <1>  -0.1500 
  7 C        4.1260    -1.9510    -0.1310 C.ar  1 <1>   0.0860 
  8 C        5.4610    -2.5220    -0.1590 C.2   1 <1>   0.5440 
  9 O        5.8480    -3.1490    -1.1260 O.2   1 <1>  -0.5700 
 10 N        6.3090    -2.3750     0.9030 N.am  1 <1>  -0.7300 
 11 C        7.6870    -2.9390     0.9800 C.3   1 <1>   0.1400 
 12 C        8.6520    -2.2460     0.0050 C.3   1 <1>   0.2000 
 13 O        9.9560    -2.6280     0.3010 O.3   1 <1>  -0.5600 
 14 C        8.6900    -0.7250     0.0990 C.3   1 <1>  -0.1600 
 15 C       10.8490    -1.7230    -0.2600 C.3   1 <1>   0.1200 
 16 C       10.1110    -0.3870    -0.3250 C.3   1 <1>  -0.1600 
 17 H        1.0070    -2.4920    -1.3900 H     1 <1>   0.1500 
 18 H        2.3430     0.6250     1.2100 H     1 <1>   0.1500 
 19 H        3.2910    -3.4260    -1.4320 H     1 <1>   0.1500 
 20 H        4.6180    -0.3050     1.1550 H     1 <1>   0.1500 
 21 H        5.9580    -1.9580     1.7650 H     1 <1>   0.3700 
 22 H        7.6510    -3.9880     0.7430 H     1 <1>   0.0800 
 23 H        8.0570    -2.8230     1.9830 H     1 <1>   0.0800 
 24 H        8.4450    -2.5580    -1.0050 H     1 <1>   0.0800 
 25 H        8.5230    -0.4180     1.1160 H     1 <1>   0.0800 
 26 H        7.9480    -0.2760    -0.5370 H     1 <1>   0.0800 
 27 H       11.1060    -2.0740    -1.2450 H     1 <1>   0.0800 
 28 H       11.7280    -1.6770     0.3590 H     1 <1>   0.0800 
 29 H       10.5580     0.3330     0.3370 H     1 <1>   0.0800 
 30 H       10.1390    -0.0050    -1.3310 H     1 <1>   0.0800 
@<TRIPOS>BOND
  1   1   2  1   
  2   2   3  ar  
  3   2   4  ar  
  4   3   5  ar  
  5   3  17  1   
  6   4   6  ar  
  7   4  18  1   
  8   5   7  ar  
  9   5  19  1   
 10   6   7  ar  
 11   6  20  1   
 12   7   8  1   
 13   8   9  2   
 14   8  10  am  
 15  10  11  1   
 16  10  21  1   
 17  11  12  1   
 18  11  22  1   
 19  11  23  1   
 20  12  13  1   
 21  12  14  1   
 22  12  24  1   
 23  13  15  1   
 24  14  16  1   
 25  14  25  1   
 26  14  26  1   
 27  15  16  1   
 28  15  27  1   
 29  15  28  1   
 30  16  29  1   
 31  16  30  1   
@<TRIPOS>SUBSTRUCTURE
  1 ****   8 GROUP 4 **** **** 0

# MOE 2024.06 (io_trps.svl 2023.06)
