@<TRIPOS>MOLECULE
NONAME
39 39 1 0 0 
SMALL
USER_CHARGES


@<TRIPOS>ATOM
  1 BR      -2.2230     1.3530     3.6140 Br    1 <1>  -0.1110 
  2 C       -2.6440     1.5380     1.7470 C.ar  1 <1>   0.1110 
  3 C       -3.7480     0.8720     1.2500 C.ar  1 <1>  -0.1500 
  4 C       -1.8360     2.3300     0.9550 C.ar  1 <1>  -0.1500 
  5 C       -4.0640     1.0090    -0.0950 C.ar  1 <1>  -0.1440 
  6 C       -2.1480     2.4530    -0.3870 C.ar  1 <1>  -0.1500 
  7 C       -3.2530     1.7960    -0.9080 C.ar  1 <1>  -0.1500 
  8 C       -5.2800     0.3100    -0.6720 C.3   1 <1>   0.4870 
  9 N       -6.5070     1.0030    -0.1610 N.4   1 <1>  -0.9590 
 10 C       -7.7320     0.1430    -0.3670 C.3   1 <1>   0.3430 
 11 C       -6.5990     2.3720    -0.7550 C.3   1 <1>   0.3430 
 12 C       -9.0310     0.6690     0.3140 C.3   1 <1>   0.3430 
 13 C       -6.9310     3.3650     0.3500 C.3   1 <1>  -0.2400 
 14 N      -10.2220    -0.2570     0.2080 N.4   1 <1>  -0.9590 
 15 C      -10.7180    -0.4500    -1.1980 C.3   1 <1>   0.2630 
 16 C      -11.3550     0.2600     1.0500 C.3   1 <1>   0.2630 
 17 H       -4.3230     0.2600     1.9220 H     1 <1>   0.1500 
 18 H       -0.9830     2.8320     1.3780 H     1 <1>   0.1500 
 19 H       -1.5260     3.0600    -1.0250 H     1 <1>   0.1500 
 20 H       -3.4620     1.9080    -1.9590 H     1 <1>   0.1500 
 21 H       -5.2700    -0.7200    -0.3540 H     1 <1>   0.0800 
 22 H       -5.2480     0.3360    -1.7490 H     1 <1>   0.0800 
 23 H       -6.3080     1.1410     0.8410 H     1 <1>   0.4500 
 24 H       -7.5270    -0.8400     0.0260 H     1 <1>   0.0800 
 25 H       -7.9130     0.0450    -1.4250 H     1 <1>   0.0800 
 26 H       -7.3450     2.4060    -1.5340 H     1 <1>   0.0800 
 27 H       -5.6540     2.6570    -1.1900 H     1 <1>   0.0800 
 28 H       -9.2920     1.6190    -0.1230 H     1 <1>   0.0800 
 29 H       -8.8180     0.8320     1.3580 H     1 <1>   0.0800 
 30 H       -7.8810     3.1680     0.8070 H     1 <1>   0.0800 
 31 H       -6.9710     4.3550    -0.0720 H     1 <1>   0.0800 
 32 H       -6.1580     3.3690     1.1000 H     1 <1>   0.0800 
 33 H       -9.9840    -1.1880     0.5940 H     1 <1>   0.4500 
 34 H      -11.0120     0.4940    -1.6290 H     1 <1>   0.0800 
 35 H      -11.5770    -1.1040    -1.2030 H     1 <1>   0.0800 
 36 H       -9.9560    -0.8930    -1.8180 H     1 <1>   0.0800 
 37 H      -11.6810     1.2250     0.6970 H     1 <1>   0.0800 
 38 H      -11.0500     0.3550     2.0810 H     1 <1>   0.0800 
 39 H      -12.1930    -0.4180     1.0080 H     1 <1>   0.0800 
@<TRIPOS>BOND
  1   1   2  1   
  2   2   3  ar  
  3   2   4  ar  
  4   3   5  ar  
  5   3  17  1   
  6   4   6  ar  
  7   4  18  1   
  8   5   7  ar  
  9   5   8  1   
 10   6   7  ar  
 11   6  19  1   
 12   7  20  1   
 13   8   9  1   
 14   8  21  1   
 15   8  22  1   
 16   9  10  1   
 17   9  11  1   
 18   9  23  1   
 19  10  12  1   
 20  10  24  1   
 21  10  25  1   
 22  11  13  1   
 23  11  26  1   
 24  11  27  1   
 25  12  14  1   
 26  12  28  1   
 27  12  29  1   
 28  13  30  1   
 29  13  31  1   
 30  13  32  1   
 31  14  15  1   
 32  14  16  1   
 33  14  33  1   
 34  15  34  1   
 35  15  35  1   
 36  15  36  1   
 37  16  37  1   
 38  16  38  1   
 39  16  39  1   
@<TRIPOS>SUBSTRUCTURE
  1 ****   9 GROUP 4 **** **** 0

# MOE 2024.06 (io_trps.svl 2023.06)
