@<TRIPOS>MOLECULE
NONAME
56 59 1 0 0 
SMALL
USER_CHARGES


@<TRIPOS>ATOM
  1 N       -0.1320     0.4350     0.4310 N.3   1 <1>  -0.8100 
  2 C       -0.3090     1.8990     0.6380 C.3   1 <1>   0.3700 
  3 C       -1.1030    -0.3060     1.2850 C.3   1 <1>   0.1100 
  4 C        1.2410    -0.0430     0.6590 C.3   1 <1>   0.1100 
  5 C       -1.7610     2.2450     0.3930 C.2   1 <1>  -0.3320 
  6 C        0.5310     2.7750    -0.3170 C.3   1 <1>  -0.1600 
  7 C       -2.5690    -0.0360     0.9000 C.3   1 <1>   0.0960 
  8 C        1.4910    -1.2890    -0.2060 C.3   1 <1>   0.3430 
  9 N       -2.7860     1.3990     0.6750 N.pl3 1 <1>   0.0480 
 10 C       -2.2350     3.3810    -0.1570 C.2   1 <1>  -0.1810 
 11 C        0.1130     4.2650    -0.2450 C.3   1 <1>  -0.1600 
 12 N        2.9020    -1.7970    -0.1270 N.4   1 <1>  -0.9590 
 13 C       -3.9550     2.0210     0.3020 C.ar  1 <1>  -0.1520 
 14 C       -3.6410     3.2750    -0.2160 C.ar  1 <1>   0.0000 
 15 C       -1.3530     4.5030    -0.6620 C.3   1 <1>   0.0210 
 16 C        3.8660    -0.8470    -0.7490 C.3   1 <1>   0.3430 
 17 C        2.9800    -3.1430    -0.7540 C.3   1 <1>   0.3430 
 18 C       -5.2830     1.5910     0.3610 C.ar  1 <1>  -0.1500 
 19 C       -4.6620     4.1130    -0.6730 C.ar  1 <1>  -0.1500 
 20 C        4.7670    -0.2920     0.3450 C.3   1 <1>  -0.2400 
 21 C        4.2620    -3.8420    -0.3140 C.3   1 <1>  -0.2400 
 22 C       -6.2770     2.4270    -0.0940 C.ar  1 <1>  -0.1500 
 23 C       -5.9720     3.6930    -0.6120 C.ar  1 <1>  -0.1430 
 24 C       -7.1030     4.5800    -1.1010 C.3   1 <1>  -0.0970 
 25 H       -0.0690     2.1490     1.6580 H     1 <1>   0.0800 
 26 H       -0.9630    -0.0230     2.3160 H     1 <1>   0.0800 
 27 H       -0.9320    -1.3650     1.2110 H     1 <1>   0.0800 
 28 H        1.3880    -0.2620     1.7030 H     1 <1>   0.0800 
 29 H        1.9450     0.7110     0.3680 H     1 <1>   0.0800 
 30 H        0.3920     2.4230    -1.3240 H     1 <1>   0.0800 
 31 H        1.5710     2.7180    -0.0630 H     1 <1>   0.0800 
 32 H       -3.2300    -0.3750     1.6750 H     1 <1>   0.0800 
 33 H       -2.8050    -0.5540    -0.0110 H     1 <1>   0.0800 
 34 H        1.2520    -1.0450    -1.2290 H     1 <1>   0.0800 
 35 H        0.8140    -2.0620     0.1170 H     1 <1>   0.0800 
 36 H        0.7570     4.8580    -0.8700 H     1 <1>   0.0800 
 37 H        0.2360     4.6060     0.7690 H     1 <1>   0.0800 
 38 H        3.1580    -1.9050     0.8630 H     1 <1>   0.4500 
 39 H       -1.7000     5.4450    -0.2760 H     1 <1>   0.0800 
 40 H       -1.4240     4.5280    -1.7350 H     1 <1>   0.0800 
 41 H        3.3400    -0.0410    -1.2380 H     1 <1>   0.0800 
 42 H        4.4680    -1.3510    -1.4880 H     1 <1>   0.0800 
 43 H        2.9520    -3.0580    -1.8290 H     1 <1>   0.0800 
 44 H        2.1370    -3.7400    -0.4420 H     1 <1>   0.0800 
 45 H       -5.5170     0.6210     0.7580 H     1 <1>   0.1500 
 46 H       -4.3970     5.0750    -1.0680 H     1 <1>   0.1500 
 47 H        4.2010     0.2400     1.0880 H     1 <1>   0.0800 
 48 H        5.4680     0.3980    -0.0920 H     1 <1>   0.0800 
 49 H        5.3300    -1.0800     0.8130 H     1 <1>   0.0800 
 50 H        5.1360    -3.3270    -0.6690 H     1 <1>   0.0800 
 51 H        4.2790    -4.8360    -0.7270 H     1 <1>   0.0800 
 52 H        4.3020    -3.9310     0.7570 H     1 <1>   0.0800 
 53 H       -7.3040     2.1100    -0.0530 H     1 <1>   0.1500 
 54 H       -6.7230     5.5150    -1.4680 H     1 <1>   0.0800 
 55 H       -7.7850     4.7790    -0.2940 H     1 <1>   0.0800 
 56 H       -7.6340     4.0880    -1.8950 H     1 <1>   0.0800 
@<TRIPOS>BOND
  1   1   2  1   
  2   1   3  1   
  3   1   4  1   
  4   2   5  1   
  5   2   6  1   
  6   2  25  1   
  7   3   7  1   
  8   3  26  1   
  9   3  27  1   
 10   4   8  1   
 11   4  28  1   
 12   4  29  1   
 13   5   9  1   
 14   5  10  2   
 15   6  11  1   
 16   6  30  1   
 17   6  31  1   
 18   7   9  1   
 19   7  32  1   
 20   7  33  1   
 21   8  12  1   
 22   8  34  1   
 23   8  35  1   
 24   9  13  1   
 25  10  14  1   
 26  10  15  1   
 27  11  15  1   
 28  11  36  1   
 29  11  37  1   
 30  12  16  1   
 31  12  17  1   
 32  12  38  1   
 33  13  14  ar  
 34  13  18  ar  
 35  14  19  ar  
 36  15  39  1   
 37  15  40  1   
 38  16  20  1   
 39  16  41  1   
 40  16  42  1   
 41  17  21  1   
 42  17  43  1   
 43  17  44  1   
 44  18  22  ar  
 45  18  45  1   
 46  19  23  ar  
 47  19  46  1   
 48  20  47  1   
 49  20  48  1   
 50  20  49  1   
 51  21  50  1   
 52  21  51  1   
 53  21  52  1   
 54  22  23  ar  
 55  22  53  1   
 56  23  24  1   
 57  24  54  1   
 58  24  55  1   
 59  24  56  1   
@<TRIPOS>SUBSTRUCTURE
  1 ****   2 GROUP 4 **** **** 0

# MOE 2024.06 (io_trps.svl 2023.06)
