@<TRIPOS>MOLECULE
NONAME
32 32 1 0 0 
SMALL
USER_CHARGES


@<TRIPOS>ATOM
  1 O       -0.6820     2.5600    -1.9620 O.2   1 <1>  -0.5700 
  2 C       -1.0640     2.8130    -0.8480 C.2   1 <1>   0.4230 
  3 C       -2.4710     2.9310    -0.5080 C.ar  1 <1>   0.0860 
  4 C        0.0290     3.0360     0.1990 C.3   1 <1>  -0.0190 
  5 C       -3.4250     2.9960    -1.5270 C.ar  1 <1>  -0.1500 
  6 C       -2.9510     2.9860     0.8070 C.ar  1 <1>  -0.1500 
  7 C        1.2440     3.6490    -0.5230 C.3   1 <1>   0.3430 
  8 C        0.3550     1.7150     0.9280 C.3   1 <1>  -0.2400 
  9 C       -4.7750     3.1210    -1.2580 C.ar  1 <1>  -0.1500 
 10 C       -4.3000     3.1120     1.0820 C.ar  1 <1>  -0.1500 
 11 N        2.4030     3.9170     0.3910 N.4   1 <1>  -0.9590 
 12 C       -5.2160     3.1820     0.0500 C.ar  1 <1>  -0.1500 
 13 C        3.0490     5.2210     0.0460 C.3   1 <1>   0.2630 
 14 C        3.4110     2.8120     0.3130 C.3   1 <1>   0.2630 
 15 H       -0.3240     3.7620     0.9080 H     1 <1>   0.0800 
 16 H       -3.1030     2.9470    -2.5540 H     1 <1>   0.1500 
 17 H       -2.2800     2.9250     1.6420 H     1 <1>   0.1500 
 18 H        0.9240     4.5710    -0.9830 H     1 <1>   0.0800 
 19 H        1.5520     2.9900    -1.3200 H     1 <1>   0.0800 
 20 H        0.7770     1.0020     0.2390 H     1 <1>   0.0800 
 21 H        1.0410     1.8710     1.7400 H     1 <1>   0.0800 
 22 H       -0.5420     1.2800     1.3370 H     1 <1>   0.0800 
 23 H       -5.4840     3.1700    -2.0670 H     1 <1>   0.1500 
 24 H       -4.6450     3.1530     2.1020 H     1 <1>   0.1500 
 25 H        2.0480     3.9750     1.3570 H     1 <1>   0.4500 
 26 H       -6.2680     3.2800     0.2630 H     1 <1>   0.1500 
 27 H        3.4260     5.1970    -0.9640 H     1 <1>   0.0800 
 28 H        3.8700     5.4220     0.7150 H     1 <1>   0.0800 
 29 H        2.3360     6.0260     0.1270 H     1 <1>   0.0800 
 30 H        3.8040     2.7340    -0.6880 H     1 <1>   0.0800 
 31 H        2.9600     1.8690     0.5760 H     1 <1>   0.0800 
 32 H        4.2280     3.0010     0.9900 H     1 <1>   0.0800 
@<TRIPOS>BOND
  1   1   2  2   
  2   2   3  1   
  3   2   4  1   
  4   3   5  ar  
  5   3   6  ar  
  6   4   7  1   
  7   4   8  1   
  8   4  15  1   
  9   5   9  ar  
 10   5  16  1   
 11   6  10  ar  
 12   6  17  1   
 13   7  11  1   
 14   7  18  1   
 15   7  19  1   
 16   8  20  1   
 17   8  21  1   
 18   8  22  1   
 19   9  12  ar  
 20   9  23  1   
 21  10  12  ar  
 22  10  24  1   
 23  11  13  1   
 24  11  14  1   
 25  11  25  1   
 26  12  26  1   
 27  13  27  1   
 28  13  28  1   
 29  13  29  1   
 30  14  30  1   
 31  14  31  1   
 32  14  32  1   
@<TRIPOS>SUBSTRUCTURE
  1 ****   2 GROUP 4 **** **** 0

# MOE 2024.06 (io_trps.svl 2023.06)
