@<TRIPOS>MOLECULE
NONAME
34 35 1 0 0 
SMALL
USER_CHARGES


@<TRIPOS>ATOM
  1 O       -6.1800     0.8410    -0.3940 O.3   1 <1>  -0.3630 
  2 C       -7.4150     0.3280    -0.1570 C.ar  1 <1>   0.0830 
  3 C       -5.0790     0.1690     0.1900 C.3   1 <1>   0.2000 
  4 C       -7.5690    -0.9670     0.3420 C.ar  1 <1>   0.0820 
  5 C       -8.5280     1.1090    -0.4120 C.ar  1 <1>  -0.1500 
  6 C       -3.7850     0.7380    -0.4460 C.3   1 <1>   0.4230 
  7 C       -5.2670    -1.3490     0.0030 C.3   1 <1>   0.1200 
  8 O       -6.4890    -1.7560     0.5750 O.3   1 <1>  -0.3630 
  9 C       -8.8340    -1.4630     0.6010 C.ar  1 <1>  -0.1500 
 10 C       -9.7940     0.6060    -0.1570 C.ar  1 <1>  -0.1500 
 11 N       -2.5420     0.0960     0.0580 N.4   1 <1>  -0.9060 
 12 C       -3.6290     2.2320    -0.1640 C.3   1 <1>  -0.2400 
 13 C       -9.9460    -0.6750     0.3510 C.ar  1 <1>  -0.1500 
 14 C       -2.0450    -1.0200    -0.7630 C.3   1 <1>   0.4810 
 15 C       -0.9480    -1.6550     0.0490 C.2   1 <1>  -0.2880 
 16 C       -1.0340    -2.8370     0.6700 C.2   1 <1>  -0.3000 
 17 H       -5.0950     0.4000     1.2410 H     1 <1>   0.0800 
 18 H       -8.4070     2.1030    -0.8030 H     1 <1>   0.1500 
 19 H       -3.8470     0.5990    -1.5140 H     1 <1>   0.0800 
 20 H       -4.4910    -1.9070     0.4940 H     1 <1>   0.0800 
 21 H       -5.2920    -1.6070    -1.0410 H     1 <1>   0.0800 
 22 H       -8.9460    -2.4580     0.9920 H     1 <1>   0.1500 
 23 H      -10.6630     1.2120    -0.3530 H     1 <1>   0.1500 
 24 H       -2.6550    -0.2390     1.0220 H     1 <1>   0.4500 
 25 H       -1.8010     0.8040     0.0990 H     1 <1>   0.4500 
 26 H       -3.5860     2.4270     0.8940 H     1 <1>   0.0800 
 27 H       -4.4730     2.7680    -0.5610 H     1 <1>   0.0800 
 28 H       -2.7490     2.6260    -0.6410 H     1 <1>   0.0800 
 29 H      -10.9320    -1.0610     0.5500 H     1 <1>   0.1500 
 30 H       -1.6680    -0.6720    -1.7130 H     1 <1>   0.0800 
 31 H       -2.8270    -1.7410    -0.9380 H     1 <1>   0.0800 
 32 H       -0.0490    -1.0600     0.0860 H     1 <1>   0.1500 
 33 H       -0.2290    -3.2710     1.2420 H     1 <1>   0.1500 
 34 H       -1.8970    -3.4840     0.6670 H     1 <1>   0.1500 
@<TRIPOS>BOND
  1   1   2  1   
  2   1   3  1   
  3   2   4  ar  
  4   2   5  ar  
  5   3   6  1   
  6   3   7  1   
  7   3  17  1   
  8   4   8  1   
  9   4   9  ar  
 10   5  10  ar  
 11   5  18  1   
 12   6  11  1   
 13   6  12  1   
 14   6  19  1   
 15   7   8  1   
 16   7  20  1   
 17   7  21  1   
 18   9  13  ar  
 19   9  22  1   
 20  10  13  ar  
 21  10  23  1   
 22  11  14  1   
 23  11  24  1   
 24  11  25  1   
 25  12  26  1   
 26  12  27  1   
 27  12  28  1   
 28  13  29  1   
 29  14  15  1   
 30  14  30  1   
 31  14  31  1   
 32  15  16  2   
 33  15  32  1   
 34  16  33  1   
 35  16  34  1   
@<TRIPOS>SUBSTRUCTURE
  1 ****   3 GROUP 4 **** **** 0

# MOE 2024.06 (io_trps.svl 2023.06)
