@<TRIPOS>MOLECULE
NONAME
34 34 1 0 0 
SMALL
USER_CHARGES


@<TRIPOS>ATOM
  1 O        0.0790     0.5950     0.1850 O.3   1 <1>  -0.3630 
  2 C        1.4070     0.5210    -0.0730 C.ar  1 <1>   0.0830 
  3 C       -0.8540     0.8910    -0.8310 C.3   1 <1>   0.0400 
  4 C        1.9680     0.7230    -1.3280 C.ar  1 <1>  -0.1500 
  5 C        2.2360     0.2250     0.9930 C.ar  1 <1>  -0.1500 
  6 C        3.3380     0.6280    -1.5030 C.ar  1 <1>  -0.1500 
  7 C        3.6040     0.1300     0.8160 C.ar  1 <1>  -0.1500 
  8 C        4.1840     0.3300    -0.4350 C.ar  1 <1>  -0.1430 
  9 C        5.7190     0.2150    -0.5880 C.3   1 <1>   0.3430 
 10 C        6.1790     0.4580    -2.0000 C.1   1 <1>   0.3570 
 11 C        6.1810    -1.2060    -0.1750 C.3   1 <1>  -0.1600 
 12 C        6.4150     1.2540     0.3270 C.3   1 <1>  -0.1600 
 13 N        6.5310     0.6420    -3.0660 N.1   1 <1>  -0.5570 
 14 C        5.4960    -2.3510    -0.9530 C.3   1 <1>   0.0400 
 15 C        5.9790     2.7150     0.0790 C.3   1 <1>   0.0400 
 16 C        5.9970    -3.6740    -0.4880 C.1   1 <1>   0.3570 
 17 C        6.6940     3.6400     1.0020 C.1   1 <1>   0.3570 
 18 N        6.3960    -4.6700    -0.1130 N.1   1 <1>  -0.5570 
 19 N        7.2530     4.3220     1.7190 N.1   1 <1>  -0.5570 
 20 H       -1.8360     0.8950    -0.3920 H     1 <1>   0.0800 
 21 H       -0.7970     0.1310    -1.5900 H     1 <1>   0.0800 
 22 H       -0.6320     1.8620    -1.2380 H     1 <1>   0.0800 
 23 H        1.3540     0.9550    -2.1780 H     1 <1>   0.1500 
 24 H        1.7970     0.0690     1.9630 H     1 <1>   0.1500 
 25 H        3.7120     0.7960    -2.5000 H     1 <1>   0.1500 
 26 H        4.2030    -0.1030     1.6790 H     1 <1>   0.1500 
 27 H        5.9950    -1.3540     0.8750 H     1 <1>   0.0800 
 28 H        7.2470    -1.2840    -0.3160 H     1 <1>   0.0800 
 29 H        7.4820     1.1860     0.1880 H     1 <1>   0.0800 
 30 H        6.2210     1.0150     1.3570 H     1 <1>   0.0800 
 31 H        5.6940    -2.2710    -2.0070 H     1 <1>   0.0800 
 32 H        4.4310    -2.3290    -0.8060 H     1 <1>   0.0800 
 33 H        4.9230     2.8320     0.2450 H     1 <1>   0.0800 
 34 H        6.1980     3.0160    -0.9300 H     1 <1>   0.0800 
@<TRIPOS>BOND
  1   1   2  1   
  2   1   3  1   
  3   2   4  ar  
  4   2   5  ar  
  5   3  20  1   
  6   3  21  1   
  7   3  22  1   
  8   4   6  ar  
  9   4  23  1   
 10   5   7  ar  
 11   5  24  1   
 12   6   8  ar  
 13   6  25  1   
 14   7   8  ar  
 15   7  26  1   
 16   8   9  1   
 17   9  10  1   
 18   9  11  1   
 19   9  12  1   
 20  10  13  3   
 21  11  14  1   
 22  11  27  1   
 23  11  28  1   
 24  12  15  1   
 25  12  29  1   
 26  12  30  1   
 27  14  16  1   
 28  14  31  1   
 29  14  32  1   
 30  15  17  1   
 31  15  33  1   
 32  15  34  1   
 33  16  18  3   
 34  17  19  3   
@<TRIPOS>SUBSTRUCTURE
  1 ****   8 GROUP 4 **** **** 0

# MOE 2024.06 (io_trps.svl 2023.06)
