@<TRIPOS>MOLECULE
NONAME
36 37 1 0 0 
SMALL
USER_CHARGES


@<TRIPOS>ATOM
  1 N        0.6720    -0.1320    -0.2400 N.ar  1 <1>  -0.6200 
  2 C        1.0880     1.0690     0.1340 C.ar  1 <1>   0.1660 
  3 C       -0.4330    -0.1550    -0.9730 C.ar  1 <1>   0.1600 
  4 C        0.4410     2.2510    -0.1980 C.ar  1 <1>  -0.1500 
  5 C        2.3530     1.1170     0.9760 C.3   1 <1>  -0.0160 
  6 C       -1.1460     0.9670    -1.3550 C.ar  1 <1>  -0.1500 
  7 C       -0.7050     2.2110    -0.9620 C.ar  1 <1>  -0.1500 
  8 C        3.4740     0.2870     0.3370 C.3   1 <1>   0.3430 
  9 N        3.8010    -0.9720     1.0950 N.4   1 <1>  -0.9590 
 10 C        5.0250    -1.6840     0.6120 C.3   1 <1>   0.4230 
 11 C        2.6340    -1.9140     1.1040 C.3   1 <1>   0.2630 
 12 C        6.2810    -0.8500     0.8610 C.3   1 <1>  -0.1600 
 13 C        5.0290    -1.9350    -0.8980 C.3   1 <1>  -0.1600 
 14 C        6.6230    -0.1200    -0.4450 C.3   1 <1>  -0.1600 
 15 C        5.7920    -0.7770    -1.5520 C.3   1 <1>  -0.1600 
 16 H       -0.7940    -1.1200    -1.2880 H     1 <1>   0.1500 
 17 H        0.8180     3.2010     0.1340 H     1 <1>   0.1500 
 18 H        2.1350     0.7830     1.9730 H     1 <1>   0.0800 
 19 H        2.6870     2.1360     1.0390 H     1 <1>   0.0800 
 20 H       -2.0350     0.8660    -1.9520 H     1 <1>   0.1500 
 21 H       -1.2330     3.1080    -1.2380 H     1 <1>   0.1500 
 22 H        4.3550     0.9030     0.2860 H     1 <1>   0.0800 
 23 H        3.1920     0.0390    -0.6740 H     1 <1>   0.0800 
 24 H        3.9890    -0.7060     2.0690 H     1 <1>   0.4500 
 25 H        5.1100    -2.6230     1.1370 H     1 <1>   0.0800 
 26 H        2.3550    -2.1720     0.0950 H     1 <1>   0.0800 
 27 H        1.7820    -1.4540     1.5760 H     1 <1>   0.0800 
 28 H        2.8780    -2.8170     1.6390 H     1 <1>   0.0800 
 29 H        7.0870    -1.5300     1.0790 H     1 <1>   0.0800 
 30 H        6.1820    -0.1760     1.6940 H     1 <1>   0.0800 
 31 H        4.0470    -2.0650    -1.3170 H     1 <1>   0.0800 
 32 H        5.5860    -2.8390    -1.0770 H     1 <1>   0.0800 
 33 H        7.6760    -0.2090    -0.6580 H     1 <1>   0.0800 
 34 H        6.3860     0.9280    -0.3730 H     1 <1>   0.0800 
 35 H        5.1050    -0.0620    -1.9720 H     1 <1>   0.0800 
 36 H        6.4240    -1.1380    -2.3470 H     1 <1>   0.0800 
@<TRIPOS>BOND
  1   1   2  ar  
  2   1   3  ar  
  3   2   4  ar  
  4   2   5  1   
  5   3   6  ar  
  6   3  16  1   
  7   4   7  ar  
  8   4  17  1   
  9   5   8  1   
 10   5  18  1   
 11   5  19  1   
 12   6   7  ar  
 13   6  20  1   
 14   7  21  1   
 15   8   9  1   
 16   8  22  1   
 17   8  23  1   
 18   9  10  1   
 19   9  11  1   
 20   9  24  1   
 21  10  12  1   
 22  10  13  1   
 23  10  25  1   
 24  11  26  1   
 25  11  27  1   
 26  11  28  1   
 27  12  14  1   
 28  12  29  1   
 29  12  30  1   
 30  13  15  1   
 31  13  31  1   
 32  13  32  1   
 33  14  15  1   
 34  14  33  1   
 35  14  34  1   
 36  15  35  1   
 37  15  36  1   
@<TRIPOS>SUBSTRUCTURE
  1 ****   8 GROUP 4 **** **** 0

# MOE 2024.06 (io_trps.svl 2023.06)
