@<TRIPOS>MOLECULE
NONAME
37 38 1 0 0 
SMALL
USER_CHARGES


@<TRIPOS>ATOM
  1 CL      -3.5530     3.1690     2.6480 Cl    1 <1>  -0.1770 
  2 C       -2.1860     3.2520     1.5580 C.ar  1 <1>   0.1770 
  3 C       -2.3230     2.8450     0.2310 C.ar  1 <1>   0.0830 
  4 C       -0.9860     3.7260     2.0520 C.ar  1 <1>  -0.1500 
  5 O       -3.5400     2.3920    -0.1710 O.3   1 <1>  -0.3630 
  6 C       -1.2180     2.9200    -0.6200 C.ar  1 <1>  -0.1500 
  7 C        0.0860     3.7860     1.1840 C.ar  1 <1>   0.1900 
  8 C       -3.7700     1.9300    -1.4970 C.3   1 <1>   0.1810 
  9 C       -0.0060     3.3940    -0.1400 C.ar  1 <1>  -0.1500 
 10 F        1.2310     4.2310     1.6290 F     1 <1>  -0.1900 
 11 C       -5.2090     1.4660    -1.6900 C.2   1 <1>   0.5690 
 12 O       -5.5540     1.1160    -2.7940 O.2   1 <1>  -0.5700 
 13 N       -6.0640     1.4570    -0.6360 N.am  1 <1>  -0.7300 
 14 C       -7.4900     1.0900    -0.6620 C.3   1 <1>   0.2200 
 15 C       -8.3210     2.2960    -0.1580 C.3   1 <1>   0.2000 
 16 C       -7.6380    -0.1810     0.1800 C.3   1 <1>  -0.2400 
 17 O       -7.9640     2.6460     1.1460 O.3   1 <1>  -0.5600 
 18 C       -9.8330     2.1140    -0.1020 C.3   1 <1>  -0.1600 
 19 C       -8.9910     3.3510     1.7710 C.3   1 <1>   0.1200 
 20 C      -10.2420     3.1630     0.9150 C.3   1 <1>  -0.1600 
 21 H       -0.8890     4.0360     3.0750 H     1 <1>   0.1500 
 22 H       -1.2770     2.6190    -1.6490 H     1 <1>   0.1500 
 23 H       -3.1070     1.1070    -1.6900 H     1 <1>   0.0800 
 24 H       -3.5680     2.7360    -2.1780 H     1 <1>   0.0800 
 25 H        0.8580     3.4590    -0.7780 H     1 <1>   0.1500 
 26 H       -5.7520     1.8380     0.2650 H     1 <1>   0.3700 
 27 H       -7.7800     0.8730    -1.6760 H     1 <1>   0.0800 
 28 H       -8.1020     3.1460    -0.7810 H     1 <1>   0.0800 
 29 H       -7.4180     0.0250     1.2120 H     1 <1>   0.0800 
 30 H       -6.9660    -0.9380    -0.1820 H     1 <1>   0.0800 
 31 H       -8.6370    -0.5670     0.1110 H     1 <1>   0.0800 
 32 H      -10.0880     1.1370     0.2650 H     1 <1>   0.0800 
 33 H      -10.2920     2.2650    -1.0620 H     1 <1>   0.0800 
 34 H       -8.7040     4.3870     1.8360 H     1 <1>   0.0800 
 35 H       -9.1180     2.9420     2.7580 H     1 <1>   0.0800 
 36 H      -11.0850     2.8520     1.5070 H     1 <1>   0.0800 
 37 H      -10.4800     4.0920     0.4260 H     1 <1>   0.0800 
@<TRIPOS>BOND
  1   1   2  1   
  2   2   3  ar  
  3   2   4  ar  
  4   3   5  1   
  5   3   6  ar  
  6   4   7  ar  
  7   4  21  1   
  8   5   8  1   
  9   6   9  ar  
 10   6  22  1   
 11   7   9  ar  
 12   7  10  1   
 13   8  11  1   
 14   8  23  1   
 15   8  24  1   
 16   9  25  1   
 17  11  12  2   
 18  11  13  am  
 19  13  14  1   
 20  13  26  1   
 21  14  15  1   
 22  14  16  1   
 23  14  27  1   
 24  15  17  1   
 25  15  18  1   
 26  15  28  1   
 27  16  29  1   
 28  16  30  1   
 29  16  31  1   
 30  17  19  1   
 31  18  20  1   
 32  18  32  1   
 33  18  33  1   
 34  19  20  1   
 35  19  34  1   
 36  19  35  1   
 37  20  36  1   
 38  20  37  1   
@<TRIPOS>SUBSTRUCTURE
  1 ****   5 GROUP 4 **** **** 0

# MOE 2024.06 (io_trps.svl 2023.06)
