@<TRIPOS>MOLECULE
NONAME
50 53 1 0 0 
SMALL
USER_CHARGES


@<TRIPOS>ATOM
  1 S        0.3780     0.1060     0.2520 S.3   1 <1>  -0.0800 
  2 C       -1.3600     0.3590     0.1430 C.ar  1 <1>   0.2970 
  3 C        0.1970    -1.6690     0.3770 C.2   1 <1>  -0.0450 
  4 N       -1.8880     1.5640     0.0200 N.ar  1 <1>  -0.5670 
  5 C       -2.0190    -0.8590     0.1970 C.ar  1 <1>   0.0000 
  6 C       -1.1300    -1.9850     0.3330 C.2   1 <1>   0.0830 
  7 C        1.3680    -2.4770     0.5080 C.2   1 <1>   0.7150 
  8 C       -3.2030     1.5650    -0.0640 C.ar  1 <1>   0.1670 
  9 C       -3.4010    -0.8240     0.1020 C.ar  1 <1>  -0.1500 
 10 N       -1.6110    -3.2770     0.4090 N.pl3 1 <1>  -0.8830 
 11 O        1.2900    -3.6870     0.6650 O.2   1 <1>  -0.5700 
 12 N        2.6140    -1.9250     0.4710 N.am  1 <1>  -0.7300 
 13 C       -3.9990     0.4150    -0.0310 C.ar  1 <1>  -0.1430 
 14 C       -3.8200     2.9420    -0.2320 C.3   1 <1>  -0.0170 
 15 C        3.8680    -2.6830     0.5880 C.3   1 <1>   0.2840 
 16 C       -5.5100     0.4960    -0.1340 C.3   1 <1>   0.4860 
 17 C       -5.3400     2.9360    -0.0940 C.3   1 <1>   0.3430 
 18 C        5.0240    -1.7140     0.4230 C.ar  1 <1>  -0.1440 
 19 N       -5.9190     1.7600    -0.8090 N.4   1 <1>  -0.9590 
 20 C        5.5490    -1.0570     1.5260 C.ar  1 <1>  -0.1500 
 21 C        5.5630    -1.4720    -0.8320 C.ar  1 <1>  -0.1500 
 22 C       -7.4060     1.8610    -0.9210 C.3   1 <1>   0.2630 
 23 C        6.6040    -0.1740     1.3740 C.ar  1 <1>  -0.1500 
 24 C        6.6190    -0.5900    -0.9860 C.ar  1 <1>  -0.1500 
 25 C        7.1460     0.0660     0.1230 C.ar  1 <1>   0.0830 
 26 O        8.1780     0.9450     0.0620 O.3   1 <1>  -0.3620 
 27 C        8.8100     1.2510    -1.1600 C.3   1 <1>   0.0400 
 28 H       -3.9580    -1.7450     0.1290 H     1 <1>   0.1500 
 29 H       -2.5300    -3.4830     0.8070 H     1 <1>   0.4000 
 30 H       -0.9130    -4.0200     0.5780 H     1 <1>   0.4000 
 31 H        2.7230    -0.9190     0.3390 H     1 <1>   0.3700 
 32 H       -3.5490     3.3250    -1.2000 H     1 <1>   0.0800 
 33 H       -3.4050     3.6100     0.5030 H     1 <1>   0.0800 
 34 H        3.9010    -3.4450    -0.1710 H     1 <1>   0.0800 
 35 H        3.9110    -3.1610     1.5520 H     1 <1>   0.0800 
 36 H       -5.9320     0.4560     0.8570 H     1 <1>   0.0800 
 37 H       -5.8740    -0.3510    -0.6920 H     1 <1>   0.0800 
 38 H       -5.7360     3.8540    -0.4970 H     1 <1>   0.0800 
 39 H       -5.6020     2.8860     0.9510 H     1 <1>   0.0800 
 40 H       -5.5120     1.7360    -1.7570 H     1 <1>   0.4500 
 41 H        5.1390    -1.2290     2.5060 H     1 <1>   0.1500 
 42 H        5.1610    -1.9720    -1.6970 H     1 <1>   0.1500 
 43 H       -7.8580     1.8810     0.0580 H     1 <1>   0.0800 
 44 H       -7.8010     1.0180    -1.4670 H     1 <1>   0.0800 
 45 H       -7.6820     2.7630    -1.4450 H     1 <1>   0.0800 
 46 H        7.0150     0.3350     2.2270 H     1 <1>   0.1500 
 47 H        7.0150    -0.4260    -1.9700 H     1 <1>   0.1500 
 48 H        9.5930     1.9610    -0.9620 H     1 <1>   0.0800 
 49 H        8.0870     1.6820    -1.8300 H     1 <1>   0.0800 
 50 H        9.2300     0.3500    -1.5710 H     1 <1>   0.0800 
@<TRIPOS>BOND
  1   1   2  1   
  2   1   3  1   
  3   2   4  ar  
  4   2   5  ar  
  5   3   6  2   
  6   3   7  1   
  7   4   8  ar  
  8   5   6  1   
  9   5   9  ar  
 10   6  10  1   
 11   7  11  2   
 12   7  12  am  
 13   8  13  ar  
 14   8  14  1   
 15   9  13  ar  
 16   9  28  1   
 17  10  29  1   
 18  10  30  1   
 19  12  15  1   
 20  12  31  1   
 21  13  16  1   
 22  14  17  1   
 23  14  32  1   
 24  14  33  1   
 25  15  18  1   
 26  15  34  1   
 27  15  35  1   
 28  16  19  1   
 29  16  36  1   
 30  16  37  1   
 31  17  19  1   
 32  17  38  1   
 33  17  39  1   
 34  18  20  ar  
 35  18  21  ar  
 36  19  22  1   
 37  19  40  1   
 38  20  23  ar  
 39  20  41  1   
 40  21  24  ar  
 41  21  42  1   
 42  22  43  1   
 43  22  44  1   
 44  22  45  1   
 45  23  25  ar  
 46  23  46  1   
 47  24  25  ar  
 48  24  47  1   
 49  25  26  1   
 50  26  27  1   
 51  27  48  1   
 52  27  49  1   
 53  27  50  1   
@<TRIPOS>SUBSTRUCTURE
  1 ****   1 GROUP 4 **** **** 0

# MOE 2024.06 (io_trps.svl 2023.06)
