@<TRIPOS>MOLECULE
NONAME
36 38 1 0 0 
SMALL
USER_CHARGES


@<TRIPOS>ATOM
  1 S        0.0590    -0.3780     0.1120 S.o2  1 <1>   1.4470 
  2 O        0.0860    -0.9550     1.4360 O.2   1 <1>  -0.6500 
  3 O        0.3690    -1.2080    -1.0310 O.2   1 <1>  -0.6500 
  4 N        1.2350     0.8130     0.2270 N.am  1 <1>  -0.9140 
  5 C       -1.4810     0.5340    -0.1800 C.ar  1 <1>  -0.0090 
  6 C        2.5580     0.3670    -0.1170 C.3   1 <1>   0.2760 
  7 C       -2.7300    -0.0670     0.1320 C.ar  1 <1>   0.0000 
  8 C       -1.4650     1.8020    -0.7310 C.ar  1 <1>  -0.1500 
  9 C        3.5290     1.0690     0.8240 C.3   1 <1>  -0.2400 
 10 C        2.8430     0.7580    -1.5640 C.3   1 <1>  -0.2400 
 11 C       -3.8760     0.6950    -0.1210 C.ar  1 <1>   0.0000 
 12 C       -2.9740    -1.3560     0.6680 C.ar  1 <1>  -0.1500 
 13 C       -2.6380     2.5370    -0.9740 C.ar  1 <1>  -0.1500 
 14 C       -3.8380     1.9710    -0.6610 C.ar  1 <1>  -0.1430 
 15 C       -5.1650     0.2490     0.1360 C.ar  1 <1>  -0.1430 
 16 C       -4.2480    -1.8030     0.9240 C.ar  1 <1>  -0.1500 
 17 C       -5.2580     2.4890    -0.7960 C.3   1 <1>  -0.0170 
 18 C       -5.3670    -0.9960     0.6590 C.ar  1 <1>  -0.1500 
 19 C       -6.1470     1.3380    -0.2580 C.3   1 <1>  -0.0170 
 20 H        1.2550     0.9850     1.2290 H     1 <1>   0.4200 
 21 H        2.6540    -0.7020     0.0110 H     1 <1>   0.0800 
 22 H       -0.5290     2.2650    -0.9930 H     1 <1>   0.1500 
 23 H        3.4450     2.1380     0.7300 H     1 <1>   0.0800 
 24 H        4.5380     0.7860     0.5820 H     1 <1>   0.0800 
 25 H        3.3400     0.7810     1.8420 H     1 <1>   0.0800 
 26 H        2.7430     1.8200    -1.6960 H     1 <1>   0.0800 
 27 H        2.1650     0.2550    -2.2300 H     1 <1>   0.0800 
 28 H        3.8430     0.4700    -1.8310 H     1 <1>   0.0800 
 29 H       -2.1450    -2.0070     0.8820 H     1 <1>   0.1500 
 30 H       -2.5740     3.5230    -1.4000 H     1 <1>   0.1500 
 31 H       -4.4080    -2.7850     1.3340 H     1 <1>   0.1500 
 32 H       -5.4830     2.6950    -1.8280 H     1 <1>   0.0800 
 33 H       -5.3890     3.3810    -0.2090 H     1 <1>   0.0800 
 34 H       -6.3550    -1.3660     0.8680 H     1 <1>   0.1500 
 35 H       -6.7110     1.6590     0.6000 H     1 <1>   0.0800 
 36 H       -6.8150     0.9800    -1.0210 H     1 <1>   0.0800 
@<TRIPOS>BOND
  1   1   2  2   
  2   1   3  2   
  3   1   4  am  
  4   1   5  1   
  5   4   6  1   
  6   4  20  1   
  7   5   7  ar  
  8   5   8  ar  
  9   6   9  1   
 10   6  10  1   
 11   6  21  1   
 12   7  11  ar  
 13   7  12  ar  
 14   8  13  ar  
 15   8  22  1   
 16   9  23  1   
 17   9  24  1   
 18   9  25  1   
 19  10  26  1   
 20  10  27  1   
 21  10  28  1   
 22  11  14  ar  
 23  11  15  ar  
 24  12  16  ar  
 25  12  29  1   
 26  13  14  ar  
 27  13  30  1   
 28  14  17  1   
 29  15  18  ar  
 30  15  19  1   
 31  16  18  ar  
 32  16  31  1   
 33  17  19  1   
 34  17  32  1   
 35  17  33  1   
 36  18  34  1   
 37  19  35  1   
 38  19  36  1   
@<TRIPOS>SUBSTRUCTURE
  1 ****   5 GROUP 4 **** **** 0

# MOE 2024.06 (io_trps.svl 2023.06)
