@<TRIPOS>MOLECULE
NONAME
40 41 1 0 0 
SMALL
USER_CHARGES


@<TRIPOS>ATOM
  1 CL       4.6580     2.4300     1.7920 Cl    1 <1>  -0.1770 
  2 C        2.9930     2.8630     1.4690 C.ar  1 <1>   0.1770 
  3 C        2.6210     3.3970     0.2370 C.ar  1 <1>   0.0830 
  4 C        2.0600     2.6620     2.4680 C.ar  1 <1>  -0.1500 
  5 O        3.5270     3.6000    -0.7460 O.3   1 <1>  -0.3630 
  6 C        1.2960     3.7460     0.0120 C.ar  1 <1>  -0.1500 
  7 C        0.7440     3.0080     2.2220 C.ar  1 <1>   0.1770 
  8 C        3.6540     2.5750    -1.7250 C.3   1 <1>   0.2610 
  9 C        0.3530     3.5490     1.0080 C.ar  1 <1>  -0.1500 
 10 CL      -0.4500     2.7620     3.4700 Cl    1 <1>  -0.1770 
 11 C        5.0460     1.9120    -1.6870 C.2   1 <1>   0.5690 
 12 C        3.2860     3.1600    -3.0950 C.3   1 <1>  -0.2400 
 13 O        5.0490     0.7010    -1.6780 O.2   1 <1>  -0.5700 
 14 N        6.2320     2.6200    -1.6690 N.am  1 <1>  -0.6600 
 15 C        6.3700     4.1010    -1.6670 C.3   1 <1>   0.1400 
 16 C        7.5280     1.9270    -1.4440 C.3   1 <1>   0.1400 
 17 C        6.8610     4.5540    -0.2910 C.3   1 <1>  -0.1600 
 18 C        8.0330     2.2950    -0.0480 C.3   1 <1>  -0.1600 
 19 C        8.1520     3.8230     0.1380 C.3   1 <1>  -0.0190 
 20 C        8.5370     4.1800     1.5700 C.2   1 <1>   0.5690 
 21 O        9.5730     4.7500     1.7880 O.2   1 <1>  -0.5700 
 22 N        7.7160     3.8560     2.5870 N.am  1 <1>  -0.8000 
 23 H        2.3480     2.2450     3.4150 H     1 <1>   0.1500 
 24 H        1.0080     4.1710    -0.9340 H     1 <1>   0.1500 
 25 H        2.9370     1.8070    -1.4890 H     1 <1>   0.0800 
 26 H       -0.6780     3.8120     0.8510 H     1 <1>   0.1500 
 27 H        3.9680     3.9360    -3.3830 H     1 <1>   0.0800 
 28 H        2.2850     3.5500    -3.0750 H     1 <1>   0.0800 
 29 H        3.3310     2.3810    -3.8350 H     1 <1>   0.0800 
 30 H        5.4400     4.5870    -1.8940 H     1 <1>   0.0800 
 31 H        7.0820     4.3870    -2.4220 H     1 <1>   0.0800 
 32 H        8.2350     2.2400    -2.1930 H     1 <1>   0.0800 
 33 H        7.4150     0.8590    -1.5200 H     1 <1>   0.0800 
 34 H        6.0760     4.3770     0.4200 H     1 <1>   0.0800 
 35 H        7.0410     5.6140    -0.3110 H     1 <1>   0.0800 
 36 H        8.9940     1.8390     0.1140 H     1 <1>   0.0800 
 37 H        7.3520     1.8820     0.6740 H     1 <1>   0.0800 
 38 H        8.9470     4.1660    -0.5010 H     1 <1>   0.0800 
 39 H        7.9770     4.0940     3.5440 H     1 <1>   0.3700 
 40 H        6.8260     3.3700     2.4560 H     1 <1>   0.3700 
@<TRIPOS>BOND
  1   1   2  1   
  2   2   3  ar  
  3   2   4  ar  
  4   3   5  1   
  5   3   6  ar  
  6   4   7  ar  
  7   4  23  1   
  8   5   8  1   
  9   6   9  ar  
 10   6  24  1   
 11   7   9  ar  
 12   7  10  1   
 13   8  11  1   
 14   8  12  1   
 15   8  25  1   
 16   9  26  1   
 17  11  13  2   
 18  11  14  am  
 19  12  27  1   
 20  12  28  1   
 21  12  29  1   
 22  14  15  1   
 23  14  16  1   
 24  15  17  1   
 25  15  30  1   
 26  15  31  1   
 27  16  18  1   
 28  16  32  1   
 29  16  33  1   
 30  17  19  1   
 31  17  34  1   
 32  17  35  1   
 33  18  19  1   
 34  18  36  1   
 35  18  37  1   
 36  19  20  1   
 37  19  38  1   
 38  20  21  2   
 39  20  22  am  
 40  22  39  1   
 41  22  40  1   
@<TRIPOS>SUBSTRUCTURE
  1 ****   5 GROUP 4 **** **** 0

# MOE 2024.06 (io_trps.svl 2023.06)
