@<TRIPOS>MOLECULE
NONAME
42 44 1 0 0 
SMALL
USER_CHARGES


@<TRIPOS>ATOM
  1 BR       0.5230     0.3090     1.6000 Br    1 <1>  -0.1110 
  2 C        2.1810     0.1500     0.6450 C.ar  1 <1>   0.1110 
  3 C        3.0260    -0.9000     0.9510 C.ar  1 <1>  -0.1500 
  4 C        2.4810     1.0960    -0.3250 C.ar  1 <1>  -0.1500 
  5 C        4.2210    -0.9970     0.2490 C.ar  1 <1>   0.0860 
  6 C        3.6760     0.9890    -1.0200 C.ar  1 <1>  -0.1500 
  7 C        5.3070    -1.9330     0.3050 C.2   1 <1>   0.5440 
  8 C        4.5420    -0.0610    -0.7280 C.ar  1 <1>   0.0860 
  9 O        5.4100    -2.8870     1.0460 O.2   1 <1>  -0.5700 
 10 N        6.2500    -1.5700    -0.6210 N.am  1 <1>  -0.4200 
 11 C        5.8220    -0.4340    -1.2580 C.2   1 <1>   0.5440 
 12 C        7.5020    -2.3040    -0.9160 C.3   1 <1>   0.1400 
 13 O        6.4550     0.1440    -2.1160 O.2   1 <1>  -0.5700 
 14 C        8.6690    -1.6830    -0.1440 C.3   1 <1>  -0.0990 
 15 C        9.9910    -2.3800    -0.4230 C.2   1 <1>   0.5690 
 16 O        9.9790    -3.3640    -1.1260 O.2   1 <1>  -0.5700 
 17 N       11.1550    -1.8910     0.1160 N.am  1 <1>  -0.6600 
 18 C       12.4720    -2.5040    -0.2140 C.3   1 <1>   0.1400 
 19 C       11.2600    -0.7130     1.0220 C.3   1 <1>   0.1400 
 20 C       13.3740    -1.4560    -0.8750 C.3   1 <1>  -0.1600 
 21 C       12.1410     0.3560     0.3690 C.3   1 <1>  -0.1600 
 22 C       13.5250    -0.2020     0.0010 C.3   1 <1>  -0.0800 
 23 C       14.3620     0.8610    -0.7180 C.3   1 <1>  -0.2400 
 24 H        2.7740    -1.6220     1.7080 H     1 <1>   0.1500 
 25 H        1.7900     1.8960    -0.5280 H     1 <1>   0.1500 
 26 H        3.9440     1.7040    -1.7810 H     1 <1>   0.1500 
 27 H        7.6980    -2.2590    -1.9750 H     1 <1>   0.0800 
 28 H        7.3860    -3.3390    -0.6380 H     1 <1>   0.0800 
 29 H        8.4670    -1.7480     0.9080 H     1 <1>   0.0800 
 30 H        8.7640    -0.6530    -0.4330 H     1 <1>   0.0800 
 31 H       12.3500    -3.3420    -0.8790 H     1 <1>   0.0800 
 32 H       12.9280    -2.8650     0.6920 H     1 <1>   0.0800 
 33 H       11.7050    -1.0290     1.9510 H     1 <1>   0.0800 
 34 H       10.2950    -0.2970     1.2450 H     1 <1>   0.0800 
 35 H       12.9470    -1.1920    -1.8270 H     1 <1>   0.0800 
 36 H       14.3400    -1.8910    -1.0580 H     1 <1>   0.0800 
 37 H       12.2520     1.1830     1.0480 H     1 <1>   0.0800 
 38 H       11.6440     0.7210    -0.5140 H     1 <1>   0.0800 
 39 H       14.0350    -0.4790     0.9090 H     1 <1>   0.0800 
 40 H       13.8860     1.1640    -1.6350 H     1 <1>   0.0800 
 41 H       15.3380     0.4730    -0.9510 H     1 <1>   0.0800 
 42 H       14.4840     1.7280    -0.0920 H     1 <1>   0.0800 
@<TRIPOS>BOND
  1   1   2  1   
  2   2   3  ar  
  3   2   4  ar  
  4   3   5  ar  
  5   3  24  1   
  6   4   6  ar  
  7   4  25  1   
  8   5   7  1   
  9   5   8  ar  
 10   6   8  ar  
 11   6  26  1   
 12   7   9  2   
 13   7  10  am  
 14   8  11  1   
 15  10  11  am  
 16  10  12  1   
 17  11  13  2   
 18  12  14  1   
 19  12  27  1   
 20  12  28  1   
 21  14  15  1   
 22  14  29  1   
 23  14  30  1   
 24  15  16  2   
 25  15  17  am  
 26  17  18  1   
 27  17  19  1   
 28  18  20  1   
 29  18  31  1   
 30  18  32  1   
 31  19  21  1   
 32  19  33  1   
 33  19  34  1   
 34  20  22  1   
 35  20  35  1   
 36  20  36  1   
 37  21  22  1   
 38  21  37  1   
 39  21  38  1   
 40  22  23  1   
 41  22  39  1   
 42  23  40  1   
 43  23  41  1   
 44  23  42  1   
@<TRIPOS>SUBSTRUCTURE
  1 ****  14 GROUP 4 **** **** 0

# MOE 2024.06 (io_trps.svl 2023.06)
