@<TRIPOS>MOLECULE
NONAME
41 41 1 0 0 
SMALL
USER_CHARGES


@<TRIPOS>ATOM
  1 O        0.1600    -3.4540    -1.5710 O.co2 1 <1>  -0.9000 
  2 C        0.1530    -2.2930    -1.1410 C.2   1 <1>   0.9060 
  3 O        0.4570    -1.3250    -1.8450 O.co2 1 <1>  -0.9000 
  4 C       -0.2110    -2.0550     0.3120 C.3   1 <1>  -0.1230 
  5 C       -1.7170    -2.0160     0.5630 C.ar  1 <1>  -0.1440 
  6 C       -2.5040    -3.0740     0.1370 C.ar  1 <1>  -0.1500 
  7 C       -2.3070    -0.9360     1.2000 C.ar  1 <1>  -0.1500 
  8 C       -3.8840    -3.0590     0.3180 C.ar  1 <1>   0.0820 
  9 C       -3.6770    -0.9080     1.3950 C.ar  1 <1>  -0.1500 
 10 O       -4.6870    -4.0830    -0.1010 O.3   1 <1>  -0.3630 
 11 C       -4.4650    -1.9520     0.9430 C.ar  1 <1>   0.0820 
 12 C       -4.1650    -5.1020    -0.9290 C.3   1 <1>   0.0400 
 13 O       -5.8030    -1.8500     1.1170 O.3   1 <1>  -0.3630 
 14 C       -6.5470    -1.6110    -0.0680 C.3   1 <1>   0.1810 
 15 C       -8.0490    -1.6160     0.2000 C.2   1 <1>   0.5690 
 16 O       -8.6220    -0.5510     0.1290 O.2   1 <1>  -0.5700 
 17 N       -8.7320    -2.7840     0.4680 N.am  1 <1>  -0.6600 
 18 C       -8.0590    -4.0930     0.6990 C.3   1 <1>   0.1400 
 19 C      -10.1960    -2.7480     0.7330 C.3   1 <1>   0.1400 
 20 C       -8.0230    -4.9040    -0.5930 C.3   1 <1>  -0.2400 
 21 C      -10.9700    -2.7800    -0.5830 C.3   1 <1>  -0.2400 
 22 H        0.2440    -1.1320     0.6110 H     1 <1>   0.0800 
 23 H        0.2260    -2.8460     0.8890 H     1 <1>   0.0800 
 24 H       -2.0100    -3.8970    -0.3450 H     1 <1>   0.1500 
 25 H       -1.7000    -0.1140     1.5350 H     1 <1>   0.1500 
 26 H       -4.1390    -0.0720     1.8860 H     1 <1>   0.1500 
 27 H       -4.9750    -5.7420    -1.2270 H     1 <1>   0.0800 
 28 H       -3.4380    -5.6650    -0.3720 H     1 <1>   0.0800 
 29 H       -3.7130    -4.6510    -1.7960 H     1 <1>   0.0800 
 30 H       -6.3090    -2.3630    -0.7940 H     1 <1>   0.0800 
 31 H       -6.2540    -0.6510    -0.4510 H     1 <1>   0.0800 
 32 H       -8.5830    -4.6440     1.4620 H     1 <1>   0.0800 
 33 H       -7.0560    -3.9430     1.0560 H     1 <1>   0.0800 
 34 H      -10.4380    -1.8440     1.2670 H     1 <1>   0.0800 
 35 H      -10.4850    -3.5800     1.3510 H     1 <1>   0.0800 
 36 H       -9.0180    -5.1570    -0.9100 H     1 <1>   0.0800 
 37 H       -7.4810    -5.8160    -0.4250 H     1 <1>   0.0800 
 38 H       -7.5260    -4.3510    -1.3690 H     1 <1>   0.0800 
 39 H      -10.6940    -1.9380    -1.1920 H     1 <1>   0.0800 
 40 H      -12.0240    -2.7200    -0.3820 H     1 <1>   0.0800 
 41 H      -10.7760    -3.6890    -1.1200 H     1 <1>   0.0800 
@<TRIPOS>BOND
  1   1   2  ar  
  2   2   3  ar  
  3   2   4  1   
  4   4   5  1   
  5   4  22  1   
  6   4  23  1   
  7   5   6  ar  
  8   5   7  ar  
  9   6   8  ar  
 10   6  24  1   
 11   7   9  ar  
 12   7  25  1   
 13   8  10  1   
 14   8  11  ar  
 15   9  11  ar  
 16   9  26  1   
 17  10  12  1   
 18  11  13  1   
 19  12  27  1   
 20  12  28  1   
 21  12  29  1   
 22  13  14  1   
 23  14  15  1   
 24  14  30  1   
 25  14  31  1   
 26  15  16  2   
 27  15  17  am  
 28  17  18  1   
 29  17  19  1   
 30  18  20  1   
 31  18  32  1   
 32  18  33  1   
 33  19  21  1   
 34  19  34  1   
 35  19  35  1   
 36  20  36  1   
 37  20  37  1   
 38  20  38  1   
 39  21  39  1   
 40  21  40  1   
 41  21  41  1   
@<TRIPOS>SUBSTRUCTURE
  1 ****  11 GROUP 4 **** **** 0

# MOE 2024.06 (io_trps.svl 2023.06)
