@<TRIPOS>MOLECULE
NONAME
41 42 1 0 0 
SMALL
USER_CHARGES


@<TRIPOS>ATOM
  1 O        0.0780     1.3820    -1.8380 O.2   1 <1>  -0.5700 
  2 C        0.2950     1.2310    -0.6520 C.2   1 <1>   0.6900 
  3 N       -0.7000     1.2880     0.2580 N.am  1 <1>  -0.7300 
  4 N        1.5420     1.0050    -0.1940 N.am  1 <1>  -0.7300 
  5 C       -2.1190     1.5210    -0.0490 C.3   1 <1>   0.2200 
  6 C        2.7590     1.0570    -1.0220 C.3   1 <1>   0.2840 
  7 C       -2.6050     2.7350     0.7490 C.3   1 <1>  -0.1600 
  8 C       -2.9170     0.2640     0.3090 C.3   1 <1>  -0.1600 
  9 C        3.6530     2.1610    -0.4840 C.ar  1 <1>  -0.1430 
 10 C       -4.1110     2.9630     0.5510 C.3   1 <1>  -0.1600 
 11 C       -4.4240     0.4870     0.1100 C.3   1 <1>  -0.1600 
 12 C        4.7070     1.8860     0.3830 C.ar  1 <1>   0.0820 
 13 C        3.4030     3.4690    -0.8690 C.ar  1 <1>  -0.1500 
 14 C       -4.9140     1.7040     0.9060 C.3   1 <1>  -0.1600 
 15 O        4.9090     0.5920     0.7460 O.3   1 <1>  -0.3620 
 16 C        5.5040     2.9320     0.8470 C.ar  1 <1>  -0.1500 
 17 C        4.1970     4.5030    -0.4040 C.ar  1 <1>  -0.1500 
 18 C        5.9920     0.2110     1.5660 C.3   1 <1>   0.0400 
 19 C        5.2480     4.2330     0.4530 C.ar  1 <1>  -0.1500 
 20 H       -0.4870     1.0750     1.2260 H     1 <1>   0.3700 
 21 H        1.7250     1.0930     0.8010 H     1 <1>   0.3700 
 22 H       -2.2360     1.7240    -1.1020 H     1 <1>   0.0800 
 23 H        2.5070     1.2590    -2.0500 H     1 <1>   0.0800 
 24 H        3.2550     0.1030    -0.9870 H     1 <1>   0.0800 
 25 H       -2.0670     3.6090     0.4250 H     1 <1>   0.0800 
 26 H       -2.4090     2.5810     1.7950 H     1 <1>   0.0800 
 27 H       -2.7350     0.0000     1.3360 H     1 <1>   0.0800 
 28 H       -2.5920    -0.5500    -0.3160 H     1 <1>   0.0800 
 29 H       -4.2980     3.2270    -0.4770 H     1 <1>   0.0800 
 30 H       -4.4360     3.7850     1.1660 H     1 <1>   0.0800 
 31 H       -4.9630    -0.3910     0.4220 H     1 <1>   0.0800 
 32 H       -4.6240     0.6410    -0.9370 H     1 <1>   0.0800 
 33 H        2.5820     3.6840    -1.5320 H     1 <1>   0.1500 
 34 H       -5.9570     1.8730     0.6990 H     1 <1>   0.0800 
 35 H       -4.8170     1.5050     1.9590 H     1 <1>   0.0800 
 36 H        6.3250     2.7550     1.5150 H     1 <1>   0.1500 
 37 H        3.9940     5.5150    -0.7090 H     1 <1>   0.1500 
 38 H        5.9590    -0.8570     1.6880 H     1 <1>   0.0800 
 39 H        5.8920     0.6920     2.5220 H     1 <1>   0.0800 
 40 H        6.9110     0.4950     1.0840 H     1 <1>   0.0800 
 41 H        5.8650     5.0370     0.8140 H     1 <1>   0.1500 
@<TRIPOS>BOND
  1   1   2  2   
  2   2   3  am  
  3   2   4  am  
  4   3   5  1   
  5   3  20  1   
  6   4   6  1   
  7   4  21  1   
  8   5   7  1   
  9   5   8  1   
 10   5  22  1   
 11   6   9  1   
 12   6  23  1   
 13   6  24  1   
 14   7  10  1   
 15   7  25  1   
 16   7  26  1   
 17   8  11  1   
 18   8  27  1   
 19   8  28  1   
 20   9  12  ar  
 21   9  13  ar  
 22  10  14  1   
 23  10  29  1   
 24  10  30  1   
 25  11  14  1   
 26  11  31  1   
 27  11  32  1   
 28  12  15  1   
 29  12  16  ar  
 30  13  17  ar  
 31  13  33  1   
 32  14  34  1   
 33  14  35  1   
 34  15  18  1   
 35  16  19  ar  
 36  16  36  1   
 37  17  19  ar  
 38  17  37  1   
 39  18  38  1   
 40  18  39  1   
 41  18  40  1   
 42  19  41  1   
@<TRIPOS>SUBSTRUCTURE
  1 ****   4 GROUP 4 **** **** 0

# MOE 2024.06 (io_trps.svl 2023.06)
