@<TRIPOS>MOLECULE
NONAME
51 54 1 0 0 
SMALL
USER_CHARGES


@<TRIPOS>ATOM
  1 N        1.8340     2.2000     0.0400 N.4   1 <1>  -0.9590 
  2 C        2.1090     3.4740    -0.6820 C.3   1 <1>   0.3430 
  3 C        3.1210     1.4530     0.0030 C.3   1 <1>   0.3430 
  4 C        0.6970     1.3980    -0.4950 C.3   1 <1>   0.3430 
  5 C        3.5350     3.8350    -0.2900 C.3   1 <1>  -0.1600 
  6 C        4.1890     2.5260     0.1590 C.3   1 <1>  -0.1600 
  7 C       -0.6450     2.0920    -0.2170 C.3   1 <1>  -0.1600 
  8 C       -1.8180     1.2230    -0.6850 C.3   1 <1>   0.3430 
  9 N       -3.1030     1.9050    -0.3880 N.4   1 <1>  -0.9060 
 10 C       -4.2990     1.1270    -0.8170 C.3   1 <1>   0.4230 
 11 C       -5.7530     2.1020    -0.6500 C.3   1 <1>  -0.0800 
 12 C       -4.4210    -0.4170     0.0120 C.3   1 <1>  -0.0800 
 13 C       -5.8240     2.1880     0.8080 C.3   1 <1>  -0.1600 
 14 C       -7.3850     1.3740    -0.8230 C.3   1 <1>  -0.1600 
 15 C       -4.6920     0.0650     1.3670 C.3   1 <1>  -0.1600 
 16 C       -5.9250    -1.3980    -0.0770 C.3   1 <1>  -0.1600 
 17 C       -5.9880     0.6790     0.8620 C.3   1 <1>  -0.0800 
 18 C       -7.3500    -0.3010    -0.2400 C.3   1 <1>  -0.0800 
 19 C       -6.4910    -0.0830    -0.9480 C.3   1 <1>  -0.1600 
 20 H        1.6750     2.4400     1.0290 H     1 <1>   0.4500 
 21 H        1.4160     4.2530    -0.4070 H     1 <1>   0.0800 
 22 H        2.0640     3.3110    -1.7470 H     1 <1>   0.0800 
 23 H        3.2390     0.9690    -0.9540 H     1 <1>   0.0800 
 24 H        3.1830     0.7150     0.7880 H     1 <1>   0.0800 
 25 H        0.6990     0.4280    -0.0210 H     1 <1>   0.0800 
 26 H        0.8270     1.2510    -1.5560 H     1 <1>   0.0800 
 27 H        3.5260     4.5470     0.5170 H     1 <1>   0.0800 
 28 H        4.0540     4.2750    -1.1250 H     1 <1>   0.0800 
 29 H        5.0530     2.2850    -0.4360 H     1 <1>   0.0800 
 30 H        4.4950     2.5920     1.1890 H     1 <1>   0.0800 
 31 H       -0.6750     3.0320    -0.7380 H     1 <1>   0.0800 
 32 H       -0.7360     2.2630     0.8420 H     1 <1>   0.0800 
 33 H       -1.7890     0.2710    -0.1790 H     1 <1>   0.0800 
 34 H       -1.7420     1.0430    -1.7470 H     1 <1>   0.0800 
 35 H       -3.1570     2.8240    -0.8440 H     1 <1>   0.4500 
 36 H       -3.2160     2.0670     0.6190 H     1 <1>   0.4500 
 37 H       -4.1820     0.9150    -1.8670 H     1 <1>   0.0800 
 38 H       -5.6870     3.0690    -1.1170 H     1 <1>   0.0800 
 39 H       -3.5380    -1.0260    -0.0430 H     1 <1>   0.0800 
 40 H       -6.6970     2.7170     1.1550 H     1 <1>   0.0800 
 41 H       -4.9630     2.6010     1.2980 H     1 <1>   0.0800 
 42 H       -7.7570     1.5080    -1.8430 H     1 <1>   0.0800 
 43 H       -8.1160     1.9160    -0.2420 H     1 <1>   0.0800 
 44 H       -4.8550    -0.7340     2.0720 H     1 <1>   0.0800 
 45 H       -3.9650     0.7380     1.7810 H     1 <1>   0.0800 
 46 H       -6.0610    -1.9840     0.8200 H     1 <1>   0.0800 
 47 H       -5.8130    -2.1810    -0.8350 H     1 <1>   0.0800 
 48 H       -6.6870     0.5230     1.6880 H     1 <1>   0.0800 
 49 H       -8.2850    -0.8350    -0.4390 H     1 <1>   0.0800 
 50 H       -5.9760     0.1580    -1.9030 H     1 <1>   0.0800 
 51 H       -7.0490    -0.6960    -1.7090 H     1 <1>   0.0800 
@<TRIPOS>BOND
  1   1   2  1   
  2   1   3  1   
  3   1   4  1   
  4   1  20  1   
  5   2   5  1   
  6   2  21  1   
  7   2  22  1   
  8   3   6  1   
  9   3  23  1   
 10   3  24  1   
 11   4   7  1   
 12   4  25  1   
 13   4  26  1   
 14   5   6  1   
 15   5  27  1   
 16   5  28  1   
 17   6  29  1   
 18   6  30  1   
 19   7   8  1   
 20   7  31  1   
 21   7  32  1   
 22   8   9  1   
 23   8  33  1   
 24   8  34  1   
 25   9  10  1   
 26   9  35  1   
 27   9  36  1   
 28  10  11  1   
 29  10  12  1   
 30  10  37  1   
 31  11  13  1   
 32  11  14  1   
 33  11  38  1   
 34  12  15  1   
 35  12  16  1   
 36  12  39  1   
 37  13  17  1   
 38  13  40  1   
 39  13  41  1   
 40  14  18  1   
 41  14  42  1   
 42  14  43  1   
 43  15  17  1   
 44  15  44  1   
 45  15  45  1   
 46  16  18  1   
 47  16  46  1   
 48  16  47  1   
 49  17  19  1   
 50  17  48  1   
 51  18  19  1   
 52  18  49  1   
 53  19  50  1   
 54  19  51  1   
@<TRIPOS>SUBSTRUCTURE
  1 ****   9 GROUP 4 **** **** 0

# MOE 2024.06 (io_trps.svl 2023.06)
