@<TRIPOS>MOLECULE
NONAME
35 36 1 0 0 
SMALL
USER_CHARGES


@<TRIPOS>ATOM
  1 BR       0.5250     1.3520     0.3360 Br    1 <1>  -0.1110 
  2 C       -1.3470     1.7460     0.1160 C.ar  1 <1>   0.1110 
  3 C       -2.2500     0.7010     0.0760 C.ar  1 <1>  -0.1500 
  4 C       -1.7430     3.0650     0.0030 C.ar  1 <1>  -0.1500 
  5 C       -3.5930     0.9930    -0.0820 C.ar  1 <1>  -0.1500 
  6 C       -3.0910     3.3390    -0.1550 C.ar  1 <1>  -0.1500 
  7 C       -4.0320     2.3120    -0.2020 C.ar  1 <1>   0.1170 
  8 N       -5.3830     2.6570    -0.3540 N.am  1 <1>  -0.5470 
  9 C       -6.4830     1.9280    -0.7030 C.2   1 <1>   0.6300 
 10 O       -6.4530     0.7600    -1.0080 O.2   1 <1>  -0.5700 
 11 C       -7.8100     2.6780    -0.7460 C.3   1 <1>  -0.1000 
 12 C       -8.3110     3.5600     0.3810 C.3   1 <1>  -0.1900 
 13 C       -9.0180     2.2750     0.0670 C.3   1 <1>  -0.1900 
 14 C       -7.5490     3.6980     1.7120 C.3   1 <1>  -0.1450 
 15 C       -8.9310     4.9130    -0.0020 C.3   1 <1>  -0.1450 
 16 C      -10.3890     2.2850    -0.6280 C.3   1 <1>  -0.1450 
 17 C       -8.9260     1.0590     1.0070 C.3   1 <1>  -0.1450 
 18 H       -1.9100    -0.3150     0.1660 H     1 <1>   0.1500 
 19 H       -1.0130     3.8530     0.0390 H     1 <1>   0.1500 
 20 H       -4.3000     0.1830    -0.1090 H     1 <1>   0.1500 
 21 H       -3.4120     4.3600    -0.2470 H     1 <1>   0.1500 
 22 H       -5.6050     3.6320    -0.1700 H     1 <1>   0.3700 
 23 H       -8.0090     2.9930    -1.7540 H     1 <1>   0.1000 
 24 H       -6.9930     2.8140     1.9630 H     1 <1>   0.0800 
 25 H       -8.2460     3.8910     2.5080 H     1 <1>   0.0800 
 26 H       -6.8540     4.5170     1.6660 H     1 <1>   0.0800 
 27 H       -9.7030     5.1730     0.7000 H     1 <1>   0.0800 
 28 H       -9.3580     4.8960    -0.9870 H     1 <1>   0.0800 
 29 H       -8.1820     5.6850     0.0120 H     1 <1>   0.0800 
 30 H      -10.4440     3.0220    -1.4060 H     1 <1>   0.0800 
 31 H      -11.1630     2.4860     0.0910 H     1 <1>   0.0800 
 32 H      -10.5800     1.3270    -1.0790 H     1 <1>   0.0800 
 33 H       -7.9430     0.9290     1.4170 H     1 <1>   0.0800 
 34 H       -9.1630     0.1600     0.4670 H     1 <1>   0.0800 
 35 H       -9.6230     1.1670     1.8180 H     1 <1>   0.0800 
@<TRIPOS>BOND
  1   1   2  1   
  2   2   3  ar  
  3   2   4  ar  
  4   3   5  ar  
  5   3  18  1   
  6   4   6  ar  
  7   4  19  1   
  8   5   7  ar  
  9   5  20  1   
 10   6   7  ar  
 11   6  21  1   
 12   7   8  1   
 13   8   9  am  
 14   8  22  1   
 15   9  10  2   
 16   9  11  1   
 17  11  12  1   
 18  11  13  1   
 19  11  23  1   
 20  12  13  1   
 21  12  14  1   
 22  12  15  1   
 23  13  16  1   
 24  13  17  1   
 25  14  24  1   
 26  14  25  1   
 27  14  26  1   
 28  15  27  1   
 29  15  28  1   
 30  15  29  1   
 31  16  30  1   
 32  16  31  1   
 33  16  32  1   
 34  17  33  1   
 35  17  34  1   
 36  17  35  1   
@<TRIPOS>SUBSTRUCTURE
  1 ****   8 GROUP 4 **** **** 0

# MOE 2024.06 (io_trps.svl 2023.06)
