@<TRIPOS>MOLECULE
NONAME
32 33 1 0 0 
SMALL
USER_CHARGES


@<TRIPOS>ATOM
  1 F       -0.3060     0.6470     0.1610 F     1 <1>  -0.1900 
  2 C        0.5440     1.6330     0.1170 C.ar  1 <1>   0.1900 
  3 C        0.6660     2.4620     1.2140 C.ar  1 <1>  -0.1500 
  4 C        1.2960     1.8180    -1.0260 C.ar  1 <1>  -0.1500 
  5 C        1.5750     3.5050     1.1590 C.ar  1 <1>  -0.1500 
  6 C        2.2000     2.8660    -1.0640 C.ar  1 <1>  -0.1500 
  7 C        2.3670     3.7280     0.0270 C.ar  1 <1>   0.0860 
  8 C        3.3270     4.8200    -0.0060 C.2   1 <1>   0.5440 
  9 O        3.2050     5.7870     0.7220 O.2   1 <1>  -0.5700 
 10 N        4.4450     4.7860    -0.8090 N.am  1 <1>  -0.6600 
 11 C        5.0390     6.0780    -1.2610 C.3   1 <1>   0.1400 
 12 C        5.4590     3.7190    -0.5810 C.3   1 <1>   0.1400 
 13 C        6.0760     6.5680    -0.2330 C.3   1 <1>   0.3430 
 14 C        6.5220     4.2070     0.4290 C.3   1 <1>   0.3430 
 15 N        7.1380     5.5280     0.0340 N.4   1 <1>  -0.9590 
 16 C        8.0840     6.0070     1.0860 C.3   1 <1>   0.2630 
 17 H        0.0600     2.2940     2.0860 H     1 <1>   0.1500 
 18 H        1.1680     1.1560    -1.8640 H     1 <1>   0.1500 
 19 H        1.6730     4.1630     2.0060 H     1 <1>   0.1500 
 20 H        2.7790     3.0230    -1.9580 H     1 <1>   0.1500 
 21 H        4.2610     6.8180    -1.3610 H     1 <1>   0.0800 
 22 H        5.4980     5.9520    -2.2260 H     1 <1>   0.0800 
 23 H        5.9260     3.4590    -1.5150 H     1 <1>   0.0800 
 24 H        4.9830     2.8340    -0.1930 H     1 <1>   0.0800 
 25 H        5.5520     6.7960     0.6820 H     1 <1>   0.0800 
 26 H        6.5290     7.4770    -0.5910 H     1 <1>   0.0800 
 27 H        7.2910     3.4570     0.5230 H     1 <1>   0.0800 
 28 H        6.0450     4.3100     1.3900 H     1 <1>   0.0800 
 29 H        7.6600     5.3850    -0.8420 H     1 <1>   0.4500 
 30 H        7.5590     6.1730     2.0130 H     1 <1>   0.0800 
 31 H        8.5450     6.9340     0.7820 H     1 <1>   0.0800 
 32 H        8.8600     5.2780     1.2550 H     1 <1>   0.0800 
@<TRIPOS>BOND
  1   1   2  1   
  2   2   3  ar  
  3   2   4  ar  
  4   3   5  ar  
  5   3  17  1   
  6   4   6  ar  
  7   4  18  1   
  8   5   7  ar  
  9   5  19  1   
 10   6   7  ar  
 11   6  20  1   
 12   7   8  1   
 13   8   9  2   
 14   8  10  am  
 15  10  11  1   
 16  10  12  1   
 17  11  13  1   
 18  11  21  1   
 19  11  22  1   
 20  12  14  1   
 21  12  23  1   
 22  12  24  1   
 23  13  15  1   
 24  13  25  1   
 25  13  26  1   
 26  14  15  1   
 27  14  27  1   
 28  14  28  1   
 29  15  16  1   
 30  15  29  1   
 31  16  30  1   
 32  16  31  1   
 33  16  32  1   
@<TRIPOS>SUBSTRUCTURE
  1 ****   8 GROUP 4 **** **** 0

# MOE 2024.06 (io_trps.svl 2023.06)
