@<TRIPOS>MOLECULE
NONAME
26 27 1 0 0 
SMALL
USER_CHARGES


@<TRIPOS>ATOM
  1 S       -0.0880     0.2510    -0.4340 S.o2  1 <1>   1.3450 
  2 O        0.9570     1.1430     0.1320 O.co2 1 <1>  -0.8170 
  3 O       -0.4880     0.6540    -1.8040 O.co2 1 <1>  -0.8170 
  4 O        0.2580    -1.1860    -0.3300 O.co2 1 <1>  -0.8170 
  5 C       -1.5590     0.5510     0.6480 C.3   1 <1>   0.3250 
  6 N       -2.7840    -0.2580     0.3290 N.am  1 <1>  -0.4770 
  7 C       -2.0350     2.0150     0.5520 C.3   1 <1>  -0.0170 
  8 C       -3.8280     0.5860    -0.0460 C.ar  1 <1>   0.1170 
  9 C       -2.7690    -1.6020     0.5610 C.2   1 <1>   0.5690 
 10 C       -3.4640     1.9080     0.0690 C.ar  1 <1>  -0.1440 
 11 C       -5.1120     0.2610    -0.4630 C.ar  1 <1>  -0.1500 
 12 O       -2.3500    -2.0640     1.5940 O.2   1 <1>  -0.5700 
 13 C       -3.3070    -2.5460    -0.4860 C.3   1 <1>  -0.1790 
 14 C       -4.3440     2.9290    -0.2360 C.ar  1 <1>  -0.1500 
 15 C       -6.0060     1.2740    -0.7710 C.ar  1 <1>  -0.1500 
 16 C       -5.6240     2.6040    -0.6600 C.ar  1 <1>  -0.1500 
 17 H       -1.2840     0.3380     1.6630 H     1 <1>   0.0800 
 18 H       -1.4360     2.5720    -0.1470 H     1 <1>   0.0800 
 19 H       -1.9830     2.4850     1.5160 H     1 <1>   0.0800 
 20 H       -5.4120    -0.7650    -0.5450 H     1 <1>   0.1500 
 21 H       -4.2690    -2.9110    -0.1860 H     1 <1>   0.0800 
 22 H       -2.6280    -3.3720    -0.5860 H     1 <1>   0.0800 
 23 H       -3.3780    -2.0460    -1.4340 H     1 <1>   0.0800 
 24 H       -4.0390     3.9560    -0.1480 H     1 <1>   0.1500 
 25 H       -7.0010     1.0300    -1.0990 H     1 <1>   0.1500 
 26 H       -6.3210     3.3860    -0.9030 H     1 <1>   0.1500 
@<TRIPOS>BOND
  1   1   2  ar  
  2   1   3  ar  
  3   1   4  ar  
  4   1   5  1   
  5   5   6  1   
  6   5   7  1   
  7   5  17  1   
  8   6   8  1   
  9   6   9  am  
 10   7  10  1   
 11   7  18  1   
 12   7  19  1   
 13   8  10  ar  
 14   8  11  ar  
 15   9  12  2   
 16   9  13  1   
 17  10  14  ar  
 18  11  15  ar  
 19  11  20  1   
 20  13  21  1   
 21  13  22  1   
 22  13  23  1   
 23  14  16  ar  
 24  14  24  1   
 25  15  16  ar  
 26  15  25  1   
 27  16  26  1   
@<TRIPOS>SUBSTRUCTURE
  1 ****   6 GROUP 4 **** **** 0

# MOE 2024.06 (io_trps.svl 2023.06)
