@<TRIPOS>MOLECULE
NONAME
51 53 1 0 0 
SMALL
USER_CHARGES


@<TRIPOS>ATOM
  1 F        8.5210    -3.0220    -2.5170 F     1 <1>  -0.1900 
  2 C        7.6800    -2.7080    -1.5680 C.ar  1 <1>   0.1900 
  3 C        6.3630    -3.1000    -1.6940 C.ar  1 <1>  -0.1500 
  4 C        8.1450    -1.9960    -0.4800 C.ar  1 <1>  -0.1500 
  5 C        5.4560    -2.7750    -0.6920 C.ar  1 <1>   0.1170 
  6 C        7.2450    -1.6670     0.5190 C.ar  1 <1>  -0.1500 
  7 N        4.1180    -3.1750    -0.8450 N.am  1 <1>  -0.5470 
  8 C        5.9180    -2.0520     0.4090 C.ar  1 <1>  -0.1500 
  9 C        3.1360    -3.3580     0.0880 C.2   1 <1>   0.5690 
 10 O        3.2940    -3.2150     1.2740 O.2   1 <1>  -0.5700 
 11 C        1.7650    -3.7830    -0.3940 C.3   1 <1>  -0.0990 
 12 C        0.7580    -3.6400     0.7520 C.3   1 <1>   0.3430 
 13 N       -0.6270    -4.0110     0.3370 N.4   1 <1>  -0.9590 
 14 C       -1.6170    -3.5520     1.3830 C.3   1 <1>   0.3430 
 15 C       -0.7920    -5.4970     0.1080 C.3   1 <1>   0.3430 
 16 C       -3.0730    -3.9020     1.0150 C.3   1 <1>   0.2090 
 17 C       -2.2340    -5.8800    -0.2800 C.3   1 <1>   0.2090 
 18 N       -3.2170    -5.3570     0.7140 N.pl3 1 <1>  -0.8380 
 19 C       -4.5380    -5.7720     0.4930 C.ar  1 <1>   0.1000 
 20 C       -5.3120    -5.3770    -0.6150 C.ar  1 <1>   0.0830 
 21 C       -5.1020    -6.6230     1.4320 C.ar  1 <1>  -0.1500 
 22 O       -4.7460    -4.5350    -1.5390 O.3   1 <1>  -0.3620 
 23 C       -6.6160    -5.8470    -0.7430 C.ar  1 <1>  -0.1500 
 24 C       -6.3980    -7.0840     1.2970 C.ar  1 <1>  -0.1500 
 25 C       -5.4760    -4.0940    -2.6650 C.3   1 <1>   0.0400 
 26 C       -7.1560    -6.6960     0.2080 C.ar  1 <1>  -0.1500 
 27 H        6.0620    -3.6540    -2.5620 H     1 <1>   0.1500 
 28 H        9.1800    -1.7100    -0.4190 H     1 <1>   0.1500 
 29 H        7.5740    -1.1120     1.3810 H     1 <1>   0.1500 
 30 H        3.8720    -3.4060    -1.8060 H     1 <1>   0.3700 
 31 H        5.2400    -1.7760     1.1970 H     1 <1>   0.1500 
 32 H        1.8280    -4.8040    -0.7170 H     1 <1>   0.0800 
 33 H        1.4760    -3.1540    -1.2150 H     1 <1>   0.0800 
 34 H        0.7730    -2.6160     1.0900 H     1 <1>   0.0800 
 35 H        1.0720    -4.2560     1.5810 H     1 <1>   0.0800 
 36 H       -0.8760    -3.5280    -0.5360 H     1 <1>   0.4500 
 37 H       -1.5400    -2.4870     1.5200 H     1 <1>   0.0800 
 38 H       -1.3900    -4.0230     2.3260 H     1 <1>   0.0800 
 39 H       -0.5370    -6.0310     1.0090 H     1 <1>   0.0800 
 40 H       -0.1270    -5.8280    -0.6710 H     1 <1>   0.0800 
 41 H       -3.3820    -3.3180     0.1670 H     1 <1>   0.0800 
 42 H       -3.7190    -3.6510     1.8390 H     1 <1>   0.0800 
 43 H       -2.3200    -6.9520    -0.3230 H     1 <1>   0.0800 
 44 H       -2.4600    -5.4950    -1.2580 H     1 <1>   0.0800 
 45 H       -4.5130    -6.9260     2.2780 H     1 <1>   0.1500 
 46 H       -7.2380    -5.5700    -1.5730 H     1 <1>   0.1500 
 47 H       -6.8160    -7.7440     2.0370 H     1 <1>   0.1500 
 48 H       -4.8450    -3.4440    -3.2430 H     1 <1>   0.0800 
 49 H       -6.3450    -3.5540    -2.3310 H     1 <1>   0.0800 
 50 H       -5.7570    -4.9480    -3.2560 H     1 <1>   0.0800 
 51 H       -8.1650    -7.0540     0.1020 H     1 <1>   0.1500 
@<TRIPOS>BOND
  1   1   2  1   
  2   2   3  ar  
  3   2   4  ar  
  4   3   5  ar  
  5   3  27  1   
  6   4   6  ar  
  7   4  28  1   
  8   5   7  1   
  9   5   8  ar  
 10   6   8  ar  
 11   6  29  1   
 12   7   9  am  
 13   7  30  1   
 14   8  31  1   
 15   9  10  2   
 16   9  11  1   
 17  11  12  1   
 18  11  32  1   
 19  11  33  1   
 20  12  13  1   
 21  12  34  1   
 22  12  35  1   
 23  13  14  1   
 24  13  15  1   
 25  13  36  1   
 26  14  16  1   
 27  14  37  1   
 28  14  38  1   
 29  15  17  1   
 30  15  39  1   
 31  15  40  1   
 32  16  18  1   
 33  16  41  1   
 34  16  42  1   
 35  17  18  1   
 36  17  43  1   
 37  17  44  1   
 38  18  19  1   
 39  19  20  ar  
 40  19  21  ar  
 41  20  22  1   
 42  20  23  ar  
 43  21  24  ar  
 44  21  45  1   
 45  22  25  1   
 46  23  26  ar  
 47  23  46  1   
 48  24  26  ar  
 49  24  47  1   
 50  25  48  1   
 51  25  49  1   
 52  25  50  1   
 53  26  51  1   
@<TRIPOS>SUBSTRUCTURE
  1 ****  13 GROUP 4 **** **** 0

# MOE 2024.06 (io_trps.svl 2023.06)
