@<TRIPOS>MOLECULE
NONAME
37 38 1 0 0 
SMALL
USER_CHARGES


@<TRIPOS>ATOM
  1 BR      -0.4200     1.3340    -1.7940 Br    1 <1>  -0.1110 
  2 C       -2.2290     1.6480    -1.2130 C.ar  1 <1>   0.1110 
  3 C       -3.0790     2.3610    -2.0360 C.ar  1 <1>  -0.1500 
  4 C       -2.6290     1.1500     0.0130 C.ar  1 <1>  -0.1500 
  5 C       -4.3770     2.5820    -1.6090 C.ar  1 <1>  -0.1500 
  6 C       -3.9300     1.3760     0.4310 C.ar  1 <1>  -0.1500 
  7 C       -4.8090     2.0950    -0.3820 C.ar  1 <1>   0.0830 
  8 O       -6.0970     2.3590    -0.0470 O.3   1 <1>  -0.3630 
  9 C       -6.6370     1.9210     1.1950 C.3   1 <1>   0.1810 
 10 C       -8.0940     2.3420     1.3540 C.2   1 <1>   0.5690 
 11 O       -8.6950     1.9690     2.3330 O.2   1 <1>  -0.5700 
 12 N       -8.6780     3.1130     0.4010 N.am  1 <1>  -0.7300 
 13 C      -10.0630     3.6320     0.4310 C.3   1 <1>   0.2200 
 14 C      -10.9870     2.7730    -0.4620 C.3   1 <1>   0.2000 
 15 C      -10.0070     5.0940    -0.0150 C.3   1 <1>  -0.2400 
 16 O      -12.2840     3.2960    -0.4810 O.3   1 <1>  -0.5600 
 17 C      -11.1390     1.3260    -0.0050 C.3   1 <1>  -0.1600 
 18 C      -13.2540     2.2930    -0.4640 C.3   1 <1>   0.1200 
 19 C      -12.5140     0.9640    -0.5250 C.3   1 <1>  -0.1600 
 20 H       -2.7310     2.7330    -2.9830 H     1 <1>   0.1500 
 21 H       -1.9360     0.5990     0.6240 H     1 <1>   0.1500 
 22 H       -5.0620     3.1340    -2.2270 H     1 <1>   0.1500 
 23 H       -4.2340     0.9870     1.3840 H     1 <1>   0.1500 
 24 H       -6.0590     2.3540     1.9900 H     1 <1>   0.0800 
 25 H       -6.5750     0.8500     1.2350 H     1 <1>   0.0800 
 26 H       -8.1120     3.3840    -0.4070 H     1 <1>   0.3700 
 27 H      -10.4320     3.5860     1.4430 H     1 <1>   0.0800 
 28 H      -10.6340     2.7970    -1.4780 H     1 <1>   0.0800 
 29 H       -9.6690     5.1690    -1.0330 H     1 <1>   0.0800 
 30 H       -9.3520     5.6530     0.6280 H     1 <1>   0.0800 
 31 H      -10.9890     5.5280     0.0480 H     1 <1>   0.0800 
 32 H      -11.1230     1.2800     1.0710 H     1 <1>   0.0800 
 33 H      -10.3620     0.6950    -0.3970 H     1 <1>   0.0800 
 34 H      -13.9170     2.4300    -1.3010 H     1 <1>   0.0800 
 35 H      -13.8010     2.3870     0.4580 H     1 <1>   0.0800 
 36 H      -12.9950     0.2050     0.0660 H     1 <1>   0.0800 
 37 H      -12.4540     0.6360    -1.5480 H     1 <1>   0.0800 
@<TRIPOS>BOND
  1   1   2  1   
  2   2   3  ar  
  3   2   4  ar  
  4   3   5  ar  
  5   3  20  1   
  6   4   6  ar  
  7   4  21  1   
  8   5   7  ar  
  9   5  22  1   
 10   6   7  ar  
 11   6  23  1   
 12   7   8  1   
 13   8   9  1   
 14   9  10  1   
 15   9  24  1   
 16   9  25  1   
 17  10  11  2   
 18  10  12  am  
 19  12  13  1   
 20  12  26  1   
 21  13  14  1   
 22  13  15  1   
 23  13  27  1   
 24  14  16  1   
 25  14  17  1   
 26  14  28  1   
 27  15  29  1   
 28  15  30  1   
 29  15  31  1   
 30  16  18  1   
 31  17  19  1   
 32  17  32  1   
 33  17  33  1   
 34  18  19  1   
 35  18  34  1   
 36  18  35  1   
 37  19  36  1   
 38  19  37  1   
@<TRIPOS>SUBSTRUCTURE
  1 ****   8 GROUP 4 **** **** 0

# MOE 2024.06 (io_trps.svl 2023.06)
