@<TRIPOS>MOLECULE
NONAME
38 39 1 0 0 
SMALL
USER_CHARGES


@<TRIPOS>ATOM
  1 N       -7.7020     2.8510    -0.4330 N.pl3 1 <1>   0.3260 
  2 C       -7.8920     1.4680    -0.2040 C.ar  1 <1>  -0.0230 
  3 C       -6.5060     3.5180    -0.4110 C.2   1 <1>  -0.3320 
  4 C       -8.6550     3.7820    -0.7180 C.2   1 <1>  -0.3020 
  5 C       -7.8330     0.5660    -1.2600 C.ar  1 <1>  -0.1500 
  6 C       -8.1140     0.9930     1.0830 C.ar  1 <1>  -0.1500 
  7 C       -6.7130     4.8400    -0.6770 C.2   1 <1>  -0.1500 
  8 C       -5.2490     2.7380    -0.1180 C.3   1 <1>   0.5230 
  9 C       -8.0880     5.0030    -0.8720 C.2   1 <1>  -0.1500 
 10 C       -7.9750    -0.7910    -1.0290 C.ar  1 <1>  -0.1500 
 11 C       -8.2570    -0.3640     1.3130 C.ar  1 <1>  -0.1500 
 12 N       -4.1310     3.6870    -0.1570 N.4   1 <1>  -0.9060 
 13 C       -8.1840    -1.2560     0.2570 C.ar  1 <1>  -0.1500 
 14 C       -2.8190     3.0640     0.1140 C.3   1 <1>   0.3430 
 15 C       -1.7390     4.1400     0.0480 C.3   1 <1>  -0.1600 
 16 C       -0.3540     3.5400     0.3230 C.3   1 <1>  -0.1600 
 17 C        0.7320     4.6170     0.2570 C.3   1 <1>  -0.2400 
 18 H       -9.6940     3.5120    -0.7930 H     1 <1>   0.1500 
 19 H       -7.6820     0.9200    -2.2650 H     1 <1>   0.1500 
 20 H       -8.1830     1.6810     1.9080 H     1 <1>   0.1500 
 21 H       -6.0170     5.6590    -0.7430 H     1 <1>   0.1500 
 22 H       -5.1160     1.9650    -0.8590 H     1 <1>   0.0800 
 23 H       -5.3220     2.2780     0.8550 H     1 <1>   0.0800 
 24 H       -8.5800     5.9350    -1.1010 H     1 <1>   0.1500 
 25 H       -7.9300    -1.4880    -1.8490 H     1 <1>   0.1500 
 26 H       -8.4300    -0.7290     2.3110 H     1 <1>   0.1500 
 27 H       -4.3340     4.4250     0.5260 H     1 <1>   0.4500 
 28 H       -4.1410     4.1320    -1.0810 H     1 <1>   0.4500 
 29 H       -8.2970    -2.3130     0.4360 H     1 <1>   0.1500 
 30 H       -2.6110     2.2990    -0.6180 H     1 <1>   0.0800 
 31 H       -2.8160     2.6110     1.0930 H     1 <1>   0.0800 
 32 H       -1.9380     4.9020     0.7810 H     1 <1>   0.0800 
 33 H       -1.7330     4.5900    -0.9300 H     1 <1>   0.0800 
 34 H       -0.1300     2.7760    -0.4030 H     1 <1>   0.0800 
 35 H       -0.3340     3.0860     1.3010 H     1 <1>   0.0800 
 36 H        0.7610     5.0720    -0.7180 H     1 <1>   0.0800 
 37 H        1.6960     4.1800     0.4520 H     1 <1>   0.0800 
 38 H        0.5550     5.3840     0.9920 H     1 <1>   0.0800 
@<TRIPOS>BOND
  1   1   2  1   
  2   1   3  1   
  3   1   4  1   
  4   2   5  ar  
  5   2   6  ar  
  6   3   7  2   
  7   3   8  1   
  8   4   9  2   
  9   4  18  1   
 10   5  10  ar  
 11   5  19  1   
 12   6  11  ar  
 13   6  20  1   
 14   7   9  1   
 15   7  21  1   
 16   8  12  1   
 17   8  22  1   
 18   8  23  1   
 19   9  24  1   
 20  10  13  ar  
 21  10  25  1   
 22  11  13  ar  
 23  11  26  1   
 24  12  14  1   
 25  12  27  1   
 26  12  28  1   
 27  13  29  1   
 28  14  15  1   
 29  14  30  1   
 30  14  31  1   
 31  15  16  1   
 32  15  32  1   
 33  15  33  1   
 34  16  17  1   
 35  16  34  1   
 36  16  35  1   
 37  17  36  1   
 38  17  37  1   
 39  17  38  1   
@<TRIPOS>SUBSTRUCTURE
  1 ****   8 GROUP 4 **** **** 0

# MOE 2024.06 (io_trps.svl 2023.06)
