@<TRIPOS>MOLECULE
NONAME
31 32 1 0 0 
SMALL
USER_CHARGES


@<TRIPOS>ATOM
  1 S       -0.1380    -0.0630    -0.3220 S.3   1 <1>  -0.3320 
  2 C       -0.0810    -1.8410    -0.1510 C.ar  1 <1>   0.7220 
  3 C        1.6160     0.4940    -0.1490 C.3   1 <1>  -0.0100 
  4 N        1.0930    -2.3620     0.0400 N.ar  1 <1>  -0.6200 
  5 N       -1.2290    -2.4370    -0.2360 N.ar  1 <1>  -0.6200 
  6 C        1.0610    -3.6700     0.1570 C.ar  1 <1>   0.7200 
  7 C       -1.1210    -3.7320    -0.1030 C.ar  1 <1>   0.7200 
  8 N       -0.0230    -4.4030     0.0940 N.ar  1 <1>  -0.6200 
  9 N        2.2600    -4.3160     0.3640 N.pl3 1 <1>  -0.8380 
 10 N       -2.2430    -4.4850    -0.1690 N.pl3 1 <1>  -0.8690 
 11 C        2.3710    -5.7920     0.5950 C.3   1 <1>   0.2090 
 12 C        3.5730    -3.6080     0.4990 C.3   1 <1>   0.2090 
 13 C       -3.6390    -4.0150    -0.3600 C.3   1 <1>   0.1290 
 14 C        3.5470    -6.3870    -0.2000 C.3   1 <1>   0.1200 
 15 C        4.6740    -4.3370    -0.2920 C.3   1 <1>   0.1200 
 16 O        4.7350    -5.6920     0.0570 O.3   1 <1>  -0.5600 
 17 H        1.6300     1.5650    -0.2420 H     1 <1>   0.0800 
 18 H        2.1870     0.0300    -0.9320 H     1 <1>   0.0800 
 19 H        1.9650     0.1850     0.8200 H     1 <1>   0.0800 
 20 H       -2.0880    -5.4840    -0.0370 H     1 <1>   0.4000 
 21 H        1.4710    -6.3040     0.3050 H     1 <1>   0.0800 
 22 H        2.5280    -5.9730     1.6440 H     1 <1>   0.0800 
 23 H        3.8500    -3.5750     1.5380 H     1 <1>   0.0800 
 24 H        3.5110    -2.5960     0.1420 H     1 <1>   0.0800 
 25 H       -3.6700    -2.9510    -0.5200 H     1 <1>   0.0800 
 26 H       -4.2220    -4.2500     0.5140 H     1 <1>   0.0800 
 27 H       -4.0710    -4.5040    -1.2150 H     1 <1>   0.0800 
 28 H        3.3430    -6.3430    -1.2560 H     1 <1>   0.0800 
 29 H        3.7000    -7.4140     0.0790 H     1 <1>   0.0800 
 30 H        5.6330    -3.9000    -0.0800 H     1 <1>   0.0800 
 31 H        4.4860    -4.2620    -1.3490 H     1 <1>   0.0800 
@<TRIPOS>BOND
  1   1   2  1   
  2   1   3  1   
  3   2   4  ar  
  4   2   5  ar  
  5   3  17  1   
  6   3  18  1   
  7   3  19  1   
  8   4   6  ar  
  9   5   7  ar  
 10   6   8  ar  
 11   6   9  1   
 12   7   8  ar  
 13   7  10  1   
 14   9  11  1   
 15   9  12  1   
 16  10  13  1   
 17  10  20  1   
 18  11  14  1   
 19  11  21  1   
 20  11  22  1   
 21  12  15  1   
 22  12  23  1   
 23  12  24  1   
 24  13  25  1   
 25  13  26  1   
 26  13  27  1   
 27  14  16  1   
 28  14  28  1   
 29  14  29  1   
 30  15  16  1   
 31  15  30  1   
 32  15  31  1   
@<TRIPOS>SUBSTRUCTURE
  1 ****   6 GROUP 4 **** **** 0

# MOE 2024.06 (io_trps.svl 2023.06)
