@<TRIPOS>MOLECULE
NONAME
33 33 1 0 0 
SMALL
USER_CHARGES


@<TRIPOS>ATOM
  1 S        0.2000     0.0310    -0.4370 S.o2  1 <1>   1.4470 
  2 O        0.6360     1.3700    -0.7480 O.2   1 <1>  -0.6500 
  3 O        0.6080    -1.0660    -1.2810 O.2   1 <1>  -0.6500 
  4 N        1.0030    -0.2570     0.9820 N.am  1 <1>  -0.9780 
  5 C       -1.5680    -0.0200    -0.0030 C.ar  1 <1>  -0.0090 
  6 C       -2.2330    -1.1840     0.3850 C.ar  1 <1>  -0.1430 
  7 C       -2.3040     1.1590    -0.0470 C.ar  1 <1>  -0.1500 
  8 C       -3.5800    -1.1400     0.7080 C.ar  1 <1>  -0.1500 
  9 C       -1.5170    -2.5270     0.4650 C.3   1 <1>  -0.0970 
 10 C       -3.6520     1.2230     0.2730 C.ar  1 <1>  -0.1430 
 11 C       -4.3000     0.0500     0.6580 C.ar  1 <1>   0.0830 
 12 C       -4.3440     2.5920     0.1810 C.3   1 <1>   0.0630 
 13 O       -5.6200     0.1030     0.9740 O.3   1 <1>  -0.3620 
 14 C       -4.8600     3.0720     1.5420 C.3   1 <1>  -0.2400 
 15 C       -5.4540     2.6070    -0.8770 C.3   1 <1>  -0.2400 
 16 C       -6.3530    -1.0330     1.3750 C.3   1 <1>   0.0400 
 17 H        1.2990     0.6710     1.2730 H     1 <1>   0.4200 
 18 H        1.8460    -0.7340     0.6760 H     1 <1>   0.4200 
 19 H       -1.7960     2.0610    -0.3450 H     1 <1>   0.1500 
 20 H       -4.0640    -2.0510     1.0010 H     1 <1>   0.1500 
 21 H       -0.6610    -2.4610     1.1120 H     1 <1>   0.0800 
 22 H       -1.1930    -2.8340    -0.5140 H     1 <1>   0.0800 
 23 H       -2.1640    -3.2920     0.8540 H     1 <1>   0.0800 
 24 H       -3.6130     3.3150    -0.1380 H     1 <1>   0.0800 
 25 H       -5.6650     2.4520     1.8910 H     1 <1>   0.0800 
 26 H       -5.2180     4.0830     1.4680 H     1 <1>   0.0800 
 27 H       -4.0650     3.0400     2.2660 H     1 <1>   0.0800 
 28 H       -6.2730     1.9750    -0.5870 H     1 <1>   0.0800 
 29 H       -5.0670     2.2560    -1.8170 H     1 <1>   0.0800 
 30 H       -5.8260     3.6060    -1.0090 H     1 <1>   0.0800 
 31 H       -7.3650    -0.7240     1.5670 H     1 <1>   0.0800 
 32 H       -5.9160    -1.4310     2.2730 H     1 <1>   0.0800 
 33 H       -6.3370    -1.7570     0.5800 H     1 <1>   0.0800 
@<TRIPOS>BOND
  1   1   2  2   
  2   1   3  2   
  3   1   4  am  
  4   1   5  1   
  5   4  17  1   
  6   4  18  1   
  7   5   6  ar  
  8   5   7  ar  
  9   6   8  ar  
 10   6   9  1   
 11   7  10  ar  
 12   7  19  1   
 13   8  11  ar  
 14   8  20  1   
 15   9  21  1   
 16   9  22  1   
 17   9  23  1   
 18  10  11  ar  
 19  10  12  1   
 20  11  13  1   
 21  12  14  1   
 22  12  15  1   
 23  12  24  1   
 24  13  16  1   
 25  14  25  1   
 26  14  26  1   
 27  14  27  1   
 28  15  28  1   
 29  15  29  1   
 30  15  30  1   
 31  16  31  1   
 32  16  32  1   
 33  16  33  1   
@<TRIPOS>SUBSTRUCTURE
  1 ****   7 GROUP 4 **** **** 0

# MOE 2024.06 (io_trps.svl 2023.06)
