@<TRIPOS>MOLECULE
Structure2525
29 30 1 0 0 
SMALL
USER_CHARGES


@<TRIPOS>ATOM
  1 O        0.1080     0.3920     0.5400 O.3   1 <1>  -0.3630 
  2 C        1.4460     0.3300     0.3230 C.ar  1 <1>   0.0830 
  3 C       -0.6060     1.5870     0.3490 C.3   1 <1>   0.1200 
  4 C        2.2270     1.4280    -0.0270 C.ar  1 <1>  -0.1500 
  5 C        2.0430    -0.9130     0.4620 C.ar  1 <1>  -0.1500 
  6 C       -2.0800     1.2790     0.6100 C.3   1 <1>   0.0000 
  7 C        3.5860     1.2700    -0.2390 C.ar  1 <1>  -0.1500 
  8 C        3.4020    -1.0650     0.2490 C.ar  1 <1>  -0.1500 
  9 C       -2.5940     0.0500    -0.1670 C.3   1 <1>   0.4720 
 10 C       -3.0620     2.0920    -0.2540 C.3   1 <1>   0.4720 
 11 C        4.1800     0.0250    -0.1020 C.ar  1 <1>  -0.1440 
 12 N       -3.8490     0.8280    -0.4250 N.4   1 <1>  -0.8440 
 13 C        5.6700    -0.1420    -0.3370 C.3   1 <1>  -0.0970 
 14 H       -0.4430     1.9090    -0.6650 H     1 <1>   0.0800 
 15 H       -0.2360     2.3250     1.0400 H     1 <1>   0.0800 
 16 H        1.8090     2.4090    -0.1390 H     1 <1>   0.1500 
 17 H        1.4450    -1.7620     0.7370 H     1 <1>   0.1500 
 18 H       -2.3470     1.2660     1.6530 H     1 <1>   0.0000 
 19 H        4.1850     2.1220    -0.5110 H     1 <1>   0.1500 
 20 H        3.8510    -2.0370     0.3580 H     1 <1>   0.1500 
 21 H       -2.7680    -0.8210     0.4390 H     1 <1>   0.0000 
 22 H       -2.0570    -0.1330    -1.0800 H     1 <1>   0.0000 
 23 H       -2.6410     2.4150    -1.1900 H     1 <1>   0.0000 
 24 H       -3.6090     2.8470     0.2810 H     1 <1>   0.0000 
 25 H       -4.5430     0.6920     0.3180 H     1 <1>   0.4500 
 26 H       -4.2280     0.6920    -1.3670 H     1 <1>   0.4500 
 27 H        6.1960     0.7590    -0.0770 H     1 <1>   0.0800 
 28 H        5.8530    -0.3650    -1.3730 H     1 <1>   0.0800 
 29 H        6.0580    -0.9440     0.2650 H     1 <1>   0.0800 
@<TRIPOS>BOND
  1   1   2  1   
  2   1   3  1   
  3   2   4  ar  
  4   2   5  ar  
  5   3   6  1   
  6   3  14  1   
  7   3  15  1   
  8   4   7  ar  
  9   4  16  1   
 10   5   8  ar  
 11   5  17  1   
 12   6   9  1   
 13   6  10  1   
 14   6  18  1   
 15   7  11  ar  
 16   7  19  1   
 17   8  11  ar  
 18   8  20  1   
 19   9  12  1   
 20   9  21  1   
 21   9  22  1   
 22  10  12  1   
 23  10  23  1   
 24  10  24  1   
 25  11  13  1   
 26  12  25  1   
 27  12  26  1   
 28  13  27  1   
 29  13  28  1   
 30  13  29  1   
@<TRIPOS>SUBSTRUCTURE
  1 ****   2 GROUP 4 **** **** 0

# MOE 2024.06 (io_trps.svl 2023.06)
