@<TRIPOS>MOLECULE
NONAME
59 61 1 0 0 
SMALL
USER_CHARGES


@<TRIPOS>ATOM
  1 O        1.5460    -5.9270    -0.1360 O.3   1 <1>  -0.3630 
  2 C        0.2100    -6.0170     0.0980 C.ar  1 <1>   0.0830 
  3 C        2.4200    -7.0180     0.0610 C.3   1 <1>   0.1200 
  4 C       -0.5370    -4.8440     0.2980 C.ar  1 <1>  -0.1440 
  5 C       -0.4090    -7.2660     0.1360 C.ar  1 <1>  -0.1500 
  6 C        3.8600    -6.4970    -0.0090 C.3   1 <1>   0.2000 
  7 C       -1.9020    -4.9950     0.5460 C.ar  1 <1>  -0.1500 
  8 C        0.1050    -3.4240     0.2520 C.3   1 <1>   0.1440 
  9 C       -1.7610    -7.3770     0.3840 C.ar  1 <1>  -0.1500 
 10 O        4.0130    -5.7420    -1.1740 O.3   1 <1>  -0.6800 
 11 C        4.9050    -7.6330    -0.0040 C.3   1 <1>   0.3430 
 12 C       -2.5070    -6.2370     0.5910 C.ar  1 <1>  -0.1500 
 13 C        0.7090    -3.1490    -1.1360 C.3   1 <1>  -0.2400 
 14 C       -0.9080    -2.2890     0.5060 C.3   1 <1>  -0.2400 
 15 C        1.1850    -3.2780     1.3390 C.3   1 <1>  -0.2400 
 16 N        6.1890    -7.1690    -0.6120 N.4   1 <1>  -0.9590 
 17 C        7.0210    -8.3060    -1.1460 C.3   1 <1>   0.3430 
 18 C        6.9910    -6.3090     0.3330 C.3   1 <1>   0.3430 
 19 C        8.3500    -7.8300    -1.7740 C.3   1 <1>   0.2090 
 20 C        8.3180    -5.8200    -0.2880 C.3   1 <1>   0.2090 
 21 N        9.1170    -6.9550    -0.8380 N.pl3 1 <1>  -0.8380 
 22 C        9.9140    -7.6170     0.0720 C.ar  1 <1>   0.4100 
 23 N        9.2840    -8.3150     1.0100 N.ar  1 <1>  -0.6200 
 24 C       11.2980    -7.5260    -0.0310 C.ar  1 <1>  -0.1500 
 25 C       10.0710    -8.9430     1.8720 C.ar  1 <1>   0.1600 
 26 C       12.0990    -8.1840     0.8720 C.ar  1 <1>  -0.1500 
 27 C       11.4540    -8.9130     1.8510 C.ar  1 <1>  -0.1500 
 28 H        2.2370    -7.7430    -0.7120 H     1 <1>   0.0800 
 29 H        2.2170    -7.4470     1.0270 H     1 <1>   0.0800 
 30 H        0.1380    -8.1730    -0.0330 H     1 <1>   0.1500 
 31 H        4.0330    -5.8440     0.8290 H     1 <1>   0.0800 
 32 H       -2.5460    -4.1540     0.7130 H     1 <1>   0.1500 
 33 H       -2.2330    -8.3440     0.4130 H     1 <1>   0.1500 
 34 H        3.1940    -5.2040    -1.2980 H     1 <1>   0.4000 
 35 H        4.5130    -8.4480    -0.5900 H     1 <1>   0.0800 
 36 H        5.0660    -7.9940     0.9980 H     1 <1>   0.0800 
 37 H       -3.5630    -6.3140     0.7850 H     1 <1>   0.1500 
 38 H       -0.0430    -3.2830    -1.8930 H     1 <1>   0.0800 
 39 H        1.5240    -3.8080    -1.3550 H     1 <1>   0.0800 
 40 H        1.0780    -2.1410    -1.1980 H     1 <1>   0.0800 
 41 H       -1.3540    -2.3880     1.4800 H     1 <1>   0.0800 
 42 H       -1.6830    -2.2970    -0.2400 H     1 <1>   0.0800 
 43 H       -0.4250    -1.3290     0.4640 H     1 <1>   0.0800 
 44 H        0.7670    -3.5180     2.3000 H     1 <1>   0.0800 
 45 H        1.5560    -2.2690     1.3710 H     1 <1>   0.0800 
 46 H        2.0200    -3.9240     1.1620 H     1 <1>   0.0800 
 47 H        5.8900    -6.5590    -1.3950 H     1 <1>   0.4500 
 48 H        6.4620    -8.8560    -1.8830 H     1 <1>   0.0800 
 49 H        7.2620    -8.9800    -0.3400 H     1 <1>   0.0800 
 50 H        7.2310    -6.8770     1.2170 H     1 <1>   0.0800 
 51 H        6.4100    -5.4530     0.6320 H     1 <1>   0.0800 
 52 H        8.1530    -7.2900    -2.6840 H     1 <1>   0.0800 
 53 H        8.9470    -8.6890    -2.0270 H     1 <1>   0.0800 
 54 H        8.8950    -5.3140     0.4680 H     1 <1>   0.0800 
 55 H        8.1170    -5.1130    -1.0730 H     1 <1>   0.0800 
 56 H       11.7220    -6.9380    -0.8220 H     1 <1>   0.1500 
 57 H        9.5890    -9.5180     2.6450 H     1 <1>   0.1500 
 58 H       13.1730    -8.1350     0.8200 H     1 <1>   0.1500 
 59 H       12.0210    -9.4520     2.5890 H     1 <1>   0.1500 
@<TRIPOS>BOND
  1   1   2  1   
  2   1   3  1   
  3   2   4  ar  
  4   2   5  ar  
  5   3   6  1   
  6   3  28  1   
  7   3  29  1   
  8   4   7  ar  
  9   4   8  1   
 10   5   9  ar  
 11   5  30  1   
 12   6  10  1   
 13   6  11  1   
 14   6  31  1   
 15   7  12  ar  
 16   7  32  1   
 17   8  13  1   
 18   8  14  1   
 19   8  15  1   
 20   9  12  ar  
 21   9  33  1   
 22  10  34  1   
 23  11  16  1   
 24  11  35  1   
 25  11  36  1   
 26  12  37  1   
 27  13  38  1   
 28  13  39  1   
 29  13  40  1   
 30  14  41  1   
 31  14  42  1   
 32  14  43  1   
 33  15  44  1   
 34  15  45  1   
 35  15  46  1   
 36  16  17  1   
 37  16  18  1   
 38  16  47  1   
 39  17  19  1   
 40  17  48  1   
 41  17  49  1   
 42  18  20  1   
 43  18  50  1   
 44  18  51  1   
 45  19  21  1   
 46  19  52  1   
 47  19  53  1   
 48  20  21  1   
 49  20  54  1   
 50  20  55  1   
 51  21  22  1   
 52  22  23  ar  
 53  22  24  ar  
 54  23  25  ar  
 55  24  26  ar  
 56  24  56  1   
 57  25  27  ar  
 58  25  57  1   
 59  26  27  ar  
 60  26  58  1   
 61  27  59  1   
@<TRIPOS>SUBSTRUCTURE
  1 ****   6 GROUP 4 **** **** 0

# MOE 2024.06 (io_trps.svl 2023.06)
