@<TRIPOS>MOLECULE
NONAME
45 47 1 0 0 
SMALL
USER_CHARGES


@<TRIPOS>ATOM
  1 N       -0.1830     0.1210     0.3580 N.2   1 <1>  -0.5760 
  2 C        0.9140    -0.5220     0.1830 C.2   1 <1>   0.3750 
  3 C       -1.3330    -0.6090     0.2930 C.2   1 <1>  -0.0260 
  4 C        0.9790    -1.9430    -0.0680 C.2   1 <1>  -0.1240 
  5 C        2.1620     0.3430     0.2890 C.3   1 <1>  -0.1790 
  6 N       -1.3730    -1.9720     0.1230 N.pl3 1 <1>   0.6010 
  7 C       -2.6110    -0.1760     0.3530 C.2   1 <1>  -0.1500 
  8 C       -0.1730    -2.7070    -0.0100 C.2   1 <1>  -0.1690 
  9 C        2.3680    -2.5010    -0.4130 C.3   1 <1>  -0.1020 
 10 N       -2.6660    -2.3750     0.0370 N.2   1 <1>  -0.7070 
 11 C       -3.4060    -1.3000     0.1850 C.2   1 <1>   0.2350 
 12 C       -0.3300    -4.2730    -0.0690 C.3   1 <1>   0.1380 
 13 C       -4.8580    -1.3140     0.1700 C.ar  1 <1>   0.0540 
 14 C       -0.9950    -4.6900    -1.3920 C.3   1 <1>  -0.2400 
 15 C        0.9690    -5.1020     0.0290 C.3   1 <1>  -0.2400 
 16 C       -1.1660    -4.7890     1.1260 C.3   1 <1>  -0.2400 
 17 C       -5.6050    -0.1720    -0.1180 C.ar  1 <1>  -0.1500 
 18 C       -5.5650    -2.4840     0.4440 C.ar  1 <1>  -0.1500 
 19 C       -6.9880    -0.1950    -0.1210 C.ar  1 <1>  -0.1500 
 20 C       -6.9480    -2.5130     0.4410 C.ar  1 <1>  -0.1500 
 21 C       -7.6700    -1.3660     0.1610 C.ar  1 <1>  -0.1440 
 22 C       -9.1880    -1.3950     0.1560 C.3   1 <1>  -0.0970 
 23 H        2.8750    -0.1070     0.9540 H     1 <1>   0.0800 
 24 H        1.9110     1.3130     0.6820 H     1 <1>   0.0800 
 25 H        2.5980     0.4820    -0.6820 H     1 <1>   0.0800 
 26 H       -2.9360     0.8360     0.4970 H     1 <1>   0.1500 
 27 H        3.0710    -1.7500    -0.7100 H     1 <1>   0.0800 
 28 H        2.2990    -3.1440    -1.2670 H     1 <1>   0.0800 
 29 H        2.7890    -3.0240     0.4250 H     1 <1>   0.0800 
 30 H       -0.4190    -4.3300    -2.2250 H     1 <1>   0.0800 
 31 H       -1.9890    -4.2950    -1.4790 H     1 <1>   0.0800 
 32 H       -1.0670    -5.7610    -1.4610 H     1 <1>   0.0800 
 33 H        1.5400    -4.8130     0.8910 H     1 <1>   0.0800 
 34 H        1.5620    -5.0290    -0.8590 H     1 <1>   0.0800 
 35 H        0.7470    -6.1490     0.1330 H     1 <1>   0.0800 
 36 H       -2.2020    -4.5280     1.0540 H     1 <1>   0.0800 
 37 H       -0.7790    -4.3890     2.0470 H     1 <1>   0.0800 
 38 H       -1.1450    -5.8620     1.1900 H     1 <1>   0.0800 
 39 H       -5.1010     0.7480    -0.3480 H     1 <1>   0.1500 
 40 H       -5.0160    -3.3830     0.6620 H     1 <1>   0.1500 
 41 H       -7.5330     0.7050    -0.3470 H     1 <1>   0.1500 
 42 H       -7.4580    -3.4350     0.6570 H     1 <1>   0.1500 
 43 H       -9.5850    -0.4320     0.4220 H     1 <1>   0.0800 
 44 H       -9.5520    -2.1180     0.8640 H     1 <1>   0.0800 
 45 H       -9.5430    -1.6590    -0.8230 H     1 <1>   0.0800 
@<TRIPOS>BOND
  1   1   2  2   
  2   1   3  1   
  3   2   4  1   
  4   2   5  1   
  5   3   6  1   
  6   3   7  2   
  7   4   8  2   
  8   4   9  1   
  9   5  23  1   
 10   5  24  1   
 11   5  25  1   
 12   6   8  1   
 13   6  10  1   
 14   7  11  1   
 15   7  26  1   
 16   8  12  1   
 17   9  27  1   
 18   9  28  1   
 19   9  29  1   
 20  10  11  2   
 21  11  13  1   
 22  12  14  1   
 23  12  15  1   
 24  12  16  1   
 25  13  17  ar  
 26  13  18  ar  
 27  14  30  1   
 28  14  31  1   
 29  14  32  1   
 30  15  33  1   
 31  15  34  1   
 32  15  35  1   
 33  16  36  1   
 34  16  37  1   
 35  16  38  1   
 36  17  19  ar  
 37  17  39  1   
 38  18  20  ar  
 39  18  40  1   
 40  19  21  ar  
 41  19  41  1   
 42  20  21  ar  
 43  20  42  1   
 44  21  22  1   
 45  22  43  1   
 46  22  44  1   
 47  22  45  1   
@<TRIPOS>SUBSTRUCTURE
  1 ****  10 GROUP 4 **** **** 0

# MOE 2024.06 (io_trps.svl 2023.06)
