@<TRIPOS>MOLECULE
NONAME
35 35 1 0 0 
SMALL
USER_CHARGES


@<TRIPOS>ATOM
  1 O        0.4430     0.9940    -1.7040 O.2   1 <1>  -0.5700 
  2 C        0.3550     2.0070    -1.0490 C.2   1 <1>   0.4950 
  3 C        1.4080     2.4990    -0.2120 C.2   1 <1>   0.0290 
  4 C       -0.9640     2.7490    -1.1860 C.3   1 <1>  -0.0990 
  5 C        1.1990     3.7340     0.4920 C.2   1 <1>   0.4950 
  6 C        2.5780     1.7730    -0.1110 C.2   1 <1>  -0.0500 
  7 C       -1.3110     3.5940     0.0460 C.3   1 <1>   0.0000 
  8 O        2.0150     4.2650     1.2140 O.2   1 <1>  -0.5700 
  9 C       -0.1100     4.4970     0.3570 C.3   1 <1>  -0.0990 
 10 N        3.6630     2.0950     0.6340 N.pl3 1 <1>  -0.8690 
 11 C       -1.6360     2.6900     1.2510 C.3   1 <1>  -0.2400 
 12 C       -2.5430     4.4610    -0.2540 C.3   1 <1>  -0.2400 
 13 C        4.9140     1.3230     0.7410 C.3   1 <1>   0.2090 
 14 C        6.0670     2.1940     0.2520 C.3   1 <1>  -0.1600 
 15 C        7.3790     1.4130     0.2820 C.3   1 <1>   0.1200 
 16 O        8.3980     2.2550    -0.1180 O.3   1 <1>  -0.6800 
 17 H       -0.8960     3.3750    -2.0570 H     1 <1>   0.0800 
 18 H       -1.7480     2.0340    -1.3660 H     1 <1>   0.0800 
 19 H        2.6540     0.8540    -0.6750 H     1 <1>   0.1500 
 20 H       -0.2930     5.0360     1.2710 H     1 <1>   0.0800 
 21 H        0.0170     5.2250    -0.4230 H     1 <1>   0.0800 
 22 H        3.6350     2.9710     1.1900 H     1 <1>   0.4000 
 23 H       -0.8100     2.0540     1.5140 H     1 <1>   0.0800 
 24 H       -2.4810     2.0610     1.0310 H     1 <1>   0.0800 
 25 H       -1.8810     3.2860     2.1130 H     1 <1>   0.0800 
 26 H       -3.3930     3.8430    -0.4870 H     1 <1>   0.0800 
 27 H       -2.3620     5.1120    -1.0910 H     1 <1>   0.0800 
 28 H       -2.7940     5.0700     0.5980 H     1 <1>   0.0800 
 29 H        5.0680     1.0380     1.7690 H     1 <1>   0.0800 
 30 H        4.8400     0.4310     0.1430 H     1 <1>   0.0800 
 31 H        6.1510     3.0550     0.8900 H     1 <1>   0.0800 
 32 H        5.8590     2.5100    -0.7550 H     1 <1>   0.0800 
 33 H        7.3510     0.5720    -0.3900 H     1 <1>   0.0800 
 34 H        7.6070     1.0710     1.2780 H     1 <1>   0.0800 
 35 H        8.2040     2.6350    -0.9970 H     1 <1>   0.4000 
@<TRIPOS>BOND
  1   1   2  2   
  2   2   3  1   
  3   2   4  1   
  4   3   5  1   
  5   3   6  2   
  6   4   7  1   
  7   4  17  1   
  8   4  18  1   
  9   5   8  2   
 10   5   9  1   
 11   6  10  1   
 12   6  19  1   
 13   7   9  1   
 14   7  11  1   
 15   7  12  1   
 16   9  20  1   
 17   9  21  1   
 18  10  13  1   
 19  10  22  1   
 20  11  23  1   
 21  11  24  1   
 22  11  25  1   
 23  12  26  1   
 24  12  27  1   
 25  12  28  1   
 26  13  14  1   
 27  13  29  1   
 28  13  30  1   
 29  14  15  1   
 30  14  31  1   
 31  14  32  1   
 32  15  16  1   
 33  15  33  1   
 34  15  34  1   
 35  16  35  1   
@<TRIPOS>SUBSTRUCTURE
  1 ****   3 GROUP 4 **** **** 0

# MOE 2024.06 (io_trps.svl 2023.06)
