@<TRIPOS>MOLECULE
NONAME
47 49 1 0 0 
SMALL
USER_CHARGES


@<TRIPOS>ATOM
  1 F       -2.9380    -1.3840    -3.3490 F     1 <1>  -0.1900 
  2 C       -3.6360    -1.6750    -2.2840 C.ar  1 <1>   0.1900 
  3 C       -3.0640    -1.4860    -1.0410 C.ar  1 <1>  -0.1500 
  4 C       -4.9190    -2.1610    -2.4400 C.ar  1 <1>  -0.1500 
  5 C       -3.8090    -1.7940     0.0860 C.ar  1 <1>  -0.1500 
  6 C       -5.6540    -2.4640    -1.3060 C.ar  1 <1>  -0.1500 
  7 C       -5.1050    -2.2810    -0.0420 C.ar  1 <1>  -0.1430 
  8 C       -5.9280    -2.6150     1.1940 C.3   1 <1>   0.2540 
  9 N       -7.1230    -1.7500     1.2700 N.3   1 <1>  -0.8100 
 10 C       -8.0230    -2.1520     2.3740 C.3   1 <1>   0.1100 
 11 C       -6.7710    -0.3110     1.3770 C.3   1 <1>   0.1100 
 12 C       -9.3090    -1.2890     2.4270 C.3   1 <1>   0.3430 
 13 C       -8.0190     0.5990     1.4880 C.3   1 <1>   0.3430 
 14 N       -9.2830    -0.2000     1.3940 N.4   1 <1>  -0.9590 
 15 C      -10.5040     0.6280     1.3270 C.3   1 <1>   0.4810 
 16 C      -11.6260    -0.2510     0.8340 C.2   1 <1>  -0.2880 
 17 C      -12.1290    -0.2220    -0.4130 C.2   1 <1>  -0.1780 
 18 C      -13.1990    -1.0300    -0.9580 C.ar  1 <1>   0.0280 
 19 C      -13.4010    -1.0780    -2.3350 C.ar  1 <1>  -0.1500 
 20 C      -14.0600    -1.7770    -0.1540 C.ar  1 <1>  -0.1500 
 21 C      -14.4110    -1.8430    -2.8900 C.ar  1 <1>  -0.1500 
 22 C      -15.0710    -2.5440    -0.7030 C.ar  1 <1>  -0.1500 
 23 C      -15.2480    -2.5800    -2.0740 C.ar  1 <1>  -0.1500 
 24 H       -2.0600    -1.1090    -0.9630 H     1 <1>   0.1500 
 25 H       -5.3280    -2.2970    -3.4250 H     1 <1>   0.1500 
 26 H       -3.3710    -1.6530     1.0590 H     1 <1>   0.1500 
 27 H       -6.6570    -2.8420    -1.4060 H     1 <1>   0.1500 
 28 H       -5.3300    -2.4980     2.0830 H     1 <1>   0.0800 
 29 H       -6.2340    -3.6450     1.1310 H     1 <1>   0.0800 
 30 H       -8.3060    -3.1840     2.2480 H     1 <1>   0.0800 
 31 H       -7.5050    -2.0730     3.3160 H     1 <1>   0.0800 
 32 H       -6.1370    -0.1490     2.2330 H     1 <1>   0.0800 
 33 H       -6.2140    -0.0110     0.5050 H     1 <1>   0.0800 
 34 H       -9.4110    -0.8650     3.4120 H     1 <1>   0.0800 
 35 H      -10.1580    -1.9310     2.2570 H     1 <1>   0.0800 
 36 H       -7.9840     1.3300     0.6970 H     1 <1>   0.0800 
 37 H       -7.9860     1.1280     2.4260 H     1 <1>   0.0800 
 38 H       -9.1950    -0.7120     0.5020 H     1 <1>   0.4500 
 39 H      -10.7420     1.0470     2.2920 H     1 <1>   0.0800 
 40 H      -10.3550     1.4350     0.6280 H     1 <1>   0.0800 
 41 H      -11.9970    -0.9180     1.5900 H     1 <1>   0.1500 
 42 H      -11.7200     0.4650    -1.1350 H     1 <1>   0.1500 
 43 H      -12.7600    -0.5140    -2.9890 H     1 <1>   0.1500 
 44 H      -13.9520    -1.7610     0.9130 H     1 <1>   0.1500 
 45 H      -14.5470    -1.8660    -3.9580 H     1 <1>   0.1500 
 46 H      -15.7240    -3.1140    -0.0650 H     1 <1>   0.1500 
 47 H      -16.0350    -3.1760    -2.5030 H     1 <1>   0.1500 
@<TRIPOS>BOND
  1   1   2  1   
  2   2   3  ar  
  3   2   4  ar  
  4   3   5  ar  
  5   3  24  1   
  6   4   6  ar  
  7   4  25  1   
  8   5   7  ar  
  9   5  26  1   
 10   6   7  ar  
 11   6  27  1   
 12   7   8  1   
 13   8   9  1   
 14   8  28  1   
 15   8  29  1   
 16   9  10  1   
 17   9  11  1   
 18  10  12  1   
 19  10  30  1   
 20  10  31  1   
 21  11  13  1   
 22  11  32  1   
 23  11  33  1   
 24  12  14  1   
 25  12  34  1   
 26  12  35  1   
 27  13  14  1   
 28  13  36  1   
 29  13  37  1   
 30  14  15  1   
 31  14  38  1   
 32  15  16  1   
 33  15  39  1   
 34  15  40  1   
 35  16  17  2   
 36  16  41  1   
 37  17  18  1   
 38  17  42  1   
 39  18  19  ar  
 40  18  20  ar  
 41  19  21  ar  
 42  19  43  1   
 43  20  22  ar  
 44  20  44  1   
 45  21  23  ar  
 46  21  45  1   
 47  22  23  ar  
 48  22  46  1   
 49  23  47  1   
@<TRIPOS>SUBSTRUCTURE
  1 ****  14 GROUP 4 **** **** 0

# MOE 2024.06 (io_trps.svl 2023.06)
