@<TRIPOS>MOLECULE
NONAME
37 38 1 0 0 
SMALL
USER_CHARGES


@<TRIPOS>ATOM
  1 BR      -3.0340     1.5180     4.1570 Br    1 <1>  -0.1110 
  2 C       -2.9730     1.5800     2.2360 C.ar  1 <1>   0.1110 
  3 C       -3.9320     0.8890     1.5220 C.ar  1 <1>  -0.1500 
  4 C       -1.9760     2.3120     1.6230 C.ar  1 <1>  -0.1500 
  5 C       -3.8980     0.9360     0.1340 C.ar  1 <1>  -0.1440 
  6 C       -1.9410     2.3490     0.2400 C.ar  1 <1>  -0.1500 
  7 C       -2.8950     1.6650    -0.4980 C.ar  1 <1>  -0.1500 
  8 C       -4.9470     0.2080    -0.6840 C.3   1 <1>   0.4870 
  9 N       -6.2460     0.9110    -0.5310 N.4   1 <1>  -0.9590 
 10 C       -7.4100     0.2050    -1.1560 C.3   1 <1>   0.3430 
 11 C       -6.2170     2.3560    -0.9360 C.3   1 <1>   0.3430 
 12 C       -8.7400     0.9310    -0.8340 C.3   1 <1>   0.1100 
 13 C       -7.5630     3.0500    -0.6120 C.3   1 <1>   0.1100 
 14 N       -8.5420     2.1310     0.0210 N.3   1 <1>  -0.8100 
 15 C       -9.8130     2.8350     0.2990 C.3   1 <1>   0.1100 
 16 C      -10.6830     2.0660     1.3010 C.3   1 <1>   0.1200 
 17 O      -11.8410     2.7890     1.5430 O.3   1 <1>  -0.6800 
 18 H       -4.6800     0.3310     2.0580 H     1 <1>   0.1500 
 19 H       -1.2440     2.8350     2.2140 H     1 <1>   0.1500 
 20 H       -1.1680     2.9100    -0.2590 H     1 <1>   0.1500 
 21 H       -2.8400     1.7080    -1.5730 H     1 <1>   0.1500 
 22 H       -5.0320    -0.8070    -0.3320 H     1 <1>   0.0800 
 23 H       -4.6550     0.1880    -1.7210 H     1 <1>   0.0800 
 24 H       -6.4830     0.9590     0.4710 H     1 <1>   0.4500 
 25 H       -7.4690    -0.8050    -0.7850 H     1 <1>   0.0800 
 26 H       -7.2830     0.1560    -2.2250 H     1 <1>   0.0800 
 27 H       -6.0180     2.4430    -1.9910 H     1 <1>   0.0800 
 28 H       -5.4290     2.8710    -0.4110 H     1 <1>   0.0800 
 29 H       -9.3940     0.2350    -0.3390 H     1 <1>   0.0800 
 30 H       -9.2170     1.2160    -1.7580 H     1 <1>   0.0800 
 31 H       -7.9770     3.4580    -1.5190 H     1 <1>   0.0800 
 32 H       -7.3700     3.8770     0.0520 H     1 <1>   0.0800 
 33 H      -10.3620     2.9840    -0.6160 H     1 <1>   0.0800 
 34 H       -9.5940     3.7990     0.7260 H     1 <1>   0.0800 
 35 H      -10.1680     1.9270     2.2360 H     1 <1>   0.0800 
 36 H      -10.9820     1.1140     0.9030 H     1 <1>   0.0800 
 37 H      -11.6570     3.5800     2.0870 H     1 <1>   0.4000 
@<TRIPOS>BOND
  1   1   2  1   
  2   2   3  ar  
  3   2   4  ar  
  4   3   5  ar  
  5   3  18  1   
  6   4   6  ar  
  7   4  19  1   
  8   5   7  ar  
  9   5   8  1   
 10   6   7  ar  
 11   6  20  1   
 12   7  21  1   
 13   8   9  1   
 14   8  22  1   
 15   8  23  1   
 16   9  10  1   
 17   9  11  1   
 18   9  24  1   
 19  10  12  1   
 20  10  25  1   
 21  10  26  1   
 22  11  13  1   
 23  11  27  1   
 24  11  28  1   
 25  12  14  1   
 26  12  29  1   
 27  12  30  1   
 28  13  14  1   
 29  13  31  1   
 30  13  32  1   
 31  14  15  1   
 32  15  16  1   
 33  15  33  1   
 34  15  34  1   
 35  16  17  1   
 36  16  35  1   
 37  16  36  1   
 38  17  37  1   
@<TRIPOS>SUBSTRUCTURE
  1 ****   9 GROUP 4 **** **** 0

# MOE 2024.06 (io_trps.svl 2023.06)
