@<TRIPOS>MOLECULE
NONAME
58 59 1 0 0 
SMALL
USER_CHARGES


@<TRIPOS>ATOM
  1 S       -0.1230     0.4650    -0.7540 S.o2  1 <1>   1.4470 
  2 O        0.0350     1.7560    -0.1260 O.2   1 <1>  -0.6500 
  3 O       -0.7750     0.3640    -2.0410 O.2   1 <1>  -0.6500 
  4 N       -1.1170    -0.3400     0.3360 N.am  1 <1>  -0.9140 
  5 C        1.4190    -0.4860    -0.7170 C.ar  1 <1>  -0.0090 
  6 C       -2.5320    -0.2690     0.0460 C.3   1 <1>   0.2760 
  7 C        1.5140    -1.7160    -1.3570 C.ar  1 <1>  -0.1500 
  8 C        2.5360    -0.0230    -0.0330 C.ar  1 <1>  -0.1500 
  9 C       -3.0790     1.1440     0.2620 C.3   1 <1>  -0.1600 
 10 C       -3.2490    -1.2270     0.9900 C.3   1 <1>  -0.1600 
 11 C        2.6780    -2.4670    -1.3250 C.ar  1 <1>  -0.1430 
 12 C        3.7080    -0.7580     0.0100 C.ar  1 <1>  -0.1500 
 13 C       -4.5900     1.2200     0.0170 C.3   1 <1>   0.5030 
 14 C       -4.7680    -1.2290     0.7720 C.3   1 <1>   0.5030 
 15 C        3.7870    -1.9880    -0.6360 C.ar  1 <1>   0.0830 
 16 C        2.7340    -3.8080    -2.0430 C.3   1 <1>  -0.0960 
 17 N       -5.3040     0.1410     0.7200 N.4   1 <1>  -0.9060 
 18 C       -5.1360     2.5210     0.6020 C.3   1 <1>  -0.2400 
 19 C       -4.9320     1.1900    -1.4750 C.3   1 <1>  -0.2400 
 20 C       -5.1700    -1.9960    -0.4910 C.3   1 <1>  -0.2400 
 21 C       -5.4520    -1.8920     1.9660 C.3   1 <1>  -0.2400 
 22 O        4.9080    -2.7550    -0.6310 O.3   1 <1>  -0.3620 
 23 C        6.0870    -2.3490     0.0250 C.3   1 <1>   0.1200 
 24 C        7.1440    -3.4350    -0.1750 C.3   1 <1>  -0.1600 
 25 C        8.4620    -3.0650     0.5130 C.3   1 <1>  -0.2400 
 26 H       -0.9250     0.1310     1.2180 H     1 <1>   0.4200 
 27 H       -2.6980    -0.5900    -0.9700 H     1 <1>   0.0800 
 28 H        0.6560    -2.0880    -1.8910 H     1 <1>   0.1500 
 29 H        2.4930     0.9280     0.4720 H     1 <1>   0.1500 
 30 H       -2.5990     1.8350    -0.4080 H     1 <1>   0.0800 
 31 H       -2.8570     1.4620     1.2660 H     1 <1>   0.0800 
 32 H       -3.0310    -0.9510     2.0070 H     1 <1>   0.0800 
 33 H       -2.8680    -2.2220     0.8380 H     1 <1>   0.0800 
 34 H        4.5440    -0.3570     0.5500 H     1 <1>   0.1500 
 35 H        1.7980    -4.0390    -2.5170 H     1 <1>   0.0800 
 36 H        2.9660    -4.5880    -1.3400 H     1 <1>   0.0800 
 37 H        3.5030    -3.7840    -2.7950 H     1 <1>   0.0800 
 38 H       -6.2520     0.0940     0.3410 H     1 <1>   0.4500 
 39 H       -5.4040     0.4480     1.6900 H     1 <1>   0.4500 
 40 H       -4.9470     2.5880     1.6590 H     1 <1>   0.0800 
 41 H       -6.1940     2.6160     0.4260 H     1 <1>   0.0800 
 42 H       -4.6530     3.3630     0.1360 H     1 <1>   0.0800 
 43 H       -4.4630     0.3770    -1.9910 H     1 <1>   0.0800 
 44 H       -4.5710     2.0900    -1.9440 H     1 <1>   0.0800 
 45 H       -5.9950     1.1470    -1.6340 H     1 <1>   0.0800 
 46 H       -4.6330    -1.6730    -1.3600 H     1 <1>   0.0800 
 47 H       -6.2260    -1.9150    -0.6780 H     1 <1>   0.0800 
 48 H       -4.9420    -3.0400    -0.3660 H     1 <1>   0.0800 
 49 H       -5.2280    -1.3780     2.8840 H     1 <1>   0.0800 
 50 H       -5.1050    -2.9060     2.0710 H     1 <1>   0.0800 
 51 H       -6.5200    -1.9270     1.8340 H     1 <1>   0.0800 
 52 H        5.8670    -2.2210     1.0710 H     1 <1>   0.0800 
 53 H        6.4120    -1.4180    -0.4070 H     1 <1>   0.0800 
 54 H        7.3190    -3.5680    -1.2290 H     1 <1>   0.0800 
 55 H        6.7790    -4.3620     0.2330 H     1 <1>   0.0800 
 56 H        8.8550    -2.1490     0.1080 H     1 <1>   0.0800 
 57 H        9.1880    -3.8440     0.3570 H     1 <1>   0.0800 
 58 H        8.3140    -2.9440     1.5720 H     1 <1>   0.0800 
@<TRIPOS>BOND
  1   1   2  2   
  2   1   3  2   
  3   1   4  am  
  4   1   5  1   
  5   4   6  1   
  6   4  26  1   
  7   5   7  ar  
  8   5   8  ar  
  9   6   9  1   
 10   6  10  1   
 11   6  27  1   
 12   7  11  ar  
 13   7  28  1   
 14   8  12  ar  
 15   8  29  1   
 16   9  13  1   
 17   9  30  1   
 18   9  31  1   
 19  10  14  1   
 20  10  32  1   
 21  10  33  1   
 22  11  15  ar  
 23  11  16  1   
 24  12  15  ar  
 25  12  34  1   
 26  13  17  1   
 27  13  18  1   
 28  13  19  1   
 29  14  17  1   
 30  14  20  1   
 31  14  21  1   
 32  15  22  1   
 33  16  35  1   
 34  16  36  1   
 35  16  37  1   
 36  17  38  1   
 37  17  39  1   
 38  18  40  1   
 39  18  41  1   
 40  18  42  1   
 41  19  43  1   
 42  19  44  1   
 43  19  45  1   
 44  20  46  1   
 45  20  47  1   
 46  20  48  1   
 47  21  49  1   
 48  21  50  1   
 49  21  51  1   
 50  22  23  1   
 51  23  24  1   
 52  23  52  1   
 53  23  53  1   
 54  24  25  1   
 55  24  54  1   
 56  24  55  1   
 57  25  56  1   
 58  25  57  1   
 59  25  58  1   
@<TRIPOS>SUBSTRUCTURE
  1 ****   4 GROUP 4 **** **** 0

# MOE 2024.06 (io_trps.svl 2023.06)
