@<TRIPOS>MOLECULE
NONAME
53 55 1 0 0 
SMALL
USER_CHARGES


@<TRIPOS>ATOM
  1 S       -0.1480     0.1420     1.9600 S.3   1 <1>  -0.0800 
  2 C       -0.7700     1.3240     0.8260 C.2   1 <1>   0.3020 
  3 C        1.4510     0.7840     1.7310 C.2   1 <1>  -0.1400 
  4 N        0.1340     2.0960     0.3480 N.2   1 <1>  -0.5650 
  5 N       -2.1640     1.3120     0.5800 N.pl3 1 <1>   0.3790 
  6 C        1.4030     1.7990     0.8380 C.2   1 <1>   0.1730 
  7 C        2.5630     0.1410     2.5400 C.3   1 <1>  -0.0600 
  8 C       -2.8800     0.3670    -0.1020 C.2   1 <1>  -0.3320 
  9 C       -3.0760     2.2410     0.9960 C.2   1 <1>  -0.3320 
 10 C        2.5190     2.5890     0.3560 C.ar  1 <1>   0.0540 
 11 C       -4.2130     0.6870    -0.1310 C.2   1 <1>  -0.0860 
 12 C       -2.2090    -0.8380    -0.7540 C.3   1 <1>  -0.0600 
 13 C       -4.3460     1.8890     0.6180 C.2   1 <1>  -0.0860 
 14 C       -2.6520     3.4720     1.7900 C.3   1 <1>  -0.0600 
 15 C        3.7110     1.9940    -0.0440 C.ar  1 <1>  -0.1500 
 16 C        2.4330     3.9740     0.2700 C.ar  1 <1>  -0.1500 
 17 C       -5.2780    -0.0060    -0.8100 C.2   1 <1>   0.5950 
 18 C       -5.5850     2.5560     0.9300 C.2   1 <1>   0.5950 
 19 C        4.7880     2.7350    -0.4940 C.ar  1 <1>   0.0820 
 20 C        3.4980     4.7380    -0.1710 C.ar  1 <1>  -0.1500 
 21 O       -5.4840    -1.1870    -0.6960 O.2   1 <1>  -0.5700 
 22 C       -6.1870     0.7650    -1.7420 C.3   1 <1>  -0.1790 
 23 O       -5.7750     3.7310     0.7520 O.2   1 <1>  -0.5700 
 24 C       -6.7190     1.7600     1.5380 C.3   1 <1>  -0.1790 
 25 O        5.8810     2.0030    -0.8500 O.3   1 <1>  -0.3630 
 26 C        4.6960     4.1360    -0.5490 C.ar  1 <1>   0.0820 
 27 C        6.6830     2.3930    -1.9430 C.3   1 <1>   0.0400 
 28 O        5.7690     4.8750    -0.9500 O.3   1 <1>  -0.3630 
 29 C        5.7730     6.2850    -0.8990 C.3   1 <1>   0.0400 
 30 H        2.3070     0.1500     3.5850 H     1 <1>   0.0800 
 31 H        3.4860     0.6780     2.4140 H     1 <1>   0.0800 
 32 H        2.7060    -0.8760     2.2250 H     1 <1>   0.0800 
 33 H       -1.4120    -0.5150    -1.4010 H     1 <1>   0.0800 
 34 H       -2.9120    -1.4020    -1.3400 H     1 <1>   0.0800 
 35 H       -1.8030    -1.4900    -0.0020 H     1 <1>   0.0800 
 36 H       -2.1610     3.1780     2.7010 H     1 <1>   0.0800 
 37 H       -3.5000     4.0830     2.0420 H     1 <1>   0.0800 
 38 H       -1.9710     4.0670     1.2070 H     1 <1>   0.0800 
 39 H        3.8030     0.9250    -0.0140 H     1 <1>   0.1500 
 40 H        1.5130     4.4540     0.5560 H     1 <1>   0.1500 
 41 H        3.3690     5.8020    -0.2110 H     1 <1>   0.1500 
 42 H       -5.8580     1.7830    -1.8450 H     1 <1>   0.0800 
 43 H       -7.1920     0.7480    -1.3650 H     1 <1>   0.0800 
 44 H       -6.1740     0.2990    -2.7100 H     1 <1>   0.0800 
 45 H       -6.4160     0.7490     1.7390 H     1 <1>   0.0800 
 46 H       -7.5590     1.7570     0.8690 H     1 <1>   0.0800 
 47 H       -7.0150     2.2210     2.4610 H     1 <1>   0.0800 
 48 H        7.2130     1.5280    -2.2950 H     1 <1>   0.0800 
 49 H        7.3830     3.1380    -1.6110 H     1 <1>   0.0800 
 50 H        6.0520     2.7840    -2.7220 H     1 <1>   0.0800 
 51 H        6.7430     6.6270    -1.2110 H     1 <1>   0.0800 
 52 H        5.5840     6.5980     0.1130 H     1 <1>   0.0800 
 53 H        5.0210     6.6610    -1.5690 H     1 <1>   0.0800 
@<TRIPOS>BOND
  1   1   2  1   
  2   1   3  1   
  3   2   4  2   
  4   2   5  1   
  5   3   6  2   
  6   3   7  1   
  7   4   6  1   
  8   5   8  1   
  9   5   9  1   
 10   6  10  1   
 11   7  30  1   
 12   7  31  1   
 13   7  32  1   
 14   8  11  2   
 15   8  12  1   
 16   9  13  2   
 17   9  14  1   
 18  10  15  ar  
 19  10  16  ar  
 20  11  13  1   
 21  11  17  1   
 22  12  33  1   
 23  12  34  1   
 24  12  35  1   
 25  13  18  1   
 26  14  36  1   
 27  14  37  1   
 28  14  38  1   
 29  15  19  ar  
 30  15  39  1   
 31  16  20  ar  
 32  16  40  1   
 33  17  21  2   
 34  17  22  1   
 35  18  23  2   
 36  18  24  1   
 37  19  25  1   
 38  19  26  ar  
 39  20  26  ar  
 40  20  41  1   
 41  22  42  1   
 42  22  43  1   
 43  22  44  1   
 44  24  45  1   
 45  24  46  1   
 46  24  47  1   
 47  25  27  1   
 48  26  28  1   
 49  27  48  1   
 50  27  49  1   
 51  27  50  1   
 52  28  29  1   
 53  29  51  1   
 54  29  52  1   
 55  29  53  1   
@<TRIPOS>SUBSTRUCTURE
  1 ****   4 GROUP 4 **** **** 0

# MOE 2024.06 (io_trps.svl 2023.06)
