@<TRIPOS>MOLECULE
NONAME
39 40 1 0 0 
SMALL
USER_CHARGES


@<TRIPOS>ATOM
  1 F       -0.0610    -0.5260     0.2850 F     1 <1>  -0.3400 
  2 C        0.5240    -1.2930    -0.6280 C.3   1 <1>   1.1640 
  3 F        0.2460    -0.7490    -1.8050 F     1 <1>  -0.3400 
  4 F       -0.1140    -2.4580    -0.5940 F     1 <1>  -0.3400 
  5 C        2.0390    -1.4300    -0.4010 C.ar  1 <1>  -0.1440 
  6 C        2.7110    -2.6040    -0.7290 C.ar  1 <1>  -0.1500 
  7 C        2.7780    -0.3770     0.1290 C.ar  1 <1>  -0.1500 
  8 C        4.0740    -2.7200    -0.5270 C.ar  1 <1>  -0.1500 
  9 C        4.1410    -0.4970     0.3270 C.ar  1 <1>  -0.1500 
 10 C        4.8140    -1.6680     0.0010 C.ar  1 <1>   0.1170 
 11 N        6.1960    -1.7380     0.2340 N.am  1 <1>  -0.5470 
 12 C        7.1570    -2.5550    -0.2990 C.2   1 <1>   0.5690 
 13 O        6.9290    -3.3870    -1.1430 O.2   1 <1>  -0.5700 
 14 C        8.5900    -2.3700     0.2040 C.3   1 <1>  -0.0190 
 15 C        9.3350    -1.3170    -0.6370 C.3   1 <1>  -0.1600 
 16 C        9.3890    -3.6890     0.2200 C.3   1 <1>  -0.1600 
 17 C       10.7760    -1.1230    -0.1550 C.3   1 <1>   0.1400 
 18 C       10.8270    -3.4740     0.6980 C.3   1 <1>   0.1400 
 19 N       11.4800    -2.4350    -0.1460 N.am  1 <1>  -0.6600 
 20 C       12.6160    -2.6260    -0.8930 C.2   1 <1>   0.5690 
 21 O       13.1220    -1.7390    -1.5360 O.2   1 <1>  -0.5700 
 22 C       13.2920    -3.9770    -0.9400 C.3   1 <1>  -0.1790 
 23 H        2.1770    -3.4420    -1.1460 H     1 <1>   0.1500 
 24 H        2.2910     0.5490     0.3900 H     1 <1>   0.1500 
 25 H        4.5600    -3.6440    -0.7850 H     1 <1>   0.1500 
 26 H        4.6860     0.3340     0.7370 H     1 <1>   0.1500 
 27 H        6.5460    -1.0300     0.8730 H     1 <1>   0.3700 
 28 H        8.5370    -2.0140     1.2170 H     1 <1>   0.0800 
 29 H        8.8200    -0.3740    -0.5910 H     1 <1>   0.0800 
 30 H        9.3560    -1.6260    -1.6680 H     1 <1>   0.0800 
 31 H        9.4160    -4.1130    -0.7690 H     1 <1>   0.0800 
 32 H        8.9010    -4.4000     0.8640 H     1 <1>   0.0800 
 33 H       10.7850    -0.7150     0.8410 H     1 <1>   0.0800 
 34 H       11.2780    -0.4240    -0.8030 H     1 <1>   0.0800 
 35 H       11.3590    -4.4060     0.6580 H     1 <1>   0.0800 
 36 H       10.8260    -3.1390     1.7220 H     1 <1>   0.0800 
 37 H       12.6070    -4.7140    -1.3140 H     1 <1>   0.0800 
 38 H       13.6290    -4.2510     0.0420 H     1 <1>   0.0800 
 39 H       14.1410    -3.9340    -1.5960 H     1 <1>   0.0800 
@<TRIPOS>BOND
  1   1   2  1   
  2   2   3  1   
  3   2   4  1   
  4   2   5  1   
  5   5   6  ar  
  6   5   7  ar  
  7   6   8  ar  
  8   6  23  1   
  9   7   9  ar  
 10   7  24  1   
 11   8  10  ar  
 12   8  25  1   
 13   9  10  ar  
 14   9  26  1   
 15  10  11  1   
 16  11  12  am  
 17  11  27  1   
 18  12  13  2   
 19  12  14  1   
 20  14  15  1   
 21  14  16  1   
 22  14  28  1   
 23  15  17  1   
 24  15  29  1   
 25  15  30  1   
 26  16  18  1   
 27  16  31  1   
 28  16  32  1   
 29  17  19  1   
 30  17  33  1   
 31  17  34  1   
 32  18  19  1   
 33  18  35  1   
 34  18  36  1   
 35  19  20  am  
 36  20  21  2   
 37  20  22  1   
 38  22  37  1   
 39  22  38  1   
 40  22  39  1   
@<TRIPOS>SUBSTRUCTURE
  1 ****  11 GROUP 4 **** **** 0

# MOE 2024.06 (io_trps.svl 2023.06)
