@<TRIPOS>MOLECULE
NONAME
39 41 1 0 0 
SMALL
USER_CHARGES


@<TRIPOS>ATOM
  1 S       -1.4240    -0.0540     2.3760 S.3   1 <1>  -0.0800 
  2 C       -1.7600     0.8000     0.8700 C.ar  1 <1>   0.0400 
  3 C       -2.1310    -1.5310     1.7480 C.2   1 <1>  -0.1100 
  4 C       -2.3750    -0.0490    -0.0400 C.ar  1 <1>   0.0000 
  5 C       -1.4520     2.1200     0.6030 C.ar  1 <1>  -0.1500 
  6 C       -2.6150    -1.3780     0.4930 C.2   1 <1>  -0.0860 
  7 C       -2.6550     0.4720    -1.3040 C.ar  1 <1>  -0.1500 
  8 C       -1.7610     2.6170    -0.6500 C.ar  1 <1>  -0.1500 
  9 C       -3.3060    -2.4120    -0.2430 C.2   1 <1>   0.7160 
 10 C       -2.3560     1.7910    -1.5980 C.ar  1 <1>  -0.1500 
 11 O       -2.9320    -3.5660    -0.1710 O.2   1 <1>  -0.5700 
 12 N       -4.4580    -2.1590    -0.9580 N.am  1 <1>  -0.6600 
 13 C       -4.9980    -3.1800    -1.9030 C.3   1 <1>   0.1400 
 14 C       -5.4870    -1.1970    -0.4590 C.3   1 <1>   0.1400 
 15 C       -6.1380    -3.9640    -1.2280 C.3   1 <1>   0.3430 
 16 C       -6.6610    -1.9640     0.1860 C.3   1 <1>   0.3430 
 17 N       -7.2170    -3.0450    -0.7130 N.4   1 <1>  -0.9590 
 18 C       -8.2780    -3.8130    -0.0200 C.3   1 <1>   0.4810 
 19 C       -9.4250    -2.8670     0.2560 C.2   1 <1>  -0.2880 
 20 C       -9.8130    -2.4520     1.4670 C.2   1 <1>  -0.3000 
 21 H       -2.1240    -2.3890     2.3980 H     1 <1>   0.1500 
 22 H       -0.9810     2.7330     1.3500 H     1 <1>   0.1500 
 23 H       -3.0970    -0.1510    -2.0600 H     1 <1>   0.1500 
 24 H       -1.5350     3.6410    -0.8950 H     1 <1>   0.1500 
 25 H       -2.5770     2.1880    -2.5750 H     1 <1>   0.1500 
 26 H       -4.2200    -3.8640    -2.2020 H     1 <1>   0.0800 
 27 H       -5.3580    -2.6940    -2.7930 H     1 <1>   0.0800 
 28 H       -5.8430    -0.5970    -1.2790 H     1 <1>   0.0800 
 29 H       -5.0630    -0.5290     0.2710 H     1 <1>   0.0800 
 30 H       -5.7160    -4.5280    -0.4110 H     1 <1>   0.0800 
 31 H       -6.5530    -4.6630    -1.9350 H     1 <1>   0.0800 
 32 H       -7.4400    -1.2630     0.4420 H     1 <1>   0.0800 
 33 H       -6.3090    -2.4070     1.1030 H     1 <1>   0.0800 
 34 H       -7.6590    -2.5820    -1.5160 H     1 <1>   0.4500 
 35 H       -7.9000    -4.2150     0.9070 H     1 <1>   0.0800 
 36 H       -8.6210    -4.6290    -0.6350 H     1 <1>   0.0800 
 37 H       -9.9300    -2.5500    -0.6420 H     1 <1>   0.1500 
 38 H      -10.6420    -1.7810     1.6330 H     1 <1>   0.1500 
 39 H       -9.3560    -2.7410     2.4000 H     1 <1>   0.1500 
@<TRIPOS>BOND
  1   1   2  1   
  2   1   3  1   
  3   2   4  ar  
  4   2   5  ar  
  5   3   6  2   
  6   3  21  1   
  7   4   6  1   
  8   4   7  ar  
  9   5   8  ar  
 10   5  22  1   
 11   6   9  1   
 12   7  10  ar  
 13   7  23  1   
 14   8  10  ar  
 15   8  24  1   
 16   9  11  2   
 17   9  12  am  
 18  10  25  1   
 19  12  13  1   
 20  12  14  1   
 21  13  15  1   
 22  13  26  1   
 23  13  27  1   
 24  14  16  1   
 25  14  28  1   
 26  14  29  1   
 27  15  17  1   
 28  15  30  1   
 29  15  31  1   
 30  16  17  1   
 31  16  32  1   
 32  16  33  1   
 33  17  18  1   
 34  17  34  1   
 35  18  19  1   
 36  18  35  1   
 37  18  36  1   
 38  19  20  2   
 39  19  37  1   
 40  20  38  1   
 41  20  39  1   
@<TRIPOS>SUBSTRUCTURE
  1 ****  14 GROUP 4 **** **** 0

# MOE 2024.06 (io_trps.svl 2023.06)
