@<TRIPOS>MOLECULE
NONAME
44 46 1 0 0 
SMALL
USER_CHARGES


@<TRIPOS>ATOM
  1 F        0.6950    -0.3720    -0.3770 F     1 <1>  -0.1900 
  2 C        1.7830    -1.0220    -0.0510 C.ar  1 <1>   0.1900 
  3 C        2.4230    -0.7020     1.1300 C.ar  1 <1>  -0.1500 
  4 C        2.2520    -2.0050    -0.9010 C.ar  1 <1>  -0.1500 
  5 C        3.5730    -1.3940     1.4660 C.ar  1 <1>  -0.1500 
  6 C        3.4050    -2.6880    -0.5520 C.ar  1 <1>  -0.1500 
  7 C        4.0780    -2.3900     0.6330 C.ar  1 <1>   0.1000 
  8 N        5.2440    -3.0600     0.9980 N.pl3 1 <1>  -0.8380 
  9 C        5.3370    -4.5480     0.9070 C.3   1 <1>   0.2090 
 10 C        6.5280    -2.2990     1.0440 C.3   1 <1>   0.2090 
 11 C        6.3540    -4.9880    -0.1690 C.3   1 <1>   0.3430 
 12 C        7.5110    -2.7890    -0.0400 C.3   1 <1>   0.3430 
 13 N        7.6840    -4.2910    -0.0330 N.4   1 <1>  -0.9590 
 14 C        8.6570    -4.7390    -1.0660 C.3   1 <1>   0.4860 
 15 C       10.0140    -4.1470    -0.7370 C.ar  1 <1>  -0.1430 
 16 C       10.7770    -4.6680     0.3000 C.ar  1 <1>  -0.1500 
 17 C       10.5010    -3.0730    -1.4690 C.ar  1 <1>  -0.1500 
 18 C       12.0060    -4.1140     0.6110 C.ar  1 <1>  -0.1500 
 19 C       11.7290    -2.5200    -1.1560 C.ar  1 <1>  -0.1500 
 20 C       12.4880    -3.0310    -0.1170 C.ar  1 <1>   0.0830 
 21 O       13.6770    -2.4270     0.1220 O.3   1 <1>  -0.3620 
 22 C       14.5720    -2.9150     1.0980 C.3   1 <1>   0.0400 
 23 H        2.0260     0.0670     1.7680 H     1 <1>   0.1500 
 24 H        1.7220    -2.2230    -1.8110 H     1 <1>   0.1500 
 25 H        4.0840    -1.1710     2.3850 H     1 <1>   0.1500 
 26 H        3.7800    -3.4490    -1.2070 H     1 <1>   0.1500 
 27 H        4.3690    -4.9610     0.6810 H     1 <1>   0.0800 
 28 H        5.6350    -4.9370     1.8660 H     1 <1>   0.0800 
 29 H        6.9730    -2.4130     2.0170 H     1 <1>   0.0800 
 30 H        6.3350    -1.2500     0.8950 H     1 <1>   0.0800 
 31 H        5.9320    -4.7670    -1.1350 H     1 <1>   0.0800 
 32 H        6.4890    -6.0550    -0.1050 H     1 <1>   0.0800 
 33 H        8.4630    -2.3080     0.1130 H     1 <1>   0.0800 
 34 H        7.1340    -2.4740    -0.9990 H     1 <1>   0.0800 
 35 H        8.0870    -4.5320     0.8810 H     1 <1>   0.4500 
 36 H        8.3410    -4.4150    -2.0440 H     1 <1>   0.0800 
 37 H        8.7310    -5.8140    -1.0680 H     1 <1>   0.0800 
 38 H       10.4310    -5.5110     0.8740 H     1 <1>   0.1500 
 39 H        9.9420    -2.6560    -2.2900 H     1 <1>   0.1500 
 40 H       12.5780    -4.5350     1.4180 H     1 <1>   0.1500 
 41 H       12.1160    -1.6880    -1.7180 H     1 <1>   0.1500 
 42 H       15.4510    -2.2960     1.0830 H     1 <1>   0.0800 
 43 H       14.8360    -3.9290     0.8550 H     1 <1>   0.0800 
 44 H       14.1020    -2.8570     2.0640 H     1 <1>   0.0800 
@<TRIPOS>BOND
  1   1   2  1   
  2   2   3  ar  
  3   2   4  ar  
  4   3   5  ar  
  5   3  23  1   
  6   4   6  ar  
  7   4  24  1   
  8   5   7  ar  
  9   5  25  1   
 10   6   7  ar  
 11   6  26  1   
 12   7   8  1   
 13   8   9  1   
 14   8  10  1   
 15   9  11  1   
 16   9  27  1   
 17   9  28  1   
 18  10  12  1   
 19  10  29  1   
 20  10  30  1   
 21  11  13  1   
 22  11  31  1   
 23  11  32  1   
 24  12  13  1   
 25  12  33  1   
 26  12  34  1   
 27  13  14  1   
 28  13  35  1   
 29  14  15  1   
 30  14  36  1   
 31  14  37  1   
 32  15  16  ar  
 33  15  17  ar  
 34  16  18  ar  
 35  16  38  1   
 36  17  19  ar  
 37  17  39  1   
 38  18  20  ar  
 39  18  40  1   
 40  19  20  ar  
 41  19  41  1   
 42  20  21  1   
 43  21  22  1   
 44  22  42  1   
 45  22  43  1   
 46  22  44  1   
@<TRIPOS>SUBSTRUCTURE
  1 ****  12 GROUP 4 **** **** 0

# MOE 2024.06 (io_trps.svl 2023.06)
