@<TRIPOS>MOLECULE
NONAME
42 43 1 0 0 
SMALL
USER_CHARGES


@<TRIPOS>ATOM
  1 CL      -0.4830     0.5470     3.1420 Cl    1 <1>  -0.1770 
  2 C       -0.1030     1.9330     2.1540 C.ar  1 <1>   0.1770 
  3 C        1.0730     2.6210     2.3840 C.ar  1 <1>  -0.1500 
  4 C       -0.9790     2.3200     1.1590 C.ar  1 <1>  -0.1500 
  5 C        1.3840     3.7240     1.6010 C.ar  1 <1>  -0.1440 
  6 C       -0.6730     3.4190     0.3740 C.ar  1 <1>  -0.1500 
  7 C        0.5110     4.1240     0.5910 C.ar  1 <1>   0.0820 
  8 C        2.6640     4.4940     1.8500 C.3   1 <1>   0.4870 
  9 O        0.8760     5.2010    -0.1550 O.3   1 <1>  -0.3630 
 10 N        3.4790     4.3980     0.6280 N.4   1 <1>  -0.9060 
 11 C       -0.0240     5.8020    -1.0640 C.3   1 <1>   0.1200 
 12 C        4.7590     5.1680     0.6430 C.3   1 <1>   0.3430 
 13 C        0.6560     7.0340    -1.6540 C.3   1 <1>  -0.2400 
 14 C        5.7460     4.6280    -0.4160 C.3   1 <1>   0.3430 
 15 O        5.5890     3.2490    -0.5190 O.3   1 <1>  -0.6800 
 16 C        7.1840     4.9260    -0.0250 C.ar  1 <1>  -0.1440 
 17 C        7.8970     5.8980    -0.7130 C.ar  1 <1>  -0.1500 
 18 C        7.8000     4.2470     1.0190 C.ar  1 <1>  -0.1500 
 19 C        9.2030     6.1900    -0.3590 C.ar  1 <1>  -0.1500 
 20 C        9.1060     4.5400     1.3720 C.ar  1 <1>  -0.1500 
 21 C        9.8070     5.5120     0.6840 C.ar  1 <1>  -0.1500 
 22 H        1.7210     2.2810     3.1740 H     1 <1>   0.1500 
 23 H       -1.8890     1.7650     1.0050 H     1 <1>   0.1500 
 24 H       -1.3680     3.7010    -0.3960 H     1 <1>   0.1500 
 25 H        3.1950     4.0790     2.6910 H     1 <1>   0.0800 
 26 H        2.4250     5.5240     2.0580 H     1 <1>   0.0800 
 27 H        2.8640     4.6840    -0.1490 H     1 <1>   0.4500 
 28 H        3.7270     3.4130     0.4350 H     1 <1>   0.4500 
 29 H       -0.9170     6.0810    -0.5300 H     1 <1>   0.0800 
 30 H       -0.2600     5.0930    -1.8380 H     1 <1>   0.0800 
 31 H        5.2290     5.0620     1.6060 H     1 <1>   0.0800 
 32 H        4.5810     6.2170     0.4780 H     1 <1>   0.0800 
 33 H        0.9010     7.7350    -0.8770 H     1 <1>   0.0800 
 34 H       -0.0130     7.5170    -2.3440 H     1 <1>   0.0800 
 35 H        1.5460     6.7530    -2.1880 H     1 <1>   0.0800 
 36 H        5.5250     5.0530    -1.3800 H     1 <1>   0.0800 
 37 H        6.3730     2.8790    -0.9830 H     1 <1>   0.4000 
 38 H        7.4530     6.4390    -1.5310 H     1 <1>   0.1500 
 39 H        7.2770     3.4800     1.5650 H     1 <1>   0.1500 
 40 H        9.7530     6.9450    -0.8950 H     1 <1>   0.1500 
 41 H        9.5800     4.0100     2.1810 H     1 <1>   0.1500 
 42 H       10.8240     5.7400     0.9580 H     1 <1>   0.1500 
@<TRIPOS>BOND
  1   1   2  1   
  2   2   3  ar  
  3   2   4  ar  
  4   3   5  ar  
  5   3  22  1   
  6   4   6  ar  
  7   4  23  1   
  8   5   7  ar  
  9   5   8  1   
 10   6   7  ar  
 11   6  24  1   
 12   7   9  1   
 13   8  10  1   
 14   8  25  1   
 15   8  26  1   
 16   9  11  1   
 17  10  12  1   
 18  10  27  1   
 19  10  28  1   
 20  11  13  1   
 21  11  29  1   
 22  11  30  1   
 23  12  14  1   
 24  12  31  1   
 25  12  32  1   
 26  13  33  1   
 27  13  34  1   
 28  13  35  1   
 29  14  15  1   
 30  14  16  1   
 31  14  36  1   
 32  15  37  1   
 33  16  17  ar  
 34  16  18  ar  
 35  17  19  ar  
 36  17  38  1   
 37  18  20  ar  
 38  18  39  1   
 39  19  21  ar  
 40  19  40  1   
 41  20  21  ar  
 42  20  41  1   
 43  21  42  1   
@<TRIPOS>SUBSTRUCTURE
  1 ****  10 GROUP 4 **** **** 0

# MOE 2024.06 (io_trps.svl 2023.06)
