@<TRIPOS>MOLECULE
NONAME
44 45 1 0 0 
SMALL
USER_CHARGES


@<TRIPOS>ATOM
  1 CL       1.2740     0.8210     0.4300 Cl    1 <1>  -0.1770 
  2 C        2.2660    -0.5460    -0.0290 C.ar  1 <1>   0.1770 
  3 C        1.6790    -1.7570    -0.3760 C.ar  1 <1>   0.0830 
  4 C        3.6380    -0.3820    -0.0330 C.ar  1 <1>  -0.1500 
  5 O        0.3240    -1.8520    -0.3500 O.3   1 <1>  -0.3630 
  6 C        2.5120    -2.8140    -0.7320 C.ar  1 <1>  -0.1500 
  7 C        4.4760    -1.4320    -0.3860 C.ar  1 <1>  -0.0090 
  8 C       -0.3470    -3.0420    -0.7030 C.3   1 <1>   0.0400 
  9 C        3.8880    -2.6440    -0.7340 C.ar  1 <1>  -0.1500 
 10 S        6.2770    -1.2190    -0.3870 S.o2  1 <1>   1.4470 
 11 O        6.6290    -0.0670    -1.1870 O.2   1 <1>  -0.6500 
 12 O        6.9240    -2.4870    -0.6110 O.2   1 <1>  -0.6500 
 13 N        6.6040    -0.8260     1.2080 N.am  1 <1>  -0.9140 
 14 C        7.8960    -0.1600     1.3720 C.3   1 <1>   0.3370 
 15 C        9.0970    -1.1090     1.1010 C.2   1 <1>   0.5690 
 16 C        7.9210     0.3770     2.8050 C.3   1 <1>  -0.2400 
 17 O        9.2170    -2.0390     1.8700 O.2   1 <1>  -0.5700 
 18 N        9.9700    -0.9400     0.0470 N.am  1 <1>  -0.6600 
 19 C        9.8390     0.0500    -1.0630 C.3   1 <1>   0.1400 
 20 C       11.1000    -1.8920    -0.1590 C.3   1 <1>   0.1400 
 21 C       11.1370     0.8540    -1.1950 C.3   1 <1>  -0.1600 
 22 C       12.4160    -1.1170    -0.2820 C.3   1 <1>  -0.1600 
 23 C       12.3500    -0.0640    -1.3960 C.3   1 <1>  -0.1600 
 24 H        4.0550     0.5710     0.2430 H     1 <1>   0.1500 
 25 H        2.1120    -3.7710    -1.0090 H     1 <1>   0.1500 
 26 H       -1.4040    -2.8670    -0.6110 H     1 <1>   0.0800 
 27 H       -0.0470    -3.8250    -0.0300 H     1 <1>   0.0800 
 28 H       -0.1060    -3.2910    -1.7210 H     1 <1>   0.0800 
 29 H        4.5180    -3.4740    -1.0130 H     1 <1>   0.1500 
 30 H        6.7480    -1.7360     1.6530 H     1 <1>   0.4200 
 31 H        7.9370     0.6980     0.7310 H     1 <1>   0.0800 
 32 H        7.8490    -0.4300     3.5140 H     1 <1>   0.0800 
 33 H        7.1080     1.0620     2.9600 H     1 <1>   0.0800 
 34 H        8.8450     0.8970     2.9790 H     1 <1>   0.0800 
 35 H        9.0240     0.7290    -0.9120 H     1 <1>   0.0800 
 36 H        9.6480    -0.4830    -1.9800 H     1 <1>   0.0800 
 37 H       10.9200    -2.4580    -1.0570 H     1 <1>   0.0800 
 38 H       11.1740    -2.5880     0.6600 H     1 <1>   0.0800 
 39 H       11.2720     1.4470    -0.3080 H     1 <1>   0.0800 
 40 H       11.0530     1.5270    -2.0300 H     1 <1>   0.0800 
 41 H       13.2160    -1.8070    -0.4830 H     1 <1>   0.0800 
 42 H       12.6250    -0.6400     0.6600 H     1 <1>   0.0800 
 43 H       13.2540     0.5210    -1.4000 H     1 <1>   0.0800 
 44 H       12.2690    -0.5590    -2.3490 H     1 <1>   0.0800 
@<TRIPOS>BOND
  1   1   2  1   
  2   2   3  ar  
  3   2   4  ar  
  4   3   5  1   
  5   3   6  ar  
  6   4   7  ar  
  7   4  24  1   
  8   5   8  1   
  9   6   9  ar  
 10   6  25  1   
 11   7   9  ar  
 12   7  10  1   
 13   8  26  1   
 14   8  27  1   
 15   8  28  1   
 16   9  29  1   
 17  10  11  2   
 18  10  12  2   
 19  10  13  am  
 20  13  14  1   
 21  13  30  1   
 22  14  15  1   
 23  14  16  1   
 24  14  31  1   
 25  15  17  2   
 26  15  18  am  
 27  16  32  1   
 28  16  33  1   
 29  16  34  1   
 30  18  19  1   
 31  18  20  1   
 32  19  21  1   
 33  19  35  1   
 34  19  36  1   
 35  20  22  1   
 36  20  37  1   
 37  20  38  1   
 38  21  23  1   
 39  21  39  1   
 40  21  40  1   
 41  22  23  1   
 42  22  41  1   
 43  22  42  1   
 44  23  43  1   
 45  23  44  1   
@<TRIPOS>SUBSTRUCTURE
  1 ****  10 GROUP 4 **** **** 0

# MOE 2024.06 (io_trps.svl 2023.06)
