@<TRIPOS>MOLECULE
NONAME
35 36 1 0 0 
SMALL
USER_CHARGES


@<TRIPOS>ATOM
  1 S       -1.4330    -0.9200     1.6330 S.3   1 <1>  -0.0800 
  2 C       -1.4350    -0.9960    -0.1250 C.2   1 <1>  -0.1400 
  3 C       -1.5250     0.8310     1.6020 C.2   1 <1>  -0.1100 
  4 C       -1.4990     0.2450    -0.6450 C.2   1 <1>  -0.1500 
  5 C       -1.3570    -2.3640    -0.7860 C.3   1 <1>   0.5380 
  6 C       -1.5520     1.2860     0.3360 C.2   1 <1>  -0.1810 
  7 N       -2.5520    -3.1280    -0.3800 N.am  1 <1>  -0.7300 
  8 C       -0.0470    -3.0730    -0.4360 C.2   1 <1>  -0.1240 
  9 C       -1.6250     2.7410    -0.0830 C.3   1 <1>  -0.0590 
 10 C       -2.5010    -4.2140     0.4060 C.2   1 <1>   0.6900 
 11 C       -0.0840    -4.2290     0.2840 C.2   1 <1>  -0.0290 
 12 C        1.0830    -2.3620    -0.9450 C.2   1 <1>   0.7060 
 13 O       -3.5130    -4.7040     0.8520 O.2   1 <1>  -0.5700 
 14 N       -1.2910    -4.7510     0.7000 N.am  1 <1>  -0.5390 
 15 C        1.1140    -5.0700     0.6980 C.3   1 <1>  -0.1020 
 16 O        1.0280    -1.6580    -1.9360 O.2   1 <1>  -0.5700 
 17 O        2.2500    -2.4610    -0.3020 O.3   1 <1>  -0.4300 
 18 C        3.3900    -1.7470    -0.7240 C.3   1 <1>   0.1200 
 19 C        4.5370    -2.0870     0.2220 C.3   1 <1>  -0.2400 
 20 H       -1.5500     1.3380     2.5500 H     1 <1>   0.1500 
 21 H       -1.5040     0.4790    -1.6960 H     1 <1>   0.1500 
 22 H       -1.4060    -2.2340    -1.8540 H     1 <1>   0.0800 
 23 H       -3.4320    -2.6190    -0.3920 H     1 <1>   0.3700 
 24 H       -1.6540     3.3790     0.7820 H     1 <1>   0.0800 
 25 H       -2.5110     2.9100    -0.6670 H     1 <1>   0.0800 
 26 H       -0.7630     2.9960    -0.6720 H     1 <1>   0.0800 
 27 H       -1.3470    -5.5820     1.2870 H     1 <1>   0.3700 
 28 H        0.8930    -6.1150     0.5730 H     1 <1>   0.0800 
 29 H        1.3470    -4.8870     1.7320 H     1 <1>   0.0800 
 30 H        1.9820    -4.8560     0.1050 H     1 <1>   0.0800 
 31 H        3.1620    -0.6940    -0.6930 H     1 <1>   0.0800 
 32 H        3.6220    -2.0380    -1.7350 H     1 <1>   0.0800 
 33 H        4.2840    -1.8010     1.2280 H     1 <1>   0.0800 
 34 H        5.4210    -1.5520    -0.0730 H     1 <1>   0.0800 
 35 H        4.7460    -3.1410     0.1880 H     1 <1>   0.0800 
@<TRIPOS>BOND
  1   1   2  1   
  2   1   3  1   
  3   2   4  2   
  4   2   5  1   
  5   3   6  2   
  6   3  20  1   
  7   4   6  1   
  8   4  21  1   
  9   5   7  1   
 10   5   8  1   
 11   5  22  1   
 12   6   9  1   
 13   7  10  am  
 14   7  23  1   
 15   8  11  2   
 16   8  12  1   
 17   9  24  1   
 18   9  25  1   
 19   9  26  1   
 20  10  13  2   
 21  10  14  am  
 22  11  14  1   
 23  11  15  1   
 24  12  16  2   
 25  12  17  1   
 26  14  27  1   
 27  15  28  1   
 28  15  29  1   
 29  15  30  1   
 30  17  18  1   
 31  18  19  1   
 32  18  31  1   
 33  18  32  1   
 34  19  33  1   
 35  19  34  1   
 36  19  35  1   
@<TRIPOS>SUBSTRUCTURE
  1 ****   8 GROUP 4 **** **** 0

# MOE 2024.06 (io_trps.svl 2023.06)
