@<TRIPOS>MOLECULE
NONAME
49 51 1 0 0 
SMALL
USER_CHARGES


@<TRIPOS>ATOM
  1 CL       1.2100    -0.2430     0.0170 Cl    1 <1>  -0.1770 
  2 C        0.6940     1.4210     0.0800 C.ar  1 <1>   0.1770 
  3 C        0.2640     1.9550     1.2790 C.ar  1 <1>  -0.1500 
  4 C        0.7200     2.1860    -1.0690 C.ar  1 <1>  -0.1500 
  5 C       -0.1430     3.2780     1.3240 C.ar  1 <1>  -0.1500 
  6 C        0.3110     3.5080    -1.0110 C.ar  1 <1>  -0.1500 
  7 C       -0.1240     4.0780     0.1830 C.ar  1 <1>  -0.0090 
  8 S       -0.6310     5.8200     0.2490 S.o2  1 <1>   1.4470 
  9 O       -1.4400     6.1480    -0.9010 O.2   1 <1>  -0.6500 
 10 O       -1.0740     6.1840     1.5760 O.2   1 <1>  -0.6500 
 11 N        0.8260     6.6680     0.0320 N.am  1 <1>  -0.8490 
 12 C        0.5480     8.0870    -0.2940 C.3   1 <1>   0.1960 
 13 C        1.7120     6.5860     1.2150 C.3   1 <1>   0.1960 
 14 C        1.8280     8.9520    -0.4040 C.3   1 <1>   0.3430 
 15 C        3.0610     7.3180     0.9940 C.3   1 <1>   0.3430 
 16 N        3.0730     8.1170    -0.2860 N.4   1 <1>  -0.9590 
 17 C        4.3320     8.8620    -0.5730 C.3   1 <1>   0.4230 
 18 C        5.4630     7.8480    -0.7990 C.3   1 <1>  -0.1600 
 19 C        4.6230     9.9070     0.5190 C.3   1 <1>  -0.1600 
 20 C        6.6360     8.4660    -1.5740 C.3   1 <1>  -0.1600 
 21 C        5.8880    10.7470     0.2770 C.3   1 <1>  -0.1600 
 22 C        7.6900     9.1630    -0.7000 C.3   1 <1>  -0.1600 
 23 C        7.1790     9.9520     0.5150 C.3   1 <1>  -0.1600 
 24 H        0.2460     1.3380     2.1610 H     1 <1>   0.1500 
 25 H        1.0530     1.7470    -1.9940 H     1 <1>   0.1500 
 26 H       -0.4860     3.6910     2.2600 H     1 <1>   0.1500 
 27 H        0.3240     4.1060    -1.9080 H     1 <1>   0.1500 
 28 H       -0.1020     8.5170     0.4520 H     1 <1>   0.0800 
 29 H        0.0220     8.1390    -1.2340 H     1 <1>   0.0800 
 30 H        1.9150     5.5540     1.4500 H     1 <1>   0.0800 
 31 H        1.2230     7.0180     2.0730 H     1 <1>   0.0800 
 32 H        1.8120     9.6960     0.3750 H     1 <1>   0.0800 
 33 H        1.8180     9.4710    -1.3490 H     1 <1>   0.0800 
 34 H        3.8520     6.5870     0.9710 H     1 <1>   0.0800 
 35 H        3.2430     7.9640     1.8370 H     1 <1>   0.0800 
 36 H        2.9620     7.4070    -1.0250 H     1 <1>   0.4500 
 37 H        4.1960     9.3950    -1.5010 H     1 <1>   0.0800 
 38 H        5.0840     7.0410    -1.4020 H     1 <1>   0.0800 
 39 H        5.8140     7.4350     0.1300 H     1 <1>   0.0800 
 40 H        4.7150     9.4340     1.4800 H     1 <1>   0.0800 
 41 H        3.7990    10.5950     0.5690 H     1 <1>   0.0800 
 42 H        6.2630     9.1630    -2.3060 H     1 <1>   0.0800 
 43 H        7.1390     7.6870    -2.1250 H     1 <1>   0.0800 
 44 H        5.8770    11.5640     0.9810 H     1 <1>   0.0800 
 45 H        5.8870    11.1830    -0.7080 H     1 <1>   0.0800 
 46 H        8.2520     9.8300    -1.3320 H     1 <1>   0.0800 
 47 H        8.3860     8.4230    -0.3420 H     1 <1>   0.0800 
 48 H        7.0500     9.2860     1.3500 H     1 <1>   0.0800 
 49 H        7.9560    10.6420     0.7990 H     1 <1>   0.0800 
@<TRIPOS>BOND
  1   1   2  1   
  2   2   3  ar  
  3   2   4  ar  
  4   3   5  ar  
  5   3  24  1   
  6   4   6  ar  
  7   4  25  1   
  8   5   7  ar  
  9   5  26  1   
 10   6   7  ar  
 11   6  27  1   
 12   7   8  1   
 13   8   9  2   
 14   8  10  2   
 15   8  11  am  
 16  11  12  1   
 17  11  13  1   
 18  12  14  1   
 19  12  28  1   
 20  12  29  1   
 21  13  15  1   
 22  13  30  1   
 23  13  31  1   
 24  14  16  1   
 25  14  32  1   
 26  14  33  1   
 27  15  16  1   
 28  15  34  1   
 29  15  35  1   
 30  16  17  1   
 31  16  36  1   
 32  17  18  1   
 33  17  19  1   
 34  17  37  1   
 35  18  20  1   
 36  18  38  1   
 37  18  39  1   
 38  19  21  1   
 39  19  40  1   
 40  19  41  1   
 41  20  22  1   
 42  20  42  1   
 43  20  43  1   
 44  21  23  1   
 45  21  44  1   
 46  21  45  1   
 47  22  23  1   
 48  22  46  1   
 49  22  47  1   
 50  23  48  1   
 51  23  49  1   
@<TRIPOS>SUBSTRUCTURE
  1 ****  13 GROUP 4 **** **** 0

# MOE 2024.06 (io_trps.svl 2023.06)
