@<TRIPOS>MOLECULE
NONAME
39 42 1 0 0 
SMALL
USER_CHARGES


@<TRIPOS>ATOM
  1 O       -0.3180    -1.0980     2.0940 O.2   1 <1>  -0.5700 
  2 C       -0.8910    -1.8110     1.3100 C.2   1 <1>   0.5690 
  3 N       -0.3100    -2.5640     0.3280 N.am  1 <1>  -0.2370 
  4 C       -2.3990    -1.9410     1.2860 C.3   1 <1>  -0.0190 
  5 C        1.0790    -2.7860     0.2080 C.ar  1 <1>   0.1170 
  6 C       -1.2660    -3.1560    -0.4540 C.2   1 <1>   0.5690 
  7 C       -2.6570    -2.8690     0.0700 C.3   1 <1>  -0.0190 
  8 C       -3.1390    -0.6420     0.9020 C.3   1 <1>   0.0580 
  9 C        1.6270    -4.0530     0.4260 C.ar  1 <1>   0.0830 
 10 C        1.9240    -1.7370    -0.1310 C.ar  1 <1>  -0.1500 
 11 O       -1.0780    -3.8040    -1.4530 O.2   1 <1>  -0.5700 
 12 C       -3.5150    -1.9920    -0.8670 C.3   1 <1>   0.0580 
 13 C       -4.6120    -1.0040     0.9010 C.2   1 <1>  -0.2880 
 14 C       -2.9270    -0.6040    -0.6120 C.3   1 <1>  -0.1600 
 15 O        0.8140    -5.0820     0.7830 O.3   1 <1>  -0.3630 
 16 C        2.9930    -4.2600     0.3000 C.ar  1 <1>  -0.1500 
 17 C        3.2940    -1.9430    -0.2600 C.ar  1 <1>   0.0830 
 18 C       -4.8340    -1.8010    -0.1420 C.2   1 <1>  -0.2880 
 19 C        0.7800    -6.1910    -0.0890 C.3   1 <1>   0.0400 
 20 C        3.8200    -3.2070    -0.0470 C.ar  1 <1>  -0.1500 
 21 O        4.1760    -0.9630    -0.5860 O.3   1 <1>  -0.3630 
 22 C        3.7670     0.3840    -0.6650 C.3   1 <1>   0.0400 
 23 H       -2.7580    -2.3580     2.2090 H     1 <1>   0.0800 
 24 H       -3.1540    -3.7820     0.3430 H     1 <1>   0.0800 
 25 H       -2.8720     0.2540     1.4360 H     1 <1>   0.0800 
 26 H        1.4920    -0.7680    -0.2870 H     1 <1>   0.1500 
 27 H       -3.5810    -2.2910    -1.9000 H     1 <1>   0.0800 
 28 H       -5.2730    -0.6390     1.6700 H     1 <1>   0.1500 
 29 H       -1.8980    -0.5030    -0.9090 H     1 <1>   0.0800 
 30 H       -3.5120     0.1710    -1.0800 H     1 <1>   0.0800 
 31 H        3.4110    -5.2320     0.4810 H     1 <1>   0.1500 
 32 H       -5.7320    -2.2860    -0.4880 H     1 <1>   0.1500 
 33 H       -0.0210    -6.8370     0.2200 H     1 <1>   0.0800 
 34 H        1.7170    -6.7150    -0.0320 H     1 <1>   0.0800 
 35 H        0.6030    -5.8410    -1.0920 H     1 <1>   0.0800 
 36 H        4.8800    -3.3560    -0.1480 H     1 <1>   0.1500 
 37 H        4.6350     0.9850    -0.8680 H     1 <1>   0.0800 
 38 H        3.3330     0.6740     0.2760 H     1 <1>   0.0800 
 39 H        3.0570     0.4870    -1.4670 H     1 <1>   0.0800 
@<TRIPOS>BOND
  1   1   2  2   
  2   2   3  am  
  3   2   4  1   
  4   3   5  1   
  5   3   6  am  
  6   4   7  1   
  7   4   8  1   
  8   4  23  1   
  9   5   9  ar  
 10   5  10  ar  
 11   6   7  1   
 12   6  11  2   
 13   7  12  1   
 14   7  24  1   
 15   8  13  1   
 16   8  14  1   
 17   8  25  1   
 18   9  15  1   
 19   9  16  ar  
 20  10  17  ar  
 21  10  26  1   
 22  12  14  1   
 23  12  18  1   
 24  12  27  1   
 25  13  18  2   
 26  13  28  1   
 27  14  29  1   
 28  14  30  1   
 29  15  19  1   
 30  16  20  ar  
 31  16  31  1   
 32  17  20  ar  
 33  17  21  1   
 34  18  32  1   
 35  19  33  1   
 36  19  34  1   
 37  19  35  1   
 38  20  36  1   
 39  21  22  1   
 40  22  37  1   
 41  22  38  1   
 42  22  39  1   
@<TRIPOS>SUBSTRUCTURE
  1 ****   3 GROUP 4 **** **** 0

# MOE 2024.06 (io_trps.svl 2023.06)
