@<TRIPOS>MOLECULE
NONAME
53 55 1 0 0 
SMALL
USER_CHARGES


@<TRIPOS>ATOM
  1 O        0.3250     0.8990     1.0760 O.2   1 <1>  -0.5700 
  2 C        0.1870     1.7800     0.2470 C.2   1 <1>   0.5440 
  3 N        1.2820     2.1770    -0.4980 N.am  1 <1>  -0.6600 
  4 C       -1.1190     2.3860     0.0800 C.ar  1 <1>   0.0860 
  5 C        1.3390     3.4580    -1.2580 C.3   1 <1>   0.1400 
  6 C        2.5680     1.4290    -0.4480 C.3   1 <1>   0.1400 
  7 C       -1.7850     2.9600     1.1630 C.ar  1 <1>  -0.1500 
  8 C       -1.7600     2.4140    -1.1590 C.ar  1 <1>  -0.1500 
  9 C        2.4270     4.3570    -0.6670 C.3   1 <1>  -0.1600 
 10 C        3.6590     2.3180     0.1570 C.3   1 <1>  -0.1600 
 11 C       -3.0260     3.5530     1.0190 C.ar  1 <1>  -0.1500 
 12 C       -3.0000     3.0060    -1.3120 C.ar  1 <1>  -0.1500 
 13 C        3.7960     3.6470    -0.6090 C.3   1 <1>  -0.0190 
 14 C       -3.6420     3.5830    -0.2290 C.ar  1 <1>   0.0820 
 15 C        4.8970     4.5190    -0.0020 C.2   1 <1>   0.5690 
 16 O       -4.8500     4.1450    -0.4600 O.3   1 <1>  -0.3630 
 17 O        4.5990     5.4190     0.7460 O.2   1 <1>  -0.5700 
 18 N        6.1870     4.2120    -0.3410 N.am  1 <1>  -0.5470 
 19 C       -5.6060     4.7310     0.5750 C.3   1 <1>   0.0400 
 20 C        7.4130     4.7980     0.0160 C.ar  1 <1>   0.1170 
 21 C        8.5840     4.0390    -0.0580 C.ar  1 <1>  -0.1430 
 22 C        7.5030     6.1270     0.4210 C.ar  1 <1>  -0.1500 
 23 C        9.8000     4.6160     0.2710 C.ar  1 <1>  -0.1500 
 24 C        8.5590     2.5780    -0.4900 C.3   1 <1>  -0.0970 
 25 C        8.7180     6.6990     0.7530 C.ar  1 <1>  -0.1430 
 26 C        9.8690     5.9370     0.6750 C.ar  1 <1>  -0.1500 
 27 C        8.7900     8.1490     1.1960 C.3   1 <1>  -0.0970 
 28 H        0.3980     3.9780    -1.2140 H     1 <1>   0.0800 
 29 H        1.5560     3.2440    -2.2900 H     1 <1>   0.0800 
 30 H        2.8400     1.1380    -1.4470 H     1 <1>   0.0800 
 31 H        2.4670     0.5320     0.1390 H     1 <1>   0.0800 
 32 H       -1.3120     2.9310     2.1300 H     1 <1>   0.1500 
 33 H       -1.2760     1.9610    -2.0060 H     1 <1>   0.1500 
 34 H        2.1270     4.6500     0.3250 H     1 <1>   0.0800 
 35 H        2.5100     5.2530    -1.2570 H     1 <1>   0.0800 
 36 H        4.5920     1.7840     0.1460 H     1 <1>   0.0800 
 37 H        3.4090     2.5170     1.1860 H     1 <1>   0.0800 
 38 H       -3.4960     3.9840     1.8820 H     1 <1>   0.1500 
 39 H       -3.4830     3.0230    -2.2730 H     1 <1>   0.1500 
 40 H        4.0850     3.4240    -1.6210 H     1 <1>   0.0800 
 41 H        6.2930     3.3760    -0.9060 H     1 <1>   0.3700 
 42 H       -6.5250     5.0960     0.1530 H     1 <1>   0.0800 
 43 H       -5.0480     5.5480     0.9970 H     1 <1>   0.0800 
 44 H       -5.8180     3.9830     1.3190 H     1 <1>   0.0800 
 45 H        6.6130     6.7250     0.4740 H     1 <1>   0.1500 
 46 H       10.7080     4.0420     0.2180 H     1 <1>   0.1500 
 47 H        7.8890     2.0190     0.1390 H     1 <1>   0.0800 
 48 H        9.5370     2.1370    -0.4090 H     1 <1>   0.0800 
 49 H        8.2390     2.5000    -1.5130 H     1 <1>   0.0800 
 50 H       10.8220     6.3680     0.9270 H     1 <1>   0.1500 
 51 H        7.8400     8.4740     1.5820 H     1 <1>   0.0800 
 52 H        9.0560     8.7720     0.3610 H     1 <1>   0.0800 
 53 H        9.5270     8.2670     1.9690 H     1 <1>   0.0800 
@<TRIPOS>BOND
  1   1   2  2   
  2   2   3  am  
  3   2   4  1   
  4   3   5  1   
  5   3   6  1   
  6   4   7  ar  
  7   4   8  ar  
  8   5   9  1   
  9   5  28  1   
 10   5  29  1   
 11   6  10  1   
 12   6  30  1   
 13   6  31  1   
 14   7  11  ar  
 15   7  32  1   
 16   8  12  ar  
 17   8  33  1   
 18   9  13  1   
 19   9  34  1   
 20   9  35  1   
 21  10  13  1   
 22  10  36  1   
 23  10  37  1   
 24  11  14  ar  
 25  11  38  1   
 26  12  14  ar  
 27  12  39  1   
 28  13  15  1   
 29  13  40  1   
 30  14  16  1   
 31  15  17  2   
 32  15  18  am  
 33  16  19  1   
 34  18  20  1   
 35  18  41  1   
 36  19  42  1   
 37  19  43  1   
 38  19  44  1   
 39  20  21  ar  
 40  20  22  ar  
 41  21  23  ar  
 42  21  24  1   
 43  22  25  ar  
 44  22  45  1   
 45  23  26  ar  
 46  23  46  1   
 47  24  47  1   
 48  24  48  1   
 49  24  49  1   
 50  25  26  ar  
 51  25  27  1   
 52  26  50  1   
 53  27  51  1   
 54  27  52  1   
 55  27  53  1   
@<TRIPOS>SUBSTRUCTURE
  1 ****   9 GROUP 4 **** **** 0

# MOE 2024.06 (io_trps.svl 2023.06)
