@<TRIPOS>MOLECULE
NONAME
52 54 1 0 0 
SMALL
USER_CHARGES


@<TRIPOS>ATOM
  1 O       -0.1450    -1.1260    -0.9760 O.2   1 <1>  -0.5700 
  2 C       -1.3460    -1.0080    -1.0520 C.2   1 <1>   0.5690 
  3 N       -2.1900    -2.0260    -0.6590 N.am  1 <1>  -0.6600 
  4 C       -1.8590     0.3050    -1.6330 C.3   1 <1>  -0.0990 
  5 C       -1.6430    -3.2770    -0.0610 C.3   1 <1>   0.0600 
  6 C       -3.6760    -2.0460    -0.7820 C.3   1 <1>   0.0600 
  7 C       -2.0850     1.4410    -0.6060 C.3   1 <1>   0.0000 
  8 C       -2.5680     2.7030    -1.3590 C.3   1 <1>  -0.1600 
  9 C       -3.1540     1.0680     0.4460 C.3   1 <1>  -0.1600 
 10 C       -0.7720     1.7920     0.1330 C.3   1 <1>  -0.1600 
 11 C       -2.8030     3.8940    -0.4010 C.3   1 <1>   0.0000 
 12 C       -3.3810     2.2310     1.4290 C.3   1 <1>  -0.0800 
 13 C       -0.9910     2.9590     1.1110 C.3   1 <1>  -0.0800 
 14 C       -3.8550     3.4700     0.6500 C.3   1 <1>  -0.1600 
 15 C       -1.4750     4.1930     0.3300 C.3   1 <1>  -0.1600 
 16 C       -3.2990     5.1060    -1.2270 C.3   1 <1>  -0.0990 
 17 C       -2.0590     2.5590     2.1440 C.3   1 <1>  -0.1600 
 18 C       -3.6090     6.3620    -0.4210 C.2   1 <1>   0.5690 
 19 O       -4.7380     6.4590     0.0040 O.2   1 <1>  -0.5700 
 20 N       -2.6760     7.3550    -0.2040 N.am  1 <1>  -0.6600 
 21 C       -3.0160     8.5480     0.6240 C.3   1 <1>   0.0600 
 22 C       -1.2870     7.4020    -0.7420 C.3   1 <1>   0.0600 
 23 H       -2.7500     0.1340    -2.2020 H     1 <1>   0.0800 
 24 H       -1.1200     0.6370    -2.3400 H     1 <1>   0.0800 
 25 H       -0.5790    -3.2050     0.0890 H     1 <1>   0.0800 
 26 H       -1.8400    -4.1080    -0.7150 H     1 <1>   0.0800 
 27 H       -2.1060    -3.4580     0.8930 H     1 <1>   0.0800 
 28 H       -4.0590    -1.1520    -1.2320 H     1 <1>   0.0800 
 29 H       -4.1140    -2.1480     0.1960 H     1 <1>   0.0800 
 30 H       -3.9740    -2.8850    -1.3860 H     1 <1>   0.0800 
 31 H       -1.8360     2.9790    -2.0970 H     1 <1>   0.0800 
 32 H       -3.4840     2.4780    -1.8780 H     1 <1>   0.0800 
 33 H       -2.8400     0.2010     1.0000 H     1 <1>   0.0800 
 34 H       -4.0840     0.8350    -0.0400 H     1 <1>   0.0800 
 35 H       -0.0080     2.0540    -0.5780 H     1 <1>   0.0800 
 36 H       -0.4180     0.9380     0.6840 H     1 <1>   0.0800 
 37 H       -4.1250     1.9530     2.1550 H     1 <1>   0.0800 
 38 H       -0.0670     3.1860     1.6150 H     1 <1>   0.0800 
 39 H       -4.7930     3.2570     0.1680 H     1 <1>   0.0800 
 40 H       -4.0280     4.2720     1.3460 H     1 <1>   0.0800 
 41 H       -1.6080     5.0100     1.0180 H     1 <1>   0.0800 
 42 H       -0.7190     4.4760    -0.3800 H     1 <1>   0.0800 
 43 H       -4.2120     4.8230    -1.7180 H     1 <1>   0.0800 
 44 H       -2.6050     5.3320    -2.0100 H     1 <1>   0.0800 
 45 H       -1.7230     1.7020     2.7010 H     1 <1>   0.0800 
 46 H       -2.2120     3.3640     2.8410 H     1 <1>   0.0800 
 47 H       -3.9940     8.4520     1.0640 H     1 <1>   0.0800 
 48 H       -3.0040     9.4310     0.0090 H     1 <1>   0.0800 
 49 H       -2.2990     8.6570     1.4180 H     1 <1>   0.0800 
 50 H       -1.0590     6.5520    -1.3530 H     1 <1>   0.0800 
 51 H       -0.5870     7.4300     0.0750 H     1 <1>   0.0800 
 52 H       -1.1640     8.2900    -1.3370 H     1 <1>   0.0800 
@<TRIPOS>BOND
  1   1   2  2   
  2   2   3  am  
  3   2   4  1   
  4   3   5  1   
  5   3   6  1   
  6   4   7  1   
  7   4  23  1   
  8   4  24  1   
  9   5  25  1   
 10   5  26  1   
 11   5  27  1   
 12   6  28  1   
 13   6  29  1   
 14   6  30  1   
 15   7   8  1   
 16   7   9  1   
 17   7  10  1   
 18   8  11  1   
 19   8  31  1   
 20   8  32  1   
 21   9  12  1   
 22   9  33  1   
 23   9  34  1   
 24  10  13  1   
 25  10  35  1   
 26  10  36  1   
 27  11  14  1   
 28  11  15  1   
 29  11  16  1   
 30  12  14  1   
 31  12  17  1   
 32  12  37  1   
 33  13  15  1   
 34  13  17  1   
 35  13  38  1   
 36  14  39  1   
 37  14  40  1   
 38  15  41  1   
 39  15  42  1   
 40  16  18  1   
 41  16  43  1   
 42  16  44  1   
 43  17  45  1   
 44  17  46  1   
 45  18  19  2   
 46  18  20  am  
 47  20  21  1   
 48  20  22  1   
 49  21  47  1   
 50  21  48  1   
 51  21  49  1   
 52  22  50  1   
 53  22  51  1   
 54  22  52  1   
@<TRIPOS>SUBSTRUCTURE
  1 ****   8 GROUP 4 **** **** 0

# MOE 2024.06 (io_trps.svl 2023.06)
