@<TRIPOS>MOLECULE
NONAME
41 42 1 0 0 
SMALL
USER_CHARGES


@<TRIPOS>ATOM
  1 F       -4.5130     0.6310    -2.4060 F     1 <1>  -0.1900 
  2 C       -4.5660     1.3770    -1.3360 C.ar  1 <1>   0.1900 
  3 C       -5.1390     2.6290    -1.4300 C.ar  1 <1>  -0.1500 
  4 C       -4.0460     0.8830    -0.1560 C.ar  1 <1>  -0.1500 
  5 C       -5.2000     3.4370    -0.3010 C.ar  1 <1>   0.1170 
  6 C       -4.1090     1.6830     0.9720 C.ar  1 <1>  -0.1500 
  7 N       -5.7930     4.7050    -0.4140 N.am  1 <1>  -0.5470 
  8 C       -4.6820     2.9430     0.8970 C.ar  1 <1>  -0.1500 
  9 C       -5.6040     5.8370     0.3270 C.2   1 <1>   0.5690 
 10 O       -4.8420     5.9120     1.2580 O.2   1 <1>  -0.5700 
 11 C       -6.3750     7.0790    -0.0640 C.3   1 <1>  -0.0990 
 12 C       -5.8760     8.3410     0.6550 C.3   1 <1>   0.3430 
 13 N       -4.7240     9.0140    -0.0330 N.4   1 <1>  -0.9590 
 14 C       -3.4620     8.2180     0.0990 C.3   1 <1>   0.3430 
 15 C       -4.5840    10.3980     0.5060 C.3   1 <1>   0.3430 
 16 C       -2.3070     8.7910    -0.7260 C.3   1 <1>  -0.1600 
 17 C       -3.9790    11.3160    -0.5560 C.3   1 <1>  -0.1600 
 18 C       -1.7180    10.0810    -0.1380 C.3   1 <1>  -0.1600 
 19 C       -2.4420    11.3620    -0.5750 C.3   1 <1>  -0.1600 
 20 H       -5.5250     2.9600    -2.3750 H     1 <1>   0.1500 
 21 H       -3.6060    -0.0980    -0.1250 H     1 <1>   0.1500 
 22 H       -3.7150     1.3250     1.9090 H     1 <1>   0.1500 
 23 H       -6.4540     4.7780    -1.1880 H     1 <1>   0.3700 
 24 H       -4.7270     3.5390     1.7900 H     1 <1>   0.1500 
 25 H       -7.3950     6.9150     0.2320 H     1 <1>   0.0800 
 26 H       -6.3570     7.2200    -1.1280 H     1 <1>   0.0800 
 27 H       -5.6060     8.0960     1.6710 H     1 <1>   0.0800 
 28 H       -6.6990     9.0360     0.7000 H     1 <1>   0.0800 
 29 H       -4.9310     9.1020    -1.0340 H     1 <1>   0.4500 
 30 H       -3.6370     7.2140    -0.2470 H     1 <1>   0.0800 
 31 H       -3.1730     8.1540     1.1360 H     1 <1>   0.0800 
 32 H       -3.9850    10.4050     1.4020 H     1 <1>   0.0800 
 33 H       -5.5610    10.7810     0.7550 H     1 <1>   0.0800 
 34 H       -2.5940     8.9250    -1.7540 H     1 <1>   0.0800 
 35 H       -1.5270     8.0500    -0.7150 H     1 <1>   0.0800 
 36 H       -4.3260    12.3170    -0.3670 H     1 <1>   0.0800 
 37 H       -4.3490    11.0440    -1.5280 H     1 <1>   0.0800 
 38 H       -0.6910    10.1650    -0.4560 H     1 <1>   0.0800 
 39 H       -1.7000    10.0160     0.9370 H     1 <1>   0.0800 
 40 H       -2.1090    12.1600     0.0680 H     1 <1>   0.0800 
 41 H       -2.1240    11.6210    -1.5720 H     1 <1>   0.0800 
@<TRIPOS>BOND
  1   1   2  1   
  2   2   3  ar  
  3   2   4  ar  
  4   3   5  ar  
  5   3  20  1   
  6   4   6  ar  
  7   4  21  1   
  8   5   7  1   
  9   5   8  ar  
 10   6   8  ar  
 11   6  22  1   
 12   7   9  am  
 13   7  23  1   
 14   8  24  1   
 15   9  10  2   
 16   9  11  1   
 17  11  12  1   
 18  11  25  1   
 19  11  26  1   
 20  12  13  1   
 21  12  27  1   
 22  12  28  1   
 23  13  14  1   
 24  13  15  1   
 25  13  29  1   
 26  14  16  1   
 27  14  30  1   
 28  14  31  1   
 29  15  17  1   
 30  15  32  1   
 31  15  33  1   
 32  16  18  1   
 33  16  34  1   
 34  16  35  1   
 35  17  19  1   
 36  17  36  1   
 37  17  37  1   
 38  18  19  1   
 39  18  38  1   
 40  18  39  1   
 41  19  40  1   
 42  19  41  1   
@<TRIPOS>SUBSTRUCTURE
  1 ****   9 GROUP 4 **** **** 0

# MOE 2024.06 (io_trps.svl 2023.06)
