@<TRIPOS>MOLECULE
NONAME
50 54 1 0 0 
SMALL
USER_CHARGES


@<TRIPOS>ATOM
  1 O       -1.5750     2.1500     3.0020 O.2   1 <1>  -0.5700 
  2 C       -2.5480     2.2670     2.3010 C.2   1 <1>   0.6340 
  3 O       -3.0660     3.4670     2.0540 O.3   1 <1>  -0.4300 
  4 C       -3.2060     1.2750     1.5150 C.ar  1 <1>   0.0860 
  5 C       -4.0810     3.4000     1.0520 C.3   1 <1>   0.3440 
  6 C       -4.1300     1.9170     0.7280 C.ar  1 <1>  -0.1440 
  7 C       -3.0380    -0.0990     1.4080 C.ar  1 <1>  -0.1500 
  8 C       -3.6680     4.2810    -0.1650 C.3   1 <1>   0.5660 
  9 C       -4.9070     1.2210    -0.1750 C.ar  1 <1>  -0.1500 
 10 C       -3.8020    -0.8260     0.4970 C.ar  1 <1>   0.0830 
 11 N       -2.1710     4.1840    -0.4130 N.4   1 <1>  -0.9590 
 12 C       -4.1540     5.7200     0.0550 C.ar  1 <1>  -0.1430 
 13 C       -4.7490    -0.1520    -0.3060 C.ar  1 <1>   0.0830 
 14 O       -3.6290    -2.1710     0.3670 O.3   1 <1>  -0.3630 
 15 C       -1.5510     5.4270    -0.9570 C.3   1 <1>   0.3430 
 16 C       -1.8040     3.0030    -1.2580 C.3   1 <1>   0.2630 
 17 C       -3.2720     6.8020     0.1650 C.ar  1 <1>  -0.1430 
 18 C       -5.5280     5.9500     0.1340 C.ar  1 <1>  -0.1500 
 19 O       -5.5650    -0.7030    -1.2420 O.3   1 <1>  -0.3620 
 20 C       -2.8420    -2.9290     1.2630 C.3   1 <1>   0.0400 
 21 C       -1.7830     6.5820     0.0110 C.3   1 <1>  -0.0170 
 22 C       -3.7440     8.0920     0.3860 C.ar  1 <1>  -0.1500 
 23 C       -5.9730     7.2380     0.3470 C.ar  1 <1>   0.0830 
 24 C       -5.7590    -2.0910    -1.4060 C.3   1 <1>   0.0400 
 25 C       -5.1070     8.2800     0.4750 C.ar  1 <1>   0.0830 
 26 O       -7.2330     7.6680     0.4590 O.3   1 <1>  -0.3630 
 27 O       -5.7790     9.4170     0.6750 O.3   1 <1>  -0.3620 
 28 C       -7.1660     9.0790     0.6720 C.3   1 <1>   0.4000 
 29 H       -5.0120     3.7170     1.4870 H     1 <1>   0.0800 
 30 H       -2.3030    -0.5620     2.0400 H     1 <1>   0.1500 
 31 H       -4.1900     3.9150    -1.0340 H     1 <1>   0.0800 
 32 H       -5.6440     1.7130    -0.7870 H     1 <1>   0.1500 
 33 H       -1.7710     4.0590     0.5340 H     1 <1>   0.4500 
 34 H       -1.9870     5.6690    -1.9120 H     1 <1>   0.0800 
 35 H       -0.4900     5.2830    -1.0900 H     1 <1>   0.0800 
 36 H       -2.2230     3.1040    -2.2460 H     1 <1>   0.0800 
 37 H       -2.1690     2.0880    -0.8220 H     1 <1>   0.0800 
 38 H       -0.7310     2.9280    -1.3470 H     1 <1>   0.0800 
 39 H       -6.2620     5.1700     0.0350 H     1 <1>   0.1500 
 40 H       -2.9390    -3.9670     0.9960 H     1 <1>   0.0800 
 41 H       -3.2030    -2.7770     2.2650 H     1 <1>   0.0800 
 42 H       -1.8130    -2.6280     1.1710 H     1 <1>   0.0800 
 43 H       -1.3200     7.4680    -0.3880 H     1 <1>   0.0800 
 44 H       -1.3350     6.3730     0.9670 H     1 <1>   0.0800 
 45 H       -3.0880     8.9390     0.4840 H     1 <1>   0.1500 
 46 H       -6.5500    -2.2380    -2.1180 H     1 <1>   0.0800 
 47 H       -6.0340    -2.5200    -0.4590 H     1 <1>   0.0800 
 48 H       -4.8500    -2.5300    -1.7770 H     1 <1>   0.0800 
 49 H       -7.5990     9.3220     1.6260 H     1 <1>   0.0800 
 50 H       -7.6610     9.5910    -0.1330 H     1 <1>   0.0800 
@<TRIPOS>BOND
  1   1   2  2   
  2   2   3  1   
  3   2   4  1   
  4   3   5  1   
  5   4   6  ar  
  6   4   7  ar  
  7   5   6  1   
  8   5   8  1   
  9   5  29  1   
 10   6   9  ar  
 11   7  10  ar  
 12   7  30  1   
 13   8  11  1   
 14   8  12  1   
 15   8  31  1   
 16   9  13  ar  
 17   9  32  1   
 18  10  13  ar  
 19  10  14  1   
 20  11  15  1   
 21  11  16  1   
 22  11  33  1   
 23  12  17  ar  
 24  12  18  ar  
 25  13  19  1   
 26  14  20  1   
 27  15  21  1   
 28  15  34  1   
 29  15  35  1   
 30  16  36  1   
 31  16  37  1   
 32  16  38  1   
 33  17  21  1   
 34  17  22  ar  
 35  18  23  ar  
 36  18  39  1   
 37  19  24  1   
 38  20  40  1   
 39  20  41  1   
 40  20  42  1   
 41  21  43  1   
 42  21  44  1   
 43  22  25  ar  
 44  22  45  1   
 45  23  25  ar  
 46  23  26  1   
 47  24  46  1   
 48  24  47  1   
 49  24  48  1   
 50  25  27  1   
 51  26  28  1   
 52  27  28  1   
 53  28  49  1   
 54  28  50  1   
@<TRIPOS>SUBSTRUCTURE
  1 ****   5 GROUP 4 **** **** 0

# MOE 2024.06 (io_trps.svl 2023.06)
