@<TRIPOS>MOLECULE
NONAME
44 46 1 0 0 
SMALL
USER_CHARGES


@<TRIPOS>ATOM
  1 CL      -2.4350    -1.2240    -0.9360 Cl    1 <1>  -0.1770 
  2 C       -1.6790    -1.9040     0.4920 C.ar  1 <1>   0.1770 
  3 C       -0.3320    -2.2820     0.4560 C.ar  1 <1>   0.1990 
  4 C       -2.4520    -2.0580     1.6260 C.ar  1 <1>  -0.1500 
  5 N        0.4620    -2.1100    -0.6790 N.am  1 <1>  -0.6930 
  6 C        0.2190    -2.8360     1.6080 C.ar  1 <1>  -0.1500 
  7 C       -1.8680    -2.6080     2.7510 C.ar  1 <1>   0.1770 
  8 S        0.8830    -3.4320    -1.7100 S.o2  1 <1>   1.3330 
  9 C        0.9850    -0.7400    -0.9870 C.3   1 <1>   0.2570 
 10 C       -0.5410    -3.0000     2.7530 C.ar  1 <1>  -0.1500 
 11 CL      -2.8260    -2.8150     4.1970 Cl    1 <1>  -0.1770 
 12 O        1.9480    -2.9820    -2.5720 O.2   1 <1>  -0.6500 
 13 O        1.0560    -4.5910    -0.8710 O.2   1 <1>  -0.6500 
 14 C       -0.5920    -3.6280    -2.6850 C.3   1 <1>  -0.1350 
 15 C        1.7970    -0.1340     0.1630 C.2   1 <1>   0.5690 
 16 O        1.2700     0.6890     0.8700 O.2   1 <1>  -0.5700 
 17 N        3.0780    -0.4970     0.4170 N.am  1 <1>  -0.7300 
 18 C        3.9340    -1.4720    -0.2880 C.3   1 <1>   0.2200 
 19 C        4.0650    -2.8140     0.4630 C.3   1 <1>  -0.0800 
 20 C        5.3860    -0.9720    -0.3500 C.3   1 <1>  -0.1600 
 21 C        5.3870    -3.3230    -0.0890 C.3   1 <1>  -0.1600 
 22 C        4.4440    -2.5910     1.9400 C.3   1 <1>  -0.1600 
 23 C        6.1780    -2.0980     0.3380 C.3   1 <1>  -0.0800 
 24 C        5.8830    -2.0520     1.8470 C.3   1 <1>  -0.1600 
 25 H       -3.4830    -1.7590     1.6370 H     1 <1>   0.1500 
 26 H        1.2510    -3.1390     1.6000 H     1 <1>   0.1500 
 27 H        0.1520    -0.0890    -1.1810 H     1 <1>   0.0800 
 28 H        1.5940    -0.7450    -1.8710 H     1 <1>   0.0800 
 29 H       -0.1120    -3.4280     3.6420 H     1 <1>   0.1500 
 30 H       -0.8100    -2.7230    -3.2170 H     1 <1>   0.0800 
 31 H       -1.4250    -3.8690    -2.0540 H     1 <1>   0.0800 
 32 H       -0.4600    -4.4220    -3.3950 H     1 <1>   0.0800 
 33 H        3.5030    -0.0830     1.2470 H     1 <1>   0.3700 
 34 H        3.5760    -1.6420    -1.2880 H     1 <1>   0.0800 
 35 H        3.2410    -3.4860     0.3070 H     1 <1>   0.0800 
 36 H        5.5280    -0.0240     0.1370 H     1 <1>   0.0800 
 37 H        5.6920    -0.8910    -1.3780 H     1 <1>   0.0800 
 38 H        5.3680    -3.4610    -1.1580 H     1 <1>   0.0800 
 39 H        5.7220    -4.2270     0.3920 H     1 <1>   0.0800 
 40 H        4.4390    -3.5320     2.4630 H     1 <1>   0.0800 
 41 H        3.7830    -1.9140     2.4510 H     1 <1>   0.0800 
 42 H        7.2260    -2.1150     0.0930 H     1 <1>   0.0800 
 43 H        6.5570    -2.7010     2.3800 H     1 <1>   0.0800 
 44 H        5.9670    -1.0540     2.2420 H     1 <1>   0.0800 
@<TRIPOS>BOND
  1   1   2  1   
  2   2   3  ar  
  3   2   4  ar  
  4   3   5  1   
  5   3   6  ar  
  6   4   7  ar  
  7   4  25  1   
  8   5   8  am  
  9   5   9  1   
 10   6  10  ar  
 11   6  26  1   
 12   7  10  ar  
 13   7  11  1   
 14   8  12  2   
 15   8  13  2   
 16   8  14  1   
 17   9  15  1   
 18   9  27  1   
 19   9  28  1   
 20  10  29  1   
 21  14  30  1   
 22  14  31  1   
 23  14  32  1   
 24  15  16  2   
 25  15  17  am  
 26  17  18  1   
 27  17  33  1   
 28  18  19  1   
 29  18  20  1   
 30  18  34  1   
 31  19  21  1   
 32  19  22  1   
 33  19  35  1   
 34  20  23  1   
 35  20  36  1   
 36  20  37  1   
 37  21  23  1   
 38  21  38  1   
 39  21  39  1   
 40  22  24  1   
 41  22  40  1   
 42  22  41  1   
 43  23  24  1   
 44  23  42  1   
 45  24  43  1   
 46  24  44  1   
@<TRIPOS>SUBSTRUCTURE
  1 ****   5 GROUP 4 **** **** 0

# MOE 2024.06 (io_trps.svl 2023.06)
