@<TRIPOS>MOLECULE
NONAME
43 44 1 0 0 
SMALL
USER_CHARGES


@<TRIPOS>ATOM
  1 O       -4.3920     4.3540    -2.4930 O.2   1 <1>  -0.5700 
  2 C       -3.8020     3.7350    -1.6310 C.2   1 <1>   0.5440 
  3 N       -4.5330     2.9820    -0.7540 N.am  1 <1>  -0.7300 
  4 C       -2.3570     3.8150    -1.5240 C.ar  1 <1>   0.0860 
  5 C       -5.9980     2.8260    -0.8100 C.3   1 <1>   0.2200 
  6 C       -1.6460     4.9010    -2.0140 C.ar  1 <1>  -0.1500 
  7 C       -1.5750     2.8280    -0.9370 C.ar  1 <1>  -0.1500 
  8 C       -6.6390     3.8330     0.1410 C.3   1 <1>  -0.1600 
  9 C       -6.3620     1.4030    -0.3940 C.3   1 <1>  -0.1600 
 10 C       -0.2710     4.9560    -1.8900 C.ar  1 <1>   0.1600 
 11 C       -0.2020     2.9760    -0.8610 C.ar  1 <1>   0.1600 
 12 C       -8.1740     3.7090     0.1780 C.3   1 <1>   0.2560 
 13 C       -7.8850     1.1700    -0.3780 C.3   1 <1>   0.2560 
 14 N        0.4670     4.0190    -1.3190 N.ar  1 <1>  -0.6200 
 15 N       -8.5740     2.2680     0.3990 N.4   1 <1>  -0.1220 
 16 C       -8.7930     4.3240    -1.0950 C.3   1 <1>  -0.2400 
 17 C       -8.6870     4.5220     1.3790 C.3   1 <1>  -0.2400 
 18 C       -8.1550    -0.1560     0.3540 C.3   1 <1>  -0.2400 
 19 C       -8.4190     1.0180    -1.8180 C.3   1 <1>  -0.2400 
 20 O       -9.9370     2.1260     0.3340 O.2   1 <1>  -0.7500 
 21 H       -4.0740     2.5850     0.0650 H     1 <1>   0.3700 
 22 H       -6.3300     3.0080    -1.8190 H     1 <1>   0.0800 
 23 H       -2.1720     5.7060    -2.4960 H     1 <1>   0.1500 
 24 H       -2.0280     1.9370    -0.5450 H     1 <1>   0.1500 
 25 H       -6.3730     4.8280    -0.1740 H     1 <1>   0.0800 
 26 H       -6.2430     3.6870     1.1290 H     1 <1>   0.0800 
 27 H       -5.9640     1.2100     0.5860 H     1 <1>   0.0800 
 28 H       -5.9050     0.7080    -1.0770 H     1 <1>   0.0800 
 29 H        0.2500     5.8140    -2.2800 H     1 <1>   0.1500 
 30 H        0.3810     2.1950    -0.4000 H     1 <1>   0.1500 
 31 H       -8.3460     2.0810     1.3780 H     1 <1>   0.3600 
 32 H       -8.3830     3.9110    -1.9920 H     1 <1>   0.0800 
 33 H       -8.6050     5.3820    -1.1220 H     1 <1>   0.0800 
 34 H       -9.8590     4.1810    -1.1030 H     1 <1>   0.0800 
 35 H       -8.3040     4.1340     2.3050 H     1 <1>   0.0800 
 36 H       -9.7630     4.4920     1.4130 H     1 <1>   0.0800 
 37 H       -8.3890     5.5510     1.2930 H     1 <1>   0.0800 
 38 H       -7.8200    -0.1120     1.3750 H     1 <1>   0.0800 
 39 H       -7.6480    -0.9680    -0.1350 H     1 <1>   0.0800 
 40 H       -9.2100    -0.3730     0.3480 H     1 <1>   0.0800 
 41 H       -8.1580     1.8460    -2.4430 H     1 <1>   0.0800 
 42 H       -9.4900     0.9150    -1.8130 H     1 <1>   0.0800 
 43 H       -8.0090     0.1360    -2.2740 H     1 <1>   0.0800 
@<TRIPOS>BOND
  1   1   2  2   
  2   2   3  am  
  3   2   4  1   
  4   3   5  1   
  5   3  21  1   
  6   4   6  ar  
  7   4   7  ar  
  8   5   8  1   
  9   5   9  1   
 10   5  22  1   
 11   6  10  ar  
 12   6  23  1   
 13   7  11  ar  
 14   7  24  1   
 15   8  12  1   
 16   8  25  1   
 17   8  26  1   
 18   9  13  1   
 19   9  27  1   
 20   9  28  1   
 21  10  14  ar  
 22  10  29  1   
 23  11  14  ar  
 24  11  30  1   
 25  12  15  1   
 26  12  16  1   
 27  12  17  1   
 28  13  15  1   
 29  13  18  1   
 30  13  19  1   
 31  15  20  2   
 32  15  31  1   
 33  16  32  1   
 34  16  33  1   
 35  16  34  1   
 36  17  35  1   
 37  17  36  1   
 38  17  37  1   
 39  18  38  1   
 40  18  39  1   
 41  18  40  1   
 42  19  41  1   
 43  19  42  1   
 44  19  43  1   
@<TRIPOS>SUBSTRUCTURE
  1 ****   5 GROUP 4 **** **** 0

# MOE 2024.06 (io_trps.svl 2023.06)
