@<TRIPOS>MOLECULE
NONAME
46 48 1 0 0 
SMALL
USER_CHARGES


@<TRIPOS>ATOM
  1 F       -0.5330     0.9730     1.5730 F     1 <1>  -0.1900 
  2 C       -1.4520     1.3270     0.7040 C.ar  1 <1>   0.1900 
  3 C       -1.2320     2.4430    -0.1140 C.ar  1 <1>   0.1000 
  4 C       -2.6040     0.5680     0.6440 C.ar  1 <1>  -0.1500 
  5 N       -0.0760     3.2360    -0.0810 N.pl3 1 <1>  -0.8380 
  6 C       -2.2390     2.7690    -1.0130 C.ar  1 <1>  -0.1500 
  7 C       -3.5890     0.9210    -0.2640 C.ar  1 <1>  -0.1500 
  8 C        1.1640     2.5570    -0.5530 C.3   1 <1>   0.2090 
  9 C        0.1020     4.0320     1.1670 C.3   1 <1>   0.2090 
 10 C       -3.4020     2.0190    -1.0890 C.ar  1 <1>  -0.1500 
 11 C        2.3230     3.5660    -0.6910 C.3   1 <1>   0.3430 
 12 C        1.2690     5.0300     1.0190 C.3   1 <1>   0.3430 
 13 N        2.5620     4.3660     0.5800 N.4   1 <1>  -0.9590 
 14 C        3.7030     5.3320     0.5380 C.3   1 <1>   0.4230 
 15 C        3.5890     6.3340    -0.6190 C.3   1 <1>  -0.1600 
 16 C        5.0350     4.5830     0.4580 C.3   1 <1>  -0.1600 
 17 C        4.7730     7.3040    -0.6090 C.3   1 <1>   0.3430 
 18 C        6.2090     5.5650     0.4610 C.3   1 <1>   0.3430 
 19 N        6.0580     6.5460    -0.6550 N.4   1 <1>  -0.9590 
 20 C        7.2170     7.5000    -0.6610 C.3   1 <1>   0.2630 
 21 H       -2.7290    -0.2800     1.2930 H     1 <1>   0.1500 
 22 H       -2.1070     3.6180    -1.6580 H     1 <1>   0.1500 
 23 H       -4.4960     0.3440    -0.3290 H     1 <1>   0.1500 
 24 H        0.9720     2.1010    -1.5100 H     1 <1>   0.0800 
 25 H        1.4390     1.7740     0.1340 H     1 <1>   0.0800 
 26 H        0.2840     3.3750     2.0000 H     1 <1>   0.0800 
 27 H       -0.8070     4.5740     1.3700 H     1 <1>   0.0800 
 28 H       -4.1690     2.2920    -1.7940 H     1 <1>   0.1500 
 29 H        2.0760     4.2340    -1.4990 H     1 <1>   0.0800 
 30 H        3.2130     3.0270    -0.9640 H     1 <1>   0.0800 
 31 H        1.4130     5.5320     1.9610 H     1 <1>   0.0800 
 32 H        0.9750     5.7690     0.2920 H     1 <1>   0.0800 
 33 H        2.7620     3.6680     1.3110 H     1 <1>   0.4500 
 34 H        3.7000     5.8910     1.4610 H     1 <1>   0.0800 
 35 H        2.6870     6.9120    -0.5220 H     1 <1>   0.0800 
 36 H        3.5680     5.8350    -1.5710 H     1 <1>   0.0800 
 37 H        5.0940     3.9820    -0.4310 H     1 <1>   0.0800 
 38 H        5.1390     3.9350     1.3110 H     1 <1>   0.0800 
 39 H        4.7400     7.9100     0.2830 H     1 <1>   0.0800 
 40 H        4.7060     7.9640    -1.4610 H     1 <1>   0.0800 
 41 H        7.1350     5.0220     0.3500 H     1 <1>   0.0800 
 42 H        6.2430     6.0900     1.4030 H     1 <1>   0.0800 
 43 H        6.1010     6.0310    -1.5500 H     1 <1>   0.4500 
 44 H        7.2380     8.0770     0.2490 H     1 <1>   0.0800 
 45 H        7.1420     8.1790    -1.4960 H     1 <1>   0.0800 
 46 H        8.1480     6.9610    -0.7470 H     1 <1>   0.0800 
@<TRIPOS>BOND
  1   1   2  1   
  2   2   3  ar  
  3   2   4  ar  
  4   3   5  1   
  5   3   6  ar  
  6   4   7  ar  
  7   4  21  1   
  8   5   8  1   
  9   5   9  1   
 10   6  10  ar  
 11   6  22  1   
 12   7  10  ar  
 13   7  23  1   
 14   8  11  1   
 15   8  24  1   
 16   8  25  1   
 17   9  12  1   
 18   9  26  1   
 19   9  27  1   
 20  10  28  1   
 21  11  13  1   
 22  11  29  1   
 23  11  30  1   
 24  12  13  1   
 25  12  31  1   
 26  12  32  1   
 27  13  14  1   
 28  13  33  1   
 29  14  15  1   
 30  14  16  1   
 31  14  34  1   
 32  15  17  1   
 33  15  35  1   
 34  15  36  1   
 35  16  18  1   
 36  16  37  1   
 37  16  38  1   
 38  17  19  1   
 39  17  39  1   
 40  17  40  1   
 41  18  19  1   
 42  18  41  1   
 43  18  42  1   
 44  19  20  1   
 45  19  43  1   
 46  20  44  1   
 47  20  45  1   
 48  20  46  1   
@<TRIPOS>SUBSTRUCTURE
  1 ****  11 GROUP 4 **** **** 0

# MOE 2024.06 (io_trps.svl 2023.06)
