@<TRIPOS>MOLECULE
NONAME
42 43 1 0 0 
SMALL
USER_CHARGES


@<TRIPOS>ATOM
  1 O        0.8740    -0.2420    -1.0110 O.2   1 <1>  -0.5700 
  2 C        0.7070    -1.4170    -0.7760 C.2   1 <1>   0.4950 
  3 C        1.6230    -2.2490    -0.0540 C.2   1 <1>   0.0290 
  4 C       -0.5740    -2.0060    -1.3200 C.3   1 <1>  -0.0990 
  5 C        1.3680    -3.6040     0.1610 C.2   1 <1>  -0.0380 
  6 C        2.7670    -1.5490     0.4440 C.2   1 <1>   0.4950 
  7 C       -1.1430    -3.0400    -0.3500 C.3   1 <1>   0.0000 
  8 N        2.2540    -4.5860     0.5770 N.pl3 1 <1>  -0.8380 
  9 C       -0.0650    -4.1100    -0.0990 C.3   1 <1>  -0.0220 
 10 O        3.0710    -1.5270     1.6160 O.2   1 <1>  -0.5700 
 11 C        3.7280    -0.8430    -0.5150 C.3   1 <1>  -0.0990 
 12 C       -1.5550    -2.3690     0.9760 C.3   1 <1>  -0.2400 
 13 C       -2.3920    -3.6900    -0.9660 C.3   1 <1>  -0.2400 
 14 C        3.7270    -4.3820     0.8480 C.3   1 <1>   0.2090 
 15 C        1.8720    -6.0030     0.9570 C.3   1 <1>   0.2090 
 16 C        3.9190     0.6490    -0.1950 C.3   1 <1>  -0.2400 
 17 C        4.6090    -5.5410     0.3460 C.3   1 <1>   0.1200 
 18 C        2.8510    -7.0540     0.4070 C.3   1 <1>   0.1200 
 19 O        4.1550    -6.7750     0.8110 O.3   1 <1>  -0.5600 
 20 H       -0.3610    -2.4590    -2.2710 H     1 <1>   0.0800 
 21 H       -1.2900    -1.2190    -1.4800 H     1 <1>   0.0800 
 22 H       -0.4020    -4.6760     0.7500 H     1 <1>   0.0800 
 23 H       -0.0220    -4.7730    -0.9450 H     1 <1>   0.0800 
 24 H        3.3800    -0.9470    -1.5270 H     1 <1>   0.0800 
 25 H        4.6820    -1.3310    -0.4500 H     1 <1>   0.0800 
 26 H       -0.7080    -1.9510     1.4910 H     1 <1>   0.0800 
 27 H       -2.0150    -3.0850     1.6340 H     1 <1>   0.0800 
 28 H       -2.2620    -1.5780     0.7960 H     1 <1>   0.0800 
 29 H       -2.1580    -4.1580    -1.9060 H     1 <1>   0.0800 
 30 H       -3.1550    -2.9500    -1.1400 H     1 <1>   0.0800 
 31 H       -2.7940    -4.4390    -0.3070 H     1 <1>   0.0800 
 32 H        3.8770    -4.2480     1.9060 H     1 <1>   0.0800 
 33 H        4.0950    -3.5130     0.3490 H     1 <1>   0.0800 
 34 H        0.9010    -6.2750     0.5950 H     1 <1>   0.0800 
 35 H        1.8520    -6.0800     2.0300 H     1 <1>   0.0800 
 36 H        2.9790     1.1690    -0.2560 H     1 <1>   0.0800 
 37 H        4.6050     1.0950    -0.8920 H     1 <1>   0.0800 
 38 H        4.3100     0.7690     0.8010 H     1 <1>   0.0800 
 39 H        5.6180    -5.4110     0.6960 H     1 <1>   0.0800 
 40 H        4.6190    -5.5610    -0.7290 H     1 <1>   0.0800 
 41 H        2.8160    -7.0750    -0.6690 H     1 <1>   0.0800 
 42 H        2.5950    -8.0280     0.7820 H     1 <1>   0.0800 
@<TRIPOS>BOND
  1   1   2  2   
  2   2   3  1   
  3   2   4  1   
  4   3   5  2   
  5   3   6  1   
  6   4   7  1   
  7   4  20  1   
  8   4  21  1   
  9   5   8  1   
 10   5   9  1   
 11   6  10  2   
 12   6  11  1   
 13   7   9  1   
 14   7  12  1   
 15   7  13  1   
 16   8  14  1   
 17   8  15  1   
 18   9  22  1   
 19   9  23  1   
 20  11  16  1   
 21  11  24  1   
 22  11  25  1   
 23  12  26  1   
 24  12  27  1   
 25  12  28  1   
 26  13  29  1   
 27  13  30  1   
 28  13  31  1   
 29  14  17  1   
 30  14  32  1   
 31  14  33  1   
 32  15  18  1   
 33  15  34  1   
 34  15  35  1   
 35  16  36  1   
 36  16  37  1   
 37  16  38  1   
 38  17  19  1   
 39  17  39  1   
 40  17  40  1   
 41  18  19  1   
 42  18  41  1   
 43  18  42  1   
@<TRIPOS>SUBSTRUCTURE
  1 ****   5 GROUP 4 **** **** 0

# MOE 2024.06 (io_trps.svl 2023.06)
