@<TRIPOS>MOLECULE
NONAME
31 32 1 0 0 
SMALL
USER_CHARGES


@<TRIPOS>ATOM
  1 S       -0.4070     0.0750     0.8680 S.3   1 <1>  -0.0800 
  2 C        0.9220     0.9990     0.2760 C.2   1 <1>   0.4340 
  3 C       -1.4200     1.1170    -0.0830 C.2   1 <1>   0.4420 
  4 S        2.5450     0.5200     0.8470 S.3   1 <1>  -0.2860 
  5 N        0.6020     1.9390    -0.5160 N.2   1 <1>  -0.3380 
  6 N       -0.7500     2.0070    -0.7240 N.2   1 <1>  -0.3380 
  7 N       -2.7730     0.8570    -0.0310 N.am  1 <1>  -0.4940 
  8 C        3.6740     1.7420     0.0450 C.3   1 <1>   0.1500 
  9 C       -3.8210     1.5150    -0.6250 C.2   1 <1>   0.7150 
 10 C        5.0540     1.0780    -0.0560 C.3   1 <1>  -0.1600 
 11 C        3.6580     3.0090     0.9050 C.3   1 <1>  -0.2400 
 12 O       -3.6140     2.5210    -1.2710 O.2   1 <1>  -0.5700 
 13 C       -5.1550     0.9810    -0.4510 C.2   1 <1>   0.0550 
 14 C        6.0780     1.9300    -0.8200 C.3   1 <1>  -0.2400 
 15 O       -6.2190     1.6330    -0.9140 O.3   1 <1>  -0.2800 
 16 C       -5.5930    -0.1650     0.1510 C.2   1 <1>  -0.1500 
 17 C       -7.3020     0.9490    -0.6300 C.2   1 <1>  -0.0100 
 18 C       -6.9830    -0.1820     0.0330 C.2   1 <1>  -0.1500 
 19 H       -3.0400     0.0660     0.5430 H     1 <1>   0.3700 
 20 H        3.2770     1.9380    -0.9370 H     1 <1>   0.0800 
 21 H        4.9450     0.1380    -0.5690 H     1 <1>   0.0800 
 22 H        5.4280     0.8720     0.9320 H     1 <1>   0.0800 
 23 H        4.0420     2.8010     1.8880 H     1 <1>   0.0800 
 24 H        2.6530     3.3820     0.9950 H     1 <1>   0.0800 
 25 H        4.2570     3.7770     0.4530 H     1 <1>   0.0800 
 26 H        5.7070     2.1720    -1.8010 H     1 <1>   0.0800 
 27 H        6.9980     1.3840    -0.9290 H     1 <1>   0.0800 
 28 H        6.2890     2.8420    -0.2920 H     1 <1>   0.0800 
 29 H       -5.0210    -0.9370     0.6320 H     1 <1>   0.1500 
 30 H       -8.2590     1.3360    -0.9360 H     1 <1>   0.1500 
 31 H       -7.6420    -0.9490     0.4020 H     1 <1>   0.1500 
@<TRIPOS>BOND
  1   1   2  1   
  2   1   3  1   
  3   2   4  1   
  4   2   5  2   
  5   3   6  2   
  6   3   7  1   
  7   4   8  1   
  8   5   6  1   
  9   7   9  am  
 10   7  19  1   
 11   8  10  1   
 12   8  11  1   
 13   8  20  1   
 14   9  12  2   
 15   9  13  1   
 16  10  14  1   
 17  10  21  1   
 18  10  22  1   
 19  11  23  1   
 20  11  24  1   
 21  11  25  1   
 22  13  15  1   
 23  13  16  2   
 24  14  26  1   
 25  14  27  1   
 26  14  28  1   
 27  15  17  1   
 28  16  18  1   
 29  16  29  1   
 30  17  18  2   
 31  17  30  1   
 32  18  31  1   
@<TRIPOS>SUBSTRUCTURE
  1 ****   3 GROUP 4 **** **** 0

# MOE 2024.06 (io_trps.svl 2023.06)
