@<TRIPOS>MOLECULE
NONAME
48 51 1 0 0 
SMALL
USER_CHARGES


@<TRIPOS>ATOM
  1 O       -0.0530    -1.8650    -1.9630 O.2   1 <1>  -0.5700 
  2 C       -0.6150    -2.3490    -1.0110 C.2   1 <1>   0.5690 
  3 N       -0.4530    -3.6190    -0.5520 N.am  1 <1>  -0.6600 
  4 C       -1.5960    -1.5760    -0.1690 C.3   1 <1>  -0.0190 
  5 C       -1.4090    -3.9360     0.5400 C.3   1 <1>   0.1400 
  6 C        0.3620    -4.6700    -1.2070 C.3   1 <1>   0.1400 
  7 C       -2.3350    -2.7160     0.5260 C.3   1 <1>   0.4180 
  8 C       -2.7600    -0.8510    -0.8920 C.3   1 <1>  -0.0190 
  9 C        1.8250    -4.6250    -0.7330 C.3   1 <1>  -0.0800 
 10 O       -3.3940    -2.9030    -0.3560 O.3   1 <1>  -0.5600 
 11 C       -3.1020    -2.1590     1.6990 C.2   1 <1>  -0.2880 
 12 C       -2.9020     0.6270    -0.5970 C.2   1 <1>   0.6590 
 13 C       -3.9570    -1.6410    -0.3550 C.3   1 <1>   0.3380 
 14 C        2.6560    -5.6570    -1.5050 C.3   1 <1>  -0.2400 
 15 C        1.9680    -4.8780     0.7760 C.3   1 <1>  -0.2400 
 16 C       -4.0990    -1.4720     1.1510 C.2   1 <1>  -0.2880 
 17 O       -3.9580     1.1940    -0.7140 O.2   1 <1>  -0.5700 
 18 O       -1.8040     1.2690    -0.2340 O.3   1 <1>  -0.4300 
 19 C       -1.8140     2.6560     0.0170 C.3   1 <1>   0.2630 
 20 C       -0.4520     3.0700     0.5550 C.ar  1 <1>  -0.1440 
 21 C       -0.3610     3.8830     1.6760 C.ar  1 <1>  -0.1500 
 22 C        0.7120     2.6480    -0.0710 C.ar  1 <1>  -0.1500 
 23 C        0.8760     4.2680     2.1640 C.ar  1 <1>  -0.1500 
 24 C        1.9490     3.0310     0.4160 C.ar  1 <1>  -0.1500 
 25 C        2.0320     3.8420     1.5340 C.ar  1 <1>  -0.1500 
 26 H       -1.0650    -0.9780     0.5470 H     1 <1>   0.0800 
 27 H       -0.8830    -4.0050     1.4740 H     1 <1>   0.0800 
 28 H       -1.9580    -4.8400     0.3430 H     1 <1>   0.0800 
 29 H        0.3320    -4.5090    -2.2720 H     1 <1>   0.0800 
 30 H       -0.0650    -5.6370    -1.0050 H     1 <1>   0.0800 
 31 H       -2.6910    -0.9850    -1.9550 H     1 <1>   0.0800 
 32 H        2.2170    -3.6470    -0.9600 H     1 <1>   0.0800 
 33 H       -2.7950    -2.3250     2.7160 H     1 <1>   0.1500 
 34 H       -4.8660    -1.6210    -0.9320 H     1 <1>   0.0800 
 35 H        2.3010    -6.6540    -1.3110 H     1 <1>   0.0800 
 36 H        3.6900    -5.5970    -1.2150 H     1 <1>   0.0800 
 37 H        2.5940    -5.4690    -2.5630 H     1 <1>   0.0800 
 38 H        1.5260    -5.8200     1.0470 H     1 <1>   0.0800 
 39 H        1.4900    -4.0940     1.3340 H     1 <1>   0.0800 
 40 H        3.0070    -4.8920     1.0540 H     1 <1>   0.0800 
 41 H       -4.8940    -0.8770     1.5690 H     1 <1>   0.1500 
 42 H       -2.5900     2.8660     0.7330 H     1 <1>   0.0800 
 43 H       -2.0280     3.1660    -0.9060 H     1 <1>   0.0800 
 44 H       -1.2520     4.2210     2.1760 H     1 <1>   0.1500 
 45 H        0.6590     2.0140    -0.9410 H     1 <1>   0.1500 
 46 H        0.9390     4.8980     3.0330 H     1 <1>   0.1500 
 47 H        2.8460     2.6960    -0.0750 H     1 <1>   0.1500 
 48 H        2.9940     4.1400     1.9130 H     1 <1>   0.1500 
@<TRIPOS>BOND
  1   1   2  2   
  2   2   3  am  
  3   2   4  1   
  4   3   5  1   
  5   3   6  1   
  6   4   7  1   
  7   4   8  1   
  8   4  26  1   
  9   5   7  1   
 10   5  27  1   
 11   5  28  1   
 12   6   9  1   
 13   6  29  1   
 14   6  30  1   
 15   7  10  1   
 16   7  11  1   
 17   8  12  1   
 18   8  13  1   
 19   8  31  1   
 20   9  14  1   
 21   9  15  1   
 22   9  32  1   
 23  10  13  1   
 24  11  16  2   
 25  11  33  1   
 26  12  17  2   
 27  12  18  1   
 28  13  16  1   
 29  13  34  1   
 30  14  35  1   
 31  14  36  1   
 32  14  37  1   
 33  15  38  1   
 34  15  39  1   
 35  15  40  1   
 36  16  41  1   
 37  18  19  1   
 38  19  20  1   
 39  19  42  1   
 40  19  43  1   
 41  20  21  ar  
 42  20  22  ar  
 43  21  23  ar  
 44  21  44  1   
 45  22  24  ar  
 46  22  45  1   
 47  23  25  ar  
 48  23  46  1   
 49  24  25  ar  
 50  24  47  1   
 51  25  48  1   
@<TRIPOS>SUBSTRUCTURE
  1 ****   4 GROUP 4 **** **** 0

# MOE 2024.06 (io_trps.svl 2023.06)
