@<TRIPOS>MOLECULE
NONAME
37 38 1 0 0 
SMALL
USER_CHARGES


@<TRIPOS>ATOM
  1 BR       0.9820    -0.1120     0.4920 Br    1 <1>  -0.0570 
  2 C       -0.4000    -1.2530    -0.2210 C.2   1 <1>   0.0570 
  3 C       -0.6390    -1.4200    -1.5310 C.2   1 <1>  -0.1100 
  4 C       -1.2370    -1.9790     0.6780 C.2   1 <1>  -0.1500 
  5 S       -1.9820    -2.5390    -1.7210 S.3   1 <1>  -0.0800 
  6 C       -2.1520    -2.7270     0.0280 C.2   1 <1>  -0.1400 
  7 C       -3.2480    -3.6520     0.5120 C.3   1 <1>   0.5230 
  8 N       -4.5550    -3.1320     0.0270 N.4   1 <1>  -0.9590 
  9 C       -4.8750    -1.8000     0.6200 C.3   1 <1>   0.3430 
 10 C       -5.6490    -4.1220     0.2220 C.3   1 <1>   0.3430 
 11 C       -6.1350    -1.2410    -0.0370 C.3   1 <1>  -0.1600 
 12 C       -6.9240    -3.6080    -0.4430 C.3   1 <1>  -0.1600 
 13 C       -7.3260    -2.2120     0.0720 C.3   1 <1>  -0.0190 
 14 C       -8.5370    -1.6760    -0.6860 C.2   1 <1>   0.6590 
 15 O       -8.5070    -1.5220    -1.8790 O.2   1 <1>  -0.5700 
 16 O       -9.6020    -1.3940     0.0470 O.3   1 <1>  -0.4300 
 17 C      -10.7820    -0.8910    -0.5360 C.3   1 <1>   0.1200 
 18 C      -11.8050    -0.6750     0.5750 C.3   1 <1>  -0.2400 
 19 H       -0.1770    -1.0130    -2.4130 H     1 <1>   0.1500 
 20 H       -1.0940    -1.8930     1.7420 H     1 <1>   0.1500 
 21 H       -3.2400    -3.7030     1.5890 H     1 <1>   0.0800 
 22 H       -3.0720    -4.6400     0.1180 H     1 <1>   0.0800 
 23 H       -4.4350    -2.9830    -0.9860 H     1 <1>   0.4500 
 24 H       -4.0570    -1.1150     0.4590 H     1 <1>   0.0800 
 25 H       -5.0320    -1.8990     1.6820 H     1 <1>   0.0800 
 26 H       -5.8260    -4.2710     1.2750 H     1 <1>   0.0800 
 27 H       -5.3760    -5.0690    -0.2160 H     1 <1>   0.0800 
 28 H       -5.9270    -1.0270    -1.0720 H     1 <1>   0.0800 
 29 H       -6.3920    -0.3080     0.4350 H     1 <1>   0.0800 
 30 H       -7.7250    -4.3010    -0.2510 H     1 <1>   0.0800 
 31 H       -6.7790    -3.5790    -1.5100 H     1 <1>   0.0800 
 32 H       -7.6020    -2.2980     1.1090 H     1 <1>   0.0800 
 33 H      -11.1410    -1.6060    -1.2570 H     1 <1>   0.0800 
 34 H      -10.5510     0.0370    -1.0330 H     1 <1>   0.0800 
 35 H      -12.0210    -1.6060     1.0680 H     1 <1>   0.0800 
 36 H      -12.7170    -0.2910     0.1570 H     1 <1>   0.0800 
 37 H      -11.4320     0.0340     1.2920 H     1 <1>   0.0800 
@<TRIPOS>BOND
  1   1   2  1   
  2   2   3  2   
  3   2   4  1   
  4   3   5  1   
  5   3  19  1   
  6   4   6  2   
  7   4  20  1   
  8   5   6  1   
  9   6   7  1   
 10   7   8  1   
 11   7  21  1   
 12   7  22  1   
 13   8   9  1   
 14   8  10  1   
 15   8  23  1   
 16   9  11  1   
 17   9  24  1   
 18   9  25  1   
 19  10  12  1   
 20  10  26  1   
 21  10  27  1   
 22  11  13  1   
 23  11  28  1   
 24  11  29  1   
 25  12  13  1   
 26  12  30  1   
 27  12  31  1   
 28  13  14  1   
 29  13  32  1   
 30  14  15  2   
 31  14  16  1   
 32  16  17  1   
 33  17  18  1   
 34  17  33  1   
 35  17  34  1   
 36  18  35  1   
 37  18  36  1   
 38  18  37  1   
@<TRIPOS>SUBSTRUCTURE
  1 ****   9 GROUP 4 **** **** 0

# MOE 2024.06 (io_trps.svl 2023.06)
