@<TRIPOS>MOLECULE
NONAME
46 47 1 0 0 
SMALL
USER_CHARGES


@<TRIPOS>ATOM
  1 O        0.2810    -1.0630     1.7260 O.2   1 <1>  -0.5700 
  2 C        0.1650    -2.1820     1.2610 C.2   1 <1>   0.5440 
  3 N        1.2890    -2.9720     1.1040 N.am  1 <1>  -0.6600 
  4 C       -1.1540    -2.6500     0.8890 C.ar  1 <1>   0.0860 
  5 C        2.6010    -2.5250     1.6500 C.3   1 <1>   0.1400 
  6 C        1.2510    -4.2670     0.3620 C.3   1 <1>   0.1400 
  7 C       -1.8740    -2.0260    -0.1260 C.ar  1 <1>  -0.1500 
  8 C       -1.7480    -3.7380     1.5270 C.ar  1 <1>  -0.1500 
  9 C        3.3430    -1.6720     0.6140 C.3   1 <1>  -0.1600 
 10 C        2.5080    -4.5570    -0.4710 C.3   1 <1>  -0.1600 
 11 C       -3.1290    -2.4680    -0.4970 C.ar  1 <1>   0.0830 
 12 C       -3.0010    -4.1990     1.1600 C.ar  1 <1>  -0.1500 
 13 C        3.9830    -2.4690    -0.5330 C.3   1 <1>  -0.1600 
 14 C        3.0060    -3.3660    -1.3080 C.3   1 <1>  -0.1600 
 15 O       -3.7520    -1.8040    -1.5020 O.3   1 <1>  -0.3630 
 16 C       -3.7070    -3.5740     0.1360 C.ar  1 <1>   0.0830 
 17 C       -4.9060    -1.0580    -1.1800 C.3   1 <1>   0.1200 
 18 O       -4.9310    -4.0000    -0.2790 O.3   1 <1>  -0.3630 
 19 C       -4.4850     0.2970    -0.6120 C.3   1 <1>  -0.2400 
 20 C       -5.5550    -5.1390     0.2650 C.3   1 <1>   0.1200 
 21 C       -6.8890    -5.3290    -0.4490 C.3   1 <1>  -0.2400 
 22 H        3.1940    -3.3720     1.9440 H     1 <1>   0.0800 
 23 H        2.4290    -1.9300     2.5310 H     1 <1>   0.0800 
 24 H        0.4110    -4.2610    -0.3110 H     1 <1>   0.0800 
 25 H        1.1010    -5.0670     1.0660 H     1 <1>   0.0800 
 26 H       -1.4440    -1.1780    -0.6290 H     1 <1>   0.1500 
 27 H       -1.2120    -4.2230     2.3240 H     1 <1>   0.1500 
 28 H        4.1240    -1.1370     1.1230 H     1 <1>   0.0800 
 29 H        2.6640    -0.9370     0.2180 H     1 <1>   0.0800 
 30 H        2.2630    -5.3620    -1.1410 H     1 <1>   0.0800 
 31 H        3.2930    -4.9210     0.1670 H     1 <1>   0.0800 
 32 H       -3.4080    -5.0430     1.6840 H     1 <1>   0.1500 
 33 H        4.7860    -3.0700    -0.1440 H     1 <1>   0.0800 
 34 H        4.4190    -1.7670    -1.2230 H     1 <1>   0.0800 
 35 H        2.1740    -2.7870    -1.6700 H     1 <1>   0.0800 
 36 H        3.5280    -3.7530    -2.1660 H     1 <1>   0.0800 
 37 H       -5.5050    -1.6060    -0.4740 H     1 <1>   0.0800 
 38 H       -5.4680    -0.9280    -2.0880 H     1 <1>   0.0800 
 39 H       -3.9460     0.1660     0.3090 H     1 <1>   0.0800 
 40 H       -5.3570     0.8930    -0.4130 H     1 <1>   0.0800 
 41 H       -3.8670     0.8190    -1.3210 H     1 <1>   0.0800 
 42 H       -5.7070    -4.9760     1.3180 H     1 <1>   0.0800 
 43 H       -4.9130    -5.9890     0.1050 H     1 <1>   0.0800 
 44 H       -7.5160    -4.4690    -0.2960 H     1 <1>   0.0800 
 45 H       -7.3930    -6.1950    -0.0590 H     1 <1>   0.0800 
 46 H       -6.7270    -5.4710    -1.5020 H     1 <1>   0.0800 
@<TRIPOS>BOND
  1   1   2  2   
  2   2   3  am  
  3   2   4  1   
  4   3   5  1   
  5   3   6  1   
  6   4   7  ar  
  7   4   8  ar  
  8   5   9  1   
  9   5  22  1   
 10   5  23  1   
 11   6  10  1   
 12   6  24  1   
 13   6  25  1   
 14   7  11  ar  
 15   7  26  1   
 16   8  12  ar  
 17   8  27  1   
 18   9  13  1   
 19   9  28  1   
 20   9  29  1   
 21  10  14  1   
 22  10  30  1   
 23  10  31  1   
 24  11  15  1   
 25  11  16  ar  
 26  12  16  ar  
 27  12  32  1   
 28  13  14  1   
 29  13  33  1   
 30  13  34  1   
 31  14  35  1   
 32  14  36  1   
 33  15  17  1   
 34  16  18  1   
 35  17  19  1   
 36  17  37  1   
 37  17  38  1   
 38  18  20  1   
 39  19  39  1   
 40  19  40  1   
 41  19  41  1   
 42  20  21  1   
 43  20  42  1   
 44  20  43  1   
 45  21  44  1   
 46  21  45  1   
 47  21  46  1   
@<TRIPOS>SUBSTRUCTURE
  1 ****   4 GROUP 4 **** **** 0

# MOE 2024.06 (io_trps.svl 2023.06)
