@<TRIPOS>MOLECULE
NONAME
38 41 1 0 0 
SMALL
USER_CHARGES


@<TRIPOS>ATOM
  1 S        0.2520     0.3950     0.6510 S.3   1 <1>  -0.3710 
  2 C       -1.4650     0.7810     0.4610 C.2   1 <1>   0.6510 
  3 C        0.8380     1.8740    -0.2960 C.3   1 <1>   0.2910 
  4 N       -2.3790     0.0750     0.9580 N.2   1 <1>  -0.6960 
  5 N       -1.5950     1.9080    -0.3010 N.am  1 <1>  -0.4200 
  6 C       -0.4670     2.5200    -0.7510 C.2   1 <1>   0.5690 
  7 C        1.7210     1.3950    -1.4630 C.3   1 <1>   0.1200 
  8 C        1.6480     2.7770     0.6470 C.3   1 <1>   0.1200 
  9 C       -3.7520     0.5260     0.7850 C.3   1 <1>   0.3560 
 10 C       -2.9450     2.3570    -0.6030 C.3   1 <1>   0.4100 
 11 O       -0.4820     3.4920    -1.4670 O.2   1 <1>  -0.5700 
 12 O        3.0860     1.5080    -1.1600 O.3   1 <1>  -0.5600 
 13 O        2.9080     2.2400     0.9720 O.3   1 <1>  -0.5600 
 14 N       -3.7830     1.9730     0.5300 N.3   1 <1>  -0.8100 
 15 C        3.4230     1.2150     0.1650 C.3   1 <1>   0.6240 
 16 C       -5.1600     2.4430     0.3580 C.3   1 <1>   0.0300 
 17 C        4.9380     1.1750     0.3160 C.ar  1 <1>  -0.1440 
 18 C        5.5790     0.1620     1.0030 C.ar  1 <1>  -0.1500 
 19 C        5.7530     2.1520    -0.2230 C.ar  1 <1>  -0.1500 
 20 C        6.9600     0.1740     1.1100 C.ar  1 <1>   0.1600 
 21 C        7.1250     2.0700    -0.0580 C.ar  1 <1>   0.1600 
 22 N        7.7500     1.1030     0.5940 N.ar  1 <1>  -0.6200 
 23 H        1.5510     2.0060    -2.3330 H     1 <1>   0.0800 
 24 H        1.5100     0.3710    -1.7150 H     1 <1>   0.0800 
 25 H        1.1130     2.9580     1.5630 H     1 <1>   0.0800 
 26 H        1.8280     3.7210     0.1620 H     1 <1>   0.0800 
 27 H       -4.2940     0.3220     1.6940 H     1 <1>   0.0800 
 28 H       -4.2130    -0.0210    -0.0220 H     1 <1>   0.0800 
 29 H       -3.2920     1.8880    -1.5090 H     1 <1>   0.0800 
 30 H       -2.9540     3.4280    -0.7250 H     1 <1>   0.0800 
 31 H        2.9840     0.2740     0.4510 H     1 <1>   0.0800 
 32 H       -5.7400     2.2010     1.2330 H     1 <1>   0.0800 
 33 H       -5.6150     1.9840    -0.5040 H     1 <1>   0.0800 
 34 H       -5.1700     3.5130     0.2350 H     1 <1>   0.0800 
 35 H        5.0200    -0.6340     1.4580 H     1 <1>   0.1500 
 36 H        5.3230     2.9730    -0.7670 H     1 <1>   0.1500 
 37 H        7.4420    -0.6230     1.6490 H     1 <1>   0.1500 
 38 H        7.7410     2.8420    -0.4870 H     1 <1>   0.1500 
@<TRIPOS>BOND
  1   1   2  1   
  2   1   3  1   
  3   2   4  2   
  4   2   5  1   
  5   3   6  1   
  6   3   7  1   
  7   3   8  1   
  8   4   9  1   
  9   5   6  am  
 10   5  10  1   
 11   6  11  2   
 12   7  12  1   
 13   7  23  1   
 14   7  24  1   
 15   8  13  1   
 16   8  25  1   
 17   8  26  1   
 18   9  14  1   
 19   9  27  1   
 20   9  28  1   
 21  10  14  1   
 22  10  29  1   
 23  10  30  1   
 24  12  15  1   
 25  13  15  1   
 26  14  16  1   
 27  15  17  1   
 28  15  31  1   
 29  16  32  1   
 30  16  33  1   
 31  16  34  1   
 32  17  18  ar  
 33  17  19  ar  
 34  18  20  ar  
 35  18  35  1   
 36  19  21  ar  
 37  19  36  1   
 38  20  22  ar  
 39  20  37  1   
 40  21  22  ar  
 41  21  38  1   
@<TRIPOS>SUBSTRUCTURE
  1 ****   3 GROUP 4 **** **** 0

# MOE 2024.06 (io_trps.svl 2023.06)
