@<TRIPOS>MOLECULE
NONAME
35 35 1 0 0 
SMALL
USER_CHARGES


@<TRIPOS>ATOM
  1 O        0.2970     1.5370    -2.2320 O.2   1 <1>  -0.5700 
  2 C        0.0740     1.8260    -1.0830 C.2   1 <1>   0.4230 
  3 C       -1.1890     1.5320    -0.4320 C.ar  1 <1>   0.0860 
  4 C        1.2000     2.5240    -0.3510 C.3   1 <1>  -0.0380 
  5 C       -1.4890     1.8900     0.8880 C.ar  1 <1>  -0.1500 
  6 C       -2.1890     0.8520    -1.1350 C.ar  1 <1>  -0.1500 
  7 C        1.8370     1.6170     0.6850 C.2   1 <1>   0.4480 
  8 C       -2.7080     1.5850     1.4630 C.ar  1 <1>  -0.1500 
  9 C       -3.4110     0.5440    -0.5690 C.ar  1 <1>  -0.1500 
 10 O        1.6880     1.8950     1.8390 O.2   1 <1>  -0.5700 
 11 C        2.6570     0.3710     0.2510 C.3   1 <1>   0.0610 
 12 C       -3.6810     0.9120     0.7450 C.ar  1 <1>   0.0830 
 13 C        3.4740     0.6130    -1.0330 C.3   1 <1>  -0.2400 
 14 C        3.6600    -0.0160     1.3580 C.3   1 <1>  -0.2400 
 15 C        1.7260    -0.8340     0.0270 C.3   1 <1>  -0.2400 
 16 O       -4.8460     0.6530     1.3770 O.3   1 <1>  -0.3630 
 17 C       -5.9050    -0.0270     0.7410 C.3   1 <1>   0.0400 
 18 H        0.8150     3.4030     0.1300 H     1 <1>   0.0800 
 19 H        1.9430     2.8560    -1.0510 H     1 <1>   0.0800 
 20 H       -0.7720     2.4130     1.4940 H     1 <1>   0.1500 
 21 H       -2.0000     0.5590    -2.1550 H     1 <1>   0.1500 
 22 H       -2.9160     1.8670     2.4800 H     1 <1>   0.1500 
 23 H       -4.1390     0.0210    -1.1590 H     1 <1>   0.1500 
 24 H        4.0850    -0.2430    -1.2590 H     1 <1>   0.0800 
 25 H        4.1200     1.4650    -0.9140 H     1 <1>   0.0800 
 26 H        2.8310     0.7830    -1.8780 H     1 <1>   0.0800 
 27 H        4.3260     0.8040     1.5620 H     1 <1>   0.0800 
 28 H        4.2460    -0.8700     1.0700 H     1 <1>   0.0800 
 29 H        3.1390    -0.2570     2.2700 H     1 <1>   0.0800 
 30 H        1.0760    -0.6750    -0.8140 H     1 <1>   0.0800 
 31 H        1.1190    -1.0040     0.8990 H     1 <1>   0.0800 
 32 H        2.2990    -1.7250    -0.1660 H     1 <1>   0.0800 
 33 H       -6.7160    -0.1130     1.4410 H     1 <1>   0.0800 
 34 H       -5.5670    -1.0070     0.4510 H     1 <1>   0.0800 
 35 H       -6.2200     0.5410    -0.1160 H     1 <1>   0.0800 
@<TRIPOS>BOND
  1   1   2  2   
  2   2   3  1   
  3   2   4  1   
  4   3   5  ar  
  5   3   6  ar  
  6   4   7  1   
  7   4  18  1   
  8   4  19  1   
  9   5   8  ar  
 10   5  20  1   
 11   6   9  ar  
 12   6  21  1   
 13   7  10  2   
 14   7  11  1   
 15   8  12  ar  
 16   8  22  1   
 17   9  12  ar  
 18   9  23  1   
 19  11  13  1   
 20  11  14  1   
 21  11  15  1   
 22  12  16  1   
 23  13  24  1   
 24  13  25  1   
 25  13  26  1   
 26  14  27  1   
 27  14  28  1   
 28  14  29  1   
 29  15  30  1   
 30  15  31  1   
 31  15  32  1   
 32  16  17  1   
 33  17  33  1   
 34  17  34  1   
 35  17  35  1   
@<TRIPOS>SUBSTRUCTURE
  1 ****   3 GROUP 4 **** **** 0

# MOE 2024.06 (io_trps.svl 2023.06)
