@<TRIPOS>MOLECULE
NONAME
42 44 1 0 0 
SMALL
USER_CHARGES


@<TRIPOS>ATOM
  1 O      -14.7500     2.5000    -1.0290 O.2   1 <1>  -0.5700 
  2 C      -13.6180     2.6190    -0.5810 C.2   1 <1>   0.6900 
  3 N      -12.8990     3.7850    -0.5550 N.am  1 <1>  -0.4770 
  4 N      -12.8780     1.6100    -0.0290 N.am  1 <1>  -0.4770 
  5 C      -11.6730     3.5000     0.0330 C.ar  1 <1>   0.1170 
  6 C      -13.3780     5.1030    -1.0270 C.3   1 <1>   0.0600 
  7 C      -11.6620     2.1540     0.3600 C.ar  1 <1>   0.1170 
  8 C      -13.3090     0.2050     0.1370 C.3   1 <1>   0.0600 
  9 C      -10.5760     4.3050     0.3030 C.ar  1 <1>  -0.1500 
 10 C      -10.5540     1.5850     0.9680 C.ar  1 <1>  -0.1500 
 11 C       -9.4600     3.7410     0.9060 C.ar  1 <1>  -0.1440 
 12 C       -9.4560     2.3840     1.2390 C.ar  1 <1>  -0.1500 
 13 C       -8.2370     4.5830     1.1920 C.3   1 <1>   0.4860 
 14 N       -7.2910     4.3300     0.0920 N.4   1 <1>  -0.9060 
 15 C       -5.9240     4.8920     0.2660 C.3   1 <1>   0.3430 
 16 C       -4.9190     3.9690    -0.4490 C.3   1 <1>   0.2000 
 17 O       -5.3810     2.6530    -0.3690 O.3   1 <1>  -0.5600 
 18 C       -3.5350     3.9200     0.1820 C.3   1 <1>  -0.1600 
 19 C       -4.3210     1.7630    -0.5560 C.3   1 <1>   0.1200 
 20 C       -3.0520     2.5220    -0.1710 C.3   1 <1>  -0.1600 
 21 H      -14.3840     5.0140    -1.4010 H     1 <1>   0.0800 
 22 H      -12.7420     5.4570    -1.8180 H     1 <1>   0.0800 
 23 H      -13.3690     5.8040    -0.2120 H     1 <1>   0.0800 
 24 H      -14.3160     0.0860    -0.2260 H     1 <1>   0.0800 
 25 H      -13.2780    -0.0620     1.1780 H     1 <1>   0.0800 
 26 H      -12.6570    -0.4410    -0.4220 H     1 <1>   0.0800 
 27 H      -10.6200     5.3460     0.0370 H     1 <1>   0.1500 
 28 H      -10.5610     0.5390     1.2210 H     1 <1>   0.1500 
 29 H       -8.5990     1.9360     1.7150 H     1 <1>   0.1500 
 30 H       -7.8060     4.2910     2.1360 H     1 <1>   0.0800 
 31 H       -8.5010     5.6270     1.2330 H     1 <1>   0.0800 
 32 H       -7.7070     4.5830    -0.8090 H     1 <1>   0.4500 
 33 H       -7.1320     3.3060     0.0260 H     1 <1>   0.4500 
 34 H       -5.6710     4.9150     1.3130 H     1 <1>   0.0800 
 35 H       -5.8580     5.8970    -0.1190 H     1 <1>   0.0800 
 36 H       -4.8420     4.2230    -1.4930 H     1 <1>   0.0800 
 37 H       -3.6040     4.0210     1.2520 H     1 <1>   0.0800 
 38 H       -2.8850     4.6860    -0.2050 H     1 <1>   0.0800 
 39 H       -4.3010     1.4690    -1.5920 H     1 <1>   0.0800 
 40 H       -4.4810     0.8990     0.0670 H     1 <1>   0.0800 
 41 H       -2.5530     2.0500     0.6580 H     1 <1>   0.0800 
 42 H       -2.3780     2.5440    -1.0110 H     1 <1>   0.0800 
@<TRIPOS>BOND
  1   1   2  2   
  2   2   3  am  
  3   2   4  am  
  4   3   5  1   
  5   3   6  1   
  6   4   7  1   
  7   4   8  1   
  8   5   7  ar  
  9   5   9  ar  
 10   6  21  1   
 11   6  22  1   
 12   6  23  1   
 13   7  10  ar  
 14   8  24  1   
 15   8  25  1   
 16   8  26  1   
 17   9  11  ar  
 18   9  27  1   
 19  10  12  ar  
 20  10  28  1   
 21  11  12  ar  
 22  11  13  1   
 23  12  29  1   
 24  13  14  1   
 25  13  30  1   
 26  13  31  1   
 27  14  15  1   
 28  14  32  1   
 29  14  33  1   
 30  15  16  1   
 31  15  34  1   
 32  15  35  1   
 33  16  17  1   
 34  16  18  1   
 35  16  36  1   
 36  17  19  1   
 37  18  20  1   
 38  18  37  1   
 39  18  38  1   
 40  19  20  1   
 41  19  39  1   
 42  19  40  1   
 43  20  41  1   
 44  20  42  1   
@<TRIPOS>SUBSTRUCTURE
  1 ****  11 GROUP 4 **** **** 0

# MOE 2024.06 (io_trps.svl 2023.06)
