@<TRIPOS>MOLECULE
NONAME
47 48 1 0 0 
SMALL
USER_CHARGES


@<TRIPOS>ATOM
  1 S       -0.6720    -0.3860    -1.0110 S.o2  1 <1>   1.4470 
  2 O       -1.4310     0.7410    -0.5240 O.2   1 <1>  -0.6500 
  3 O       -0.8460    -0.8630    -2.3650 O.2   1 <1>  -0.6500 
  4 N       -1.0720    -1.6360     0.0310 N.am  1 <1>  -0.9140 
  5 C        1.0920    -0.1320    -0.6770 C.ar  1 <1>  -0.0090 
  6 C       -2.1230    -2.5070    -0.4560 C.3   1 <1>   0.3390 
  7 C        2.0430    -1.0350    -1.1410 C.ar  1 <1>  -0.1500 
  8 C        1.5400     0.9570     0.0640 C.ar  1 <1>  -0.1500 
  9 C       -3.4710    -1.8520    -0.2140 C.ar  1 <1>  -0.1440 
 10 C        3.3900    -0.8560    -0.8790 C.ar  1 <1>  -0.1500 
 11 C        2.8860     1.1450     0.3320 C.ar  1 <1>  -0.1500 
 12 C       -4.0980    -1.1380    -1.2240 C.ar  1 <1>  -0.1500 
 13 C       -4.0900    -1.9650     1.0230 C.ar  1 <1>  -0.1500 
 14 C        3.8220     0.2320    -0.1420 C.ar  1 <1>   0.0830 
 15 C       -5.3280    -0.5460    -0.9980 C.ar  1 <1>  -0.1500 
 16 C       -5.3210    -1.3740     1.2500 C.ar  1 <1>  -0.1500 
 17 O        5.1550     0.3340     0.0730 O.3   1 <1>  -0.3620 
 18 C       -5.9490    -0.6590     0.2350 C.ar  1 <1>   0.0830 
 19 C        5.7020     1.3920     0.8300 C.3   1 <1>   0.1200 
 20 O       -7.1530    -0.0510     0.3720 O.3   1 <1>  -0.3630 
 21 C        7.2250     1.2150     0.9290 C.3   1 <1>  -0.0800 
 22 C       -7.8540    -0.0780     1.5950 C.3   1 <1>   0.0400 
 23 C        7.6000    -0.0980     1.6320 C.3   1 <1>  -0.2400 
 24 C        7.8480     2.3990     1.6790 C.3   1 <1>  -0.2400 
 25 H       -1.4890    -1.1390     0.8160 H     1 <1>   0.4200 
 26 H       -2.0850    -3.4300     0.0970 H     1 <1>   0.0800 
 27 H       -1.9880    -2.7560    -1.4960 H     1 <1>   0.0800 
 28 H        1.7230    -1.8870    -1.7170 H     1 <1>   0.1500 
 29 H        0.8240     1.6710     0.4360 H     1 <1>   0.1500 
 30 H        4.1150    -1.5610    -1.2450 H     1 <1>   0.1500 
 31 H        3.1830     2.0020     0.9060 H     1 <1>   0.1500 
 32 H       -3.6310    -1.0320    -2.1890 H     1 <1>   0.1500 
 33 H       -3.6170    -2.5170     1.8180 H     1 <1>   0.1500 
 34 H       -5.8130     0.0110    -1.7790 H     1 <1>   0.1500 
 35 H       -5.7730    -1.4800     2.2170 H     1 <1>   0.1500 
 36 H        5.2580     1.3730     1.8100 H     1 <1>   0.0800 
 37 H        5.4630     2.3170     0.3340 H     1 <1>   0.0800 
 38 H        7.6270     1.2020    -0.0710 H     1 <1>   0.0800 
 39 H       -8.7680     0.4740     1.4670 H     1 <1>   0.0800 
 40 H       -7.2490     0.3870     2.3530 H     1 <1>   0.0800 
 41 H       -8.0750    -1.0990     1.8480 H     1 <1>   0.0800 
 42 H        7.2030    -0.1210     2.6320 H     1 <1>   0.0800 
 43 H        8.6690    -0.2030     1.6830 H     1 <1>   0.0800 
 44 H        7.2070    -0.9390     1.0890 H     1 <1>   0.0800 
 45 H        7.4740     2.4510     2.6860 H     1 <1>   0.0800 
 46 H        7.6190     3.3230     1.1770 H     1 <1>   0.0800 
 47 H        8.9190     2.2940     1.7170 H     1 <1>   0.0800 
@<TRIPOS>BOND
  1   1   2  2   
  2   1   3  2   
  3   1   4  am  
  4   1   5  1   
  5   4   6  1   
  6   4  25  1   
  7   5   7  ar  
  8   5   8  ar  
  9   6   9  1   
 10   6  26  1   
 11   6  27  1   
 12   7  10  ar  
 13   7  28  1   
 14   8  11  ar  
 15   8  29  1   
 16   9  12  ar  
 17   9  13  ar  
 18  10  14  ar  
 19  10  30  1   
 20  11  14  ar  
 21  11  31  1   
 22  12  15  ar  
 23  12  32  1   
 24  13  16  ar  
 25  13  33  1   
 26  14  17  1   
 27  15  18  ar  
 28  15  34  1   
 29  16  18  ar  
 30  16  35  1   
 31  17  19  1   
 32  18  20  1   
 33  19  21  1   
 34  19  36  1   
 35  19  37  1   
 36  20  22  1   
 37  21  23  1   
 38  21  24  1   
 39  21  38  1   
 40  22  39  1   
 41  22  40  1   
 42  22  41  1   
 43  23  42  1   
 44  23  43  1   
 45  23  44  1   
 46  24  45  1   
 47  24  46  1   
 48  24  47  1   
@<TRIPOS>SUBSTRUCTURE
  1 ****   1 GROUP 4 **** **** 0

# MOE 2024.06 (io_trps.svl 2023.06)
