@<TRIPOS>MOLECULE
NONAME
42 43 1 0 0 
SMALL
USER_CHARGES


@<TRIPOS>ATOM
  1 O       -2.0010     0.3580     0.4740 O.2   1 <1>  -0.5700 
  2 C       -2.3300    -0.7760     0.1640 C.2   1 <1>   0.8060 
  3 O       -3.5470    -0.9570    -0.3710 O.3   1 <1>  -0.4300 
  4 C       -1.4820    -1.9170     0.3380 C.2   1 <1>  -0.0860 
  5 C       -4.4760     0.0920    -0.5480 C.3   1 <1>   0.1200 
  6 C       -0.2530    -1.9610     0.9450 C.2   1 <1>  -0.0680 
  7 C       -1.6920    -3.2490    -0.0670 C.2   1 <1>   0.1080 
  8 C       -5.2550     0.2870     0.7520 C.3   1 <1>  -0.2400 
  9 N        0.1820    -3.2430     0.8720 N.pl3 1 <1>   0.3140 
 10 N        0.4240    -0.8940     1.5320 N.pl3 1 <1>  -0.8840 
 11 N       -0.7170    -4.0340     0.2430 N.2   1 <1>  -0.7070 
 12 C       -2.9040    -3.7870    -0.7990 C.3   1 <1>  -0.0590 
 13 C        1.4280    -3.8010     1.4340 C.3   1 <1>   0.0960 
 14 C        2.5100    -4.0080     0.3570 C.3   1 <1>  -0.0800 
 15 C        3.7290    -4.7190     0.9740 C.3   1 <1>  -0.1600 
 16 C        2.9400    -2.6820    -0.3020 C.3   1 <1>  -0.1600 
 17 C        4.8390    -4.9380    -0.0630 C.3   1 <1>  -0.1600 
 18 C        4.0530    -2.9010    -1.3350 C.3   1 <1>  -0.1600 
 19 C        5.2590    -3.6150    -0.7140 C.3   1 <1>  -0.1600 
 20 H       -5.1430    -0.1960    -1.3410 H     1 <1>   0.0800 
 21 H       -3.9560     0.9900    -0.8380 H     1 <1>   0.0800 
 22 H       -5.7530    -0.6240     1.0290 H     1 <1>   0.0800 
 23 H       -5.9950     1.0550     0.6180 H     1 <1>   0.0800 
 24 H       -4.5920     0.5920     1.5430 H     1 <1>   0.0800 
 25 H        1.4470    -0.8500     1.4890 H     1 <1>   0.4000 
 26 H       -0.0160     0.0350     1.4240 H     1 <1>   0.4000 
 27 H       -3.0320    -3.2690    -1.7300 H     1 <1>   0.0800 
 28 H       -3.7830    -3.6610    -0.1940 H     1 <1>   0.0800 
 29 H       -2.7740    -4.8350    -1.0020 H     1 <1>   0.0800 
 30 H        1.1820    -4.7440     1.8860 H     1 <1>   0.0800 
 31 H        1.7840    -3.1410     2.2020 H     1 <1>   0.0800 
 32 H        2.0990    -4.6530    -0.4030 H     1 <1>   0.0800 
 33 H        3.4290    -5.6730     1.3720 H     1 <1>   0.0800 
 34 H        4.1190    -4.1290     1.7860 H     1 <1>   0.0800 
 35 H        3.2920    -2.0010     0.4530 H     1 <1>   0.0800 
 36 H        2.0980    -2.2270    -0.7950 H     1 <1>   0.0800 
 37 H        4.4880    -5.6140    -0.8240 H     1 <1>   0.0800 
 38 H        5.6920    -5.3930     0.4120 H     1 <1>   0.0800 
 39 H        4.3630    -1.9530    -1.7390 H     1 <1>   0.0800 
 40 H        3.6690    -3.4940    -2.1480 H     1 <1>   0.0800 
 41 H        5.9960    -3.8060    -1.4740 H     1 <1>   0.0800 
 42 H        5.7080    -2.9780     0.0290 H     1 <1>   0.0800 
@<TRIPOS>BOND
  1   1   2  2   
  2   2   3  1   
  3   2   4  1   
  4   3   5  1   
  5   4   6  2   
  6   4   7  1   
  7   5   8  1   
  8   5  20  1   
  9   5  21  1   
 10   6   9  1   
 11   6  10  1   
 12   7  11  2   
 13   7  12  1   
 14   8  22  1   
 15   8  23  1   
 16   8  24  1   
 17   9  11  1   
 18   9  13  1   
 19  10  25  1   
 20  10  26  1   
 21  12  27  1   
 22  12  28  1   
 23  12  29  1   
 24  13  14  1   
 25  13  30  1   
 26  13  31  1   
 27  14  15  1   
 28  14  16  1   
 29  14  32  1   
 30  15  17  1   
 31  15  33  1   
 32  15  34  1   
 33  16  18  1   
 34  16  35  1   
 35  16  36  1   
 36  17  19  1   
 37  17  37  1   
 38  17  38  1   
 39  18  19  1   
 40  18  39  1   
 41  18  40  1   
 42  19  41  1   
 43  19  42  1   
@<TRIPOS>SUBSTRUCTURE
  1 ****   6 GROUP 4 **** **** 0

# MOE 2024.06 (io_trps.svl 2023.06)
