@<TRIPOS>MOLECULE
NONAME
51 53 1 0 0 
SMALL
USER_CHARGES


@<TRIPOS>ATOM
  1 O       -0.4680    -1.8890    -2.2840 O.2   1 <1>  -0.5700 
  2 C       -0.8400    -1.9120    -1.1270 C.2   1 <1>   0.5440 
  3 N       -0.1300    -1.2280    -0.1680 N.am  1 <1>  -0.5470 
  4 C       -2.0300    -2.6690    -0.7690 C.ar  1 <1>   0.0860 
  5 C        0.9090    -0.2780    -0.1900 C.ar  1 <1>   0.1170 
  6 C       -2.8410    -2.3750     0.3430 C.ar  1 <1>   0.0830 
  7 C       -2.4250    -3.7440    -1.5710 C.ar  1 <1>  -0.1500 
  8 C        1.4080     0.2000     1.0250 C.ar  1 <1>  -0.1440 
  9 C        1.4440     0.2280    -1.3720 C.ar  1 <1>  -0.1500 
 10 O       -2.5070    -1.3400     1.1460 O.3   1 <1>  -0.3630 
 11 C       -3.9750    -3.1330     0.6220 C.ar  1 <1>  -0.1500 
 12 C       -3.5530    -4.4920    -1.2960 C.ar  1 <1>  -0.1500 
 13 C        2.4090     1.1580     1.0330 C.ar  1 <1>  -0.1500 
 14 C        0.8740    -0.3060     2.3600 C.3   1 <1>  -0.0970 
 15 C        2.4420     1.1840    -1.3590 C.ar  1 <1>  -0.1500 
 16 C       -3.4910    -0.5140     1.7550 C.3   1 <1>   0.1810 
 17 C       -4.3310    -4.1870    -0.1950 C.ar  1 <1>  -0.1500 
 18 C        2.9300     1.6590    -0.1480 C.ar  1 <1>   0.0830 
 19 C       -2.8500     0.7740     2.2580 C.2   1 <1>   0.5690 
 20 O        3.9040     2.6010    -0.0380 O.3   1 <1>  -0.3630 
 21 O       -2.7670     0.9320     3.4540 O.2   1 <1>  -0.5700 
 22 N       -2.3750     1.7100     1.3770 N.am  1 <1>  -0.6600 
 23 C        4.5320     3.1280    -1.1850 C.3   1 <1>   0.0400 
 24 C       -2.3880     1.6060    -0.1020 C.3   1 <1>   0.1400 
 25 C       -1.5860     2.8820     1.8150 C.3   1 <1>   0.1400 
 26 C       -1.7170     2.8820    -0.5950 C.3   1 <1>  -0.1600 
 27 C       -0.8390     3.3350     0.5670 C.3   1 <1>  -0.1600 
 28 H       -0.5540    -1.3210     0.7570 H     1 <1>   0.3700 
 29 H       -1.8300    -3.9940    -2.4340 H     1 <1>   0.1500 
 30 H        1.0830    -0.1180    -2.3210 H     1 <1>   0.1500 
 31 H       -4.5850    -2.9200     1.4800 H     1 <1>   0.1500 
 32 H       -3.8260    -5.3130    -1.9380 H     1 <1>   0.1500 
 33 H        2.8020     1.5350     1.9590 H     1 <1>   0.1500 
 34 H        0.9560    -1.3770     2.4110 H     1 <1>   0.0800 
 35 H       -0.1560    -0.0240     2.4780 H     1 <1>   0.0800 
 36 H        1.4290     0.1110     3.1810 H     1 <1>   0.0800 
 37 H        2.8200     1.5430    -2.2960 H     1 <1>   0.1500 
 38 H       -3.9190    -1.0480     2.5830 H     1 <1>   0.0800 
 39 H       -4.2500    -0.2870     1.0300 H     1 <1>   0.0800 
 40 H       -5.2090    -4.7730     0.0220 H     1 <1>   0.1500 
 41 H        5.2760     3.8340    -0.8640 H     1 <1>   0.0800 
 42 H        3.7940     3.6240    -1.7900 H     1 <1>   0.0800 
 43 H        5.0000     2.3240    -1.7270 H     1 <1>   0.0800 
 44 H       -3.3930     1.5230    -0.4760 H     1 <1>   0.0800 
 45 H       -1.8140     0.7510    -0.4080 H     1 <1>   0.0800 
 46 H       -0.9080     2.6180     2.6090 H     1 <1>   0.0800 
 47 H       -2.2600     3.6500     2.1540 H     1 <1>   0.0800 
 48 H       -2.4720     3.6220    -0.7950 H     1 <1>   0.0800 
 49 H       -1.1470     2.7090    -1.4910 H     1 <1>   0.0800 
 50 H        0.1090     2.8280     0.5240 H     1 <1>   0.0800 
 51 H       -0.6660     4.3960     0.5660 H     1 <1>   0.0800 
@<TRIPOS>BOND
  1   1   2  2   
  2   2   3  am  
  3   2   4  1   
  4   3   5  1   
  5   3  28  1   
  6   4   6  ar  
  7   4   7  ar  
  8   5   8  ar  
  9   5   9  ar  
 10   6  10  1   
 11   6  11  ar  
 12   7  12  ar  
 13   7  29  1   
 14   8  13  ar  
 15   8  14  1   
 16   9  15  ar  
 17   9  30  1   
 18  10  16  1   
 19  11  17  ar  
 20  11  31  1   
 21  12  17  ar  
 22  12  32  1   
 23  13  18  ar  
 24  13  33  1   
 25  14  34  1   
 26  14  35  1   
 27  14  36  1   
 28  15  18  ar  
 29  15  37  1   
 30  16  19  1   
 31  16  38  1   
 32  16  39  1   
 33  17  40  1   
 34  18  20  1   
 35  19  21  2   
 36  19  22  am  
 37  20  23  1   
 38  22  24  1   
 39  22  25  1   
 40  23  41  1   
 41  23  42  1   
 42  23  43  1   
 43  24  26  1   
 44  24  44  1   
 45  24  45  1   
 46  25  27  1   
 47  25  46  1   
 48  25  47  1   
 49  26  27  1   
 50  26  48  1   
 51  26  49  1   
 52  27  50  1   
 53  27  51  1   
@<TRIPOS>SUBSTRUCTURE
  1 ****   3 GROUP 4 **** **** 0

# MOE 2024.06 (io_trps.svl 2023.06)
