@<TRIPOS>MOLECULE
NONAME
38 40 1 0 0 
SMALL
USER_CHARGES


@<TRIPOS>ATOM
  1 S        0.1120    -0.2150     0.0600 S.3   1 <1>  -0.0800 
  2 C        1.6490     0.6490    -0.0270 C.ar  1 <1>   0.2970 
  3 C       -0.7830     1.3020     0.0340 C.2   1 <1>  -0.1400 
  4 N        2.8080     0.0290    -0.0390 N.ar  1 <1>  -0.5670 
  5 C        1.4440     2.0090    -0.0800 C.ar  1 <1>   0.0000 
  6 C        0.0420     2.3590    -0.0240 C.2   1 <1>  -0.1810 
  7 C       -2.2950     1.2910     0.0880 C.3   1 <1>   0.0200 
  8 C        3.8120     0.8810    -0.1160 C.ar  1 <1>   0.7220 
  9 C        2.6190     2.7600    -0.1770 C.ar  1 <1>   0.4100 
 10 C       -0.5050     3.7790    -0.0210 C.3   1 <1>   0.0210 
 11 C       -2.8180     2.6960    -0.2600 C.3   1 <1>  -0.1600 
 12 S        5.4440     0.1540    -0.1320 S.3   1 <1>  -0.3320 
 13 N        3.8060     2.2040    -0.1880 N.ar  1 <1>  -0.6200 
 14 N        2.6430     4.1100    -0.2880 N.pl3 1 <1>  -0.9000 
 15 C       -1.9850     3.8050     0.4140 C.3   1 <1>  -0.1600 
 16 C        5.1480    -1.6660    -0.0170 C.3   1 <1>   0.0700 
 17 C        6.5070    -2.3690    -0.0210 C.3   1 <1>  -0.1600 
 18 C        6.3410    -3.8910     0.0730 C.3   1 <1>  -0.1600 
 19 C        7.7010    -4.5940     0.0680 C.3   1 <1>  -0.2400 
 20 H       -2.6050     1.0140     1.0800 H     1 <1>   0.0800 
 21 H       -2.6860     0.5700    -0.6080 H     1 <1>   0.0800 
 22 H       -0.4110     4.1880    -1.0110 H     1 <1>   0.0800 
 23 H        0.0660     4.3880     0.6580 H     1 <1>   0.0800 
 24 H       -3.8490     2.7770     0.0370 H     1 <1>   0.0800 
 25 H       -2.7720     2.8290    -1.3280 H     1 <1>   0.0800 
 26 H        3.5620     4.5240    -0.4610 H     1 <1>   0.4000 
 27 H        1.8580     4.6070    -0.7050 H     1 <1>   0.4000 
 28 H       -2.4070     4.7680     0.1850 H     1 <1>   0.0800 
 29 H       -2.0340     3.6720     1.4810 H     1 <1>   0.0800 
 30 H        4.5500    -1.9480    -0.8650 H     1 <1>   0.0800 
 31 H        4.6080    -1.8460     0.8960 H     1 <1>   0.0800 
 32 H        7.0870    -2.0170     0.8140 H     1 <1>   0.0800 
 33 H        7.0300    -2.1180    -0.9280 H     1 <1>   0.0800 
 34 H        5.7580    -4.2430    -0.7610 H     1 <1>   0.0800 
 35 H        5.8150    -4.1420     0.9780 H     1 <1>   0.0800 
 36 H        8.2360    -4.3730    -0.8390 H     1 <1>   0.0800 
 37 H        7.5650    -5.6590     0.1340 H     1 <1>   0.0800 
 38 H        8.2940    -4.2720     0.9070 H     1 <1>   0.0800 
@<TRIPOS>BOND
  1   1   2  1   
  2   1   3  1   
  3   2   4  ar  
  4   2   5  ar  
  5   3   6  2   
  6   3   7  1   
  7   4   8  ar  
  8   5   6  1   
  9   5   9  ar  
 10   6  10  1   
 11   7  11  1   
 12   7  20  1   
 13   7  21  1   
 14   8  12  1   
 15   8  13  ar  
 16   9  13  ar  
 17   9  14  1   
 18  10  15  1   
 19  10  22  1   
 20  10  23  1   
 21  11  15  1   
 22  11  24  1   
 23  11  25  1   
 24  12  16  1   
 25  14  26  1   
 26  14  27  1   
 27  15  28  1   
 28  15  29  1   
 29  16  17  1   
 30  16  30  1   
 31  16  31  1   
 32  17  18  1   
 33  17  32  1   
 34  17  33  1   
 35  18  19  1   
 36  18  34  1   
 37  18  35  1   
 38  19  36  1   
 39  19  37  1   
 40  19  38  1   
@<TRIPOS>SUBSTRUCTURE
  1 ****   2 GROUP 4 **** **** 0

# MOE 2024.06 (io_trps.svl 2023.06)
