@<TRIPOS>MOLECULE
NONAME
33 34 1 0 0 
SMALL
USER_CHARGES


@<TRIPOS>ATOM
  1 O       -0.1160     1.6170     2.0020 O.2   1 <1>  -0.5700 
  2 C       -0.2380     2.0050     0.8670 C.2   1 <1>   0.5690 
  3 N        0.7240     1.8680    -0.1000 N.am  1 <1>  -0.5470 
  4 C       -1.5460     2.6610     0.4990 C.3   1 <1>   0.1570 
  5 C        2.0110     1.3110    -0.0450 C.ar  1 <1>   0.1170 
  6 N       -2.0760     2.0060    -0.6980 N.pl3 1 <1>   0.3140 
  7 C        2.5910     0.8660    -1.2260 C.ar  1 <1>  -0.1500 
  8 C        2.7410     1.1950     1.1330 C.ar  1 <1>  -0.1500 
  9 N       -1.8420     2.4660    -1.9070 N.2   1 <1>  -0.4180 
 10 C       -2.7530     0.8760    -0.8210 C.2   1 <1>   0.0060 
 11 C        3.8610     0.3180    -1.2330 C.ar  1 <1>  -0.1500 
 12 C        4.0110     0.6460     1.1280 C.ar  1 <1>  -0.1500 
 13 N       -2.3880     1.6350    -2.7200 N.2   1 <1>   0.0000 
 14 N       -2.9580     0.6350    -2.0570 N.2   1 <1>  -0.3380 
 15 C       -3.2020    -0.0150     0.3240 C.3   1 <1>  -0.0600 
 16 C        4.5810     0.2040    -0.0550 C.ar  1 <1>  -0.1430 
 17 C        5.9750    -0.4010    -0.0590 C.3   1 <1>  -0.0170 
 18 C        5.9030    -1.9160     0.1450 C.3   1 <1>  -0.2400 
 19 H        0.4270     2.1200    -1.0480 H     1 <1>   0.3700 
 20 H       -1.3870     3.7020     0.2950 H     1 <1>   0.0800 
 21 H       -2.2500     2.5590     1.3030 H     1 <1>   0.0800 
 22 H        2.0470     0.9420    -2.1500 H     1 <1>   0.1500 
 23 H        2.3240     1.5340     2.0630 H     1 <1>   0.1500 
 24 H        4.2880    -0.0240    -2.1600 H     1 <1>   0.1500 
 25 H        4.5540     0.5620     2.0530 H     1 <1>   0.1500 
 26 H       -3.8900     0.5110     0.9600 H     1 <1>   0.0800 
 27 H       -2.3540    -0.3340     0.9030 H     1 <1>   0.0800 
 28 H       -3.6960    -0.8880    -0.0660 H     1 <1>   0.0800 
 29 H        6.5650     0.0410     0.7250 H     1 <1>   0.0800 
 30 H        6.4620    -0.1850    -0.9940 H     1 <1>   0.0800 
 31 H        5.4330    -2.1400     1.0860 H     1 <1>   0.0800 
 32 H        6.8910    -2.3390     0.1410 H     1 <1>   0.0800 
 33 H        5.3270    -2.3690    -0.6430 H     1 <1>   0.0800 
@<TRIPOS>BOND
  1   1   2  2   
  2   2   3  am  
  3   2   4  1   
  4   3   5  1   
  5   3  19  1   
  6   4   6  1   
  7   4  20  1   
  8   4  21  1   
  9   5   7  ar  
 10   5   8  ar  
 11   6   9  1   
 12   6  10  1   
 13   7  11  ar  
 14   7  22  1   
 15   8  12  ar  
 16   8  23  1   
 17   9  13  2   
 18  10  14  2   
 19  10  15  1   
 20  11  16  ar  
 21  11  24  1   
 22  12  16  ar  
 23  12  25  1   
 24  13  14  1   
 25  15  26  1   
 26  15  27  1   
 27  15  28  1   
 28  16  17  1   
 29  17  18  1   
 30  17  29  1   
 31  17  30  1   
 32  18  31  1   
 33  18  32  1   
 34  18  33  1   
@<TRIPOS>SUBSTRUCTURE
  1 ****   3 GROUP 4 **** **** 0

# MOE 2024.06 (io_trps.svl 2023.06)
