@<TRIPOS>MOLECULE
NONAME
41 42 1 0 0 
SMALL
USER_CHARGES


@<TRIPOS>ATOM
  1 CL       1.6600     1.8170     2.7550 Cl    1 <1>  -0.1770 
  2 C        2.5020     1.9390     1.2260 C.ar  1 <1>   0.1770 
  3 C        2.2010     2.9570     0.3290 C.ar  1 <1>   0.0820 
  4 C        3.4700     0.9890     0.9500 C.ar  1 <1>  -0.1500 
  5 O        1.2300     3.8500     0.6440 O.3   1 <1>  -0.3630 
  6 C        2.9200     3.0250    -0.8730 C.ar  1 <1>   0.0820 
  7 C        4.1670     1.0460    -0.2480 C.ar  1 <1>  -0.1440 
  8 C       -0.0860     3.4710     0.3120 C.3   1 <1>   0.1200 
  9 O        2.7700     3.9740    -1.8360 O.3   1 <1>  -0.3630 
 10 C        3.8780     2.0610    -1.1490 C.ar  1 <1>  -0.1500 
 11 C        5.2390     0.0290    -0.5690 C.3   1 <1>   0.4860 
 12 C       -1.0230     4.5990     0.7310 C.3   1 <1>  -0.2400 
 13 C        2.3790     5.2920    -1.5120 C.3   1 <1>   0.0400 
 14 N        6.5240     0.6320    -0.1650 N.4   1 <1>  -0.9060 
 15 C        7.7110    -0.2000    -0.4410 C.3   1 <1>   0.4860 
 16 C        8.9100     0.5860     0.0360 C.ar  1 <1>  -0.1440 
 17 C        9.3970     0.4620     1.3250 C.ar  1 <1>  -0.1500 
 18 C        9.5750     1.4740    -0.7890 C.ar  1 <1>  -0.1500 
 19 C       10.4880     1.2200     1.7170 C.ar  1 <1>   0.1600 
 20 C       10.6570     2.1840    -0.2960 C.ar  1 <1>   0.1600 
 21 N       11.1180     2.0790     0.9370 N.ar  1 <1>  -0.6200 
 22 H        3.6530     0.2210     1.6820 H     1 <1>   0.1500 
 23 H       -0.3260     2.5620     0.8370 H     1 <1>   0.0800 
 24 H       -0.1350     3.3030    -0.7500 H     1 <1>   0.0800 
 25 H        4.3920     2.1330    -2.0930 H     1 <1>   0.1500 
 26 H        5.2350    -0.1850    -1.6260 H     1 <1>   0.0800 
 27 H        5.0580    -0.8850    -0.0250 H     1 <1>   0.0800 
 28 H       -0.9520     4.7620     1.7920 H     1 <1>   0.0800 
 29 H       -2.0370     4.3370     0.4910 H     1 <1>   0.0800 
 30 H       -0.7700     5.5050     0.2110 H     1 <1>   0.0800 
 31 H        2.6650     5.9370    -2.3230 H     1 <1>   0.0800 
 32 H        2.8730     5.5980    -0.6070 H     1 <1>   0.0800 
 33 H        1.3110     5.3210    -1.3910 H     1 <1>   0.0800 
 34 H        6.4940     0.8580     0.8360 H     1 <1>   0.4500 
 35 H        6.6300     1.5380    -0.6340 H     1 <1>   0.4500 
 36 H        7.7990    -0.3990    -1.4980 H     1 <1>   0.0800 
 37 H        7.6510    -1.1380     0.0880 H     1 <1>   0.0800 
 38 H        8.9540    -0.2120     2.0370 H     1 <1>   0.1500 
 39 H        9.2790     1.6300    -1.8120 H     1 <1>   0.1500 
 40 H       10.8630     1.1160     2.7230 H     1 <1>   0.1500 
 41 H       11.1710     2.8740    -0.9460 H     1 <1>   0.1500 
@<TRIPOS>BOND
  1   1   2  1   
  2   2   3  ar  
  3   2   4  ar  
  4   3   5  1   
  5   3   6  ar  
  6   4   7  ar  
  7   4  22  1   
  8   5   8  1   
  9   6   9  1   
 10   6  10  ar  
 11   7  10  ar  
 12   7  11  1   
 13   8  12  1   
 14   8  23  1   
 15   8  24  1   
 16   9  13  1   
 17  10  25  1   
 18  11  14  1   
 19  11  26  1   
 20  11  27  1   
 21  12  28  1   
 22  12  29  1   
 23  12  30  1   
 24  13  31  1   
 25  13  32  1   
 26  13  33  1   
 27  14  15  1   
 28  14  34  1   
 29  14  35  1   
 30  15  16  1   
 31  15  36  1   
 32  15  37  1   
 33  16  17  ar  
 34  16  18  ar  
 35  17  19  ar  
 36  17  38  1   
 37  18  20  ar  
 38  18  39  1   
 39  19  21  ar  
 40  19  40  1   
 41  20  21  ar  
 42  20  41  1   
@<TRIPOS>SUBSTRUCTURE
  1 ****   7 GROUP 4 **** **** 0

# MOE 2024.06 (io_trps.svl 2023.06)
