@<TRIPOS>MOLECULE
NONAME
34 34 1 0 0 
SMALL
USER_CHARGES


@<TRIPOS>ATOM
  1 O        0.6180     0.4310     1.6030 O.2   1 <1>  -0.5700 
  2 C        0.2060     1.4030     1.0130 C.2   1 <1>   0.5690 
  3 N        0.9840     2.0680     0.1180 N.am  1 <1>  -0.7300 
  4 C       -1.2220     1.8930     1.2950 C.3   1 <1>   0.2610 
  5 C        2.3440     1.6930    -0.2800 C.3   1 <1>   0.2780 
  6 O       -1.6670     2.7370     0.2370 O.3   1 <1>  -0.3620 
  7 C       -1.2980     2.6870     2.6090 C.3   1 <1>  -0.2400 
  8 C        2.4560     1.9320    -1.7700 C.2   1 <1>  -0.2880 
  9 C       -2.9810     2.9790    -0.0190 C.ar  1 <1>   0.0820 
 10 C        3.2670     2.8200    -2.3550 C.2   1 <1>  -0.3000 
 11 C       -4.0390     2.3830     0.6640 C.ar  1 <1>  -0.1500 
 12 C       -3.2520     3.8830    -1.0330 C.ar  1 <1>  -0.1500 
 13 C       -5.3470     2.6940     0.3310 C.ar  1 <1>  -0.1500 
 14 C       -4.5580     4.1940    -1.3660 C.ar  1 <1>  -0.1500 
 15 C       -5.6130     3.6050    -0.6890 C.ar  1 <1>   0.0820 
 16 O       -6.8650     3.9650    -1.0760 O.3   1 <1>  -0.3630 
 17 C       -8.0070     3.4230    -0.4520 C.3   1 <1>   0.0400 
 18 H        0.5770     2.8530    -0.3950 H     1 <1>   0.3700 
 19 H       -1.8530     1.0250     1.3300 H     1 <1>   0.0800 
 20 H        2.5310     0.6570    -0.0500 H     1 <1>   0.0800 
 21 H        3.0520     2.3010     0.2560 H     1 <1>   0.0800 
 22 H       -0.6540     3.5470     2.5560 H     1 <1>   0.0800 
 23 H       -0.9680     2.0660     3.4220 H     1 <1>   0.0800 
 24 H       -2.3030     3.0060     2.8100 H     1 <1>   0.0800 
 25 H        1.7940     1.2930    -2.3300 H     1 <1>   0.1500 
 26 H        3.3250     2.9680    -3.4200 H     1 <1>   0.1500 
 27 H        3.9380     3.4730    -1.8240 H     1 <1>   0.1500 
 28 H       -3.8720     1.6780     1.4540 H     1 <1>   0.1500 
 29 H       -2.4370     4.3430    -1.5620 H     1 <1>   0.1500 
 30 H       -6.1430     2.2210     0.8730 H     1 <1>   0.1500 
 31 H       -4.7680     4.8960    -2.1530 H     1 <1>   0.1500 
 32 H       -8.8760     3.8480    -0.9200 H     1 <1>   0.0800 
 33 H       -7.9910     3.6820     0.5920 H     1 <1>   0.0800 
 34 H       -8.0060     2.3560    -0.5870 H     1 <1>   0.0800 
@<TRIPOS>BOND
  1   1   2  2   
  2   2   3  am  
  3   2   4  1   
  4   3   5  1   
  5   3  18  1   
  6   4   6  1   
  7   4   7  1   
  8   4  19  1   
  9   5   8  1   
 10   5  20  1   
 11   5  21  1   
 12   6   9  1   
 13   7  22  1   
 14   7  23  1   
 15   7  24  1   
 16   8  10  2   
 17   8  25  1   
 18   9  11  ar  
 19   9  12  ar  
 20  10  26  1   
 21  10  27  1   
 22  11  13  ar  
 23  11  28  1   
 24  12  14  ar  
 25  12  29  1   
 26  13  15  ar  
 27  13  30  1   
 28  14  15  ar  
 29  14  31  1   
 30  15  16  1   
 31  16  17  1   
 32  17  32  1   
 33  17  33  1   
 34  17  34  1   
@<TRIPOS>SUBSTRUCTURE
  1 ****   6 GROUP 4 **** **** 0

# MOE 2024.06 (io_trps.svl 2023.06)
