@<TRIPOS>MOLECULE
NONAME
32 34 1 0 0 
SMALL
USER_CHARGES


@<TRIPOS>ATOM
  1 O        8.3460    -0.9800    -1.4090 O.2   1 <1>  -0.5700 
  2 C        7.4320    -1.4540    -0.7480 C.2   1 <1>   0.7160 
  3 N        7.5990    -2.7170    -0.2670 N.am  1 <1>  -0.4900 
  4 C        6.1910    -0.8230    -0.4240 C.2   1 <1>   0.1410 
  5 C        6.6440    -3.3430     0.4750 C.2   1 <1>   0.5600 
  6 N        5.6690     0.4070    -0.7100 N.2   1 <1>  -0.5650 
  7 C        5.2990    -1.5440     0.3230 C.2   1 <1>  -0.0260 
  8 N        5.5060    -2.8150     0.7910 N.2   1 <1>  -0.5760 
  9 N        6.9160    -4.5850     0.9020 N.pl3 1 <1>  -0.8500 
 10 C        4.5100     0.3930    -0.1420 C.2   1 <1>   0.0360 
 11 N        4.2110    -0.7710     0.4960 N.pl3 1 <1>   0.0480 
 12 C        2.9770    -1.1530     1.2250 C.3   1 <1>   0.4560 
 13 O        2.1120    -0.0440     1.2520 O.3   1 <1>  -0.5600 
 14 C        2.2120    -2.2680     0.5110 C.3   1 <1>  -0.1600 
 15 C        1.0050    -0.2340     0.4150 C.3   1 <1>   0.2000 
 16 C        1.3200    -1.4800    -0.4100 C.3   1 <1>   0.2000 
 17 C        0.7560     1.0130    -0.4400 C.3   1 <1>   0.1200 
 18 O        0.1780    -2.1940    -0.7360 O.3   1 <1>  -0.6800 
 19 O       -0.3790     0.8200    -1.2190 O.3   1 <1>  -0.6800 
 20 H        8.4630    -3.1760    -0.5180 H     1 <1>   0.3700 
 21 H        6.2370    -5.0320     1.5190 H     1 <1>   0.4000 
 22 H        7.8400    -5.0100     0.8650 H     1 <1>   0.4000 
 23 H        3.8220     1.2200    -0.1540 H     1 <1>   0.1500 
 24 H        3.2320    -1.4250     2.2340 H     1 <1>   0.0800 
 25 H        2.8610    -2.9440    -0.0160 H     1 <1>   0.0800 
 26 H        1.6380    -2.8100     1.2400 H     1 <1>   0.0800 
 27 H        0.1620    -0.4080     1.0620 H     1 <1>   0.0800 
 28 H        1.8330    -1.2190    -1.3220 H     1 <1>   0.0800 
 29 H        1.5850     1.1970    -1.1010 H     1 <1>   0.0800 
 30 H        0.5860     1.8740     0.1820 H     1 <1>   0.0800 
 31 H       -0.2750    -2.5220     0.0650 H     1 <1>   0.4000 
 32 H       -0.3710    -0.0740    -1.6270 H     1 <1>   0.4000 
@<TRIPOS>BOND
  1   1   2  2   
  2   2   3  am  
  3   2   4  1   
  4   3   5  1   
  5   3  20  1   
  6   4   6  1   
  7   4   7  2   
  8   5   8  2   
  9   5   9  1   
 10   6  10  2   
 11   7   8  1   
 12   7  11  1   
 13   9  21  1   
 14   9  22  1   
 15  10  11  1   
 16  10  23  1   
 17  11  12  1   
 18  12  13  1   
 19  12  14  1   
 20  12  24  1   
 21  13  15  1   
 22  14  16  1   
 23  14  25  1   
 24  14  26  1   
 25  15  16  1   
 26  15  17  1   
 27  15  27  1   
 28  16  18  1   
 29  16  28  1   
 30  17  19  1   
 31  17  29  1   
 32  17  30  1   
 33  18  31  1   
 34  19  32  1   
@<TRIPOS>SUBSTRUCTURE
  1 ****  11 GROUP 4 **** **** 0

# MOE 2024.06 (io_trps.svl 2023.06)
