@<TRIPOS>MOLECULE
NONAME
43 45 1 0 0 
SMALL
USER_CHARGES


@<TRIPOS>ATOM
  1 CL      -0.8710     0.4270     1.9580 Cl    1 <1>  -0.1770 
  2 C       -1.7840    -0.6660     0.9360 C.ar  1 <1>   0.1770 
  3 C       -3.0530    -0.2680     0.5470 C.ar  1 <1>   0.1770 
  4 C       -1.2490    -1.8820     0.5230 C.ar  1 <1>  -0.0090 
  5 CL      -3.6820     1.2780     1.0910 Cl    1 <1>  -0.1770 
  6 C       -3.8360    -1.0700    -0.2730 C.ar  1 <1>   0.0820 
  7 S        0.4100    -2.4580     0.9740 S.o2  1 <1>   1.4470 
  8 C       -2.0430    -2.6730    -0.3070 C.ar  1 <1>  -0.1500 
  9 O       -5.0730    -0.6300    -0.6220 O.3   1 <1>  -0.3630 
 10 C       -3.3130    -2.2860    -0.7010 C.ar  1 <1>  -0.1500 
 11 O        0.8950    -1.9000     2.2150 O.2   1 <1>  -0.6500 
 12 O        0.4170    -3.8980     0.8330 O.2   1 <1>  -0.6500 
 13 N        1.4030    -1.8590    -0.2630 N.am  1 <1>  -0.8490 
 14 C       -5.9450    -1.4000    -1.4200 C.3   1 <1>   0.0400 
 15 C        2.6860    -2.5940    -0.3020 C.3   1 <1>   0.1960 
 16 C        1.6760    -0.4120    -0.1290 C.3   1 <1>   0.1960 
 17 C        3.6230    -2.1210    -1.4310 C.3   1 <1>   0.2090 
 18 C        2.5750     0.1430    -1.2530 C.3   1 <1>   0.2090 
 19 N        3.8310    -0.6430    -1.4200 N.pl3 1 <1>  -0.8380 
 20 C        4.9960    -0.1490    -0.8430 C.ar  1 <1>   0.1000 
 21 C        5.9940     0.3670    -1.6580 C.ar  1 <1>  -0.1500 
 22 C        5.1960    -0.1540     0.5340 C.ar  1 <1>  -0.1500 
 23 C        7.1640     0.8680    -1.1180 C.ar  1 <1>  -0.1500 
 24 C        6.3640     0.3450     1.0790 C.ar  1 <1>  -0.1500 
 25 C        7.3510     0.8580     0.2540 C.ar  1 <1>  -0.1500 
 26 H       -1.6580    -3.6190    -0.6530 H     1 <1>   0.1500 
 27 H       -3.8760    -2.9430    -1.3390 H     1 <1>   0.1500 
 28 H       -6.8600    -0.8470    -1.5400 H     1 <1>   0.0800 
 29 H       -6.1460    -2.3320    -0.9210 H     1 <1>   0.0800 
 30 H       -5.4910    -1.5640    -2.3800 H     1 <1>   0.0800 
 31 H        2.4970    -3.6430    -0.4510 H     1 <1>   0.0800 
 32 H        3.1950    -2.4870     0.6410 H     1 <1>   0.0800 
 33 H        2.1480    -0.2090     0.8180 H     1 <1>   0.0800 
 34 H        0.7510     0.1320    -0.1570 H     1 <1>   0.0800 
 35 H        3.2000    -2.4040    -2.3790 H     1 <1>   0.0800 
 36 H        4.5740    -2.6160    -1.3350 H     1 <1>   0.0800 
 37 H        2.8220     1.1680    -1.0380 H     1 <1>   0.0800 
 38 H        2.0300     0.1240    -2.1800 H     1 <1>   0.0800 
 39 H        5.8380     0.3700    -2.7210 H     1 <1>   0.1500 
 40 H        4.4350    -0.5500     1.1780 H     1 <1>   0.1500 
 41 H        7.9280     1.2650    -1.7630 H     1 <1>   0.1500 
 42 H        6.5070     0.3360     2.1460 H     1 <1>   0.1500 
 43 H        8.2610     1.2470     0.6770 H     1 <1>   0.1500 
@<TRIPOS>BOND
  1   1   2  1   
  2   2   3  ar  
  3   2   4  ar  
  4   3   5  1   
  5   3   6  ar  
  6   4   7  1   
  7   4   8  ar  
  8   6   9  1   
  9   6  10  ar  
 10   7  11  2   
 11   7  12  2   
 12   7  13  am  
 13   8  10  ar  
 14   8  26  1   
 15   9  14  1   
 16  10  27  1   
 17  13  15  1   
 18  13  16  1   
 19  14  28  1   
 20  14  29  1   
 21  14  30  1   
 22  15  17  1   
 23  15  31  1   
 24  15  32  1   
 25  16  18  1   
 26  16  33  1   
 27  16  34  1   
 28  17  19  1   
 29  17  35  1   
 30  17  36  1   
 31  18  19  1   
 32  18  37  1   
 33  18  38  1   
 34  19  20  1   
 35  20  21  ar  
 36  20  22  ar  
 37  21  23  ar  
 38  21  39  1   
 39  22  24  ar  
 40  22  40  1   
 41  23  25  ar  
 42  23  41  1   
 43  24  25  ar  
 44  24  42  1   
 45  25  43  1   
@<TRIPOS>SUBSTRUCTURE
  1 ****  16 GROUP 4 **** **** 0

# MOE 2024.06 (io_trps.svl 2023.06)
