@<TRIPOS>MOLECULE
NONAME
46 47 1 0 0 
SMALL
USER_CHARGES


@<TRIPOS>ATOM
  1 S       -0.0250     0.0540    -0.3190 S.o2  1 <1>   1.4470 
  2 O        1.0540     0.0970    -1.2830 O.2   1 <1>  -0.6500 
  3 O       -1.2680    -0.5890    -0.6830 O.2   1 <1>  -0.6500 
  4 N        0.5580    -0.7650     1.0470 N.am  1 <1>  -0.8490 
  5 C       -0.3280     1.7330     0.3020 C.ar  1 <1>  -0.0090 
  6 C        1.2770    -2.0210     0.6940 C.3   1 <1>   0.2570 
  7 C       -0.4820    -1.0260     2.0490 C.3   1 <1>   0.1160 
  8 C        0.6500     2.4040     1.0330 C.ar  1 <1>  -0.1500 
  9 C       -1.5350     2.3860     0.0540 C.ar  1 <1>  -0.1500 
 10 C        2.8080    -1.8910     0.6390 C.2   1 <1>   0.5690 
 11 C        0.4370     3.6870     1.5120 C.ar  1 <1>  -0.1500 
 12 C       -1.7670     3.6680     0.5240 C.ar  1 <1>  -0.1500 
 13 O        3.4620    -2.5690     1.3960 O.2   1 <1>  -0.5700 
 14 N        3.3760    -1.0390    -0.2590 N.am  1 <1>  -0.7300 
 15 C       -0.7730     4.2960     1.2470 C.ar  1 <1>   0.1900 
 16 C        4.8040    -0.7270    -0.4640 C.3   1 <1>   0.2200 
 17 F       -0.9830     5.5030     1.6940 F     1 <1>  -0.1900 
 18 C        5.5160    -1.9600    -1.0340 C.3   1 <1>  -0.1600 
 19 C        5.4030    -0.1600     0.8330 C.3   1 <1>  -0.1600 
 20 C        7.0170    -1.7670    -1.3090 C.3   1 <1>  -0.1600 
 21 C        6.7280     0.5820     0.5920 C.3   1 <1>  -0.1600 
 22 C        7.8440    -1.7080    -0.0160 C.3   1 <1>  -0.1600 
 23 C        7.9800    -0.3090     0.6050 C.3   1 <1>  -0.1600 
 24 H        0.9290    -2.3970    -0.2530 H     1 <1>   0.0800 
 25 H        1.0660    -2.7790     1.4270 H     1 <1>   0.0800 
 26 H       -0.9670    -0.1060     2.3300 H     1 <1>   0.0800 
 27 H       -0.0420    -1.4560     2.9340 H     1 <1>   0.0800 
 28 H       -1.2230    -1.7040     1.6600 H     1 <1>   0.0800 
 29 H        1.5900     1.9130     1.2310 H     1 <1>   0.1500 
 30 H       -2.3020     1.8830    -0.5140 H     1 <1>   0.1500 
 31 H        1.1910     4.2060     2.0780 H     1 <1>   0.1500 
 32 H       -2.6970     4.1740     0.3340 H     1 <1>   0.1500 
 33 H        2.7340    -0.5010    -0.8610 H     1 <1>   0.3700 
 34 H        4.8490     0.0480    -1.2100 H     1 <1>   0.0800 
 35 H        5.0370    -2.2180    -1.9610 H     1 <1>   0.0800 
 36 H        5.3900    -2.7910    -0.3620 H     1 <1>   0.0800 
 37 H        5.5370    -0.9390     1.5630 H     1 <1>   0.0800 
 38 H        4.7020     0.5490     1.2370 H     1 <1>   0.0800 
 39 H        7.1890    -0.8930    -1.9130 H     1 <1>   0.0800 
 40 H        7.3530    -2.6190    -1.8750 H     1 <1>   0.0800 
 41 H        6.8480     1.3270     1.3600 H     1 <1>   0.0800 
 42 H        6.6760     1.1100    -0.3440 H     1 <1>   0.0800 
 43 H        8.8350    -2.0710    -0.2250 H     1 <1>   0.0800 
 44 H        7.4190    -2.3800     0.7100 H     1 <1>   0.0800 
 45 H        8.3000    -0.4350     1.6250 H     1 <1>   0.0800 
 46 H        8.7680     0.2200     0.0960 H     1 <1>   0.0800 
@<TRIPOS>BOND
  1   1   2  2   
  2   1   3  2   
  3   1   4  am  
  4   1   5  1   
  5   4   6  1   
  6   4   7  1   
  7   5   8  ar  
  8   5   9  ar  
  9   6  10  1   
 10   6  24  1   
 11   6  25  1   
 12   7  26  1   
 13   7  27  1   
 14   7  28  1   
 15   8  11  ar  
 16   8  29  1   
 17   9  12  ar  
 18   9  30  1   
 19  10  13  2   
 20  10  14  am  
 21  11  15  ar  
 22  11  31  1   
 23  12  15  ar  
 24  12  32  1   
 25  14  16  1   
 26  14  33  1   
 27  15  17  1   
 28  16  18  1   
 29  16  19  1   
 30  16  34  1   
 31  18  20  1   
 32  18  35  1   
 33  18  36  1   
 34  19  21  1   
 35  19  37  1   
 36  19  38  1   
 37  20  22  1   
 38  20  39  1   
 39  20  40  1   
 40  21  23  1   
 41  21  41  1   
 42  21  42  1   
 43  22  23  1   
 44  22  43  1   
 45  22  44  1   
 46  23  45  1   
 47  23  46  1   
@<TRIPOS>SUBSTRUCTURE
  1 ****  14 GROUP 4 **** **** 0

# MOE 2024.06 (io_trps.svl 2023.06)
