@<TRIPOS>MOLECULE
NONAME
53 54 1 0 0 
SMALL
USER_CHARGES


@<TRIPOS>ATOM
  1 O        3.8140    -1.6010     0.9020 O.2   1 <1>  -0.5700 
  2 C        2.8920    -1.6610     0.1180 C.2   1 <1>   0.5690 
  3 N        1.7500    -2.3690     0.3970 N.am  1 <1>  -0.6600 
  4 C        3.0670    -0.8910    -1.1900 C.3   1 <1>  -0.0190 
  5 C        0.5300    -2.4020    -0.4550 C.3   1 <1>   0.1400 
  6 C        1.6330    -3.1290     1.6730 C.3   1 <1>   0.1400 
  7 C        4.5410    -0.9860    -1.6220 C.3   1 <1>   0.3430 
  8 C        2.5920     0.5770    -1.0290 C.3   1 <1>  -0.1600 
  9 C        0.5820    -3.6170    -1.3780 C.3   1 <1>  -0.2400 
 10 C        1.0110    -2.2370     2.7460 C.3   1 <1>  -0.2400 
 11 N        5.3380     0.0080    -0.8520 N.4   1 <1>  -0.9590 
 12 C        3.5600     1.5750    -1.6880 C.3   1 <1>  -0.1600 
 13 C        5.0020     1.4320    -1.1730 C.3   1 <1>   0.3430 
 14 C        6.7970    -0.2690    -0.8650 C.3   1 <1>   0.4860 
 15 C        7.5000     0.7360     0.0310 C.ar  1 <1>  -0.1440 
 16 C        7.4030     0.6870     1.4200 C.ar  1 <1>  -0.1440 
 17 C        8.2510     1.7360    -0.5720 C.ar  1 <1>  -0.1500 
 18 C        8.0480     1.6550     2.1730 C.ar  1 <1>  -0.1500 
 19 C        6.6170    -0.3850     2.1660 C.3   1 <1>  -0.0970 
 20 C        8.8920     2.6980     0.1870 C.ar  1 <1>  -0.1440 
 21 C        8.7860     2.6530     1.5640 C.ar  1 <1>  -0.1500 
 22 C        9.7140     3.7910    -0.4750 C.3   1 <1>  -0.0970 
 23 H        2.4970    -1.3690    -1.9630 H     1 <1>   0.0800 
 24 H        0.4470    -1.4980    -1.0330 H     1 <1>   0.0800 
 25 H       -0.3460    -2.4620     0.1700 H     1 <1>   0.0800 
 26 H        2.6070    -3.4550     1.9980 H     1 <1>   0.0800 
 27 H        1.0270    -4.0060     1.5250 H     1 <1>   0.0800 
 28 H        4.6280    -0.7800    -2.6760 H     1 <1>   0.0800 
 29 H        4.9020    -1.9840    -1.4320 H     1 <1>   0.0800 
 30 H        2.5200     0.8200     0.0190 H     1 <1>   0.0800 
 31 H        1.6060     0.6900    -1.4480 H     1 <1>   0.0800 
 32 H        1.4460    -3.5800    -2.0150 H     1 <1>   0.0800 
 33 H       -0.2960    -3.6350    -1.9990 H     1 <1>   0.0800 
 34 H        0.6040    -4.5250    -0.8030 H     1 <1>   0.0800 
 35 H        1.6270    -1.3720     2.9110 H     1 <1>   0.0800 
 36 H        0.9390    -2.7820     3.6690 H     1 <1>   0.0800 
 37 H        0.0230    -1.9250     2.4590 H     1 <1>   0.0800 
 38 H        5.0500    -0.1480     0.1320 H     1 <1>   0.4500 
 39 H        3.2250     2.5820    -1.5070 H     1 <1>   0.0800 
 40 H        3.5540     1.4320    -2.7550 H     1 <1>   0.0800 
 41 H        5.6810     1.8140    -1.9180 H     1 <1>   0.0800 
 42 H        5.1290     2.0260    -0.2810 H     1 <1>   0.0800 
 43 H        7.1800    -0.1890    -1.8680 H     1 <1>   0.0800 
 44 H        6.9890    -1.2660    -0.5040 H     1 <1>   0.0800 
 45 H        8.3450     1.7770    -1.6440 H     1 <1>   0.1500 
 46 H        7.9830     1.6390     3.2480 H     1 <1>   0.1500 
 47 H        6.6400    -1.3290     1.6540 H     1 <1>   0.0800 
 48 H        5.5950    -0.0760     2.2920 H     1 <1>   0.0800 
 49 H        7.0390    -0.5420     3.1440 H     1 <1>   0.0800 
 50 H        9.2810     3.3920     2.1710 H     1 <1>   0.1500 
 51 H        9.3790     3.9660    -1.4810 H     1 <1>   0.0800 
 52 H       10.7490     3.5020    -0.5000 H     1 <1>   0.0800 
 53 H        9.6250     4.7100     0.0760 H     1 <1>   0.0800 
@<TRIPOS>BOND
  1   1   2  2   
  2   2   3  am  
  3   2   4  1   
  4   3   5  1   
  5   3   6  1   
  6   4   7  1   
  7   4   8  1   
  8   4  23  1   
  9   5   9  1   
 10   5  24  1   
 11   5  25  1   
 12   6  10  1   
 13   6  26  1   
 14   6  27  1   
 15   7  11  1   
 16   7  28  1   
 17   7  29  1   
 18   8  12  1   
 19   8  30  1   
 20   8  31  1   
 21   9  32  1   
 22   9  33  1   
 23   9  34  1   
 24  10  35  1   
 25  10  36  1   
 26  10  37  1   
 27  11  13  1   
 28  11  14  1   
 29  11  38  1   
 30  12  13  1   
 31  12  39  1   
 32  12  40  1   
 33  13  41  1   
 34  13  42  1   
 35  14  15  1   
 36  14  43  1   
 37  14  44  1   
 38  15  16  ar  
 39  15  17  ar  
 40  16  18  ar  
 41  16  19  1   
 42  17  20  ar  
 43  17  45  1   
 44  18  21  ar  
 45  18  46  1   
 46  19  47  1   
 47  19  48  1   
 48  19  49  1   
 49  20  21  ar  
 50  20  22  1   
 51  21  50  1   
 52  22  51  1   
 53  22  52  1   
 54  22  53  1   
@<TRIPOS>SUBSTRUCTURE
  1 ****  11 GROUP 4 **** **** 0

# MOE 2024.06 (io_trps.svl 2023.06)
