@<TRIPOS>MOLECULE
NONAME
37 38 1 0 0 
SMALL
USER_CHARGES


@<TRIPOS>ATOM
  1 CL       0.6630    -0.1610    -0.7420 Cl    1 <1>  -0.1770 
  2 C        2.1790     0.6490    -0.3930 C.ar  1 <1>   0.1770 
  3 C        2.1640     1.8200     0.3550 C.ar  1 <1>  -0.1440 
  4 C        3.3630     0.1040    -0.8720 C.ar  1 <1>  -0.1440 
  5 C        3.3660     2.4550     0.6270 C.ar  1 <1>  -0.1500 
  6 C        0.8560     2.4030     0.8720 C.3   1 <1>  -0.0960 
  7 C        4.5530     0.7540    -0.5890 C.ar  1 <1>  -0.1500 
  8 C        3.3670    -1.1790    -1.6900 C.3   1 <1>  -0.0960 
  9 C        4.5650     1.9230     0.1560 C.ar  1 <1>   0.0830 
 10 O        5.7780     2.4870     0.3810 O.3   1 <1>  -0.3630 
 11 C        5.9030     3.6880     1.1340 C.3   1 <1>   0.1810 
 12 C        7.3600     4.1160     1.2470 C.2   1 <1>   0.5690 
 13 O        7.6080     5.1220     1.8600 O.2   1 <1>  -0.5700 
 14 N        8.3060     3.3350     0.6450 N.am  1 <1>  -0.4940 
 15 C        9.6750     3.4800     0.5910 C.2   1 <1>   0.4420 
 16 S       10.5480     2.2650    -0.2830 S.3   1 <1>  -0.0800 
 17 N       10.4510     4.3760     1.0820 N.2   1 <1>  -0.3380 
 18 C       11.9970     3.1240     0.1160 C.2   1 <1>   0.1980 
 19 N       11.7740     4.1670     0.8060 N.2   1 <1>  -0.3380 
 20 C       13.3230     2.5770    -0.3790 C.3   1 <1>   0.0200 
 21 C       13.7240     1.2930     0.3580 C.3   1 <1>  -0.2400 
 22 H        3.3500     3.3590     1.2060 H     1 <1>   0.1500 
 23 H        0.2040     2.6290     0.0470 H     1 <1>   0.0800 
 24 H        1.0240     3.3060     1.4290 H     1 <1>   0.0800 
 25 H        0.3670     1.6920     1.5140 H     1 <1>   0.0800 
 26 H        5.4860     0.3570    -0.9450 H     1 <1>   0.1500 
 27 H        2.9440    -1.9830    -1.1150 H     1 <1>   0.0800 
 28 H        4.3660    -1.4540    -1.9770 H     1 <1>   0.0800 
 29 H        2.7810    -1.0470    -2.5830 H     1 <1>   0.0800 
 30 H        5.5080     3.5170     2.1190 H     1 <1>   0.0800 
 31 H        5.3440     4.4620     0.6400 H     1 <1>   0.0800 
 32 H        7.9250     2.5200     0.1670 H     1 <1>   0.3700 
 33 H       14.0800     3.3250    -0.2250 H     1 <1>   0.0800 
 34 H       13.2550     2.3870    -1.4360 H     1 <1>   0.0800 
 35 H       13.7880     1.4810     1.4160 H     1 <1>   0.0800 
 36 H       14.6830     0.9520     0.0100 H     1 <1>   0.0800 
 37 H       13.0000     0.5160     0.1880 H     1 <1>   0.0800 
@<TRIPOS>BOND
  1   1   2  1   
  2   2   3  ar  
  3   2   4  ar  
  4   3   5  ar  
  5   3   6  1   
  6   4   7  ar  
  7   4   8  1   
  8   5   9  ar  
  9   5  22  1   
 10   6  23  1   
 11   6  24  1   
 12   6  25  1   
 13   7   9  ar  
 14   7  26  1   
 15   8  27  1   
 16   8  28  1   
 17   8  29  1   
 18   9  10  1   
 19  10  11  1   
 20  11  12  1   
 21  11  30  1   
 22  11  31  1   
 23  12  13  2   
 24  12  14  am  
 25  14  15  1   
 26  14  32  1   
 27  15  16  1   
 28  15  17  2   
 29  16  18  1   
 30  17  19  1   
 31  18  19  2   
 32  18  20  1   
 33  20  21  1   
 34  20  33  1   
 35  20  34  1   
 36  21  35  1   
 37  21  36  1   
 38  21  37  1   
@<TRIPOS>SUBSTRUCTURE
  1 ****  10 GROUP 4 **** **** 0

# MOE 2024.06 (io_trps.svl 2023.06)
