@<TRIPOS>MOLECULE
NONAME
42 46 1 0 0 
SMALL
USER_CHARGES


@<TRIPOS>ATOM
  1 CL      -1.5700    -0.8380    -3.6440 Cl    1 <1>  -0.1770 
  2 C       -2.4270    -1.1220    -2.1460 C.ar  1 <1>   0.1770 
  3 C       -1.9960    -2.0930    -1.2580 C.ar  1 <1>   0.1770 
  4 C       -3.5430    -0.3570    -1.8630 C.ar  1 <1>  -0.1500 
  5 CL      -0.5850    -3.0670    -1.6060 Cl    1 <1>  -0.1770 
  6 C       -2.6810    -2.3060    -0.0760 C.ar  1 <1>  -0.1500 
  7 C       -4.2450    -0.5570    -0.6770 C.ar  1 <1>   0.1170 
  8 C       -3.7990    -1.5390     0.2080 C.ar  1 <1>  -0.1500 
  9 N       -5.3870     0.2180    -0.3770 N.am  1 <1>  -0.2370 
 10 C       -6.4340     0.4880    -1.2460 C.2   1 <1>   0.5690 
 11 C       -5.6470     0.8410     0.8350 C.2   1 <1>   0.5690 
 12 O       -6.4760     0.3130    -2.4370 O.2   1 <1>  -0.5700 
 13 C       -7.5720     1.0180    -0.4240 C.3   1 <1>  -0.0190 
 14 O       -5.0900     0.6810     1.8900 O.2   1 <1>  -0.5700 
 15 C       -6.7560     1.8210     0.5940 C.3   1 <1>  -0.0190 
 16 C       -8.8370     1.8920    -0.5900 C.3   1 <1>   0.1960 
 17 C       -7.8250     2.6410     1.3300 C.3   1 <1>   0.1960 
 18 C       -8.4020     3.2010     0.0390 C.2   1 <1>  -0.2760 
 19 C       -9.6830     1.4530     0.5980 C.2   1 <1>  -0.2880 
 20 C       -9.0610     1.8410     1.7160 C.2   1 <1>  -0.2880 
 21 C       -8.4940     4.4560    -0.4140 C.2   1 <1>  -0.2760 
 22 C       -8.0080     5.6980     0.3080 C.3   1 <1>  -0.0220 
 23 C       -9.0960     4.8690    -1.7440 C.3   1 <1>  -0.0220 
 24 C       -7.9750     6.7790    -0.7680 C.3   1 <1>  -0.1600 
 25 C       -9.1010     6.3960    -1.7250 C.3   1 <1>  -0.1600 
 26 H       -3.8610     0.3880    -2.5700 H     1 <1>   0.1500 
 27 H       -2.3400    -3.0610     0.6110 H     1 <1>   0.1500 
 28 H       -4.3280    -1.7050     1.1310 H     1 <1>   0.1500 
 29 H       -7.9210     0.1050     0.0360 H     1 <1>   0.0800 
 30 H       -6.2000     2.5890     0.0730 H     1 <1>   0.0800 
 31 H       -9.3230     1.9270    -1.5490 H     1 <1>   0.0800 
 32 H       -7.4870     3.3900     2.0250 H     1 <1>   0.0800 
 33 H      -10.5910     0.8950     0.4470 H     1 <1>   0.1500 
 34 H       -9.3080     1.6890     2.7530 H     1 <1>   0.1500 
 35 H       -8.7250     5.9650     1.0650 H     1 <1>   0.0800 
 36 H       -7.0430     5.5570     0.7610 H     1 <1>   0.0800 
 37 H       -8.4670     4.5150    -2.5420 H     1 <1>   0.0800 
 38 H      -10.0890     4.4740    -1.8690 H     1 <1>   0.0800 
 39 H       -8.1080     7.7640    -0.3560 H     1 <1>   0.0800 
 40 H       -7.0330     6.7340    -1.2880 H     1 <1>   0.0800 
 41 H       -8.9600     6.8130    -2.7070 H     1 <1>   0.0800 
 42 H      -10.0390     6.7410    -1.3250 H     1 <1>   0.0800 
@<TRIPOS>BOND
  1   1   2  1   
  2   2   3  ar  
  3   2   4  ar  
  4   3   5  1   
  5   3   6  ar  
  6   4   7  ar  
  7   4  26  1   
  8   6   8  ar  
  9   6  27  1   
 10   7   8  ar  
 11   7   9  1   
 12   8  28  1   
 13   9  10  am  
 14   9  11  am  
 15  10  12  2   
 16  10  13  1   
 17  11  14  2   
 18  11  15  1   
 19  13  15  1   
 20  13  16  1   
 21  13  29  1   
 22  15  17  1   
 23  15  30  1   
 24  16  18  1   
 25  16  19  1   
 26  16  31  1   
 27  17  18  1   
 28  17  20  1   
 29  17  32  1   
 30  18  21  2   
 31  19  20  2   
 32  19  33  1   
 33  20  34  1   
 34  21  22  1   
 35  21  23  1   
 36  22  24  1   
 37  22  35  1   
 38  22  36  1   
 39  23  25  1   
 40  23  37  1   
 41  23  38  1   
 42  24  25  1   
 43  24  39  1   
 44  24  40  1   
 45  25  41  1   
 46  25  42  1   
@<TRIPOS>SUBSTRUCTURE
  1 ****  10 GROUP 4 **** **** 0

# MOE 2024.06 (io_trps.svl 2023.06)
