@<TRIPOS>MOLECULE
NONAME
48 49 1 0 0 
SMALL
USER_CHARGES


@<TRIPOS>ATOM
  1 S        0.1580    -0.2100    -0.9140 S.o2  1 <1>   1.4470 
  2 O        0.7290     0.2440    -2.1610 O.2   1 <1>  -0.6500 
  3 O       -0.1190    -1.6120    -0.7040 O.2   1 <1>  -0.6500 
  4 N        1.2670     0.1490     0.2920 N.am  1 <1>  -0.9140 
  5 C       -1.2790     0.8000    -0.4690 C.ar  1 <1>  -0.0090 
  6 C        2.6230    -0.2450    -0.0630 C.3   1 <1>   0.1960 
  7 C       -1.1800     2.1830    -0.3910 C.ar  1 <1>  -0.1500 
  8 C       -2.5120     0.2210    -0.1910 C.ar  1 <1>  -0.1500 
  9 C        3.5660     0.0520     1.1030 C.3   1 <1>  -0.0160 
 10 C       -2.2640     2.9740    -0.0450 C.ar  1 <1>  -0.1430 
 11 C       -3.6060     0.9930     0.1560 C.ar  1 <1>  -0.1500 
 12 C        4.9820    -0.3790     0.7580 C.ar  1 <1>  -0.1430 
 13 C       -3.4890     2.3780     0.2330 C.ar  1 <1>   0.0830 
 14 C       -2.1050     4.4860     0.0270 C.3   1 <1>  -0.0970 
 15 C        5.8330     0.4850     0.0880 C.ar  1 <1>  -0.1500 
 16 C        5.4310    -1.6420     1.1070 C.ar  1 <1>  -0.1500 
 17 O       -4.5260     3.1880     0.5700 O.3   1 <1>  -0.3620 
 18 C        7.1310     0.0990    -0.2360 C.ar  1 <1>   0.0830 
 19 C        6.7180    -2.0400     0.7920 C.ar  1 <1>  -0.1500 
 20 C       -5.8090     2.6780     0.8550 C.3   1 <1>   0.0400 
 21 O        7.9970     0.9210    -0.8960 O.3   1 <1>  -0.3630 
 22 C        7.5780    -1.1770     0.1200 C.ar  1 <1>   0.0830 
 23 C        7.6200     2.2090    -1.3290 C.3   1 <1>   0.0400 
 24 O        8.8550    -1.5260    -0.2120 O.3   1 <1>  -0.3630 
 25 C        9.3880    -2.7900     0.1110 C.3   1 <1>   0.0400 
 26 H        0.9730    -0.4520     1.0590 H     1 <1>   0.4200 
 27 H        2.9480     0.3070    -0.9310 H     1 <1>   0.0800 
 28 H        2.6530    -1.2970    -0.2990 H     1 <1>   0.0800 
 29 H       -0.2300     2.6420    -0.6070 H     1 <1>   0.1500 
 30 H       -2.6180    -0.8500    -0.2480 H     1 <1>   0.1500 
 31 H        3.2350    -0.4710     1.9820 H     1 <1>   0.0800 
 32 H        3.5520     1.1070     1.3130 H     1 <1>   0.0800 
 33 H       -4.5370     0.5000     0.3610 H     1 <1>   0.1500 
 34 H       -1.1020     4.7870    -0.2170 H     1 <1>   0.0800 
 35 H       -2.3350     4.8290     1.0200 H     1 <1>   0.0800 
 36 H       -2.7820     4.9560    -0.6640 H     1 <1>   0.0800 
 37 H        5.4690     1.4600    -0.1760 H     1 <1>   0.1500 
 38 H        4.7820    -2.3250     1.6270 H     1 <1>   0.1500 
 39 H        7.0300    -3.0250     1.0790 H     1 <1>   0.1500 
 40 H       -6.4530     3.5060     1.0870 H     1 <1>   0.0800 
 41 H       -5.7410     2.0190     1.7030 H     1 <1>   0.0800 
 42 H       -6.1780     2.1580    -0.0110 H     1 <1>   0.0800 
 43 H        8.4630     2.6500    -1.8300 H     1 <1>   0.0800 
 44 H        7.3540     2.8010    -0.4710 H     1 <1>   0.0800 
 45 H        6.7940     2.1190    -2.0120 H     1 <1>   0.0800 
 46 H       10.4000    -2.8260    -0.2490 H     1 <1>   0.0800 
 47 H        8.8000    -3.5500    -0.3730 H     1 <1>   0.0800 
 48 H        9.3760    -2.9110     1.1800 H     1 <1>   0.0800 
@<TRIPOS>BOND
  1   1   2  2   
  2   1   3  2   
  3   1   4  am  
  4   1   5  1   
  5   4   6  1   
  6   4  26  1   
  7   5   7  ar  
  8   5   8  ar  
  9   6   9  1   
 10   6  27  1   
 11   6  28  1   
 12   7  10  ar  
 13   7  29  1   
 14   8  11  ar  
 15   8  30  1   
 16   9  12  1   
 17   9  31  1   
 18   9  32  1   
 19  10  13  ar  
 20  10  14  1   
 21  11  13  ar  
 22  11  33  1   
 23  12  15  ar  
 24  12  16  ar  
 25  13  17  1   
 26  14  34  1   
 27  14  35  1   
 28  14  36  1   
 29  15  18  ar  
 30  15  37  1   
 31  16  19  ar  
 32  16  38  1   
 33  17  20  1   
 34  18  21  1   
 35  18  22  ar  
 36  19  22  ar  
 37  19  39  1   
 38  20  40  1   
 39  20  41  1   
 40  20  42  1   
 41  21  23  1   
 42  22  24  1   
 43  23  43  1   
 44  23  44  1   
 45  23  45  1   
 46  24  25  1   
 47  25  46  1   
 48  25  47  1   
 49  25  48  1   
@<TRIPOS>SUBSTRUCTURE
  1 ****   6 GROUP 4 **** **** 0

# MOE 2024.06 (io_trps.svl 2023.06)
