@<TRIPOS>MOLECULE
NONAME
33 34 1 0 0 
SMALL
USER_CHARGES


@<TRIPOS>ATOM
  1 O        0.4970     1.3440     1.8330 O.2   1 <1>  -0.5700 
  2 C        0.1860     1.9310     0.8120 C.2   1 <1>   0.7150 
  3 N        1.0190     1.8720    -0.2670 N.am  1 <1>  -0.7300 
  4 C       -1.0360     2.6940     0.7290 C.2   1 <1>   0.0550 
  5 C        2.2870     1.1160    -0.3600 C.3   1 <1>   0.2200 
  6 O       -1.3610     3.3510    -0.3830 O.3   1 <1>  -0.2800 
  7 C       -2.0200     2.8980     1.6490 C.2   1 <1>  -0.1500 
  8 C        3.4960     2.0550    -0.1470 C.3   1 <1>   0.2000 
  9 C        2.3070     0.4340    -1.7280 C.3   1 <1>  -0.2400 
 10 C       -2.5090     3.9600    -0.1980 C.2   1 <1>  -0.0400 
 11 C       -2.9730     3.7190     1.0460 C.2   1 <1>  -0.1500 
 12 O        4.6980     1.3560    -0.2870 O.3   1 <1>  -0.5600 
 13 C        3.5670     2.6920     1.2360 C.3   1 <1>  -0.1600 
 14 C       -3.0940     4.7790    -1.3280 C.3   1 <1>  -0.0600 
 15 C        5.6840     1.8390     0.5730 C.3   1 <1>   0.1200 
 16 C        5.0490     2.9540     1.3950 C.3   1 <1>  -0.1600 
 17 H        0.7230     2.3720    -1.1050 H     1 <1>   0.3700 
 18 H        2.3040     0.3610     0.4100 H     1 <1>   0.0800 
 19 H       -2.0630     2.5070     2.6500 H     1 <1>   0.1500 
 20 H        3.4980     2.8220    -0.9020 H     1 <1>   0.0800 
 21 H        2.3200     1.1630    -2.5170 H     1 <1>   0.0800 
 22 H        1.4480    -0.2050    -1.8370 H     1 <1>   0.0800 
 23 H        3.1890    -0.1750    -1.8150 H     1 <1>   0.0800 
 24 H       -3.8800     4.0690     1.5060 H     1 <1>   0.1500 
 25 H        3.2290     1.9890     1.9780 H     1 <1>   0.0800 
 26 H        2.9720     3.5860     1.3000 H     1 <1>   0.0800 
 27 H       -3.2570     4.1520    -2.1850 H     1 <1>   0.0800 
 28 H       -2.4130     5.5670    -1.5950 H     1 <1>   0.0800 
 29 H       -4.0300     5.2120    -1.0270 H     1 <1>   0.0800 
 30 H        6.5170     2.1910    -0.0120 H     1 <1>   0.0800 
 31 H        5.9950     1.0230     1.2020 H     1 <1>   0.0800 
 32 H        5.3660     2.9290     2.4220 H     1 <1>   0.0800 
 33 H        5.3100     3.9060     0.9660 H     1 <1>   0.0800 
@<TRIPOS>BOND
  1   1   2  2   
  2   2   3  am  
  3   2   4  1   
  4   3   5  1   
  5   3  17  1   
  6   4   6  1   
  7   4   7  2   
  8   5   8  1   
  9   5   9  1   
 10   5  18  1   
 11   6  10  1   
 12   7  11  1   
 13   7  19  1   
 14   8  12  1   
 15   8  13  1   
 16   8  20  1   
 17   9  21  1   
 18   9  22  1   
 19   9  23  1   
 20  10  11  2   
 21  10  14  1   
 22  11  24  1   
 23  12  15  1   
 24  13  16  1   
 25  13  25  1   
 26  13  26  1   
 27  14  27  1   
 28  14  28  1   
 29  14  29  1   
 30  15  16  1   
 31  15  30  1   
 32  15  31  1   
 33  16  32  1   
 34  16  33  1   
@<TRIPOS>SUBSTRUCTURE
  1 ****   3 GROUP 4 **** **** 0

# MOE 2024.06 (io_trps.svl 2023.06)
