@<TRIPOS>MOLECULE
NONAME
44 46 1 0 0 
SMALL
USER_CHARGES


@<TRIPOS>ATOM
  1 O       -0.5360    -0.2090     0.1580 O.2   1 <1>  -0.5700 
  2 C       -0.7120     0.7810    -0.5120 C.2   1 <1>   0.5690 
  3 N       -1.8920     1.4670    -0.6500 N.am  1 <1>  -0.2370 
  4 C        0.3910     1.4260    -1.3610 C.3   1 <1>   0.2510 
  5 C       -3.0730     1.2170     0.0860 C.ar  1 <1>   0.1170 
  6 C       -1.7410     2.4500    -1.5950 C.2   1 <1>   0.5690 
  7 N        1.4800     2.1130    -0.5910 N.3   1 <1>  -0.8100 
  8 C       -0.3800     2.4120    -2.2420 C.3   1 <1>  -0.0990 
  9 C       -3.5710    -0.0760     0.2220 C.ar  1 <1>  -0.1500 
 10 C       -3.7660     2.2580     0.6960 C.ar  1 <1>  -0.1500 
 11 O       -2.5610     3.2720    -1.9110 O.2   1 <1>  -0.5700 
 12 C        2.4280     1.2190     0.1260 C.3   1 <1>   0.1900 
 13 C        0.9640     3.1710     0.3260 C.3   1 <1>   0.1100 
 14 C       -4.7250    -0.3220     0.9440 C.ar  1 <1>  -0.1500 
 15 C       -4.9210     2.0170     1.4190 C.ar  1 <1>  -0.1500 
 16 C        3.6970     2.0360     0.4690 C.3   1 <1>  -0.1600 
 17 C        2.8070    -0.0570    -0.6560 C.3   1 <1>  -0.1600 
 18 C        2.0200     3.6980     1.3110 C.3   1 <1>  -0.1600 
 19 C       -5.4020     0.7250     1.5450 C.ar  1 <1>  -0.1500 
 20 C        3.4340     3.5210     0.7630 C.3   1 <1>  -0.1600 
 21 C        3.8440    -0.9130     0.0750 C.3   1 <1>   0.1200 
 22 O        4.0200    -2.0850    -0.6360 O.3   1 <1>  -0.6800 
 23 H        0.8130     0.6850    -2.0140 H     1 <1>   0.0800 
 24 H       -0.4890     2.0190    -3.2360 H     1 <1>   0.0800 
 25 H        0.0700     3.3860    -2.2940 H     1 <1>   0.0800 
 26 H       -3.0520    -0.8990    -0.2360 H     1 <1>   0.1500 
 27 H       -3.4070     3.2670     0.6010 H     1 <1>   0.1500 
 28 H        1.9580     0.9080     1.0460 H     1 <1>   0.0800 
 29 H        0.1310     2.8040     0.9000 H     1 <1>   0.0800 
 30 H        0.6200     4.0040    -0.2630 H     1 <1>   0.0800 
 31 H       -5.0960    -1.3270     1.0410 H     1 <1>   0.1500 
 32 H       -5.4470     2.8330     1.8820 H     1 <1>   0.1500 
 33 H        4.4010     1.9750    -0.3410 H     1 <1>   0.0800 
 34 H        4.1600     1.5910     1.3320 H     1 <1>   0.0800 
 35 H        3.1980     0.2190    -1.6190 H     1 <1>   0.0800 
 36 H        1.9330    -0.6680    -0.7790 H     1 <1>   0.0800 
 37 H        1.9300     3.1630     2.2410 H     1 <1>   0.0800 
 38 H        1.8280     4.7350     1.5190 H     1 <1>   0.0800 
 39 H       -6.3000     0.5360     2.1070 H     1 <1>   0.1500 
 40 H        3.5190     4.0810    -0.1540 H     1 <1>   0.0800 
 41 H        4.1640     3.9020     1.4560 H     1 <1>   0.0800 
 42 H        3.5130    -1.1670     1.0680 H     1 <1>   0.0800 
 43 H        4.7990    -0.4190     0.1280 H     1 <1>   0.0800 
 44 H        3.1840    -2.5880    -0.6750 H     1 <1>   0.4000 
@<TRIPOS>BOND
  1   1   2  2   
  2   2   3  am  
  3   2   4  1   
  4   3   5  1   
  5   3   6  am  
  6   4   7  1   
  7   4   8  1   
  8   4  23  1   
  9   5   9  ar  
 10   5  10  ar  
 11   6   8  1   
 12   6  11  2   
 13   7  12  1   
 14   7  13  1   
 15   8  24  1   
 16   8  25  1   
 17   9  14  ar  
 18   9  26  1   
 19  10  15  ar  
 20  10  27  1   
 21  12  16  1   
 22  12  17  1   
 23  12  28  1   
 24  13  18  1   
 25  13  29  1   
 26  13  30  1   
 27  14  19  ar  
 28  14  31  1   
 29  15  19  ar  
 30  15  32  1   
 31  16  20  1   
 32  16  33  1   
 33  16  34  1   
 34  17  21  1   
 35  17  35  1   
 36  17  36  1   
 37  18  20  1   
 38  18  37  1   
 39  18  38  1   
 40  19  39  1   
 41  20  40  1   
 42  20  41  1   
 43  21  22  1   
 44  21  42  1   
 45  21  43  1   
 46  22  44  1   
@<TRIPOS>SUBSTRUCTURE
  1 ****   2 GROUP 4 **** **** 0

# MOE 2024.06 (io_trps.svl 2023.06)
