@<TRIPOS>MOLECULE
NONAME
44 46 1 0 0 
SMALL
USER_CHARGES


@<TRIPOS>ATOM
  1 O        0.0270    -1.6050    -1.6850 O.2   1 <1>  -0.5700 
  2 C       -0.7640    -1.6190    -0.7750 C.2   1 <1>   0.5690 
  3 N       -0.7320    -2.4900     0.2660 N.am  1 <1>  -0.4200 
  4 C       -1.9170    -0.6460    -0.6370 C.3   1 <1>  -0.0190 
  5 C       -1.7400    -2.2530     1.1460 C.2   1 <1>   0.5690 
  6 C        0.2870    -3.5670     0.4370 C.3   1 <1>   0.2010 
  7 C       -2.5840    -1.0760     0.6990 C.3   1 <1>  -0.0190 
  8 C       -2.8220    -0.6360    -1.8840 C.3   1 <1>  -0.0220 
  9 O       -1.9560    -2.8860     2.1460 O.2   1 <1>  -0.5700 
 10 C        1.6750    -3.0320     0.7770 C.2   1 <1>   0.5690 
 11 C       -4.0840    -1.4240     0.6370 C.3   1 <1>  -0.0220 
 12 C       -4.2290    -0.2010    -1.5270 C.2   1 <1>  -0.2880 
 13 O        2.1710    -3.3660     1.8260 O.2   1 <1>  -0.5700 
 14 N        2.2930    -2.2110    -0.1280 N.am  1 <1>  -0.5470 
 15 C       -4.8030    -0.5600    -0.3790 C.2   1 <1>  -0.2880 
 16 C        3.5380    -1.5600    -0.1300 C.ar  1 <1>   0.1170 
 17 C        4.5480    -1.8170     0.7930 C.ar  1 <1>  -0.1500 
 18 C        3.7750    -0.6110    -1.1170 C.ar  1 <1>  -0.1500 
 19 C        5.7540    -1.1430     0.7370 C.ar  1 <1>  -0.1500 
 20 C        4.9790     0.0660    -1.1790 C.ar  1 <1>  -0.1500 
 21 C        5.9770    -0.1920    -0.2540 C.ar  1 <1>   0.0830 
 22 O        7.1290     0.5170    -0.3840 O.3   1 <1>  -0.3620 
 23 C        8.1940     0.3370     0.5190 C.3   1 <1>   0.1200 
 24 C        9.3230     1.2780     0.1110 C.3   1 <1>  -0.2400 
 25 H       -1.5100     0.3410    -0.5090 H     1 <1>   0.0800 
 26 H        0.3510    -4.1370    -0.4720 H     1 <1>   0.0800 
 27 H       -0.0240    -4.2330     1.2230 H     1 <1>   0.0800 
 28 H       -2.4530    -0.2830     1.4140 H     1 <1>   0.0800 
 29 H       -2.8710    -1.6170    -2.3250 H     1 <1>   0.0800 
 30 H       -2.4030     0.0330    -2.6160 H     1 <1>   0.0800 
 31 H       -4.5160    -1.2840     1.6140 H     1 <1>   0.0800 
 32 H       -4.2220    -2.4570     0.3640 H     1 <1>   0.0800 
 33 H       -4.7180     0.3920    -2.2840 H     1 <1>   0.1500 
 34 H        1.7060    -1.9710    -0.9390 H     1 <1>   0.3700 
 35 H       -5.8090    -0.2900    -0.1010 H     1 <1>   0.1500 
 36 H        4.4010    -2.5490     1.5650 H     1 <1>   0.1500 
 37 H        3.0120    -0.3960    -1.8440 H     1 <1>   0.1500 
 38 H        6.5030    -1.3730     1.4710 H     1 <1>   0.1500 
 39 H        5.1550     0.8000    -1.9440 H     1 <1>   0.1500 
 40 H        8.5150    -0.6890     0.4670 H     1 <1>   0.0800 
 41 H        7.8430     0.5710     1.5100 H     1 <1>   0.0800 
 42 H        9.6540     1.0460    -0.8860 H     1 <1>   0.0800 
 43 H       10.1540     1.1640     0.7840 H     1 <1>   0.0800 
 44 H        8.9860     2.2980     0.1500 H     1 <1>   0.0800 
@<TRIPOS>BOND
  1   1   2  2   
  2   2   3  am  
  3   2   4  1   
  4   3   5  am  
  5   3   6  1   
  6   4   7  1   
  7   4   8  1   
  8   4  25  1   
  9   5   7  1   
 10   5   9  2   
 11   6  10  1   
 12   6  26  1   
 13   6  27  1   
 14   7  11  1   
 15   7  28  1   
 16   8  12  1   
 17   8  29  1   
 18   8  30  1   
 19  10  13  2   
 20  10  14  am  
 21  11  15  1   
 22  11  31  1   
 23  11  32  1   
 24  12  15  2   
 25  12  33  1   
 26  14  16  1   
 27  14  34  1   
 28  15  35  1   
 29  16  17  ar  
 30  16  18  ar  
 31  17  19  ar  
 32  17  36  1   
 33  18  20  ar  
 34  18  37  1   
 35  19  21  ar  
 36  19  38  1   
 37  20  21  ar  
 38  20  39  1   
 39  21  22  1   
 40  22  23  1   
 41  23  24  1   
 42  23  40  1   
 43  23  41  1   
 44  24  42  1   
 45  24  43  1   
 46  24  44  1   
@<TRIPOS>SUBSTRUCTURE
  1 ****  14 GROUP 4 **** **** 0

# MOE 2024.06 (io_trps.svl 2023.06)
