@<TRIPOS>MOLECULE
NONAME
45 47 1 0 0 
SMALL
USER_CHARGES


@<TRIPOS>ATOM
  1 O       -2.2550     1.3880     1.9230 O.2   1 <1>  -0.5700 
  2 C       -1.9840     1.8660     0.8350 C.2   1 <1>   0.7150 
  3 N       -2.5820     1.3030    -0.2790 N.am  1 <1>  -0.6600 
  4 C       -1.1070     3.0110     0.7190 C.2   1 <1>   0.0550 
  5 C       -3.1820    -0.0520    -0.2100 C.3   1 <1>   0.1400 
  6 C       -3.0950     2.1400    -1.3870 C.3   1 <1>   0.1400 
  7 O       -1.1420     3.9960     1.6120 O.3   1 <1>  -0.2800 
  8 C       -0.1670     3.3200    -0.2200 C.2   1 <1>  -0.1500 
  9 C       -4.6780     0.1040     0.0630 C.3   1 <1>  -0.1600 
 10 C       -4.5910     2.3600    -1.1490 C.3   1 <1>  -0.1600 
 11 C       -0.2610     4.9090     1.2760 C.2   1 <1>  -0.0100 
 12 C        0.3800     4.5510     0.1430 C.2   1 <1>  -0.1500 
 13 C       -5.3300     1.0220    -0.9860 C.3   1 <1>   0.4230 
 14 N       -6.7710     1.2750    -0.6870 N.4   1 <1>  -0.9590 
 15 C       -7.0350     1.8410     0.6730 C.3   1 <1>   0.4860 
 16 C       -7.6190     0.0660    -0.9350 C.3   1 <1>   0.2630 
 17 C       -8.4440     2.3990     0.6830 C.ar  1 <1>  -0.1440 
 18 C       -9.4650     1.7120     1.3250 C.ar  1 <1>  -0.1500 
 19 C       -8.7230     3.6000     0.0460 C.ar  1 <1>  -0.1500 
 20 C      -10.7550     2.2130     1.3150 C.ar  1 <1>  -0.1500 
 21 C      -10.0140     4.0990     0.0370 C.ar  1 <1>  -0.1500 
 22 C      -11.0300     3.4050     0.6690 C.ar  1 <1>  -0.1500 
 23 H       -2.7180    -0.6260     0.5770 H     1 <1>   0.0800 
 24 H       -3.0110    -0.5670    -1.1400 H     1 <1>   0.0800 
 25 H       -2.9240     1.6380    -2.3250 H     1 <1>   0.0800 
 26 H       -2.5900     3.0910    -1.4190 H     1 <1>   0.0800 
 27 H        0.1230     2.7400    -1.0780 H     1 <1>   0.1500 
 28 H       -4.7780     0.5050     1.0550 H     1 <1>   0.0800 
 29 H       -5.1280    -0.8720     0.0410 H     1 <1>   0.0800 
 30 H       -4.9940     2.9010    -1.9850 H     1 <1>   0.0800 
 31 H       -4.6910     2.9680    -0.2680 H     1 <1>   0.0800 
 32 H       -0.1510     5.7820     1.8960 H     1 <1>   0.1500 
 33 H        1.1530     5.0810    -0.3850 H     1 <1>   0.1500 
 34 H       -5.2660     0.5150    -1.9360 H     1 <1>   0.0800 
 35 H       -7.1000     2.0000    -1.3380 H     1 <1>   0.4500 
 36 H       -6.3420     2.6340     0.8970 H     1 <1>   0.0800 
 37 H       -6.9320     1.0770     1.4260 H     1 <1>   0.0800 
 38 H       -7.3770    -0.7150    -0.2330 H     1 <1>   0.0800 
 39 H       -7.4610    -0.3050    -1.9350 H     1 <1>   0.0800 
 40 H       -8.6630     0.3130    -0.8260 H     1 <1>   0.0800 
 41 H       -9.2740     0.7860     1.8400 H     1 <1>   0.1500 
 42 H       -7.9490     4.1650    -0.4440 H     1 <1>   0.1500 
 43 H      -11.5480     1.6810     1.8120 H     1 <1>   0.1500 
 44 H      -10.2330     5.0310    -0.4570 H     1 <1>   0.1500 
 45 H      -12.0340     3.7950     0.6630 H     1 <1>   0.1500 
@<TRIPOS>BOND
  1   1   2  2   
  2   2   3  am  
  3   2   4  1   
  4   3   5  1   
  5   3   6  1   
  6   4   7  1   
  7   4   8  2   
  8   5   9  1   
  9   5  23  1   
 10   5  24  1   
 11   6  10  1   
 12   6  25  1   
 13   6  26  1   
 14   7  11  1   
 15   8  12  1   
 16   8  27  1   
 17   9  13  1   
 18   9  28  1   
 19   9  29  1   
 20  10  13  1   
 21  10  30  1   
 22  10  31  1   
 23  11  12  2   
 24  11  32  1   
 25  12  33  1   
 26  13  14  1   
 27  13  34  1   
 28  14  15  1   
 29  14  16  1   
 30  14  35  1   
 31  15  17  1   
 32  15  36  1   
 33  15  37  1   
 34  16  38  1   
 35  16  39  1   
 36  16  40  1   
 37  17  18  ar  
 38  17  19  ar  
 39  18  20  ar  
 40  18  41  1   
 41  19  21  ar  
 42  19  42  1   
 43  20  22  ar  
 44  20  43  1   
 45  21  22  ar  
 46  21  44  1   
 47  22  45  1   
@<TRIPOS>SUBSTRUCTURE
  1 ****  10 GROUP 4 **** **** 0

# MOE 2024.06 (io_trps.svl 2023.06)
