@<TRIPOS>MOLECULE
NONAME
47 49 1 0 0 
SMALL
USER_CHARGES


@<TRIPOS>ATOM
  1 O       -2.1080    -4.3720     1.4970 O.2   1 <1>  -0.5700 
  2 C       -2.2830    -4.6420     0.3320 C.2   1 <1>   0.6590 
  3 O       -1.2760    -5.0970    -0.4140 O.3   1 <1>  -0.4300 
  4 C       -3.6330    -4.5010    -0.3830 C.3   1 <1>   0.2680 
  5 C        0.0110    -5.3050     0.1160 C.3   1 <1>   0.2000 
  6 C       -4.2670    -3.1180    -0.1920 C.ar  1 <1>  -0.1440 
  7 C       -4.6190    -5.6270    -0.0490 C.ar  1 <1>  -0.1440 
  8 C        0.7570    -3.9690     0.1550 C.3   1 <1>  -0.1600 
  9 C        0.7300    -6.3090    -0.7840 C.3   1 <1>  -0.1600 
 10 C       -4.4220    -2.2650    -1.2770 C.ar  1 <1>  -0.1500 
 11 C       -4.6960    -2.6940     1.0590 C.ar  1 <1>  -0.1500 
 12 C       -5.4150    -6.1520    -1.0590 C.ar  1 <1>  -0.1500 
 13 C       -4.7440    -6.1440     1.2350 C.ar  1 <1>  -0.1500 
 14 C        2.2070    -4.1780     0.5800 C.3   1 <1>   0.3430 
 15 C        2.1820    -6.4790    -0.3460 C.3   1 <1>   0.3430 
 16 C       -4.9900    -1.0130    -1.1150 C.ar  1 <1>  -0.1500 
 17 C       -5.2650    -1.4430     1.2230 C.ar  1 <1>  -0.1500 
 18 C       -6.3070    -7.1780    -0.7960 C.ar  1 <1>  -0.1500 
 19 C       -5.6360    -7.1690     1.5000 C.ar  1 <1>  -0.1500 
 20 N        2.8690    -5.1520    -0.3390 N.4   1 <1>  -0.9590 
 21 C       -5.4110    -0.6010     0.1360 C.ar  1 <1>  -0.1500 
 22 C       -6.4160    -7.6890     0.4840 C.ar  1 <1>  -0.1500 
 23 C        4.3160    -5.3050     0.0050 C.3   1 <1>   0.2630 
 24 H       -3.4060    -4.5970    -1.4280 H     1 <1>   0.0800 
 25 H       -0.0890    -5.7150     1.1100 H     1 <1>   0.0800 
 26 H        0.2840    -3.3130     0.8640 H     1 <1>   0.0800 
 27 H        0.7300    -3.4970    -0.8110 H     1 <1>   0.0800 
 28 H        0.7000    -5.9800    -1.8070 H     1 <1>   0.0800 
 29 H        0.2320    -7.2610    -0.7200 H     1 <1>   0.0800 
 30 H       -4.1050    -2.5640    -2.2610 H     1 <1>   0.1500 
 31 H       -4.5900    -3.3350     1.9160 H     1 <1>   0.1500 
 32 H       -5.3520    -5.7650    -2.0610 H     1 <1>   0.1500 
 33 H       -4.1550    -5.7570     2.0490 H     1 <1>   0.1500 
 34 H        2.2340    -4.5520     1.5920 H     1 <1>   0.0800 
 35 H        2.7270    -3.2330     0.5560 H     1 <1>   0.0800 
 36 H        2.6840    -7.1520    -1.0230 H     1 <1>   0.0800 
 37 H        2.2120    -6.9100     0.6430 H     1 <1>   0.0800 
 38 H       -5.1060    -0.3600    -1.9620 H     1 <1>   0.1500 
 39 H       -5.5930    -1.1270     2.1980 H     1 <1>   0.1500 
 40 H       -6.9170    -7.5770    -1.5880 H     1 <1>   0.1500 
 41 H       -5.7240    -7.5610     2.4980 H     1 <1>   0.1500 
 42 H        2.8040    -4.7660    -1.2930 H     1 <1>   0.4500 
 43 H       -5.8530     0.3720     0.2640 H     1 <1>   0.1500 
 44 H       -7.1090    -8.4860     0.6890 H     1 <1>   0.1500 
 45 H        4.4260    -5.7070     1.0000 H     1 <1>   0.0800 
 46 H        4.8150    -4.3500    -0.0370 H     1 <1>   0.0800 
 47 H        4.7990    -5.9730    -0.6900 H     1 <1>   0.0800 
@<TRIPOS>BOND
  1   1   2  2   
  2   2   3  1   
  3   2   4  1   
  4   3   5  1   
  5   4   6  1   
  6   4   7  1   
  7   4  24  1   
  8   5   8  1   
  9   5   9  1   
 10   5  25  1   
 11   6  10  ar  
 12   6  11  ar  
 13   7  12  ar  
 14   7  13  ar  
 15   8  14  1   
 16   8  26  1   
 17   8  27  1   
 18   9  15  1   
 19   9  28  1   
 20   9  29  1   
 21  10  16  ar  
 22  10  30  1   
 23  11  17  ar  
 24  11  31  1   
 25  12  18  ar  
 26  12  32  1   
 27  13  19  ar  
 28  13  33  1   
 29  14  20  1   
 30  14  34  1   
 31  14  35  1   
 32  15  20  1   
 33  15  36  1   
 34  15  37  1   
 35  16  21  ar  
 36  16  38  1   
 37  17  21  ar  
 38  17  39  1   
 39  18  22  ar  
 40  18  40  1   
 41  19  22  ar  
 42  19  41  1   
 43  20  23  1   
 44  20  42  1   
 45  21  43  1   
 46  22  44  1   
 47  23  45  1   
 48  23  46  1   
 49  23  47  1   
@<TRIPOS>SUBSTRUCTURE
  1 ****   2 GROUP 4 **** **** 0

# MOE 2024.06 (io_trps.svl 2023.06)
