@<TRIPOS>MOLECULE
NONAME
49 51 1 0 0 
SMALL
USER_CHARGES


@<TRIPOS>ATOM
  1 S       -0.5060     1.3510     1.0980 S.o2  1 <1>   1.4470 
  2 O       -0.7660     2.3120     2.1480 O.2   1 <1>  -0.6500 
  3 O       -0.1110     0.0160     1.4960 O.2   1 <1>  -0.6500 
  4 N       -1.9390     1.1660     0.2120 N.am  1 <1>  -0.8490 
  5 C        0.7080     1.9440    -0.1150 C.ar  1 <1>  -0.0090 
  6 C       -2.9150     0.3480     0.9620 C.3   1 <1>   0.1960 
  7 C       -2.5590     2.4630    -0.1400 C.3   1 <1>   0.1960 
  8 C        0.8740     3.2980    -0.4160 C.ar  1 <1>   0.0820 
  9 C        1.5050     1.0320    -0.8000 C.ar  1 <1>  -0.1500 
 10 C       -4.2260     0.1280     0.1850 C.3   1 <1>   0.2090 
 11 C       -3.8640     2.2970    -0.9430 C.3   1 <1>   0.2090 
 12 O        0.1080     4.2300     0.1850 O.3   1 <1>  -0.3630 
 13 C        1.8010     3.7310    -1.3580 C.ar  1 <1>  -0.1500 
 14 C        2.4240     1.4760    -1.7300 C.ar  1 <1>   0.1900 
 15 N       -4.8330     1.4270    -0.2200 N.pl3 1 <1>  -0.8380 
 16 C        0.7130     4.9790     1.2170 C.3   1 <1>   0.0400 
 17 C        2.5910     2.8140    -2.0250 C.ar  1 <1>  -0.1500 
 18 F        3.1620     0.5980    -2.3560 F     1 <1>  -0.1900 
 19 C       -6.1300     1.3790    -0.7320 C.ar  1 <1>   0.1000 
 20 C       -7.2020     1.9430    -0.0320 C.ar  1 <1>  -0.1430 
 21 C       -6.3640     0.7640    -1.9560 C.ar  1 <1>  -0.1500 
 22 C       -8.4870     1.8840    -0.5680 C.ar  1 <1>  -0.1430 
 23 C       -6.9060     2.6100     1.3110 C.3   1 <1>  -0.0970 
 24 C       -7.6360     0.7040    -2.4860 C.ar  1 <1>  -0.1500 
 25 C       -8.6920     1.2640    -1.7920 C.ar  1 <1>  -0.1500 
 26 C       -9.6950     2.4810     0.1400 C.3   1 <1>  -0.0970 
 27 H       -3.1450     0.8250     1.9010 H     1 <1>   0.0800 
 28 H       -2.4870    -0.6160     1.1790 H     1 <1>   0.0800 
 29 H       -1.8770     3.0390    -0.7380 H     1 <1>   0.0800 
 30 H       -2.7760     3.0250     0.7530 H     1 <1>   0.0800 
 31 H        1.4140    -0.0240    -0.6110 H     1 <1>   0.1500 
 32 H       -4.9240    -0.4100     0.8030 H     1 <1>   0.0800 
 33 H       -4.0240    -0.4660    -0.6890 H     1 <1>   0.0800 
 34 H       -3.6370     1.8670    -1.9030 H     1 <1>   0.0800 
 35 H       -4.3100     3.2630    -1.1050 H     1 <1>   0.0800 
 36 H        1.8950     4.7820    -1.5700 H     1 <1>   0.1500 
 37 H       -0.0260     5.6420     1.6290 H     1 <1>   0.0800 
 38 H        1.5330     5.5450     0.8110 H     1 <1>   0.0800 
 39 H        1.0610     4.3050     1.9800 H     1 <1>   0.0800 
 40 H        3.3160     3.1220    -2.7570 H     1 <1>   0.1500 
 41 H       -5.5410     0.3320    -2.4930 H     1 <1>   0.1500 
 42 H       -6.4250     1.9030     1.9620 H     1 <1>   0.0800 
 43 H       -7.7830     2.9750     1.8070 H     1 <1>   0.0800 
 44 H       -6.2370     3.4370     1.1570 H     1 <1>   0.0800 
 45 H       -7.8080     0.2260    -3.4340 H     1 <1>   0.1500 
 46 H       -9.6790     1.2110    -2.2160 H     1 <1>   0.1500 
 47 H       -9.5450     3.5340     0.2960 H     1 <1>   0.0800 
 48 H       -9.8390     1.9980     1.0890 H     1 <1>   0.0800 
 49 H      -10.5900     2.3530    -0.4420 H     1 <1>   0.0800 
@<TRIPOS>BOND
  1   1   2  2   
  2   1   3  2   
  3   1   4  am  
  4   1   5  1   
  5   4   6  1   
  6   4   7  1   
  7   5   8  ar  
  8   5   9  ar  
  9   6  10  1   
 10   6  27  1   
 11   6  28  1   
 12   7  11  1   
 13   7  29  1   
 14   7  30  1   
 15   8  12  1   
 16   8  13  ar  
 17   9  14  ar  
 18   9  31  1   
 19  10  15  1   
 20  10  32  1   
 21  10  33  1   
 22  11  15  1   
 23  11  34  1   
 24  11  35  1   
 25  12  16  1   
 26  13  17  ar  
 27  13  36  1   
 28  14  17  ar  
 29  14  18  1   
 30  15  19  1   
 31  16  37  1   
 32  16  38  1   
 33  16  39  1   
 34  17  40  1   
 35  19  20  ar  
 36  19  21  ar  
 37  20  22  ar  
 38  20  23  1   
 39  21  24  ar  
 40  21  41  1   
 41  22  25  ar  
 42  22  26  1   
 43  23  42  1   
 44  23  43  1   
 45  23  44  1   
 46  24  25  ar  
 47  24  45  1   
 48  25  46  1   
 49  26  47  1   
 50  26  48  1   
 51  26  49  1   
@<TRIPOS>SUBSTRUCTURE
  1 ****   7 GROUP 4 **** **** 0

# MOE 2024.06 (io_trps.svl 2023.06)
