@<TRIPOS>MOLECULE
NONAME
39 41 1 0 0 
SMALL
USER_CHARGES


@<TRIPOS>ATOM
  1 O        0.0800     1.6180     1.5440 O.2   1 <1>  -0.5700 
  2 C        0.3810     2.0040     0.4390 C.2   1 <1>   0.5690 
  3 N        1.6010     1.7570    -0.0990 N.am  1 <1>  -0.7300 
  4 C       -0.6320     2.7970    -0.3910 C.3   1 <1>  -0.0190 
  5 C        2.6940     1.0110     0.5580 C.3   1 <1>   0.2200 
  6 C       -1.0210     4.1130     0.3010 C.3   1 <1>  -0.2400 
  7 C       -1.8900     1.9650    -0.6880 C.3   1 <1>  -0.2400 
  8 C        3.9370     1.9130     0.7140 C.3   1 <1>  -0.0800 
  9 C        3.0640    -0.2370    -0.2720 C.3   1 <1>  -0.0800 
 10 C        5.0210     1.1210     1.4750 C.3   1 <1>  -0.1600 
 11 C        4.5020     2.3160    -0.6680 C.3   1 <1>  -0.1600 
 12 C        4.1490    -1.0250     0.4900 C.3   1 <1>  -0.1600 
 13 C        3.6290     0.1680    -1.6530 C.3   1 <1>  -0.1600 
 14 C        5.4020    -0.1470     0.6840 C.3   1 <1>  -0.0800 
 15 C        4.8760     1.0560    -1.4730 C.3   1 <1>  -0.0800 
 16 C        5.9460     0.2650    -0.6970 C.3   1 <1>  -0.1600 
 17 H        1.8300     2.0920    -1.0320 H     1 <1>   0.3700 
 18 H       -0.1730     3.0440    -1.3320 H     1 <1>   0.0800 
 19 H        2.3640     0.6970     1.5350 H     1 <1>   0.0800 
 20 H       -1.4970     3.9090     1.2450 H     1 <1>   0.0800 
 21 H       -1.6970     4.6800    -0.3140 H     1 <1>   0.0800 
 22 H       -0.1430     4.7060     0.4860 H     1 <1>   0.0800 
 23 H       -2.3890     1.7050     0.2300 H     1 <1>   0.0800 
 24 H       -1.6200     1.0560    -1.1960 H     1 <1>   0.0800 
 25 H       -2.5730     2.5170    -1.3090 H     1 <1>   0.0800 
 26 H        3.6730     2.7880     1.2810 H     1 <1>   0.0800 
 27 H        2.1930    -0.8570    -0.3910 H     1 <1>   0.0800 
 28 H        4.6550     0.8470     2.4490 H     1 <1>   0.0800 
 29 H        5.8920     1.7380     1.6160 H     1 <1>   0.0800 
 30 H        5.3750     2.9320    -0.5340 H     1 <1>   0.0800 
 31 H        3.7810     2.9000    -1.2120 H     1 <1>   0.0800 
 32 H        4.4080    -1.9140    -0.0590 H     1 <1>   0.0800 
 33 H        3.7690    -1.3340     1.4490 H     1 <1>   0.0800 
 34 H        2.8840     0.6910    -2.2250 H     1 <1>   0.0800 
 35 H        3.8930    -0.7160    -2.2070 H     1 <1>   0.0800 
 36 H        6.1540    -0.6990     1.2220 H     1 <1>   0.0800 
 37 H        5.2640     1.3410    -2.4370 H     1 <1>   0.0800 
 38 H        6.2270    -0.6110    -1.2540 H     1 <1>   0.0800 
 39 H        6.8280     0.8690    -0.5750 H     1 <1>   0.0800 
@<TRIPOS>BOND
  1   1   2  2   
  2   2   3  am  
  3   2   4  1   
  4   3   5  1   
  5   3  17  1   
  6   4   6  1   
  7   4   7  1   
  8   4  18  1   
  9   5   8  1   
 10   5   9  1   
 11   5  19  1   
 12   6  20  1   
 13   6  21  1   
 14   6  22  1   
 15   7  23  1   
 16   7  24  1   
 17   7  25  1   
 18   8  10  1   
 19   8  11  1   
 20   8  26  1   
 21   9  12  1   
 22   9  13  1   
 23   9  27  1   
 24  10  14  1   
 25  10  28  1   
 26  10  29  1   
 27  11  15  1   
 28  11  30  1   
 29  11  31  1   
 30  12  14  1   
 31  12  32  1   
 32  12  33  1   
 33  13  15  1   
 34  13  34  1   
 35  13  35  1   
 36  14  16  1   
 37  14  36  1   
 38  15  16  1   
 39  15  37  1   
 40  16  38  1   
 41  16  39  1   
@<TRIPOS>SUBSTRUCTURE
  1 ****   5 GROUP 4 **** **** 0

# MOE 2024.06 (io_trps.svl 2023.06)
