@<TRIPOS>MOLECULE
NONAME
44 47 1 0 0 
SMALL
USER_CHARGES


@<TRIPOS>ATOM
  1 S        0.0480    -0.6160     0.8340 S.3   1 <1>  -0.0800 
  2 C       -1.5290     0.1230     0.7780 C.2   1 <1>  -0.1400 
  3 C       -0.5820    -1.9650    -0.0810 C.2   1 <1>   0.2280 
  4 C       -2.3580    -0.6890     0.0970 C.2   1 <1>   0.0460 
  5 C       -1.6900     1.4680     1.4630 C.3   1 <1>   0.0200 
  6 N       -1.8120    -1.8660    -0.3860 N.2   1 <1>  -0.5650 
  7 C       -3.8240    -0.4670    -0.2080 C.3   1 <1>  -0.0590 
  8 C       -0.9350     2.5470     0.6920 C.3   1 <1>   0.1200 
  9 O       -1.1590     3.7850     1.3250 O.3   1 <1>  -0.4300 
 10 C       -0.9260     4.9640     0.7520 C.2   1 <1>   0.6590 
 11 O       -1.8280     5.7580     0.6980 O.2   1 <1>  -0.5700 
 12 C        0.5000     5.3180     0.2510 C.3   1 <1>   0.0610 
 13 C        0.8000     4.6860    -1.1350 C.3   1 <1>  -0.1600 
 14 C        1.5880     4.8600     1.2610 C.3   1 <1>  -0.1600 
 15 C        0.6420     6.8590     0.0960 C.3   1 <1>  -0.1600 
 16 C        2.2100     5.0650    -1.6250 C.3   1 <1>  -0.0800 
 17 C        2.9980     5.2340     0.7690 C.3   1 <1>  -0.0800 
 18 C        2.0470     7.2560    -0.3930 C.3   1 <1>  -0.0800 
 19 C        3.2510     4.5750    -0.6000 C.3   1 <1>  -0.1600 
 20 C        2.3090     6.5950    -1.7570 C.3   1 <1>  -0.1600 
 21 C        3.0930     6.7620     0.6220 C.3   1 <1>  -0.1600 
 22 H        0.1010    -2.7630    -0.3140 H     1 <1>   0.1500 
 23 H       -1.3100     1.4030     2.4670 H     1 <1>   0.0800 
 24 H       -2.7310     1.7310     1.5080 H     1 <1>   0.0800 
 25 H       -4.1670     0.4710     0.1850 H     1 <1>   0.0800 
 26 H       -4.4040    -1.2600     0.2280 H     1 <1>   0.0800 
 27 H       -3.9740    -0.4740    -1.2720 H     1 <1>   0.0800 
 28 H       -1.3040     2.6080    -0.3180 H     1 <1>   0.0800 
 29 H        0.1180     2.3360     0.6870 H     1 <1>   0.0800 
 30 H        0.0680     5.0240    -1.8490 H     1 <1>   0.0800 
 31 H        0.7370     3.6170    -1.0910 H     1 <1>   0.0800 
 32 H        1.4070     5.3210     2.2170 H     1 <1>   0.0800 
 33 H        1.5490     3.7970     1.4080 H     1 <1>   0.0800 
 34 H        0.4430     7.3370     1.0390 H     1 <1>   0.0800 
 35 H       -0.0890     7.2230    -0.6050 H     1 <1>   0.0800 
 36 H        2.3990     4.6070    -2.5810 H     1 <1>   0.0800 
 37 H        3.7340     4.8930     1.4780 H     1 <1>   0.0800 
 38 H        2.1100     8.3270    -0.4890 H     1 <1>   0.0800 
 39 H        4.2410     4.8220    -0.9430 H     1 <1>   0.0800 
 40 H        3.1970     3.5040    -0.5070 H     1 <1>   0.0800 
 41 H        3.2880     6.8680    -2.1120 H     1 <1>   0.0800 
 42 H        1.5910     6.9470    -2.4770 H     1 <1>   0.0800 
 43 H        4.0790     7.0370     0.2910 H     1 <1>   0.0800 
 44 H        2.9260     7.2330     1.5750 H     1 <1>   0.0800 
@<TRIPOS>BOND
  1   1   2  1   
  2   1   3  1   
  3   2   4  2   
  4   2   5  1   
  5   3   6  2   
  6   3  22  1   
  7   4   6  1   
  8   4   7  1   
  9   5   8  1   
 10   5  23  1   
 11   5  24  1   
 12   7  25  1   
 13   7  26  1   
 14   7  27  1   
 15   8   9  1   
 16   8  28  1   
 17   8  29  1   
 18   9  10  1   
 19  10  11  2   
 20  10  12  1   
 21  12  13  1   
 22  12  14  1   
 23  12  15  1   
 24  13  16  1   
 25  13  30  1   
 26  13  31  1   
 27  14  17  1   
 28  14  32  1   
 29  14  33  1   
 30  15  18  1   
 31  15  34  1   
 32  15  35  1   
 33  16  19  1   
 34  16  20  1   
 35  16  36  1   
 36  17  19  1   
 37  17  21  1   
 38  17  37  1   
 39  18  20  1   
 40  18  21  1   
 41  18  38  1   
 42  19  39  1   
 43  19  40  1   
 44  20  41  1   
 45  20  42  1   
 46  21  43  1   
 47  21  44  1   
@<TRIPOS>SUBSTRUCTURE
  1 ****   8 GROUP 4 **** **** 0

# MOE 2024.06 (io_trps.svl 2023.06)
