@<TRIPOS>MOLECULE
NONAME
39 39 1 0 0 
SMALL
USER_CHARGES


@<TRIPOS>ATOM
  1 CL      -0.4920     0.4810    -0.7690 Cl    1 <1>  -0.1770 
  2 C       -1.8350    -0.6080    -0.5240 C.ar  1 <1>   0.1770 
  3 C       -3.0110    -0.1230     0.0140 C.ar  1 <1>  -0.1500 
  4 C       -1.7000    -1.9380    -0.8720 C.ar  1 <1>  -0.1500 
  5 C       -4.0830    -0.9810     0.2110 C.ar  1 <1>  -0.1440 
  6 C       -2.7650    -2.8000    -0.6780 C.ar  1 <1>  -0.1500 
  7 C       -3.9610    -2.3270    -0.1350 C.ar  1 <1>   0.0830 
  8 C       -5.3760    -0.4370     0.8030 C.3   1 <1>  -0.0960 
  9 O       -5.0390    -3.1270     0.0800 O.3   1 <1>  -0.3630 
 10 C       -5.0080    -4.5020    -0.2100 C.3   1 <1>   0.1200 
 11 C       -6.3760    -5.0770     0.1750 C.3   1 <1>   0.3430 
 12 N       -6.5050    -6.5550    -0.0710 N.4   1 <1>  -0.9590 
 13 C       -7.8990    -7.0210     0.0890 C.3   1 <1>   0.4810 
 14 C       -5.5770    -7.3690     0.7450 C.3   1 <1>   0.4810 
 15 C       -8.6570    -6.5690    -1.1360 C.2   1 <1>  -0.2880 
 16 C       -4.3500    -7.6960    -0.0880 C.2   1 <1>  -0.2880 
 17 C       -9.0130    -7.3590    -2.1540 C.2   1 <1>  -0.3000 
 18 C       -4.1150    -7.4910    -1.3920 C.2   1 <1>  -0.3000 
 19 H       -3.0770     0.9190     0.2710 H     1 <1>   0.1500 
 20 H       -0.7710    -2.2850    -1.2890 H     1 <1>   0.1500 
 21 H       -2.6350    -3.8280    -0.9570 H     1 <1>   0.1500 
 22 H       -5.2960     0.6150     1.0090 H     1 <1>   0.0800 
 23 H       -5.6000    -0.9480     1.7220 H     1 <1>   0.0800 
 24 H       -6.1860    -0.5890     0.1130 H     1 <1>   0.0800 
 25 H       -4.2180    -4.9440     0.3710 H     1 <1>   0.0800 
 26 H       -4.8250    -4.6170    -1.2640 H     1 <1>   0.0800 
 27 H       -7.1210    -4.5540    -0.4010 H     1 <1>   0.0800 
 28 H       -6.5520    -4.8700     1.2170 H     1 <1>   0.0800 
 29 H       -6.2660    -6.7560    -1.0490 H     1 <1>   0.4500 
 30 H       -8.3450    -6.6280     0.9890 H     1 <1>   0.0800 
 31 H       -7.9220    -8.0980     0.1310 H     1 <1>   0.0800 
 32 H       -6.0470    -8.2930     1.0450 H     1 <1>   0.0800 
 33 H       -5.2920    -6.8300     1.6350 H     1 <1>   0.0800 
 34 H       -8.9040    -5.5200    -1.1210 H     1 <1>   0.1500 
 35 H       -3.6010    -8.1710     0.5270 H     1 <1>   0.1500 
 36 H       -9.5610    -7.0130    -3.0170 H     1 <1>   0.1500 
 37 H       -8.8030    -8.4140    -2.2260 H     1 <1>   0.1500 
 38 H       -3.1890    -7.7800    -1.8670 H     1 <1>   0.1500 
 39 H       -4.7760    -7.0430    -2.1140 H     1 <1>   0.1500 
@<TRIPOS>BOND
  1   1   2  1   
  2   2   3  ar  
  3   2   4  ar  
  4   3   5  ar  
  5   3  19  1   
  6   4   6  ar  
  7   4  20  1   
  8   5   7  ar  
  9   5   8  1   
 10   6   7  ar  
 11   6  21  1   
 12   7   9  1   
 13   8  22  1   
 14   8  23  1   
 15   8  24  1   
 16   9  10  1   
 17  10  11  1   
 18  10  25  1   
 19  10  26  1   
 20  11  12  1   
 21  11  27  1   
 22  11  28  1   
 23  12  13  1   
 24  12  14  1   
 25  12  29  1   
 26  13  15  1   
 27  13  30  1   
 28  13  31  1   
 29  14  16  1   
 30  14  32  1   
 31  14  33  1   
 32  15  17  2   
 33  15  34  1   
 34  16  18  2   
 35  16  35  1   
 36  17  36  1   
 37  17  37  1   
 38  18  38  1   
 39  18  39  1   
@<TRIPOS>SUBSTRUCTURE
  1 ****  10 GROUP 4 **** **** 0

# MOE 2024.06 (io_trps.svl 2023.06)
