@<TRIPOS>MOLECULE
NONAME
46 48 1 0 0 
SMALL
USER_CHARGES


@<TRIPOS>ATOM
  1 CL      -0.8630     1.7810    -2.1000 Cl    1 <1>  -0.1770 
  2 C       -0.7770     2.4130    -0.4670 C.ar  1 <1>   0.1770 
  3 C       -1.9370     2.4610     0.3060 C.ar  1 <1>   0.1170 
  4 C        0.4460     2.8480     0.0060 C.ar  1 <1>  -0.1500 
  5 N       -3.1470     1.9990    -0.2510 N.am  1 <1>  -0.5470 
  6 C       -1.8220     2.9750     1.5960 C.ar  1 <1>  -0.1500 
  7 C        0.5340     3.3520     1.2920 C.ar  1 <1>  -0.1500 
  8 C       -4.3960     1.8070     0.2750 C.2   1 <1>   0.5690 
  9 C       -0.6020     3.4140     2.0820 C.ar  1 <1>  -0.1500 
 10 O       -4.6750     2.0250     1.4290 O.2   1 <1>  -0.5700 
 11 C       -5.4760     1.2700    -0.6640 C.3   1 <1>  -0.0190 
 12 C       -6.8260     1.9890    -0.4730 C.3   1 <1>  -0.1600 
 13 C       -5.6540    -0.2480    -0.4810 C.3   1 <1>  -0.1600 
 14 C       -7.9120     1.4130    -1.3840 C.3   1 <1>   0.1400 
 15 C       -6.7430    -0.8060    -1.4020 C.3   1 <1>   0.1400 
 16 N       -8.0110    -0.0590    -1.1800 N.am  1 <1>  -0.6600 
 17 C       -9.1710    -0.6980    -0.7850 C.2   1 <1>   0.5440 
 18 O       -9.1830    -1.9120    -0.6990 O.2   1 <1>  -0.5700 
 19 C      -10.3750     0.0470    -0.4730 C.ar  1 <1>   0.0860 
 20 C      -10.6620     0.4900     0.8230 C.ar  1 <1>  -0.1430 
 21 C      -11.2780     0.3550    -1.4890 C.ar  1 <1>  -0.1500 
 22 C      -11.8090     1.2280     1.0710 C.ar  1 <1>  -0.1500 
 23 C       -9.7210     0.1580     1.9740 C.3   1 <1>  -0.0970 
 24 C      -12.4220     1.0900    -1.2380 C.ar  1 <1>  -0.1500 
 25 C      -12.6860     1.5310     0.0450 C.ar  1 <1>  -0.1500 
 26 H        1.3160     2.7930    -0.6230 H     1 <1>   0.1500 
 27 H       -3.0510     1.7240    -1.2290 H     1 <1>   0.3700 
 28 H       -2.6830     3.0400     2.2350 H     1 <1>   0.1500 
 29 H        1.4800     3.6950     1.6770 H     1 <1>   0.1500 
 30 H       -0.5370     3.8060     3.0830 H     1 <1>   0.1500 
 31 H       -5.1570     1.4470    -1.6760 H     1 <1>   0.0800 
 32 H       -6.7090     3.0390    -0.6780 H     1 <1>   0.0800 
 33 H       -7.1480     1.8950     0.5490 H     1 <1>   0.0800 
 34 H       -5.9240    -0.4620     0.5390 H     1 <1>   0.0800 
 35 H       -4.7270    -0.7540    -0.6850 H     1 <1>   0.0800 
 36 H       -7.6660     1.6040    -2.4140 H     1 <1>   0.0800 
 37 H       -8.8480     1.9000    -1.1730 H     1 <1>   0.0800 
 38 H       -6.8750    -1.8560    -1.2030 H     1 <1>   0.0800 
 39 H       -6.4500    -0.6990    -2.4320 H     1 <1>   0.0800 
 40 H      -11.0730     0.0060    -2.4860 H     1 <1>   0.1500 
 41 H      -12.0290     1.5710     2.0670 H     1 <1>   0.1500 
 42 H       -8.7480     0.5760     1.7930 H     1 <1>   0.0800 
 43 H       -9.6230    -0.9100     2.0680 H     1 <1>   0.0800 
 44 H      -10.0910     0.5470     2.9050 H     1 <1>   0.0800 
 45 H      -13.1060     1.3170    -2.0380 H     1 <1>   0.1500 
 46 H      -13.5740     2.1040     0.2460 H     1 <1>   0.1500 
@<TRIPOS>BOND
  1   1   2  1   
  2   2   3  ar  
  3   2   4  ar  
  4   3   5  1   
  5   3   6  ar  
  6   4   7  ar  
  7   4  26  1   
  8   5   8  am  
  9   5  27  1   
 10   6   9  ar  
 11   6  28  1   
 12   7   9  ar  
 13   7  29  1   
 14   8  10  2   
 15   8  11  1   
 16   9  30  1   
 17  11  12  1   
 18  11  13  1   
 19  11  31  1   
 20  12  14  1   
 21  12  32  1   
 22  12  33  1   
 23  13  15  1   
 24  13  34  1   
 25  13  35  1   
 26  14  16  1   
 27  14  36  1   
 28  14  37  1   
 29  15  16  1   
 30  15  38  1   
 31  15  39  1   
 32  16  17  am  
 33  17  18  2   
 34  17  19  1   
 35  19  20  ar  
 36  19  21  ar  
 37  20  22  ar  
 38  20  23  1   
 39  21  24  ar  
 40  21  40  1   
 41  22  25  ar  
 42  22  41  1   
 43  23  42  1   
 44  23  43  1   
 45  23  44  1   
 46  24  25  ar  
 47  24  45  1   
 48  25  46  1   
@<TRIPOS>SUBSTRUCTURE
  1 ****  11 GROUP 4 **** **** 0

# MOE 2024.06 (io_trps.svl 2023.06)
