@<TRIPOS>MOLECULE
NONAME
38 39 1 0 0 
SMALL
USER_CHARGES


@<TRIPOS>ATOM
  1 S       -0.3460    -1.4140     0.6540 S.3   1 <1>  -0.3710 
  2 C       -1.3170     0.0690     0.5150 C.2   1 <1>   0.6510 
  3 C        1.2830    -0.8060     1.3370 C.3   1 <1>   0.1310 
  4 N       -0.8700     1.1470     1.0200 N.2   1 <1>  -0.6210 
  5 N       -2.4920    -0.0710    -0.1400 N.am  1 <1>  -0.4900 
  6 C        2.2280    -0.3780     0.2130 C.2   1 <1>   0.5690 
  7 C       -1.6070     2.2850     0.8410 C.2   1 <1>   0.0210 
  8 C       -3.2850     1.0230    -0.3170 C.2   1 <1>   0.6160 
  9 O        2.7600    -1.2820    -0.3960 O.2   1 <1>  -0.5700 
 10 N        2.5050     0.9370    -0.0940 N.am  1 <1>  -0.6600 
 11 O       -1.0970     3.3200     1.2840 O.3   1 <1>  -0.8500 
 12 C       -2.8340     2.2450     0.1790 C.2   1 <1>  -0.1240 
 13 O       -4.3520     0.8250    -0.9190 O.2   1 <1>  -0.5700 
 14 C        3.2560     1.2860    -1.3330 C.3   1 <1>   0.1400 
 15 C        1.9430     2.1360     0.6120 C.3   1 <1>   0.1400 
 16 C       -3.6550     3.5160    -0.0010 C.3   1 <1>  -0.0220 
 17 C        4.3940     2.2590    -1.0080 C.3   1 <1>  -0.1600 
 18 C        3.0580     3.1380     0.9330 C.3   1 <1>  -0.1600 
 19 C       -3.3530     4.1700    -1.3510 C.3   1 <1>  -0.2400 
 20 C        3.8650     3.5200    -0.3130 C.3   1 <1>  -0.1600 
 21 H        1.7150    -1.6390     1.8550 H     1 <1>   0.0800 
 22 H        1.0840    -0.0300     2.0470 H     1 <1>   0.0800 
 23 H       -2.7870    -0.9550    -0.5240 H     1 <1>   0.3700 
 24 H        2.5740     1.7440    -2.0280 H     1 <1>   0.0800 
 25 H        3.6620     0.4040    -1.7970 H     1 <1>   0.0800 
 26 H        1.4630     1.8730     1.5340 H     1 <1>   0.0800 
 27 H        1.1990     2.6030    -0.0130 H     1 <1>   0.0800 
 28 H       -3.4150     4.2040     0.7910 H     1 <1>   0.0800 
 29 H       -4.7030     3.2850     0.0700 H     1 <1>   0.0800 
 30 H        4.8980     2.5320    -1.9170 H     1 <1>   0.0800 
 31 H        5.1050     1.7600    -0.3720 H     1 <1>   0.0800 
 32 H        3.7060     2.7060     1.6740 H     1 <1>   0.0800 
 33 H        2.6090     4.0180     1.3600 H     1 <1>   0.0800 
 34 H       -2.3030     4.4020    -1.4030 H     1 <1>   0.0800 
 35 H       -3.9180     5.0780    -1.4580 H     1 <1>   0.0800 
 36 H       -3.6040     3.4990    -2.1530 H     1 <1>   0.0800 
 37 H        3.2280     4.0620    -0.9910 H     1 <1>   0.0800 
 38 H        4.6840     4.1600    -0.0360 H     1 <1>   0.0800 
@<TRIPOS>BOND
  1   1   2  1   
  2   1   3  1   
  3   2   4  2   
  4   2   5  1   
  5   3   6  1   
  6   3  21  1   
  7   3  22  1   
  8   4   7  1   
  9   5   8  am  
 10   5  23  1   
 11   6   9  2   
 12   6  10  am  
 13   7  11  1   
 14   7  12  2   
 15   8  12  1   
 16   8  13  2   
 17  10  14  1   
 18  10  15  1   
 19  12  16  1   
 20  14  17  1   
 21  14  24  1   
 22  14  25  1   
 23  15  18  1   
 24  15  26  1   
 25  15  27  1   
 26  16  19  1   
 27  16  28  1   
 28  16  29  1   
 29  17  20  1   
 30  17  30  1   
 31  17  31  1   
 32  18  20  1   
 33  18  32  1   
 34  18  33  1   
 35  19  34  1   
 36  19  35  1   
 37  19  36  1   
 38  20  37  1   
 39  20  38  1   
@<TRIPOS>SUBSTRUCTURE
  1 ****   4 GROUP 4 **** **** 0

# MOE 2024.06 (io_trps.svl 2023.06)
