@<TRIPOS>MOLECULE
NONAME
34 34 1 0 0 
SMALL
USER_CHARGES


@<TRIPOS>ATOM
  1 S        0.1580     0.1650     1.2270 S.o2  1 <1>   1.4470 
  2 O        0.5740     0.3370     2.6040 O.2   1 <1>  -0.6500 
  3 O        0.0680    -1.1690     0.6750 O.2   1 <1>  -0.6500 
  4 N        1.2450     1.0560     0.2740 N.am  1 <1>  -0.8490 
  5 C       -1.4190     1.0190     0.9370 C.ar  1 <1>  -0.0090 
  6 C        2.4430     0.2840    -0.0690 C.3   1 <1>   0.1960 
  7 C        1.5710     2.3500     0.8740 C.3   1 <1>   0.1960 
  8 C       -1.8760     1.2540    -0.3520 C.ar  1 <1>  -0.1500 
  9 C       -2.2150     1.4580     1.9860 C.ar  1 <1>  -0.1500 
 10 C        2.2980    -0.2270    -1.4980 C.3   1 <1>  -0.2400 
 11 C        2.0170     3.3270    -0.2120 C.3   1 <1>  -0.2400 
 12 C       -3.0750     1.9040    -0.5880 C.ar  1 <1>  -0.1500 
 13 C       -3.4130     2.1090     1.7530 C.ar  1 <1>  -0.1500 
 14 C       -3.8820     2.3520     0.4610 C.ar  1 <1>   0.0860 
 15 C       -5.1450     3.0390     0.2590 C.2   1 <1>   0.4230 
 16 O       -5.8140     3.4630     1.1640 O.2   1 <1>  -0.5700 
 17 C       -5.6860     3.2540    -1.1420 C.3   1 <1>  -0.1790 
 18 H        2.5770    -0.5410     0.6130 H     1 <1>   0.0800 
 19 H        3.3270     0.8960    -0.0110 H     1 <1>   0.0800 
 20 H        2.3320     2.2340     1.6290 H     1 <1>   0.0800 
 21 H        0.6960     2.7620     1.3500 H     1 <1>   0.0800 
 22 H       -1.2760     0.9200    -1.1840 H     1 <1>   0.1500 
 23 H       -1.8920     1.2890     3.0010 H     1 <1>   0.1500 
 24 H        1.4490    -0.8830    -1.5790 H     1 <1>   0.0800 
 25 H        3.1780    -0.7770    -1.7760 H     1 <1>   0.0800 
 26 H        2.1780     0.5980    -2.1760 H     1 <1>   0.0800 
 27 H        2.9310     3.0060    -0.6760 H     1 <1>   0.0800 
 28 H        2.1850     4.2950     0.2240 H     1 <1>   0.0800 
 29 H        1.2510     3.4190    -0.9610 H     1 <1>   0.0800 
 30 H       -3.3750     2.0580    -1.6080 H     1 <1>   0.1500 
 31 H       -4.0050     2.4370     2.5920 H     1 <1>   0.1500 
 32 H       -5.8120     2.3090    -1.6380 H     1 <1>   0.0800 
 33 H       -5.0150     3.8760    -1.7040 H     1 <1>   0.0800 
 34 H       -6.6430     3.7420    -1.0910 H     1 <1>   0.0800 
@<TRIPOS>BOND
  1   1   2  2   
  2   1   3  2   
  3   1   4  am  
  4   1   5  1   
  5   4   6  1   
  6   4   7  1   
  7   5   8  ar  
  8   5   9  ar  
  9   6  10  1   
 10   6  18  1   
 11   6  19  1   
 12   7  11  1   
 13   7  20  1   
 14   7  21  1   
 15   8  12  ar  
 16   8  22  1   
 17   9  13  ar  
 18   9  23  1   
 19  10  24  1   
 20  10  25  1   
 21  10  26  1   
 22  11  27  1   
 23  11  28  1   
 24  11  29  1   
 25  12  14  ar  
 26  12  30  1   
 27  13  14  ar  
 28  13  31  1   
 29  14  15  1   
 30  15  16  2   
 31  15  17  1   
 32  17  32  1   
 33  17  33  1   
 34  17  34  1   
@<TRIPOS>SUBSTRUCTURE
  1 ****   5 GROUP 4 **** **** 0

# MOE 2024.06 (io_trps.svl 2023.06)
