@<TRIPOS>MOLECULE
NONAME
46 47 1 0 0 
SMALL
USER_CHARGES


@<TRIPOS>ATOM
  1 N        0.6980    -0.2250     0.4530 N.4   1 <1>  -0.9590 
  2 C        0.4200     1.2310     0.6400 C.3   1 <1>   0.3430 
  3 C        1.5390    -0.5190    -0.7450 C.3   1 <1>   0.3430 
  4 C       -0.5930    -0.9890     0.3750 C.3   1 <1>   0.2630 
  5 C        1.7330     2.0110     0.7340 C.3   1 <1>  -0.1600 
  6 C        2.8610     0.2470    -0.6600 C.3   1 <1>  -0.1600 
  7 C        2.6030     1.7480    -0.5020 C.3   1 <1>   0.4230 
  8 N        3.8920     2.5010    -0.4710 N.4   1 <1>  -0.9590 
  9 C        4.7590     2.2940     0.7320 C.3   1 <1>   0.4860 
 10 C        3.7060     3.9700    -0.7290 C.3   1 <1>   0.2630 
 11 C        6.1560     2.7550     0.3810 C.ar  1 <1>  -0.1430 
 12 C        6.9610     1.9810    -0.4420 C.ar  1 <1>  -0.1500 
 13 C        6.6420     3.9570     0.8730 C.ar  1 <1>  -0.1500 
 14 C        8.2300     2.4150    -0.7820 C.ar  1 <1>  -0.1500 
 15 C        7.9110     4.3870     0.5310 C.ar  1 <1>  -0.1500 
 16 C        8.7100     3.6220    -0.3010 C.ar  1 <1>  -0.1430 
 17 C       10.1060     4.0950    -0.6740 C.3   1 <1>  -0.0170 
 18 C       11.1350     3.5800     0.3350 C.3   1 <1>  -0.2400 
 19 H        1.1900    -0.5730     1.2910 H     1 <1>   0.4500 
 20 H       -0.1560     1.3820     1.5410 H     1 <1>   0.0800 
 21 H       -0.1630     1.5980    -0.1910 H     1 <1>   0.0800 
 22 H        1.0090    -0.2320    -1.6410 H     1 <1>   0.0800 
 23 H        1.7390    -1.5790    -0.8030 H     1 <1>   0.0800 
 24 H       -1.1670    -0.6770    -0.4840 H     1 <1>   0.0800 
 25 H       -1.1840    -0.8220     1.2610 H     1 <1>   0.0800 
 26 H       -0.4000    -2.0470     0.2910 H     1 <1>   0.0800 
 27 H        2.2370     1.7220     1.6380 H     1 <1>   0.0800 
 28 H        1.4930     3.0570     0.8000 H     1 <1>   0.0800 
 29 H        3.4110     0.0680    -1.5670 H     1 <1>   0.0800 
 30 H        3.4310    -0.1430     0.1630 H     1 <1>   0.0800 
 31 H        2.0510     2.0740    -1.3710 H     1 <1>   0.0800 
 32 H        4.4780     2.1680    -1.2520 H     1 <1>   0.4500 
 33 H        4.7970     1.2520     1.0010 H     1 <1>   0.0800 
 34 H        4.3840     2.8540     1.5730 H     1 <1>   0.0800 
 35 H        3.1790     4.4370     0.0870 H     1 <1>   0.0800 
 36 H        3.1490     4.1270    -1.6380 H     1 <1>   0.0800 
 37 H        4.6650     4.4550    -0.8360 H     1 <1>   0.0800 
 38 H        6.6270     1.0330    -0.8270 H     1 <1>   0.1500 
 39 H        6.0500     4.5750     1.5270 H     1 <1>   0.1500 
 40 H        8.8520     1.8090    -1.4200 H     1 <1>   0.1500 
 41 H        8.2830     5.3210     0.9180 H     1 <1>   0.1500 
 42 H       10.1330     5.1710    -0.6980 H     1 <1>   0.0800 
 43 H       10.3600     3.7420    -1.6590 H     1 <1>   0.0800 
 44 H       10.9030     3.9420     1.3210 H     1 <1>   0.0800 
 45 H       12.1190     3.9180     0.0650 H     1 <1>   0.0800 
 46 H       11.1320     2.5050     0.3530 H     1 <1>   0.0800 
@<TRIPOS>BOND
  1   1   2  1   
  2   1   3  1   
  3   1   4  1   
  4   1  19  1   
  5   2   5  1   
  6   2  20  1   
  7   2  21  1   
  8   3   6  1   
  9   3  22  1   
 10   3  23  1   
 11   4  24  1   
 12   4  25  1   
 13   4  26  1   
 14   5   7  1   
 15   5  27  1   
 16   5  28  1   
 17   6   7  1   
 18   6  29  1   
 19   6  30  1   
 20   7   8  1   
 21   7  31  1   
 22   8   9  1   
 23   8  10  1   
 24   8  32  1   
 25   9  11  1   
 26   9  33  1   
 27   9  34  1   
 28  10  35  1   
 29  10  36  1   
 30  10  37  1   
 31  11  12  ar  
 32  11  13  ar  
 33  12  14  ar  
 34  12  38  1   
 35  13  15  ar  
 36  13  39  1   
 37  14  16  ar  
 38  14  40  1   
 39  15  16  ar  
 40  15  41  1   
 41  16  17  1   
 42  17  18  1   
 43  17  42  1   
 44  17  43  1   
 45  18  44  1   
 46  18  45  1   
 47  18  46  1   
@<TRIPOS>SUBSTRUCTURE
  1 ****   9 GROUP 4 **** **** 0

# MOE 2024.06 (io_trps.svl 2023.06)
