@<TRIPOS>MOLECULE
NONAME
39 40 1 0 0 
SMALL
USER_CHARGES


@<TRIPOS>ATOM
  1 O        0.8770    -0.5220    -1.2450 O.3   1 <1>  -0.5600 
  2 C        1.4850     0.3980    -0.3730 C.3   1 <1>   0.2000 
  3 C        0.4430    -1.7440    -0.7130 C.3   1 <1>   0.2000 
  4 C        2.3970    -0.3050     0.6660 C.3   1 <1>   0.3430 
  5 C        2.2790     1.3560    -1.2600 C.3   1 <1>  -0.2400 
  6 C        1.6330    -2.5210    -0.0870 C.3   1 <1>   0.3430 
  7 C       -0.7130    -1.4960     0.2660 C.3   1 <1>  -0.2400 
  8 N        2.8330    -1.6500     0.1690 N.4   1 <1>  -0.9590 
  9 C        3.8660    -2.3090     0.9950 C.3   1 <1>   0.4810 
 10 C        5.1330    -1.5030     0.8540 C.2   1 <1>  -0.2880 
 11 C        6.1770    -1.8450     0.0790 C.2   1 <1>  -0.1780 
 12 C        7.4150    -1.1210    -0.1040 C.ar  1 <1>   0.0280 
 13 C        8.2330    -1.4050    -1.1960 C.ar  1 <1>  -0.1500 
 14 C        7.8410    -0.1310     0.7800 C.ar  1 <1>  -0.1500 
 15 C        9.4200    -0.7270    -1.4040 C.ar  1 <1>  -0.1500 
 16 C        9.0260     0.5530     0.5770 C.ar  1 <1>  -0.1500 
 17 C        9.8180     0.2570    -0.5170 C.ar  1 <1>  -0.1500 
 18 H        0.7090     0.9490     0.1320 H     1 <1>   0.0800 
 19 H        0.0580    -2.3180    -1.5390 H     1 <1>   0.0800 
 20 H        1.8540    -0.4170     1.5890 H     1 <1>   0.0800 
 21 H        3.2500     0.3240     0.8630 H     1 <1>   0.0800 
 22 H        3.0460     0.8310    -1.8010 H     1 <1>   0.0800 
 23 H        2.7410     2.1230    -0.6650 H     1 <1>   0.0800 
 24 H        1.6180     1.8320    -1.9630 H     1 <1>   0.0800 
 25 H        1.9070    -3.3230    -0.7530 H     1 <1>   0.0800 
 26 H        1.2990    -2.9710     0.8330 H     1 <1>   0.0800 
 27 H       -0.3910    -0.9890     1.1560 H     1 <1>   0.0800 
 28 H       -1.1500    -2.4350     0.5570 H     1 <1>   0.0800 
 29 H       -1.4790    -0.9150    -0.2180 H     1 <1>   0.0800 
 30 H        3.2550    -1.4640    -0.7530 H     1 <1>   0.4500 
 31 H        3.5610    -2.3680     2.0270 H     1 <1>   0.0800 
 32 H        4.0400    -3.3080     0.6270 H     1 <1>   0.0800 
 33 H        5.1270    -0.6060     1.4460 H     1 <1>   0.1500 
 34 H        6.1390    -2.7540    -0.5000 H     1 <1>   0.1500 
 35 H        7.9410    -2.1660    -1.8980 H     1 <1>   0.1500 
 36 H        7.2510     0.1120     1.6430 H     1 <1>   0.1500 
 37 H       10.0350    -0.9620    -2.2550 H     1 <1>   0.1500 
 38 H        9.3380     1.3140     1.2710 H     1 <1>   0.1500 
 39 H       10.7410     0.7870    -0.6760 H     1 <1>   0.1500 
@<TRIPOS>BOND
  1   1   2  1   
  2   1   3  1   
  3   2   4  1   
  4   2   5  1   
  5   2  18  1   
  6   3   6  1   
  7   3   7  1   
  8   3  19  1   
  9   4   8  1   
 10   4  20  1   
 11   4  21  1   
 12   5  22  1   
 13   5  23  1   
 14   5  24  1   
 15   6   8  1   
 16   6  25  1   
 17   6  26  1   
 18   7  27  1   
 19   7  28  1   
 20   7  29  1   
 21   8   9  1   
 22   8  30  1   
 23   9  10  1   
 24   9  31  1   
 25   9  32  1   
 26  10  11  2   
 27  10  33  1   
 28  11  12  1   
 29  11  34  1   
 30  12  13  ar  
 31  12  14  ar  
 32  13  15  ar  
 33  13  35  1   
 34  14  16  ar  
 35  14  36  1   
 36  15  17  ar  
 37  15  37  1   
 38  16  17  ar  
 39  16  38  1   
 40  17  39  1   
@<TRIPOS>SUBSTRUCTURE
  1 ****  10 GROUP 4 **** **** 0

# MOE 2024.06 (io_trps.svl 2023.06)
