@<TRIPOS>MOLECULE
NONAME
40 42 1 0 0 
SMALL
USER_CHARGES


@<TRIPOS>ATOM
  1 BR       0.7130    -0.2280     0.4200 Br    1 <1>  -0.1110 
  2 C       -0.7700    -1.4440     0.1880 C.ar  1 <1>   0.1110 
  3 C       -0.5890    -2.8150     0.3930 C.ar  1 <1>   0.0280 
  4 C       -1.9730    -0.8830    -0.1940 C.ar  1 <1>  -0.1500 
  5 C       -1.7160    -3.6090     0.1820 C.ar  1 <1>  -0.1500 
  6 C        0.6750    -3.3700     0.8130 C.2   1 <1>  -0.1780 
  7 C       -3.0690    -1.7040    -0.3900 C.ar  1 <1>  -0.1500 
  8 C       -2.9380    -3.0790    -0.2010 C.ar  1 <1>   0.0830 
  9 C        1.2330    -4.5720     0.5340 C.2   1 <1>  -0.0380 
 10 O       -3.9580    -3.9590    -0.3700 O.3   1 <1>  -0.3630 
 11 N        0.6660    -5.5600    -0.2730 N.pl3 1 <1>  -0.8380 
 12 C        2.6170    -4.9690     1.0840 C.3   1 <1>   0.3380 
 13 C       -5.2290    -3.5350    -0.8020 C.3   1 <1>   0.1200 
 14 C        1.4990    -5.8210    -1.4840 C.3   1 <1>   0.2090 
 15 C        0.4870    -6.8440     0.4710 C.3   1 <1>   0.2090 
 16 O        3.5400    -4.0360     0.6520 O.3   1 <1>  -0.6800 
 17 C        2.9810    -6.3630     0.5120 C.3   1 <1>  -0.0800 
 18 C       -6.1250    -4.7650    -0.9110 C.3   1 <1>  -0.2400 
 19 C        2.8960    -6.3170    -1.0360 C.3   1 <1>  -0.1600 
 20 C        1.8680    -7.3340     0.9730 C.3   1 <1>  -0.1600 
 21 H       -2.0500     0.1800    -0.3360 H     1 <1>   0.1500 
 22 H       -1.6430    -4.6710     0.3220 H     1 <1>   0.1500 
 23 H        1.2440    -2.7060     1.4370 H     1 <1>   0.1500 
 24 H       -4.0010    -1.2630    -0.6870 H     1 <1>   0.1500 
 25 H        2.6220    -4.9760     2.1590 H     1 <1>   0.0800 
 26 H       -5.6220    -2.8420    -0.0770 H     1 <1>   0.0800 
 27 H       -5.1220    -3.0570    -1.7600 H     1 <1>   0.0800 
 28 H        1.0160    -6.5550    -2.1070 H     1 <1>   0.0800 
 29 H        1.5900    -4.9090    -2.0500 H     1 <1>   0.0800 
 30 H       -0.1750    -6.6770     1.3050 H     1 <1>   0.0800 
 31 H        0.0350    -7.5770    -0.1750 H     1 <1>   0.0800 
 32 H        3.2140    -3.6950    -0.2020 H     1 <1>   0.4000 
 33 H        3.9470    -6.6840     0.8590 H     1 <1>   0.0800 
 34 H       -6.2100    -5.2450     0.0470 H     1 <1>   0.0800 
 35 H       -5.7140    -5.4580    -1.6240 H     1 <1>   0.0800 
 36 H       -7.1060    -4.4750    -1.2390 H     1 <1>   0.0800 
 37 H        3.0750    -7.2950    -1.4460 H     1 <1>   0.0800 
 38 H        3.6520    -5.6650    -1.4350 H     1 <1>   0.0800 
 39 H        1.8520    -7.3950     2.0470 H     1 <1>   0.0800 
 40 H        2.0540    -8.3240     0.5970 H     1 <1>   0.0800 
@<TRIPOS>BOND
  1   1   2  1   
  2   2   3  ar  
  3   2   4  ar  
  4   3   5  ar  
  5   3   6  1   
  6   4   7  ar  
  7   4  21  1   
  8   5   8  ar  
  9   5  22  1   
 10   6   9  2   
 11   6  23  1   
 12   7   8  ar  
 13   7  24  1   
 14   8  10  1   
 15   9  11  1   
 16   9  12  1   
 17  10  13  1   
 18  11  14  1   
 19  11  15  1   
 20  12  16  1   
 21  12  17  1   
 22  12  25  1   
 23  13  18  1   
 24  13  26  1   
 25  13  27  1   
 26  14  19  1   
 27  14  28  1   
 28  14  29  1   
 29  15  20  1   
 30  15  30  1   
 31  15  31  1   
 32  16  32  1   
 33  17  19  1   
 34  17  20  1   
 35  17  33  1   
 36  18  34  1   
 37  18  35  1   
 38  18  36  1   
 39  19  37  1   
 40  19  38  1   
 41  20  39  1   
 42  20  40  1   
@<TRIPOS>SUBSTRUCTURE
  1 ****   3 GROUP 4 **** **** 0

# MOE 2024.06 (io_trps.svl 2023.06)
