@<TRIPOS>MOLECULE
NONAME
38 40 1 0 0 
SMALL
USER_CHARGES


@<TRIPOS>ATOM
  1 O        0.6670     0.3670    -0.0020 O.2   1 <1>  -0.5700 
  2 C        1.1570     1.3880     0.3940 C.2   1 <1>   0.6590 
  3 O        2.4630     1.5720     0.2760 O.3   1 <1>  -0.3000 
  4 C        0.3150     2.4030     1.1410 C.3   1 <1>  -0.1790 
  5 C        3.0580     2.6960    -0.1430 C.2   1 <1>   0.6850 
  6 N        2.3790     3.6940    -0.5550 N.2   1 <1>  -0.6960 
  7 C        4.4920     2.6980    -0.0990 C.2   1 <1>  -0.2370 
  8 C        3.0610     4.9310    -1.0120 C.3   1 <1>   0.0860 
  9 N        5.3690     1.6310     0.1000 N.pl3 1 <1>   0.2940 
 10 C        5.1950     3.8450    -0.2260 C.2   1 <1>  -0.1810 
 11 C        4.4870     5.1610    -0.4530 C.3   1 <1>   0.0210 
 12 C        6.6460     2.1950     0.1430 C.ar  1 <1>  -0.1520 
 13 C        5.1240     0.2540     0.0020 C.2   1 <1>   0.5180 
 14 C        6.5620     3.5650    -0.0720 C.ar  1 <1>   0.0000 
 15 C        7.8890     1.5920     0.3490 C.ar  1 <1>  -0.1500 
 16 O        5.5390    -0.5490     0.8010 O.2   1 <1>  -0.5700 
 17 C        4.3440    -0.2810    -1.1850 C.3   1 <1>  -0.1790 
 18 C        7.7200     4.3440    -0.0920 C.ar  1 <1>  -0.1500 
 19 C        9.0290     2.3660     0.3300 C.ar  1 <1>  -0.1500 
 20 C        8.9470     3.7520     0.1060 C.ar  1 <1>   0.0830 
 21 O       10.0350     4.5690     0.0740 O.3   1 <1>  -0.3630 
 22 C       11.3310     4.0660     0.3100 C.3   1 <1>   0.0400 
 23 H        0.8980     2.8830     1.9040 H     1 <1>   0.0800 
 24 H       -0.5210     1.9060     1.5980 H     1 <1>   0.0800 
 25 H       -0.0570     3.1410     0.4540 H     1 <1>   0.0800 
 26 H        2.4510     5.7750    -0.7400 H     1 <1>   0.0800 
 27 H        3.1070     4.9010    -2.0870 H     1 <1>   0.0800 
 28 H        4.4230     5.6870     0.4830 H     1 <1>   0.0800 
 29 H        5.0470     5.7720    -1.1380 H     1 <1>   0.0800 
 30 H        7.9520     0.5310     0.5260 H     1 <1>   0.1500 
 31 H        4.1630     0.4870    -1.9130 H     1 <1>   0.0800 
 32 H        3.4050    -0.6830    -0.8500 H     1 <1>   0.0800 
 33 H        4.9050    -1.0710    -1.6490 H     1 <1>   0.0800 
 34 H        7.6510     5.4020    -0.2600 H     1 <1>   0.1500 
 35 H        9.9770     1.8910     0.4890 H     1 <1>   0.1500 
 36 H       12.0230     4.8860     0.2520 H     1 <1>   0.0800 
 37 H       11.5660     3.3370    -0.4450 H     1 <1>   0.0800 
 38 H       11.3630     3.6300     1.2930 H     1 <1>   0.0800 
@<TRIPOS>BOND
  1   1   2  2   
  2   2   3  1   
  3   2   4  1   
  4   3   5  1   
  5   4  23  1   
  6   4  24  1   
  7   4  25  1   
  8   5   6  2   
  9   5   7  1   
 10   6   8  1   
 11   7   9  1   
 12   7  10  2   
 13   8  11  1   
 14   8  26  1   
 15   8  27  1   
 16   9  12  1   
 17   9  13  1   
 18  10  11  1   
 19  10  14  1   
 20  11  28  1   
 21  11  29  1   
 22  12  14  ar  
 23  12  15  ar  
 24  13  16  2   
 25  13  17  1   
 26  14  18  ar  
 27  15  19  ar  
 28  15  30  1   
 29  17  31  1   
 30  17  32  1   
 31  17  33  1   
 32  18  20  ar  
 33  18  34  1   
 34  19  20  ar  
 35  19  35  1   
 36  20  21  1   
 37  21  22  1   
 38  22  36  1   
 39  22  37  1   
 40  22  38  1   
@<TRIPOS>SUBSTRUCTURE
  1 ****   7 GROUP 4 **** **** 0

# MOE 2024.06 (io_trps.svl 2023.06)
