@<TRIPOS>MOLECULE
NONAME
34 36 1 0 0 
SMALL
USER_CHARGES


@<TRIPOS>ATOM
  1 O        0.3410    -0.0460    -0.0480 O.3   1 <1>  -0.3630 
  2 C        1.4670    -0.8050    -0.0700 C.ar  1 <1>   0.0830 
  3 C       -0.7780    -0.5830     0.6330 C.3   1 <1>   0.1200 
  4 C        1.4280    -2.1580     0.2670 C.ar  1 <1>   0.0830 
  5 C        2.6620    -0.2110    -0.4260 C.ar  1 <1>  -0.1500 
  6 C       -0.9340    -2.0750     0.3080 C.3   1 <1>   0.1200 
  7 O        0.2660    -2.7680     0.5980 O.3   1 <1>  -0.3630 
  8 C        2.5970    -2.8970     0.2570 C.ar  1 <1>  -0.1500 
  9 C        3.8530    -0.9420    -0.4450 C.ar  1 <1>   0.0860 
 10 C        3.7920    -2.2930    -0.0970 C.ar  1 <1>  -0.1430 
 11 C        5.1490    -0.3790    -0.7860 C.2   1 <1>   0.3030 
 12 C        5.0880    -3.0880    -0.1470 C.3   1 <1>  -0.0160 
 13 N        6.2640    -0.9210    -0.5180 N.2   1 <1>  -0.6960 
 14 C        5.1850     0.9550    -1.5070 C.3   1 <1>  -0.1790 
 15 C        6.3240    -2.2110     0.1660 C.3   1 <1>   0.2460 
 16 C        7.5950    -2.9110    -0.3150 C.3   1 <1>  -0.2400 
 17 C        6.4360    -1.9240     1.6660 C.3   1 <1>  -0.2400 
 18 H       -1.6480    -0.0320     0.3260 H     1 <1>   0.0800 
 19 H       -0.6250    -0.4450     1.6890 H     1 <1>   0.0800 
 20 H        2.6530     0.8320    -0.6780 H     1 <1>   0.1500 
 21 H       -1.1530    -2.2090    -0.7370 H     1 <1>   0.0800 
 22 H       -1.7210    -2.5150     0.8930 H     1 <1>   0.0800 
 23 H        2.5570    -3.9390     0.5190 H     1 <1>   0.1500 
 24 H        5.1890    -3.4950    -1.1370 H     1 <1>   0.0800 
 25 H        5.0480    -3.9140     0.5400 H     1 <1>   0.0800 
 26 H        4.5510     0.9230    -2.3740 H     1 <1>   0.0800 
 27 H        6.1880     1.1770    -1.8260 H     1 <1>   0.0800 
 28 H        4.8590     1.7370    -0.8470 H     1 <1>   0.0800 
 29 H        7.5550    -3.0680    -1.3780 H     1 <1>   0.0800 
 30 H        7.7070    -3.8630     0.1700 H     1 <1>   0.0800 
 31 H        8.4570    -2.3080    -0.0890 H     1 <1>   0.0800 
 32 H        5.5520    -1.4240     2.0200 H     1 <1>   0.0800 
 33 H        7.2890    -1.3010     1.8620 H     1 <1>   0.0800 
 34 H        6.5490    -2.8400     2.2160 H     1 <1>   0.0800 
@<TRIPOS>BOND
  1   1   2  1   
  2   1   3  1   
  3   2   4  ar  
  4   2   5  ar  
  5   3   6  1   
  6   3  18  1   
  7   3  19  1   
  8   4   7  1   
  9   4   8  ar  
 10   5   9  ar  
 11   5  20  1   
 12   6   7  1   
 13   6  21  1   
 14   6  22  1   
 15   8  10  ar  
 16   8  23  1   
 17   9  10  ar  
 18   9  11  1   
 19  10  12  1   
 20  11  13  2   
 21  11  14  1   
 22  12  15  1   
 23  12  24  1   
 24  12  25  1   
 25  13  15  1   
 26  14  26  1   
 27  14  27  1   
 28  14  28  1   
 29  15  16  1   
 30  15  17  1   
 31  16  29  1   
 32  16  30  1   
 33  16  31  1   
 34  17  32  1   
 35  17  33  1   
 36  17  34  1   
@<TRIPOS>SUBSTRUCTURE
  1 ****   9 GROUP 4 **** **** 0

# MOE 2024.06 (io_trps.svl 2023.06)
