@<TRIPOS>MOLECULE
NONAME
42 44 1 0 0 
SMALL
USER_CHARGES


@<TRIPOS>ATOM
  1 CL       0.4790    -2.9470    -2.1080 Cl    1 <1>  -0.1770 
  2 C        1.8770    -2.5100    -1.1590 C.ar  1 <1>   0.1770 
  3 C        1.8980    -2.7330     0.2150 C.ar  1 <1>   0.1770 
  4 C        2.9620    -1.9380    -1.7990 C.ar  1 <1>  -0.1500 
  5 CL       0.5250    -3.4540     1.0170 Cl    1 <1>  -0.1770 
  6 C        3.0040    -2.3880     0.9710 C.ar  1 <1>  -0.1500 
  7 C        4.0750    -1.5890    -1.0410 C.ar  1 <1>   0.0860 
  8 C        4.0950    -1.8120     0.3300 C.ar  1 <1>   0.0860 
  9 C        5.3340    -0.9930    -1.3850 C.2   1 <1>   0.5440 
 10 C        5.3680    -1.3520     0.8070 C.2   1 <1>   0.5440 
 11 O        5.6990    -0.6380    -2.4850 O.2   1 <1>  -0.5700 
 12 N        6.0860    -0.8590    -0.2490 N.am  1 <1>  -0.4200 
 13 O        5.7730    -1.3710     1.9500 O.2   1 <1>  -0.5700 
 14 C        7.5700    -0.8080    -0.2570 C.3   1 <1>   0.2010 
 15 C        8.2080    -2.2030    -0.2030 C.2   1 <1>   0.5690 
 16 O        7.5640    -3.1210    -0.6620 O.2   1 <1>  -0.5700 
 17 N        9.4700    -2.3680     0.3300 N.am  1 <1>  -0.6600 
 18 C       10.1090    -3.6920     0.6030 C.3   1 <1>   0.2200 
 19 C       10.4650    -1.2500     0.3260 C.3   1 <1>   0.2200 
 20 C       10.9710    -4.0750    -0.6100 C.3   1 <1>  -0.1600 
 21 C        9.1530    -4.8080     1.0360 C.3   1 <1>  -0.2400 
 22 C       11.8440    -1.7210    -0.1930 C.3   1 <1>  -0.1600 
 23 C       10.5730    -0.6590     1.7320 C.3   1 <1>  -0.2400 
 24 C       11.7160    -2.8650    -1.2150 C.3   1 <1>  -0.1600 
 25 H        2.9520    -1.7660    -2.8620 H     1 <1>   0.1500 
 26 H        3.0260    -2.5610     2.0330 H     1 <1>   0.1500 
 27 H        7.8890    -0.2370     0.5940 H     1 <1>   0.0800 
 28 H        7.9000    -0.3120    -1.1500 H     1 <1>   0.0800 
 29 H       10.7730    -3.5480     1.4390 H     1 <1>   0.0800 
 30 H       10.1250    -0.4820    -0.3480 H     1 <1>   0.0800 
 31 H       10.3480    -4.5200    -1.3670 H     1 <1>   0.0800 
 32 H       11.6820    -4.8180    -0.2980 H     1 <1>   0.0800 
 33 H        8.5810    -5.1780     0.2050 H     1 <1>   0.0800 
 34 H        8.4880    -4.4490     1.8000 H     1 <1>   0.0800 
 35 H        9.7180    -5.6300     1.4340 H     1 <1>   0.0800 
 36 H       12.4510    -2.0580     0.6290 H     1 <1>   0.0800 
 37 H       12.3560    -0.8870    -0.6400 H     1 <1>   0.0800 
 38 H       10.9380    -1.3940     2.4260 H     1 <1>   0.0800 
 39 H        9.6160    -0.3090     2.0720 H     1 <1>   0.0800 
 40 H       11.2550     0.1720     1.7280 H     1 <1>   0.0800 
 41 H       11.1570    -2.5040    -2.0630 H     1 <1>   0.0800 
 42 H       12.6870    -3.1680    -1.5660 H     1 <1>   0.0800 
@<TRIPOS>BOND
  1   1   2  1   
  2   2   3  ar  
  3   2   4  ar  
  4   3   5  1   
  5   3   6  ar  
  6   4   7  ar  
  7   4  25  1   
  8   6   8  ar  
  9   6  26  1   
 10   7   8  ar  
 11   7   9  1   
 12   8  10  1   
 13   9  11  2   
 14   9  12  am  
 15  10  12  am  
 16  10  13  2   
 17  12  14  1   
 18  14  15  1   
 19  14  27  1   
 20  14  28  1   
 21  15  16  2   
 22  15  17  am  
 23  17  18  1   
 24  17  19  1   
 25  18  20  1   
 26  18  21  1   
 27  18  29  1   
 28  19  22  1   
 29  19  23  1   
 30  19  30  1   
 31  20  24  1   
 32  20  31  1   
 33  20  32  1   
 34  21  33  1   
 35  21  34  1   
 36  21  35  1   
 37  22  24  1   
 38  22  36  1   
 39  22  37  1   
 40  23  38  1   
 41  23  39  1   
 42  23  40  1   
 43  24  41  1   
 44  24  42  1   
@<TRIPOS>SUBSTRUCTURE
  1 ****  12 GROUP 4 **** **** 0

# MOE 2024.06 (io_trps.svl 2023.06)
