@<TRIPOS>MOLECULE
NONAME
34 36 1 0 0 
SMALL
USER_CHARGES


@<TRIPOS>ATOM
  1 O       -0.8510     0.0300     1.2800 O.3   1 <1>   0.2420 
  2 N       -2.1250    -0.2130     1.2910 N.2   1 <1>  -0.4100 
  3 N       -0.4560     0.9500     0.4460 N.2   1 <1>  -0.4100 
  4 C       -2.5900     0.5940     0.4080 C.2   1 <1>   0.2120 
  5 C       -1.5310     1.3320    -0.1150 C.2   1 <1>   0.3720 
  6 N       -3.9520     0.7220     0.0270 N.pl3 1 <1>   0.6470 
  7 N       -1.5380     2.3390    -1.0730 N.pl3 1 <1>  -0.8830 
  8 N       -4.3890     1.2170    -1.1540 N.2   1 <1>  -0.4180 
  9 C       -5.0370     0.3590     0.7350 C.2   1 <1>  -0.3020 
 10 N       -5.6720     1.1670    -1.1940 N.2   1 <1>  -0.2270 
 11 C       -6.0950     0.6410    -0.0410 C.2   1 <1>   0.0460 
 12 C       -7.5840     0.4610     0.2200 C.3   1 <1>   0.5240 
 13 N       -8.3000     1.7330    -0.0920 N.4   1 <1>  -0.9590 
 14 C       -7.9330     2.8290     0.8530 C.3   1 <1>   0.3430 
 15 C       -9.7730     1.5370    -0.1980 C.3   1 <1>   0.3430 
 16 C       -8.5600     4.1430     0.3830 C.3   1 <1>  -0.1600 
 17 C      -10.4290     2.8310    -0.6850 C.3   1 <1>  -0.1600 
 18 C      -10.0800     4.0220     0.2170 C.3   1 <1>  -0.1600 
 19 H       -0.5960     2.5000    -1.4410 H     1 <1>   0.4000 
 20 H       -2.2020     2.1780    -1.8390 H     1 <1>   0.4000 
 21 H       -4.9580    -0.0690     1.7180 H     1 <1>   0.1500 
 22 H       -7.7490     0.1760     1.2460 H     1 <1>   0.0800 
 23 H       -7.9480    -0.3260    -0.4190 H     1 <1>   0.0800 
 24 H       -7.9490     2.0230    -1.0180 H     1 <1>   0.4500 
 25 H       -6.8600     2.9430     0.8920 H     1 <1>   0.0800 
 26 H       -8.2880     2.5960     1.8440 H     1 <1>   0.0800 
 27 H      -10.1780     1.2730     0.7660 H     1 <1>   0.0800 
 28 H       -9.9950     0.7420    -0.8920 H     1 <1>   0.0800 
 29 H       -8.1100     4.4380    -0.5490 H     1 <1>   0.0800 
 30 H       -8.3400     4.9140     1.1010 H     1 <1>   0.0800 
 31 H      -11.4970     2.6990    -0.7030 H     1 <1>   0.0800 
 32 H      -10.1140     3.0320    -1.6950 H     1 <1>   0.0800 
 33 H      -10.4750     4.9310    -0.2090 H     1 <1>   0.0800 
 34 H      -10.5390     3.8890     1.1830 H     1 <1>   0.0800 
@<TRIPOS>BOND
  1   1   2  1   
  2   1   3  1   
  3   2   4  2   
  4   3   5  2   
  5   4   5  1   
  6   4   6  1   
  7   5   7  1   
  8   6   8  1   
  9   6   9  1   
 10   7  19  1   
 11   7  20  1   
 12   8  10  2   
 13   9  11  2   
 14   9  21  1   
 15  10  11  1   
 16  11  12  1   
 17  12  13  1   
 18  12  22  1   
 19  12  23  1   
 20  13  14  1   
 21  13  15  1   
 22  13  24  1   
 23  14  16  1   
 24  14  25  1   
 25  14  26  1   
 26  15  17  1   
 27  15  27  1   
 28  15  28  1   
 29  16  18  1   
 30  16  29  1   
 31  16  30  1   
 32  17  18  1   
 33  17  31  1   
 34  17  32  1   
 35  18  33  1   
 36  18  34  1   
@<TRIPOS>SUBSTRUCTURE
  1 ****  11 GROUP 4 **** **** 0

# MOE 2024.06 (io_trps.svl 2023.06)
