@<TRIPOS>MOLECULE
NONAME
51 53 1 0 0 
SMALL
USER_CHARGES


@<TRIPOS>ATOM
  1 S        0.2210     1.0300     1.2990 S.o2  1 <1>   1.4470 
  2 O       -0.4880     1.8070     2.2920 O.2   1 <1>  -0.6500 
  3 O        0.4140    -0.3850     1.5370 O.2   1 <1>  -0.6500 
  4 N       -0.6620     1.1520    -0.1420 N.am  1 <1>  -0.8490 
  5 C        1.8120     1.8200     0.8820 C.ar  1 <1>  -0.0090 
  6 C       -0.1230     0.2940    -1.2110 C.3   1 <1>   0.1960 
  7 C       -2.0780     0.8200     0.0720 C.3   1 <1>   0.1960 
  8 C        1.9600     3.1960     0.6820 C.ar  1 <1>  -0.1440 
  9 C        2.9380     1.0210     0.7210 C.ar  1 <1>  -0.1500 
 10 C       -0.9640     0.4190    -2.4950 C.3   1 <1>   0.1200 
 11 C       -2.8770     0.9230    -1.2410 C.3   1 <1>   0.1200 
 12 C        3.1980     3.7200     0.3450 C.ar  1 <1>  -0.1500 
 13 C        0.7870     4.1590     0.8220 C.3   1 <1>  -0.0960 
 14 C        4.1910     1.5220     0.3790 C.ar  1 <1>   0.0860 
 15 O       -2.3050     0.1180    -2.2340 O.3   1 <1>  -0.5600 
 16 C        4.2960     2.8970     0.1940 C.ar  1 <1>  -0.1500 
 17 C        5.3280     0.6340     0.2180 C.2   1 <1>   0.5440 
 18 O        5.1770    -0.4800    -0.2430 O.2   1 <1>  -0.5700 
 19 N        6.5830     1.0330     0.5810 N.am  1 <1>  -0.7300 
 20 C        7.7940     0.1780     0.5090 C.3   1 <1>   0.1400 
 21 C        8.5020     0.3840    -0.8300 C.3   1 <1>  -0.0170 
 22 C        9.7600    -0.4670    -0.8940 C.ar  1 <1>  -0.1440 
 23 C        9.6710    -1.8070    -1.2380 C.ar  1 <1>  -0.1500 
 24 C       11.0000     0.0820    -0.6070 C.ar  1 <1>  -0.1500 
 25 C       10.8100    -2.5910    -1.2930 C.ar  1 <1>  -0.1500 
 26 C       12.1400    -0.7020    -0.6620 C.ar  1 <1>  -0.1500 
 27 C       12.0460    -2.0390    -1.0060 C.ar  1 <1>  -0.1500 
 28 H       -0.1200    -0.7380    -0.9000 H     1 <1>   0.0800 
 29 H        0.8920     0.5790    -1.4310 H     1 <1>   0.0800 
 30 H       -2.5040     1.5000     0.7910 H     1 <1>   0.0800 
 31 H       -2.1690    -0.1790     0.4650 H     1 <1>   0.0800 
 32 H        2.8490    -0.0450     0.8630 H     1 <1>   0.1500 
 33 H       -0.6110    -0.2710    -3.2400 H     1 <1>   0.0800 
 34 H       -0.9040     1.4180    -2.8890 H     1 <1>   0.0800 
 35 H       -2.8970     1.9400    -1.5900 H     1 <1>   0.0800 
 36 H       -3.8880     0.5880    -1.0880 H     1 <1>   0.0800 
 37 H        3.3140     4.7800     0.1930 H     1 <1>   0.1500 
 38 H        0.4790     4.2200     1.8510 H     1 <1>   0.0800 
 39 H       -0.0470     3.8310     0.2290 H     1 <1>   0.0800 
 40 H        1.0540     5.1480     0.4950 H     1 <1>   0.0800 
 41 H        5.2420     3.3270    -0.0830 H     1 <1>   0.1500 
 42 H        6.7060     1.9360     1.0390 H     1 <1>   0.3700 
 43 H        7.5140    -0.8570     0.6100 H     1 <1>   0.0800 
 44 H        8.4590     0.4260     1.3180 H     1 <1>   0.0800 
 45 H        8.7580     1.4210    -0.9520 H     1 <1>   0.0800 
 46 H        7.8390     0.1020    -1.6290 H     1 <1>   0.0800 
 47 H        8.7130    -2.2440    -1.4620 H     1 <1>   0.1500 
 48 H       11.0870     1.1200    -0.3390 H     1 <1>   0.1500 
 49 H       10.7340    -3.6310    -1.5610 H     1 <1>   0.1500 
 50 H       13.1010    -0.2720    -0.4390 H     1 <1>   0.1500 
 51 H       12.9310    -2.6480    -1.0490 H     1 <1>   0.1500 
@<TRIPOS>BOND
  1   1   2  2   
  2   1   3  2   
  3   1   4  am  
  4   1   5  1   
  5   4   6  1   
  6   4   7  1   
  7   5   8  ar  
  8   5   9  ar  
  9   6  10  1   
 10   6  28  1   
 11   6  29  1   
 12   7  11  1   
 13   7  30  1   
 14   7  31  1   
 15   8  12  ar  
 16   8  13  1   
 17   9  14  ar  
 18   9  32  1   
 19  10  15  1   
 20  10  33  1   
 21  10  34  1   
 22  11  15  1   
 23  11  35  1   
 24  11  36  1   
 25  12  16  ar  
 26  12  37  1   
 27  13  38  1   
 28  13  39  1   
 29  13  40  1   
 30  14  16  ar  
 31  14  17  1   
 32  16  41  1   
 33  17  18  2   
 34  17  19  am  
 35  19  20  1   
 36  19  42  1   
 37  20  21  1   
 38  20  43  1   
 39  20  44  1   
 40  21  22  1   
 41  21  45  1   
 42  21  46  1   
 43  22  23  ar  
 44  22  24  ar  
 45  23  25  ar  
 46  23  47  1   
 47  24  26  ar  
 48  24  48  1   
 49  25  27  ar  
 50  25  49  1   
 51  26  27  ar  
 52  26  50  1   
 53  27  51  1   
@<TRIPOS>SUBSTRUCTURE
  1 ****  14 GROUP 4 **** **** 0

# MOE 2024.06 (io_trps.svl 2023.06)
