@<TRIPOS>MOLECULE
NONAME
47 48 1 0 0 
SMALL
USER_CHARGES


@<TRIPOS>ATOM
  1 O        0.4300    -1.7160    -0.4590 O.3   1 <1>  -0.3630 
  2 C       -0.8990    -1.6280    -0.1780 C.ar  1 <1>   0.0830 
  3 C        1.3750    -0.8540     0.1230 C.3   1 <1>   0.1200 
  4 C       -1.7530    -2.5700    -0.7550 C.ar  1 <1>  -0.1440 
  5 C       -1.4160    -0.6450     0.6630 C.ar  1 <1>  -0.1500 
  6 C        2.7550    -1.2740    -0.3870 C.3   1 <1>  -0.1600 
  7 C       -3.1150    -2.5270    -0.4650 C.ar  1 <1>  -0.1440 
  8 C       -1.1730    -3.6360    -1.6860 C.3   1 <1>  -0.0960 
  9 C       -2.7690    -0.5970     0.9380 C.ar  1 <1>  -0.1430 
 10 C        3.8730    -0.3990     0.2000 C.3   1 <1>  -0.1600 
 11 C       -3.6080    -1.5410     0.3750 C.ar  1 <1>  -0.1500 
 12 C       -4.0990    -3.5390    -1.0370 C.3   1 <1>  -0.0970 
 13 C       -3.3330     0.4750     1.8540 C.3   1 <1>  -0.0970 
 14 C        5.2360    -0.8450    -0.3330 C.3   1 <1>   0.3430 
 15 N        6.3120     0.0480     0.1760 N.4   1 <1>  -0.9590 
 16 C        7.6150    -0.1900    -0.4910 C.3   1 <1>   0.3430 
 17 C        6.5770    -0.0820     1.6310 C.3   1 <1>   0.3430 
 18 C        8.6380     0.4450     0.4400 C.3   1 <1>  -0.1600 
 19 C        7.9700     0.5040     1.8170 C.3   1 <1>  -0.1600 
 20 H        1.3100    -0.9550     1.1920 H     1 <1>   0.0800 
 21 H        1.1410     0.1540    -0.1760 H     1 <1>   0.0800 
 22 H       -0.7810     0.0910     1.1130 H     1 <1>   0.1500 
 23 H        2.7590    -1.1980    -1.4610 H     1 <1>   0.0800 
 24 H        2.9190    -2.3030    -0.1150 H     1 <1>   0.0800 
 25 H       -0.8190    -4.4660    -1.1040 H     1 <1>   0.0800 
 26 H       -0.3520    -3.2390    -2.2540 H     1 <1>   0.0800 
 27 H       -1.9000    -3.9890    -2.3930 H     1 <1>   0.0800 
 28 H        3.8480    -0.4820     1.2720 H     1 <1>   0.0800 
 29 H        3.6940     0.6260    -0.0770 H     1 <1>   0.0800 
 30 H       -4.6600    -1.5050     0.5960 H     1 <1>   0.1500 
 31 H       -4.2110    -3.3820    -2.0940 H     1 <1>   0.0800 
 32 H       -5.0650    -3.4430    -0.5760 H     1 <1>   0.0800 
 33 H       -3.7450    -4.5390    -0.8620 H     1 <1>   0.0800 
 34 H       -2.7270     1.3620     1.8170 H     1 <1>   0.0800 
 35 H       -3.3580     0.1110     2.8650 H     1 <1>   0.0800 
 36 H       -4.3320     0.7360     1.5540 H     1 <1>   0.0800 
 37 H        5.2170    -0.8090    -1.4110 H     1 <1>   0.0800 
 38 H        5.4290    -1.8640    -0.0360 H     1 <1>   0.0800 
 39 H        6.0500     1.0260    -0.0070 H     1 <1>   0.4500 
 40 H        7.6470     0.2450    -1.4780 H     1 <1>   0.0800 
 41 H        7.8020    -1.2500    -0.5600 H     1 <1>   0.0800 
 42 H        6.5850    -1.1240     1.9090 H     1 <1>   0.0800 
 43 H        5.8420     0.4420     2.2220 H     1 <1>   0.0800 
 44 H        8.8780     1.4370     0.0960 H     1 <1>   0.0800 
 45 H        9.5430    -0.1380     0.4580 H     1 <1>   0.0800 
 46 H        8.5190    -0.0610     2.5520 H     1 <1>   0.0800 
 47 H        7.8970     1.5230     2.1560 H     1 <1>   0.0800 
@<TRIPOS>BOND
  1   1   2  1   
  2   1   3  1   
  3   2   4  ar  
  4   2   5  ar  
  5   3   6  1   
  6   3  20  1   
  7   3  21  1   
  8   4   7  ar  
  9   4   8  1   
 10   5   9  ar  
 11   5  22  1   
 12   6  10  1   
 13   6  23  1   
 14   6  24  1   
 15   7  11  ar  
 16   7  12  1   
 17   8  25  1   
 18   8  26  1   
 19   8  27  1   
 20   9  11  ar  
 21   9  13  1   
 22  10  14  1   
 23  10  28  1   
 24  10  29  1   
 25  11  30  1   
 26  12  31  1   
 27  12  32  1   
 28  12  33  1   
 29  13  34  1   
 30  13  35  1   
 31  13  36  1   
 32  14  15  1   
 33  14  37  1   
 34  14  38  1   
 35  15  16  1   
 36  15  17  1   
 37  15  39  1   
 38  16  18  1   
 39  16  40  1   
 40  16  41  1   
 41  17  19  1   
 42  17  42  1   
 43  17  43  1   
 44  18  19  1   
 45  18  44  1   
 46  18  45  1   
 47  19  46  1   
 48  19  47  1   
@<TRIPOS>SUBSTRUCTURE
  1 ****   3 GROUP 4 **** **** 0

# MOE 2024.06 (io_trps.svl 2023.06)
