@<TRIPOS>MOLECULE
NONAME
27 27 1 0 0 
SMALL
USER_CHARGES


@<TRIPOS>ATOM
  1 S       -1.4740    -0.2680    -2.3110 S.2   1 <1>  -0.6770 
  2 P       -1.4940    -1.2980    -0.6700 P.3   1 <1>   0.8160 
  3 C        0.0150    -2.1810    -0.3370 C.ar  1 <1>  -0.1390 
  4 C       -1.7630    -0.2820     0.7580 C.3   1 <1>  -0.1600 
  5 C       -2.7830    -2.5170    -0.6610 C.3   1 <1>  -0.1600 
  6 C        1.1120    -2.0790    -1.1860 C.ar  1 <1>  -0.1500 
  7 C        0.1600    -3.0020     0.7770 C.ar  1 <1>  -0.1500 
  8 C       -3.0570     0.5470     0.7470 C.3   1 <1>  -0.2400 
  9 C       -2.6440    -3.6090    -1.7350 C.3   1 <1>  -0.2400 
 10 C        2.2930    -2.7570    -0.9420 C.ar  1 <1>  -0.1500 
 11 C        1.3360    -3.6860     1.0340 C.ar  1 <1>  -0.1500 
 12 C        2.4080    -3.5650     0.1720 C.ar  1 <1>  -0.1500 
 13 H       -0.9460     0.4090     0.8600 H     1 <1>   0.0800 
 14 H       -1.7660    -0.8760     1.6540 H     1 <1>   0.0800 
 15 H       -3.7340    -2.0420    -0.8160 H     1 <1>   0.0800 
 16 H       -2.8380    -3.0070     0.2930 H     1 <1>   0.0800 
 17 H        1.0490    -1.4560    -2.0630 H     1 <1>   0.1500 
 18 H       -0.6550    -3.1200     1.4690 H     1 <1>   0.1500 
 19 H       -3.0800     1.1910    -0.1170 H     1 <1>   0.0800 
 20 H       -3.1110     1.1620     1.6290 H     1 <1>   0.0800 
 21 H       -3.9230    -0.0900     0.7230 H     1 <1>   0.0800 
 22 H       -2.6330    -3.1660    -2.7160 H     1 <1>   0.0800 
 23 H       -3.4700    -4.2960    -1.6790 H     1 <1>   0.0800 
 24 H       -1.7290    -4.1600    -1.5990 H     1 <1>   0.0800 
 25 H        3.1220    -2.6540    -1.6210 H     1 <1>   0.1500 
 26 H        1.4170    -4.3140     1.9050 H     1 <1>   0.1500 
 27 H        3.3250    -4.0940     0.3660 H     1 <1>   0.1500 
@<TRIPOS>BOND
  1   1   2  2   
  2   2   3  1   
  3   2   4  1   
  4   2   5  1   
  5   3   6  ar  
  6   3   7  ar  
  7   4   8  1   
  8   4  13  1   
  9   4  14  1   
 10   5   9  1   
 11   5  15  1   
 12   5  16  1   
 13   6  10  ar  
 14   6  17  1   
 15   7  11  ar  
 16   7  18  1   
 17   8  19  1   
 18   8  20  1   
 19   8  21  1   
 20   9  22  1   
 21   9  23  1   
 22   9  24  1   
 23  10  12  ar  
 24  10  25  1   
 25  11  12  ar  
 26  11  26  1   
 27  12  27  1   
@<TRIPOS>SUBSTRUCTURE
  1 ****   3 GROUP 4 **** **** 0

# MOE 2024.06 (io_trps.svl 2023.06)
