@<TRIPOS>MOLECULE
NONAME
34 34 1 0 0 
SMALL
USER_CHARGES


@<TRIPOS>ATOM
  1 BR      -0.8200     0.5200     0.5370 Br    1 <1>  -0.1110 
  2 C        0.4510     1.8820     0.0340 C.ar  1 <1>   0.1110 
  3 C       -0.0010     3.0520    -0.5600 C.ar  1 <1>   0.0820 
  4 C        1.7910     1.6540     0.2910 C.ar  1 <1>  -0.1500 
  5 O       -1.3190     3.2370    -0.8110 O.3   1 <1>  -0.3630 
  6 C        0.9480     4.0080    -0.9010 C.ar  1 <1>   0.1770 
  7 C        2.7240     2.6220    -0.0560 C.ar  1 <1>  -0.1440 
  8 C       -2.0330     3.9910     0.1330 C.3   1 <1>   0.1200 
  9 CL       0.4540     5.5100    -1.6540 Cl    1 <1>  -0.1770 
 10 C        2.2950     3.8010    -0.6530 C.ar  1 <1>  -0.1500 
 11 C        4.2000     2.3950     0.2160 C.3   1 <1>  -0.0960 
 12 C       -3.4670     4.1090    -0.3790 C.3   1 <1>  -0.1600 
 13 C       -4.3180     4.9320     0.5850 C.3   1 <1>   0.3430 
 14 N       -5.6860     5.1360     0.0250 N.4   1 <1>  -0.9590 
 15 C       -6.4090     6.2060     0.7790 C.3   1 <1>   0.2630 
 16 C       -6.4930     3.8730     0.0160 C.3   1 <1>   0.2630 
 17 H        2.0950     0.7320     0.7550 H     1 <1>   0.1500 
 18 H       -1.5660     4.9570     0.2220 H     1 <1>   0.0800 
 19 H       -1.9900     3.4730     1.0770 H     1 <1>   0.0800 
 20 H        3.0000     4.5640    -0.9290 H     1 <1>   0.1500 
 21 H        4.4320     1.3450     0.1930 H     1 <1>   0.0800 
 22 H        4.4570     2.7850     1.1850 H     1 <1>   0.0800 
 23 H        4.8010     2.8890    -0.5270 H     1 <1>   0.0800 
 24 H       -3.8670     3.1160    -0.4790 H     1 <1>   0.0800 
 25 H       -3.4430     4.5880    -1.3420 H     1 <1>   0.0800 
 26 H       -3.8440     5.8900     0.7320 H     1 <1>   0.0800 
 27 H       -4.3780     4.4350     1.5400 H     1 <1>   0.0800 
 28 H       -5.5750     5.4530    -0.9520 H     1 <1>   0.4500 
 29 H       -6.5420     5.9160     1.8090 H     1 <1>   0.0800 
 30 H       -7.3790     6.3810     0.3430 H     1 <1>   0.0800 
 31 H       -5.8500     7.1280     0.7490 H     1 <1>   0.0800 
 32 H       -6.6020     3.4900     1.0170 H     1 <1>   0.0800 
 33 H       -6.0110     3.1220    -0.5900 H     1 <1>   0.0800 
 34 H       -7.4740     4.0580    -0.3910 H     1 <1>   0.0800 
@<TRIPOS>BOND
  1   1   2  1   
  2   2   3  ar  
  3   2   4  ar  
  4   3   5  1   
  5   3   6  ar  
  6   4   7  ar  
  7   4  17  1   
  8   5   8  1   
  9   6   9  1   
 10   6  10  ar  
 11   7  10  ar  
 12   7  11  1   
 13   8  12  1   
 14   8  18  1   
 15   8  19  1   
 16  10  20  1   
 17  11  21  1   
 18  11  22  1   
 19  11  23  1   
 20  12  13  1   
 21  12  24  1   
 22  12  25  1   
 23  13  14  1   
 24  13  26  1   
 25  13  27  1   
 26  14  15  1   
 27  14  16  1   
 28  14  28  1   
 29  15  29  1   
 30  15  30  1   
 31  15  31  1   
 32  16  32  1   
 33  16  33  1   
 34  16  34  1   
@<TRIPOS>SUBSTRUCTURE
  1 ****   5 GROUP 4 **** **** 0

# MOE 2024.06 (io_trps.svl 2023.06)
