@<TRIPOS>MOLECULE
NONAME
45 48 1 0 0 
SMALL
USER_CHARGES


@<TRIPOS>ATOM
  1 N        0.1370    -0.0920     0.4370 N.3   1 <1>  -0.8100 
  2 C       -0.3380     1.0910    -0.3150 C.3   1 <1>   0.1100 
  3 C       -0.9450    -0.7170     1.2180 C.3   1 <1>   0.1100 
  4 C        1.3340     0.1830     1.2640 C.3   1 <1>   0.2540 
  5 C       -1.5180     0.7280    -1.2350 C.3   1 <1>   0.3430 
  6 C       -2.1340    -1.0970     0.3110 C.3   1 <1>   0.3430 
  7 C        2.4610     0.7940     0.4240 C.ar  1 <1>  -0.1440 
  8 N       -2.6440     0.0830    -0.4720 N.4   1 <1>  -0.9590 
  9 C        3.1730    -0.0500    -0.4430 C.ar  1 <1>   0.0000 
 10 C        2.7540     2.1660     0.5240 C.ar  1 <1>   0.0000 
 11 C       -3.7530    -0.3140    -1.3890 C.3   1 <1>   0.2630 
 12 C        4.2400     0.4950    -1.2080 C.ar  1 <1>   0.0000 
 13 C        2.9010    -1.4380    -0.6310 C.ar  1 <1>  -0.1500 
 14 C        3.8220     2.6900    -0.2560 C.ar  1 <1>   0.0000 
 15 C        2.0550     3.1040     1.3450 C.ar  1 <1>  -0.1500 
 16 C        4.5320     1.8420    -1.0900 C.ar  1 <1>  -0.1500 
 17 C        4.9800    -0.3480    -2.0770 C.ar  1 <1>  -0.1500 
 18 C        3.6270    -2.2210    -1.4760 C.ar  1 <1>  -0.1500 
 19 C        4.1440     4.0690    -0.1730 C.ar  1 <1>  -0.1500 
 20 C        2.3860     4.4240     1.3990 C.ar  1 <1>  -0.1500 
 21 C        4.6880    -1.6690    -2.2110 C.ar  1 <1>  -0.1500 
 22 C        3.4500     4.9170     0.6290 C.ar  1 <1>  -0.1500 
 23 H        0.4540     1.4700    -0.9390 H     1 <1>   0.0800 
 24 H       -0.6260     1.8740     0.3640 H     1 <1>   0.0800 
 25 H       -1.2760    -0.0470     1.9930 H     1 <1>   0.0800 
 26 H       -0.5700    -1.6110     1.6880 H     1 <1>   0.0800 
 27 H        1.6890    -0.7390     1.6900 H     1 <1>   0.0800 
 28 H        1.0690     0.8010     2.0990 H     1 <1>   0.0800 
 29 H       -1.1560     0.0510    -1.9910 H     1 <1>   0.0800 
 30 H       -1.8690     1.6200    -1.7280 H     1 <1>   0.0800 
 31 H       -2.9260    -1.5050     0.9180 H     1 <1>   0.0800 
 32 H       -1.8060    -1.8660    -0.3680 H     1 <1>   0.0800 
 33 H       -2.9910     0.7760     0.2030 H     1 <1>   0.4500 
 34 H       -3.4030    -1.0390    -2.1070 H     1 <1>   0.0800 
 35 H       -4.1240     0.5460    -1.9230 H     1 <1>   0.0800 
 36 H       -4.5660    -0.7470    -0.8290 H     1 <1>   0.0800 
 37 H        2.0900    -1.8880    -0.0940 H     1 <1>   0.1500 
 38 H        1.2330     2.7800     1.9480 H     1 <1>   0.1500 
 39 H        5.3400     2.2470    -1.6710 H     1 <1>   0.1500 
 40 H        5.7880     0.0880    -2.6350 H     1 <1>   0.1500 
 41 H        3.4060    -3.2670    -1.5990 H     1 <1>   0.1500 
 42 H        4.9620     4.4330    -0.7690 H     1 <1>   0.1500 
 43 H        1.8480     5.1120     2.0280 H     1 <1>   0.1500 
 44 H        5.2510    -2.3060    -2.8700 H     1 <1>   0.1500 
 45 H        3.6970     5.9630     0.6900 H     1 <1>   0.1500 
@<TRIPOS>BOND
  1   1   2  1   
  2   1   3  1   
  3   1   4  1   
  4   2   5  1   
  5   2  23  1   
  6   2  24  1   
  7   3   6  1   
  8   3  25  1   
  9   3  26  1   
 10   4   7  1   
 11   4  27  1   
 12   4  28  1   
 13   5   8  1   
 14   5  29  1   
 15   5  30  1   
 16   6   8  1   
 17   6  31  1   
 18   6  32  1   
 19   7   9  ar  
 20   7  10  ar  
 21   8  11  1   
 22   8  33  1   
 23   9  12  ar  
 24   9  13  ar  
 25  10  14  ar  
 26  10  15  ar  
 27  11  34  1   
 28  11  35  1   
 29  11  36  1   
 30  12  16  ar  
 31  12  17  ar  
 32  13  18  ar  
 33  13  37  1   
 34  14  16  ar  
 35  14  19  ar  
 36  15  20  ar  
 37  15  38  1   
 38  16  39  1   
 39  17  21  ar  
 40  17  40  1   
 41  18  21  ar  
 42  18  41  1   
 43  19  22  ar  
 44  19  42  1   
 45  20  22  ar  
 46  20  43  1   
 47  21  44  1   
 48  22  45  1   
@<TRIPOS>SUBSTRUCTURE
  1 ****   7 GROUP 4 **** **** 0

# MOE 2024.06 (io_trps.svl 2023.06)
