@<TRIPOS>MOLECULE
NONAME
39 40 1 0 0 
SMALL
USER_CHARGES


@<TRIPOS>ATOM
  1 CL       1.4550     1.1940    -1.4890 Cl    1 <1>  -0.1770 
  2 C        0.5140     2.2760    -0.4810 C.ar  1 <1>   0.1770 
  3 C        0.8320     2.5300     0.8560 C.ar  1 <1>   0.0820 
  4 C       -0.5940     2.8600    -1.0690 C.ar  1 <1>  -0.1500 
  5 O        1.8990     2.0190     1.5230 O.3   1 <1>  -0.3630 
  6 C       -0.0030     3.3610     1.5860 C.ar  1 <1>  -0.1500 
  7 C       -1.4170     3.7040    -0.3360 C.ar  1 <1>  -0.1430 
  8 C        3.1730     1.9900     0.9180 C.3   1 <1>   0.0400 
  9 C       -1.1120     3.9440     0.9980 C.ar  1 <1>  -0.1500 
 10 C       -2.6450     4.3410    -0.9880 C.3   1 <1>   0.5020 
 11 N       -2.5350     5.8030    -0.8190 N.am  1 <1>  -0.7300 
 12 C       -3.9330     3.7710    -0.3890 C.2   1 <1>  -0.1240 
 13 C       -3.3460     6.5210    -0.0260 C.2   1 <1>   0.6900 
 14 C       -4.7550     4.5860     0.3290 C.2   1 <1>  -0.0290 
 15 C       -4.0800     2.3800    -0.6850 C.2   1 <1>   0.7060 
 16 O       -3.1080     7.6820     0.2140 O.2   1 <1>  -0.5700 
 17 N       -4.4280     5.9130     0.5190 N.am  1 <1>  -0.5390 
 18 C       -6.0770     4.1920     0.9720 C.3   1 <1>  -0.1020 
 19 O       -3.6010     1.8640    -1.6780 O.2   1 <1>  -0.5700 
 20 O       -4.7510     1.6050     0.1710 O.3   1 <1>  -0.4300 
 21 C       -4.8850     0.2170    -0.0370 C.3   1 <1>   0.1200 
 22 C       -5.7010    -0.3560     1.1170 C.3   1 <1>  -0.2400 
 23 H       -0.8120     2.6360    -2.0990 H     1 <1>   0.1500 
 24 H        0.2250     3.5520     2.6200 H     1 <1>   0.1500 
 25 H        3.2890     1.0580     0.3950 H     1 <1>   0.0800 
 26 H        3.9130     2.0590     1.6950 H     1 <1>   0.0800 
 27 H        3.2690     2.8240     0.2440 H     1 <1>   0.0800 
 28 H       -1.7420     4.5880     1.5890 H     1 <1>   0.1500 
 29 H       -2.6360     4.1390    -2.0460 H     1 <1>   0.0800 
 30 H       -1.6510     6.2310    -1.0820 H     1 <1>   0.3700 
 31 H       -5.0070     6.5380     1.0800 H     1 <1>   0.3700 
 32 H       -6.8070     4.9670     0.8210 H     1 <1>   0.0800 
 33 H       -5.9400     4.0470     2.0280 H     1 <1>   0.0800 
 34 H       -6.4780     3.2910     0.5480 H     1 <1>   0.0800 
 35 H       -3.9010    -0.2200    -0.0690 H     1 <1>   0.0800 
 36 H       -5.3830     0.0580    -0.9790 H     1 <1>   0.0800 
 37 H       -5.1970    -0.1790     2.0500 H     1 <1>   0.0800 
 38 H       -5.8170    -1.4170     0.9870 H     1 <1>   0.0800 
 39 H       -6.6770     0.0940     1.1420 H     1 <1>   0.0800 
@<TRIPOS>BOND
  1   1   2  1   
  2   2   3  ar  
  3   2   4  ar  
  4   3   5  1   
  5   3   6  ar  
  6   4   7  ar  
  7   4  23  1   
  8   5   8  1   
  9   6   9  ar  
 10   6  24  1   
 11   7   9  ar  
 12   7  10  1   
 13   8  25  1   
 14   8  26  1   
 15   8  27  1   
 16   9  28  1   
 17  10  11  1   
 18  10  12  1   
 19  10  29  1   
 20  11  13  am  
 21  11  30  1   
 22  12  14  2   
 23  12  15  1   
 24  13  16  2   
 25  13  17  am  
 26  14  17  1   
 27  14  18  1   
 28  15  19  2   
 29  15  20  1   
 30  17  31  1   
 31  18  32  1   
 32  18  33  1   
 33  18  34  1   
 34  20  21  1   
 35  21  22  1   
 36  21  35  1   
 37  21  36  1   
 38  22  37  1   
 39  22  38  1   
 40  22  39  1   
@<TRIPOS>SUBSTRUCTURE
  1 ****   7 GROUP 4 **** **** 0

# MOE 2024.06 (io_trps.svl 2023.06)
