@<TRIPOS>MOLECULE
NONAME
24 24 1 0 0 
SMALL
USER_CHARGES


@<TRIPOS>ATOM
  1 O       -0.3580     0.2390     0.6890 O.2   1 <1>  -0.5700 
  2 C       -0.0260     1.3780     0.4270 C.2   1 <1>   0.6160 
  3 N        1.2590     1.8530     0.4490 N.am  1 <1>  -0.4200 
  4 C       -0.8960     2.4560     0.0620 C.2   1 <1>  -0.1240 
  5 C        1.2270     3.1860     0.1320 C.2   1 <1>   0.6160 
  6 C        2.4750     1.0570     0.7360 C.3   1 <1>   0.1400 
  7 C       -0.1350     3.5540    -0.1170 C.2   1 <1>  -0.1240 
  8 C       -2.4010     2.2710    -0.0680 C.3   1 <1>  -0.1020 
  9 O        2.1930     3.9210     0.0880 O.2   1 <1>  -0.5700 
 10 C        3.0300     0.4610    -0.5560 C.3   1 <1>  -0.2660 
 11 C       -0.5310     4.9700    -0.5080 C.3   1 <1>  -0.1020 
 12 C        4.2700    -0.3560    -0.3020 C.2   1 <1>   0.9060 
 13 O        4.8150    -0.8880    -1.2710 O.co2 1 <1>  -0.9000 
 14 O        4.7000    -0.4690     0.8500 O.co2 1 <1>  -0.9000 
 15 H        2.2350     0.2660     1.4260 H     1 <1>   0.0800 
 16 H        3.2200     1.6870     1.1930 H     1 <1>   0.0800 
 17 H       -2.6090     1.5260    -0.8150 H     1 <1>   0.0800 
 18 H       -2.8870     3.1870    -0.3480 H     1 <1>   0.0800 
 19 H       -2.8070     1.9350     0.8700 H     1 <1>   0.0800 
 20 H        3.2930     1.2410    -1.2430 H     1 <1>   0.0800 
 21 H        2.3050    -0.1870    -1.0080 H     1 <1>   0.0800 
 22 H       -0.0330     5.2450    -1.4220 H     1 <1>   0.0800 
 23 H       -0.2280     5.6560     0.2630 H     1 <1>   0.0800 
 24 H       -1.5910     5.0570    -0.6530 H     1 <1>   0.0800 
@<TRIPOS>BOND
  1   1   2  2   
  2   2   3  am  
  3   2   4  1   
  4   3   5  am  
  5   3   6  1   
  6   4   7  2   
  7   4   8  1   
  8   5   7  1   
  9   5   9  2   
 10   6  10  1   
 11   6  15  1   
 12   6  16  1   
 13   7  11  1   
 14   8  17  1   
 15   8  18  1   
 16   8  19  1   
 17  10  12  1   
 18  10  20  1   
 19  10  21  1   
 20  11  22  1   
 21  11  23  1   
 22  11  24  1   
 23  12  13  ar  
 24  12  14  ar  
@<TRIPOS>SUBSTRUCTURE
  1 ****   3 GROUP 4 **** **** 0

# MOE 2024.06 (io_trps.svl 2023.06)
