@<TRIPOS>MOLECULE
NONAME
35 38 1 0 0 
SMALL
USER_CHARGES


@<TRIPOS>ATOM
  1 BR      -0.4080     0.6830    -0.8210 Br    1 <1>  -0.1110 
  2 C       -2.3140     0.4670    -0.6570 C.ar  1 <1>   0.1110 
  3 C       -3.0810     1.5590    -0.3000 C.ar  1 <1>  -0.1500 
  4 C       -2.8690    -0.7740    -0.9010 C.ar  1 <1>  -0.1500 
  5 C       -4.4510     1.3950    -0.1840 C.ar  1 <1>  -0.1500 
  6 C       -4.2400    -0.9210    -0.7810 C.ar  1 <1>  -0.1500 
  7 C       -5.0500     0.1570    -0.4220 C.ar  1 <1>   0.1170 
  8 N       -6.4510    -0.0010    -0.3020 N.am  1 <1>  -0.2370 
  9 C       -7.1050    -1.1270     0.1800 C.2   1 <1>   0.5690 
 10 C       -7.4080     0.9420    -0.6470 C.2   1 <1>   0.5690 
 11 O       -6.6390    -2.0680     0.7680 O.2   1 <1>  -0.5700 
 12 C       -8.5460    -1.0070    -0.2120 C.3   1 <1>  -0.0190 
 13 O       -7.2720     1.9520    -1.2860 O.2   1 <1>  -0.5700 
 14 C       -8.6950     0.4980    -0.0310 C.3   1 <1>  -0.0190 
 15 C       -9.9520    -1.4670     0.2190 C.3   1 <1>   0.4180 
 16 C      -10.2100     0.6440    -0.1010 C.3   1 <1>   0.4180 
 17 O      -10.4630    -0.3390     0.8520 O.3   1 <1>  -0.5600 
 18 C      -10.7800    -1.3510    -1.0420 C.2   1 <1>  -0.2880 
 19 C      -10.1180    -2.7130     1.0730 C.3   1 <1>  -0.2400 
 20 C      -10.8850    -0.0440    -1.2740 C.2   1 <1>  -0.2880 
 21 C      -10.8230     1.9660     0.3400 C.3   1 <1>  -0.2400 
 22 H       -2.6170     2.5120    -0.1190 H     1 <1>   0.1500 
 23 H       -2.2410    -1.6030    -1.1750 H     1 <1>   0.1500 
 24 H       -5.0550     2.2420     0.0910 H     1 <1>   0.1500 
 25 H       -4.6780    -1.8860    -0.9660 H     1 <1>   0.1500 
 26 H       -8.4870    -1.2520    -1.2610 H     1 <1>   0.0800 
 27 H       -8.5020     0.7490     1.0030 H     1 <1>   0.0800 
 28 H      -11.1210    -2.2200    -1.5770 H     1 <1>   0.1500 
 29 H       -9.5480    -2.6150     1.9790 H     1 <1>   0.0800 
 30 H       -9.7620    -3.5730     0.5350 H     1 <1>   0.0800 
 31 H      -11.1550    -2.8560     1.3120 H     1 <1>   0.0800 
 32 H      -11.3380     0.5220    -2.0680 H     1 <1>   0.1500 
 33 H      -10.4290     2.2650     1.2930 H     1 <1>   0.0800 
 34 H      -11.8900     1.8650     0.4110 H     1 <1>   0.0800 
 35 H      -10.5950     2.7270    -0.3840 H     1 <1>   0.0800 
@<TRIPOS>BOND
  1   1   2  1   
  2   2   3  ar  
  3   2   4  ar  
  4   3   5  ar  
  5   3  22  1   
  6   4   6  ar  
  7   4  23  1   
  8   5   7  ar  
  9   5  24  1   
 10   6   7  ar  
 11   6  25  1   
 12   7   8  1   
 13   8   9  am  
 14   8  10  am  
 15   9  11  2   
 16   9  12  1   
 17  10  13  2   
 18  10  14  1   
 19  12  14  1   
 20  12  15  1   
 21  12  26  1   
 22  14  16  1   
 23  14  27  1   
 24  15  17  1   
 25  15  18  1   
 26  15  19  1   
 27  16  17  1   
 28  16  20  1   
 29  16  21  1   
 30  18  20  2   
 31  18  28  1   
 32  19  29  1   
 33  19  30  1   
 34  19  31  1   
 35  20  32  1   
 36  21  33  1   
 37  21  34  1   
 38  21  35  1   
@<TRIPOS>SUBSTRUCTURE
  1 ****   8 GROUP 4 **** **** 0

# MOE 2024.06 (io_trps.svl 2023.06)
