@<TRIPOS>MOLECULE
NONAME
45 47 1 0 0 
SMALL
USER_CHARGES


@<TRIPOS>ATOM
  1 S       -0.0290     0.2360    -1.4560 S.o2  1 <1>   1.4470 
  2 O        0.2200     1.3770    -2.3090 O.2   1 <1>  -0.6500 
  3 O       -0.6410    -0.9500    -2.0170 O.2   1 <1>  -0.6500 
  4 N       -1.0250     0.7560    -0.1880 N.am  1 <1>  -0.8490 
  5 C        1.5170    -0.2010    -0.6080 C.ar  1 <1>  -0.0090 
  6 C       -1.4510    -0.3580     0.6670 C.3   1 <1>   0.1960 
  7 C       -2.1830     1.5000    -0.6930 C.3   1 <1>   0.1960 
  8 C        2.1350     0.6960     0.2550 C.ar  1 <1>  -0.1500 
  9 C        2.1240    -1.4370    -0.7930 C.ar  1 <1>  -0.1500 
 10 C       -2.2120     0.1720     1.8860 C.3   1 <1>  -0.1600 
 11 C       -2.9850     2.0920     0.4710 C.3   1 <1>  -0.1600 
 12 C        3.3130     0.3730     0.9040 C.ar  1 <1>  -0.1500 
 13 C        3.3030    -1.7610    -0.1440 C.ar  1 <1>  -0.1500 
 14 C       -3.4250     1.0080     1.4620 C.3   1 <1>  -0.1600 
 15 C        3.9310    -0.8610     0.7120 C.ar  1 <1>   0.0860 
 16 C        5.1760    -1.2040     1.3750 C.2   1 <1>   0.5440 
 17 O        5.2480    -2.2510     1.9900 O.2   1 <1>  -0.5700 
 18 N        6.2830    -0.3840     1.3160 N.am  1 <1>  -0.6600 
 19 C        6.4850     0.6750     0.2800 C.3   1 <1>   0.1400 
 20 C        7.5060    -0.6370     2.1380 C.3   1 <1>   0.1400 
 21 C        7.7780     0.4160    -0.5130 C.3   1 <1>   0.1200 
 22 C        8.7360    -0.8220     1.2350 C.3   1 <1>   0.1200 
 23 O        8.8660     0.2580     0.3520 O.3   1 <1>  -0.5600 
 24 H       -0.5900    -0.9090     1.0080 H     1 <1>   0.0800 
 25 H       -2.0820    -1.0320     0.1080 H     1 <1>   0.0800 
 26 H       -2.8090     0.8480    -1.2820 H     1 <1>   0.0800 
 27 H       -1.8510     2.3070    -1.3260 H     1 <1>   0.0800 
 28 H        1.6790     1.6590     0.4190 H     1 <1>   0.1500 
 29 H        1.6670    -2.1570    -1.4520 H     1 <1>   0.1500 
 30 H       -1.5440     0.7720     2.4790 H     1 <1>   0.0800 
 31 H       -2.5370    -0.6550     2.4920 H     1 <1>   0.0800 
 32 H       -3.8490     2.6020     0.0850 H     1 <1>   0.0800 
 33 H       -2.3730     2.8190     0.9760 H     1 <1>   0.0800 
 34 H        3.7660     1.0840     1.5740 H     1 <1>   0.1500 
 35 H        3.7520    -2.7290    -0.2960 H     1 <1>   0.1500 
 36 H       -3.8820     1.4600     2.3250 H     1 <1>   0.0800 
 37 H       -4.1540     0.3690     0.9920 H     1 <1>   0.0800 
 38 H        6.5530     1.6340     0.7620 H     1 <1>   0.0800 
 39 H        5.6600     0.7030    -0.4080 H     1 <1>   0.0800 
 40 H        7.3820    -1.5120     2.7520 H     1 <1>   0.0800 
 41 H        7.6710     0.2010     2.7920 H     1 <1>   0.0800 
 42 H        7.9910     1.2480    -1.1590 H     1 <1>   0.0800 
 43 H        7.6820    -0.4730    -1.1120 H     1 <1>   0.0800 
 44 H        8.6510    -1.7300     0.6640 H     1 <1>   0.0800 
 45 H        9.6290    -0.8690     1.8310 H     1 <1>   0.0800 
@<TRIPOS>BOND
  1   1   2  2   
  2   1   3  2   
  3   1   4  am  
  4   1   5  1   
  5   4   6  1   
  6   4   7  1   
  7   5   8  ar  
  8   5   9  ar  
  9   6  10  1   
 10   6  24  1   
 11   6  25  1   
 12   7  11  1   
 13   7  26  1   
 14   7  27  1   
 15   8  12  ar  
 16   8  28  1   
 17   9  13  ar  
 18   9  29  1   
 19  10  14  1   
 20  10  30  1   
 21  10  31  1   
 22  11  14  1   
 23  11  32  1   
 24  11  33  1   
 25  12  15  ar  
 26  12  34  1   
 27  13  15  ar  
 28  13  35  1   
 29  14  36  1   
 30  14  37  1   
 31  15  16  1   
 32  16  17  2   
 33  16  18  am  
 34  18  19  1   
 35  18  20  1   
 36  19  21  1   
 37  19  38  1   
 38  19  39  1   
 39  20  22  1   
 40  20  40  1   
 41  20  41  1   
 42  21  23  1   
 43  21  42  1   
 44  21  43  1   
 45  22  23  1   
 46  22  44  1   
 47  22  45  1   
@<TRIPOS>SUBSTRUCTURE
  1 ****   8 GROUP 4 **** **** 0

# MOE 2024.06 (io_trps.svl 2023.06)
