@<TRIPOS>MOLECULE
NONAME
50 53 1 0 0 
SMALL
USER_CHARGES


@<TRIPOS>ATOM
  1 O       -0.9120     1.2960     2.6550 O.2   1 <1>  -0.5700 
  2 C       -1.2150     2.0220     1.7330 C.2   1 <1>   0.5690 
  3 N       -2.4480     1.9080     1.1300 N.am  1 <1>  -0.6600 
  4 C       -0.2020     3.0880     1.2880 C.3   1 <1>   0.2610 
  5 C       -3.4330     0.8580     1.5440 C.3   1 <1>   0.1400 
  6 C       -2.9490     2.7580    -0.0010 C.3   1 <1>   0.1400 
  7 O        0.1530     2.9080    -0.0820 O.3   1 <1>  -0.3630 
  8 C        1.0730     3.0940     2.1480 C.3   1 <1>   0.1200 
  9 C       -4.8080     1.4620     1.8780 C.3   1 <1>   0.2090 
 10 C       -4.3180     3.3850     0.3190 C.3   1 <1>   0.2090 
 11 C        1.2270     3.6020    -0.5370 C.ar  1 <1>   0.0820 
 12 O        1.9700     4.0920     1.6900 O.3   1 <1>  -0.3630 
 13 N       -5.3050     2.3810     0.8100 N.pl3 1 <1>  -0.8380 
 14 C        2.1240     4.2050     0.3460 C.ar  1 <1>   0.0820 
 15 C        1.4220     3.7110    -1.9030 C.ar  1 <1>  -0.1500 
 16 C       -6.2650     1.9080    -0.0860 C.ar  1 <1>   0.1000 
 17 C        3.1960     4.9300    -0.1460 C.ar  1 <1>  -0.1500 
 18 C        2.5000     4.4320    -2.3910 C.ar  1 <1>  -0.1500 
 19 C       -7.5880     2.3600    -0.0380 C.ar  1 <1>  -0.1440 
 20 C       -5.9000     0.9780    -1.0510 C.ar  1 <1>  -0.1500 
 21 C        3.3830     5.0430    -1.5140 C.ar  1 <1>  -0.1500 
 22 C       -8.5170     1.8850    -0.9630 C.ar  1 <1>  -0.1440 
 23 C       -7.9700     3.3790     1.0370 C.3   1 <1>  -0.0970 
 24 C       -6.8210     0.5010    -1.9600 C.ar  1 <1>  -0.1500 
 25 C       -8.1250     0.9550    -1.9150 C.ar  1 <1>  -0.1500 
 26 C       -9.9660     2.3510    -0.9770 C.3   1 <1>  -0.0970 
 27 H       -0.6720     4.0490     1.3750 H     1 <1>   0.0800 
 28 H       -3.0750     0.3190     2.4040 H     1 <1>   0.0800 
 29 H       -3.5450     0.1490     0.7440 H     1 <1>   0.0800 
 30 H       -3.0450     2.1450    -0.8790 H     1 <1>   0.0800 
 31 H       -2.2600     3.5470    -0.2320 H     1 <1>   0.0800 
 32 H        1.5690     2.1410     2.0890 H     1 <1>   0.0800 
 33 H        0.8390     3.3040     3.1760 H     1 <1>   0.0800 
 34 H       -4.7370     2.0090     2.8010 H     1 <1>   0.0800 
 35 H       -5.5200     0.6670     2.0240 H     1 <1>   0.0800 
 36 H       -4.7070     3.8610    -0.5650 H     1 <1>   0.0800 
 37 H       -4.1940     4.1440     1.0710 H     1 <1>   0.0800 
 38 H        0.7330     3.2340    -2.5770 H     1 <1>   0.1500 
 39 H        3.8780     5.3960     0.5420 H     1 <1>   0.1500 
 40 H        2.6530     4.5190    -3.4530 H     1 <1>   0.1500 
 41 H       -4.8870     0.6290    -1.0880 H     1 <1>   0.1500 
 42 H        4.2180     5.6040    -1.8960 H     1 <1>   0.1500 
 43 H       -7.5520     3.0860     1.9820 H     1 <1>   0.0800 
 44 H       -9.0300     3.4660     1.1700 H     1 <1>   0.0800 
 45 H       -7.5740     4.3410     0.7720 H     1 <1>   0.0800 
 46 H       -6.5270    -0.2200    -2.7010 H     1 <1>   0.1500 
 47 H       -8.8330     0.5780    -2.6310 H     1 <1>   0.1500 
 48 H      -10.0080     3.4230    -1.0290 H     1 <1>   0.0800 
 49 H      -10.4660     2.0190    -0.0850 H     1 <1>   0.0800 
 50 H      -10.4930     1.9550    -1.8260 H     1 <1>   0.0800 
@<TRIPOS>BOND
  1   1   2  2   
  2   2   3  am  
  3   2   4  1   
  4   3   5  1   
  5   3   6  1   
  6   4   7  1   
  7   4   8  1   
  8   4  27  1   
  9   5   9  1   
 10   5  28  1   
 11   5  29  1   
 12   6  10  1   
 13   6  30  1   
 14   6  31  1   
 15   7  11  1   
 16   8  12  1   
 17   8  32  1   
 18   8  33  1   
 19   9  13  1   
 20   9  34  1   
 21   9  35  1   
 22  10  13  1   
 23  10  36  1   
 24  10  37  1   
 25  11  14  ar  
 26  11  15  ar  
 27  12  14  1   
 28  13  16  1   
 29  14  17  ar  
 30  15  18  ar  
 31  15  38  1   
 32  16  19  ar  
 33  16  20  ar  
 34  17  21  ar  
 35  17  39  1   
 36  18  21  ar  
 37  18  40  1   
 38  19  22  ar  
 39  19  23  1   
 40  20  24  ar  
 41  20  41  1   
 42  21  42  1   
 43  22  25  ar  
 44  22  26  1   
 45  23  43  1   
 46  23  44  1   
 47  23  45  1   
 48  24  25  ar  
 49  24  46  1   
 50  25  47  1   
 51  26  48  1   
 52  26  49  1   
 53  26  50  1   
@<TRIPOS>SUBSTRUCTURE
  1 ****   6 GROUP 4 **** **** 0

# MOE 2024.06 (io_trps.svl 2023.06)
