@<TRIPOS>MOLECULE
NONAME
46 47 1 0 0 
SMALL
USER_CHARGES


@<TRIPOS>ATOM
  1 BR      -0.7230    -1.1040    -0.8430 Br    1 <1>  -0.1110 
  2 C        0.8440     0.0240    -0.8380 C.ar  1 <1>   0.1110 
  3 C        0.6910     1.4170    -0.8240 C.ar  1 <1>   0.0830 
  4 C        2.0780    -0.5750    -0.8530 C.ar  1 <1>  -0.1500 
  5 O       -0.5440     1.9830    -0.8200 O.3   1 <1>  -0.2320 
  6 C        1.8090     2.2210    -0.8410 C.ar  1 <1>  -0.1500 
  7 C        3.2070     0.2520    -0.8610 C.ar  1 <1>  -0.1520 
  8 C       -1.3100     2.1200     0.2600 C.2   1 <1>   0.6590 
  9 C        3.0880     1.6410    -0.8590 C.ar  1 <1>   0.0000 
 10 N        4.5390    -0.0790    -0.8860 N.pl3 1 <1>   0.0480 
 11 O       -2.4250     2.5550     0.1660 O.2   1 <1>  -0.5700 
 12 C       -0.7510     1.7460     1.6190 C.3   1 <1>  -0.1790 
 13 C        4.4100     2.1700    -0.8810 C.2   1 <1>  -0.0860 
 14 C        5.2530     1.0810    -0.8900 C.2   1 <1>  -0.3320 
 15 C        5.0200    -1.4740    -1.0040 C.3   1 <1>   0.0160 
 16 C        4.7640     3.5710    -0.8930 C.2   1 <1>   0.8060 
 17 C        6.7700     1.1270    -0.9400 C.3   1 <1>   0.5230 
 18 O        5.9090     3.9390    -0.7040 O.2   1 <1>  -0.5700 
 19 O        3.8140     4.4830    -1.1070 O.3   1 <1>  -0.4300 
 20 N        7.2780     0.8640     0.4300 N.4   1 <1>  -0.9590 
 21 C        4.0570     5.8740    -1.1140 C.3   1 <1>   0.1200 
 22 C        7.0310     2.0420     1.3200 C.3   1 <1>   0.2630 
 23 C        8.7310     0.5230     0.4100 C.3   1 <1>   0.2630 
 24 C        3.9870     6.3950     0.3210 C.3   1 <1>  -0.2400 
 25 H        2.1650    -1.6470    -0.8630 H     1 <1>   0.1500 
 26 H        1.6910     3.2890    -0.8460 H     1 <1>   0.1500 
 27 H        0.1580     2.2860     1.8040 H     1 <1>   0.0800 
 28 H       -1.4660     2.0000     2.3800 H     1 <1>   0.0800 
 29 H       -0.5630     0.6910     1.6630 H     1 <1>   0.0800 
 30 H        4.5940    -1.9180    -1.8860 H     1 <1>   0.0800 
 31 H        4.7030    -2.0330    -0.1420 H     1 <1>   0.0800 
 32 H        6.0900    -1.5050    -1.0790 H     1 <1>   0.0800 
 33 H        7.1110     2.0900    -1.2830 H     1 <1>   0.0800 
 34 H        7.1290     0.3780    -1.6270 H     1 <1>   0.0800 
 35 H        6.7330     0.0750     0.7980 H     1 <1>   0.4500 
 36 H        3.2910     6.3350    -1.7140 H     1 <1>   0.0800 
 37 H        5.0170     6.0720    -1.5630 H     1 <1>   0.0800 
 38 H        7.5260     2.9180     0.9300 H     1 <1>   0.0800 
 39 H        7.3980     1.8480     2.3140 H     1 <1>   0.0800 
 40 H        5.9740     2.2500     1.3790 H     1 <1>   0.0800 
 41 H        9.3050     1.3490     0.0220 H     1 <1>   0.0800 
 42 H        8.9070    -0.3420    -0.2090 H     1 <1>   0.0800 
 43 H        9.0760     0.3050     1.4090 H     1 <1>   0.0800 
 44 H        3.0260     6.1770     0.7510 H     1 <1>   0.0800 
 45 H        4.1240     7.4620     0.3220 H     1 <1>   0.0800 
 46 H        4.7630     5.9560     0.9210 H     1 <1>   0.0800 
@<TRIPOS>BOND
  1   1   2  1   
  2   2   3  ar  
  3   2   4  ar  
  4   3   5  1   
  5   3   6  ar  
  6   4   7  ar  
  7   4  25  1   
  8   5   8  1   
  9   6   9  ar  
 10   6  26  1   
 11   7   9  ar  
 12   7  10  1   
 13   8  11  2   
 14   8  12  1   
 15   9  13  1   
 16  10  14  1   
 17  10  15  1   
 18  12  27  1   
 19  12  28  1   
 20  12  29  1   
 21  13  14  2   
 22  13  16  1   
 23  14  17  1   
 24  15  30  1   
 25  15  31  1   
 26  15  32  1   
 27  16  18  2   
 28  16  19  1   
 29  17  20  1   
 30  17  33  1   
 31  17  34  1   
 32  19  21  1   
 33  20  22  1   
 34  20  23  1   
 35  20  35  1   
 36  21  24  1   
 37  21  36  1   
 38  21  37  1   
 39  22  38  1   
 40  22  39  1   
 41  22  40  1   
 42  23  41  1   
 43  23  42  1   
 44  23  43  1   
 45  24  44  1   
 46  24  45  1   
 47  24  46  1   
@<TRIPOS>SUBSTRUCTURE
  1 ****   9 GROUP 4 **** **** 0

# MOE 2024.06 (io_trps.svl 2023.06)
