@<TRIPOS>MOLECULE
NONAME
37 37 1 0 0 
SMALL
USER_CHARGES


@<TRIPOS>ATOM
  1 O       -1.2770    -1.2460     1.5700 O.3   1 <1>  -0.5600 
  2 C       -2.5870    -0.7620     1.6560 C.3   1 <1>   0.1200 
  3 C       -1.2010    -2.5240     1.0050 C.3   1 <1>   0.1200 
  4 C       -3.2350    -0.7040     0.2610 C.3   1 <1>   0.1100 
  5 C       -1.7970    -2.5190    -0.4140 C.3   1 <1>   0.1100 
  6 N       -3.1860    -2.0230    -0.4060 N.3   1 <1>  -0.8100 
  7 C       -3.7320    -1.9730    -1.7710 C.3   1 <1>   0.3100 
  8 C       -5.1970    -1.6900    -1.7440 C.1   1 <1>  -0.2000 
  9 C       -6.3630    -1.4620    -1.6990 C.1   1 <1>  -0.2000 
 10 C       -7.8270    -1.1930    -1.5910 C.3   1 <1>   0.0400 
 11 C       -8.4460    -1.9210    -0.3910 C.3   1 <1>   0.2000 
 12 O       -9.8260    -1.7250    -0.4550 O.3   1 <1>  -0.5600 
 13 C       -7.9470    -1.3800     0.9540 C.3   1 <1>  -0.2400 
 14 C      -10.6000    -2.7450     0.0940 C.3   1 <1>   0.1200 
 15 C      -12.0660    -2.3470    -0.0450 C.3   1 <1>   0.0400 
 16 C      -12.9360    -3.4090     0.5240 C.1   1 <1>   0.3570 
 17 N      -13.5860    -4.2310     0.9630 N.1   1 <1>  -0.5570 
 18 H       -2.5460     0.2210     2.0890 H     1 <1>   0.0800 
 19 H       -3.1520    -1.4060     2.3060 H     1 <1>   0.0800 
 20 H       -1.7350    -3.2130     1.6350 H     1 <1>   0.0800 
 21 H       -0.1640    -2.8080     0.9740 H     1 <1>   0.0800 
 22 H       -2.7210     0.0320    -0.3330 H     1 <1>   0.0800 
 23 H       -4.2590    -0.3900     0.3710 H     1 <1>   0.0800 
 24 H       -1.7780    -3.5230    -0.8040 H     1 <1>   0.0800 
 25 H       -1.1850    -1.8980    -1.0460 H     1 <1>   0.0800 
 26 H       -3.5820    -2.9240    -2.2520 H     1 <1>   0.0800 
 27 H       -3.2260    -1.2160    -2.3460 H     1 <1>   0.0800 
 28 H       -8.3020    -1.5320    -2.4940 H     1 <1>   0.0800 
 29 H       -7.9850    -0.1340    -1.4950 H     1 <1>   0.0800 
 30 H       -8.2330    -2.9750    -0.4780 H     1 <1>   0.0800 
 31 H       -8.1830    -0.3350     1.0460 H     1 <1>   0.0800 
 32 H       -6.8790    -1.4950     1.0230 H     1 <1>   0.0800 
 33 H       -8.3860    -1.9190     1.7720 H     1 <1>   0.0800 
 34 H      -10.3400    -2.8680     1.1320 H     1 <1>   0.0800 
 35 H      -10.4020    -3.6570    -0.4440 H     1 <1>   0.0800 
 36 H      -12.3110    -2.2150    -1.0820 H     1 <1>   0.0800 
 37 H      -12.2460    -1.4300     0.4840 H     1 <1>   0.0800 
@<TRIPOS>BOND
  1   1   2  1   
  2   1   3  1   
  3   2   4  1   
  4   2  18  1   
  5   2  19  1   
  6   3   5  1   
  7   3  20  1   
  8   3  21  1   
  9   4   6  1   
 10   4  22  1   
 11   4  23  1   
 12   5   6  1   
 13   5  24  1   
 14   5  25  1   
 15   6   7  1   
 16   7   8  1   
 17   7  26  1   
 18   7  27  1   
 19   8   9  3   
 20   9  10  1   
 21  10  11  1   
 22  10  28  1   
 23  10  29  1   
 24  11  12  1   
 25  11  13  1   
 26  11  30  1   
 27  12  14  1   
 28  13  31  1   
 29  13  32  1   
 30  13  33  1   
 31  14  15  1   
 32  14  34  1   
 33  14  35  1   
 34  15  16  1   
 35  15  36  1   
 36  15  37  1   
 37  16  17  3   
@<TRIPOS>SUBSTRUCTURE
  1 ****   9 GROUP 4 **** **** 0

# MOE 2024.06 (io_trps.svl 2023.06)
