@<TRIPOS>MOLECULE
NONAME
32 33 1 0 0 
SMALL
USER_CHARGES


@<TRIPOS>ATOM
  1 S        0.1680     0.9150     0.0740 S.3   1 <1>  -0.4600 
  2 C       -1.5700     0.4040     0.0740 C.3   1 <1>   0.0700 
  3 C        0.9040    -0.6980     0.4380 C.3   1 <1>   0.0700 
  4 C       -1.5350    -1.0110     0.6560 C.3   1 <1>   0.2000 
  5 C       -0.2360    -1.6830     0.1830 C.3   1 <1>   0.2200 
  6 O       -2.6430    -1.7790     0.2260 O.3   1 <1>  -0.4300 
  7 N       -0.0040    -2.9830     0.8640 N.am  1 <1>  -0.7300 
  8 C       -3.8630    -1.6300     0.7440 C.2   1 <1>   0.6340 
  9 C       -0.3500    -4.1620     0.3250 C.2   1 <1>   0.6900 
 10 O       -4.0590    -0.7110     1.5110 O.2   1 <1>  -0.5700 
 11 C       -4.8810    -2.5870     0.3580 C.ar  1 <1>   0.0860 
 12 O       -0.9090    -4.9890     1.0040 O.2   1 <1>  -0.5700 
 13 N       -0.0760    -4.4310    -0.9530 N.am  1 <1>  -0.8000 
 14 C       -6.2370    -2.3050     0.5300 C.ar  1 <1>  -0.1500 
 15 C       -4.5520    -3.8290    -0.1930 C.ar  1 <1>  -0.1500 
 16 C       -7.2180    -3.2080     0.1620 C.ar  1 <1>  -0.1500 
 17 C       -5.5270    -4.7360    -0.5630 C.ar  1 <1>  -0.1500 
 18 C       -6.8640    -4.4270    -0.3870 C.ar  1 <1>  -0.1500 
 19 H       -1.9060     0.4150    -0.9470 H     1 <1>   0.0800 
 20 H       -2.1290     1.0910     0.6860 H     1 <1>   0.0800 
 21 H        1.2060    -0.6820     1.4700 H     1 <1>   0.0800 
 22 H        1.7420    -0.8480    -0.2180 H     1 <1>   0.0800 
 23 H       -1.5450    -0.9590     1.7320 H     1 <1>   0.0800 
 24 H       -0.3090    -1.8330    -0.8800 H     1 <1>   0.0800 
 25 H       -0.1940    -2.9640     1.8660 H     1 <1>   0.3700 
 26 H       -0.2410    -5.3840    -1.2700 H     1 <1>   0.3700 
 27 H        0.6460    -3.9110    -1.4420 H     1 <1>   0.3700 
 28 H       -6.5230    -1.3600     0.9610 H     1 <1>   0.1500 
 29 H       -3.5150    -4.0930    -0.3290 H     1 <1>   0.1500 
 30 H       -8.2570    -2.9650     0.3040 H     1 <1>   0.1500 
 31 H       -5.2460    -5.6860    -0.9850 H     1 <1>   0.1500 
 32 H       -7.6240    -5.1330    -0.6740 H     1 <1>   0.1500 
@<TRIPOS>BOND
  1   1   2  1   
  2   1   3  1   
  3   2   4  1   
  4   2  19  1   
  5   2  20  1   
  6   3   5  1   
  7   3  21  1   
  8   3  22  1   
  9   4   5  1   
 10   4   6  1   
 11   4  23  1   
 12   5   7  1   
 13   5  24  1   
 14   6   8  1   
 15   7   9  am  
 16   7  25  1   
 17   8  10  2   
 18   8  11  1   
 19   9  12  2   
 20   9  13  am  
 21  11  14  ar  
 22  11  15  ar  
 23  13  26  1   
 24  13  27  1   
 25  14  16  ar  
 26  14  28  1   
 27  15  17  ar  
 28  15  29  1   
 29  16  18  ar  
 30  16  30  1   
 31  17  18  ar  
 32  17  31  1   
 33  18  32  1   
@<TRIPOS>SUBSTRUCTURE
  1 ****   6 GROUP 4 **** **** 0

# MOE 2024.06 (io_trps.svl 2023.06)
