@<TRIPOS>MOLECULE
NONAME
37 39 1 0 0 
SMALL
USER_CHARGES


@<TRIPOS>ATOM
  1 BR       0.3890    -0.0820     1.7940 Br    1 <1>  -0.1110 
  2 C        0.2080     1.6770     1.0140 C.ar  1 <1>   0.1110 
  3 C       -1.0420     2.2120     0.7560 C.ar  1 <1>   0.0820 
  4 C        1.3580     2.3970     0.7110 C.ar  1 <1>   0.1400 
  5 O       -2.1760     1.5370     1.0540 O.3   1 <1>  -0.3630 
  6 C       -1.0950     3.4960     0.1950 C.ar  1 <1>   0.1110 
  7 O        2.6300     2.0440     0.8850 O.3   1 <1>  -0.2800 
  8 C        1.2860     3.6580     0.1480 C.ar  1 <1>   0.0000 
  9 C       -2.6840     0.6940     0.0450 C.3   1 <1>   0.0400 
 10 BR      -2.8160     4.2940    -0.1690 Br    1 <1>  -0.1110 
 11 C        0.0340     4.2260    -0.1150 C.ar  1 <1>  -0.1500 
 12 C        3.4150     3.0440     0.4450 C.2   1 <1>   0.0550 
 13 C        2.6250     4.0550    -0.0160 C.2   1 <1>  -0.1810 
 14 C        4.8620     2.9270     0.5420 C.2   1 <1>   0.7150 
 15 C        3.0170     5.3980    -0.6110 C.3   1 <1>  -0.0590 
 16 O        5.5330     3.9390     0.6650 O.2   1 <1>  -0.5700 
 17 N        5.5270     1.7150     0.5000 N.am  1 <1>  -0.6600 
 18 C        4.9390     0.4450    -0.0270 C.3   1 <1>   0.1400 
 19 C        6.9480     1.5710     0.9410 C.3   1 <1>   0.1400 
 20 C        5.8990    -0.2420    -1.0140 C.3   1 <1>   0.1200 
 21 C        7.7790     0.8340    -0.1200 C.3   1 <1>   0.1200 
 22 O        7.1750    -0.3820    -0.4590 O.3   1 <1>  -0.5600 
 23 H       -3.5820     0.2320     0.4150 H     1 <1>   0.0800 
 24 H       -1.9510    -0.0590    -0.1850 H     1 <1>   0.0800 
 25 H       -2.9060     1.2840    -0.8260 H     1 <1>   0.0800 
 26 H       -0.0390     5.2080    -0.5450 H     1 <1>   0.1500 
 27 H        2.5490     5.5270    -1.5700 H     1 <1>   0.0800 
 28 H        4.0810     5.4710    -0.7420 H     1 <1>   0.0800 
 29 H        2.7000     6.1920     0.0420 H     1 <1>   0.0800 
 30 H        4.0140     0.6370    -0.5390 H     1 <1>   0.0800 
 31 H        4.7370    -0.2190     0.7950 H     1 <1>   0.0800 
 32 H        6.9750     1.0100     1.8580 H     1 <1>   0.0800 
 33 H        7.3930     2.5320     1.1310 H     1 <1>   0.0800 
 34 H        5.9800     0.3310    -1.9220 H     1 <1>   0.0800 
 35 H        5.5380    -1.2250    -1.2580 H     1 <1>   0.0800 
 36 H        8.7610     0.6180     0.2610 H     1 <1>   0.0800 
 37 H        7.8770     1.4340    -1.0090 H     1 <1>   0.0800 
@<TRIPOS>BOND
  1   1   2  1   
  2   2   3  ar  
  3   2   4  ar  
  4   3   5  1   
  5   3   6  ar  
  6   4   7  1   
  7   4   8  ar  
  8   5   9  1   
  9   6  10  1   
 10   6  11  ar  
 11   7  12  1   
 12   8  11  ar  
 13   8  13  1   
 14   9  23  1   
 15   9  24  1   
 16   9  25  1   
 17  11  26  1   
 18  12  13  2   
 19  12  14  1   
 20  13  15  1   
 21  14  16  2   
 22  14  17  am  
 23  15  27  1   
 24  15  28  1   
 25  15  29  1   
 26  17  18  1   
 27  17  19  1   
 28  18  20  1   
 29  18  30  1   
 30  18  31  1   
 31  19  21  1   
 32  19  32  1   
 33  19  33  1   
 34  20  22  1   
 35  20  34  1   
 36  20  35  1   
 37  21  22  1   
 38  21  36  1   
 39  21  37  1   
@<TRIPOS>SUBSTRUCTURE
  1 ****   7 GROUP 4 **** **** 0

# MOE 2024.06 (io_trps.svl 2023.06)
