@<TRIPOS>MOLECULE
NONAME
41 42 1 0 0 
SMALL
USER_CHARGES


@<TRIPOS>ATOM
  1 CL      -1.6760     0.5360     2.9780 Cl    1 <1>  -0.1770 
  2 C       -2.3810     1.1260     1.4980 C.ar  1 <1>   0.1770 
  3 C       -3.4510     0.4470     0.9460 C.ar  1 <1>  -0.1500 
  4 C       -1.8640     2.2600     0.9020 C.ar  1 <1>  -0.1500 
  5 C       -4.0250     0.9130    -0.2290 C.ar  1 <1>  -0.1440 
  6 C       -2.4300     2.7210    -0.2740 C.ar  1 <1>  -0.1500 
  7 C       -3.5050     2.0500    -0.8370 C.ar  1 <1>  -0.1500 
  8 C       -5.2090     0.1960    -0.8370 C.3   1 <1>   0.4870 
  9 N       -6.4180     0.8140    -0.2440 N.4   1 <1>  -0.9060 
 10 C       -7.6930     0.2470    -0.7520 C.3   1 <1>   0.3430 
 11 C       -8.8810     0.9470    -0.0780 C.3   1 <1>  -0.1600 
 12 C      -10.2180     0.3670    -0.5620 C.3   1 <1>   0.3430 
 13 N      -11.3590     0.9570     0.1920 N.4   1 <1>  -0.9590 
 14 C      -12.6310     0.1620     0.0360 C.3   1 <1>   0.3430 
 15 C      -11.6510     2.4100    -0.0960 C.3   1 <1>   0.3430 
 16 C      -13.7640     0.7480     0.9100 C.3   1 <1>   0.1200 
 17 C      -12.8620     2.9130     0.7250 C.3   1 <1>   0.1200 
 18 O      -13.3360     1.9060     1.5770 O.3   1 <1>  -0.5600 
 19 H       -3.8070    -0.4350     1.4490 H     1 <1>   0.1500 
 20 H       -1.0300     2.7690     1.3520 H     1 <1>   0.1500 
 21 H       -2.0290     3.6010    -0.7500 H     1 <1>   0.1500 
 22 H       -3.9170     2.4300    -1.7580 H     1 <1>   0.1500 
 23 H       -5.1620    -0.8570    -0.6040 H     1 <1>   0.0800 
 24 H       -5.2010     0.3180    -1.9090 H     1 <1>   0.0800 
 25 H       -6.3470     1.8250    -0.4230 H     1 <1>   0.4500 
 26 H       -6.3320     0.7110     0.7760 H     1 <1>   0.4500 
 27 H       -7.7270    -0.8120    -0.5410 H     1 <1>   0.0800 
 28 H       -7.7490     0.3810    -1.8220 H     1 <1>   0.0800 
 29 H       -8.8440     1.9970    -0.3080 H     1 <1>   0.0800 
 30 H       -8.8090     0.8090     0.9870 H     1 <1>   0.0800 
 31 H      -10.2140    -0.7010    -0.4100 H     1 <1>   0.0800 
 32 H      -10.3470     0.5520    -1.6180 H     1 <1>   0.0800 
 33 H      -11.1860     0.9270     1.2110 H     1 <1>   0.4500 
 34 H      -12.4690    -0.8650     0.3210 H     1 <1>   0.0800 
 35 H      -12.9470     0.1670    -0.9950 H     1 <1>   0.0800 
 36 H      -11.8600     2.5470    -1.1440 H     1 <1>   0.0800 
 37 H      -10.7960     3.0180     0.1480 H     1 <1>   0.0800 
 38 H      -14.0660     0.0340     1.6570 H     1 <1>   0.0800 
 39 H      -14.6260     0.9910     0.3110 H     1 <1>   0.0800 
 40 H      -13.6640     3.2250     0.0770 H     1 <1>   0.0800 
 41 H      -12.5780     3.7540     1.3340 H     1 <1>   0.0800 
@<TRIPOS>BOND
  1   1   2  1   
  2   2   3  ar  
  3   2   4  ar  
  4   3   5  ar  
  5   3  19  1   
  6   4   6  ar  
  7   4  20  1   
  8   5   7  ar  
  9   5   8  1   
 10   6   7  ar  
 11   6  21  1   
 12   7  22  1   
 13   8   9  1   
 14   8  23  1   
 15   8  24  1   
 16   9  10  1   
 17   9  25  1   
 18   9  26  1   
 19  10  11  1   
 20  10  27  1   
 21  10  28  1   
 22  11  12  1   
 23  11  29  1   
 24  11  30  1   
 25  12  13  1   
 26  12  31  1   
 27  12  32  1   
 28  13  14  1   
 29  13  15  1   
 30  13  33  1   
 31  14  16  1   
 32  14  34  1   
 33  14  35  1   
 34  15  17  1   
 35  15  36  1   
 36  15  37  1   
 37  16  18  1   
 38  16  38  1   
 39  16  39  1   
 40  17  18  1   
 41  17  40  1   
 42  17  41  1   
@<TRIPOS>SUBSTRUCTURE
  1 ****   9 GROUP 4 **** **** 0

# MOE 2024.06 (io_trps.svl 2023.06)
