@<TRIPOS>MOLECULE
NONAME
36 36 1 0 0 
SMALL
USER_CHARGES


@<TRIPOS>ATOM
  1 O        0.8710     0.0710     0.0370 O.2   1 <1>  -0.5700 
  2 C        0.6220     1.2130    -0.3140 C.2   1 <1>   0.7800 
  3 O       -0.5800     1.7450    -0.0830 O.3   1 <1>  -0.4300 
  4 N        1.5150     1.9970    -0.9670 N.am  1 <1>  -0.4300 
  5 C       -1.5750     1.0110     0.6030 C.3   1 <1>   0.0400 
  6 N        2.9450     1.6970    -1.1370 N.am  1 <1>  -0.4300 
  7 C        3.9300     2.1030    -0.2830 C.2   1 <1>   0.5440 
  8 O        3.7340     3.0690     0.4350 O.2   1 <1>  -0.5700 
  9 C        5.1930     1.3980    -0.2480 C.ar  1 <1>   0.0860 
 10 C        5.2380     0.0060    -0.3090 C.ar  1 <1>  -0.1500 
 11 C        6.3970     2.0920    -0.1510 C.ar  1 <1>  -0.1500 
 12 C        6.4460    -0.6810    -0.3000 C.ar  1 <1>   0.0820 
 13 C        7.6180     1.4300    -0.1420 C.ar  1 <1>   0.0820 
 14 O        6.5160    -2.0430    -0.3510 O.3   1 <1>  -0.3630 
 15 C        7.6390     0.0370    -0.2280 C.ar  1 <1>   0.0820 
 16 O        8.8100     2.0890    -0.0490 O.3   1 <1>  -0.3630 
 17 C        5.3600    -2.8510    -0.3200 C.3   1 <1>   0.0400 
 18 O        8.8240    -0.6230    -0.2550 O.3   1 <1>  -0.3630 
 19 C        8.8760     3.4960     0.0220 C.3   1 <1>   0.0400 
 20 C        9.3760    -0.9350     1.0000 C.3   1 <1>   0.0400 
 21 H        1.2210     2.9550    -1.1710 H     1 <1>   0.3700 
 22 H       -2.4550     1.6240     0.6840 H     1 <1>   0.0800 
 23 H       -1.2080     0.7580     1.5820 H     1 <1>   0.0800 
 24 H       -1.7960     0.1170     0.0460 H     1 <1>   0.0800 
 25 H        3.1680     0.9910    -1.8460 H     1 <1>   0.3700 
 26 H        4.3070    -0.5270    -0.3510 H     1 <1>   0.1500 
 27 H        6.3440     3.1630    -0.0820 H     1 <1>   0.1500 
 28 H        5.6730    -3.8800    -0.3260 H     1 <1>   0.0800 
 29 H        4.8100    -2.6430     0.5810 H     1 <1>   0.0800 
 30 H        4.7660    -2.6470    -1.1930 H     1 <1>   0.0800 
 31 H        9.9120     3.7770     0.0820 H     1 <1>   0.0800 
 32 H        8.3570     3.8270     0.9040 H     1 <1>   0.0800 
 33 H        8.4370     3.9130    -0.8660 H     1 <1>   0.0800 
 34 H       10.3060    -1.4500     0.8390 H     1 <1>   0.0800 
 35 H        9.5470    -0.0210     1.5410 H     1 <1>   0.0800 
 36 H        8.6890    -1.5680     1.5330 H     1 <1>   0.0800 
@<TRIPOS>BOND
  1   1   2  2   
  2   2   3  1   
  3   2   4  am  
  4   3   5  1   
  5   4   6  1   
  6   4  21  1   
  7   5  22  1   
  8   5  23  1   
  9   5  24  1   
 10   6   7  am  
 11   6  25  1   
 12   7   8  2   
 13   7   9  1   
 14   9  10  ar  
 15   9  11  ar  
 16  10  12  ar  
 17  10  26  1   
 18  11  13  ar  
 19  11  27  1   
 20  12  14  1   
 21  12  15  ar  
 22  13  15  ar  
 23  13  16  1   
 24  14  17  1   
 25  15  18  1   
 26  16  19  1   
 27  17  28  1   
 28  17  29  1   
 29  17  30  1   
 30  18  20  1   
 31  19  31  1   
 32  19  32  1   
 33  19  33  1   
 34  20  34  1   
 35  20  35  1   
 36  20  36  1   
@<TRIPOS>SUBSTRUCTURE
  1 ****   9 GROUP 4 **** **** 0

# MOE 2024.06 (io_trps.svl 2023.06)
