@<TRIPOS>MOLECULE
NONAME
38 38 1 0 0 
SMALL
USER_CHARGES


@<TRIPOS>ATOM
  1 O        0.2250    -0.2020     0.9710 O.2   1 <1>  -0.5200 
  2 N        0.4160    -1.3740     1.3360 N.pl3 1 <1>   0.8000 
  3 O        1.0330    -1.6160     2.3860 O.2   1 <1>  -0.5200 
  4 C       -0.0360    -2.4660     0.4400 C.3   1 <1>   0.4800 
  5 N       -0.2420    -3.6630     1.2970 N.pl3 1 <1>   0.8000 
  6 C        1.0180    -2.6880    -0.6930 C.3   1 <1>   0.1100 
  7 C       -1.4050    -2.0980    -0.2220 C.3   1 <1>  -0.1600 
  8 O       -1.0740    -3.5960     2.2170 O.2   1 <1>  -0.5200 
  9 O        0.1920    -4.7670     0.9310 O.2   1 <1>  -0.5200 
 10 N        2.4750    -2.6920    -0.4030 N.3   1 <1>  -0.8100 
 11 C       -2.0420    -3.2360    -1.0320 C.3   1 <1>   0.1400 
 12 C        3.1460    -1.3820    -0.2330 C.3   1 <1>   0.1100 
 13 C        2.9970    -3.6990     0.5470 C.3   1 <1>   0.1100 
 14 N       -3.3630    -2.7830    -1.4990 N.am  1 <1>  -0.7300 
 15 C        4.6750    -1.5470    -0.2660 C.3   1 <1>   0.1200 
 16 C        4.5350    -3.7530     0.5030 C.3   1 <1>   0.1200 
 17 C       -4.5850    -3.0650    -0.9900 C.2   1 <1>   0.5690 
 18 O        5.0850    -2.4810     0.6920 O.3   1 <1>  -0.5600 
 19 O       -5.5670    -2.6220    -1.5210 O.2   1 <1>  -0.5700 
 20 C       -4.7360    -3.9260     0.2410 C.3   1 <1>  -0.1790 
 21 H        0.8610    -1.9220    -1.4330 H     1 <1>   0.0800 
 22 H        0.7900    -3.6140    -1.1930 H     1 <1>   0.0800 
 23 H       -1.2720    -1.2530    -0.8760 H     1 <1>   0.0800 
 24 H       -2.0950    -1.8010     0.5510 H     1 <1>   0.0800 
 25 H       -2.1640    -4.1240    -0.4320 H     1 <1>   0.0800 
 26 H       -1.4410    -3.4910    -1.8880 H     1 <1>   0.0800 
 27 H        2.8850    -0.9330     0.7080 H     1 <1>   0.0800 
 28 H        2.8500    -0.7130    -1.0230 H     1 <1>   0.0800 
 29 H        2.6180    -4.6730     0.2910 H     1 <1>   0.0800 
 30 H        2.6900    -3.4650     1.5520 H     1 <1>   0.0800 
 31 H       -3.3860    -2.1940    -2.3370 H     1 <1>   0.3700 
 32 H        5.1560    -0.6120    -0.0390 H     1 <1>   0.0800 
 33 H        5.0000    -1.8810    -1.2360 H     1 <1>   0.0800 
 34 H        4.8710    -4.1350    -0.4450 H     1 <1>   0.0800 
 35 H        4.9070    -4.3910     1.2850 H     1 <1>   0.0800 
 36 H       -4.4280    -4.9310     0.0230 H     1 <1>   0.0800 
 37 H       -5.7660    -3.9390     0.5450 H     1 <1>   0.0800 
 38 H       -4.1440    -3.5310     1.0450 H     1 <1>   0.0800 
@<TRIPOS>BOND
  1   1   2  2   
  2   2   3  2   
  3   2   4  1   
  4   4   5  1   
  5   4   6  1   
  6   4   7  1   
  7   5   8  2   
  8   5   9  2   
  9   6  10  1   
 10   6  21  1   
 11   6  22  1   
 12   7  11  1   
 13   7  23  1   
 14   7  24  1   
 15  10  12  1   
 16  10  13  1   
 17  11  14  1   
 18  11  25  1   
 19  11  26  1   
 20  12  15  1   
 21  12  27  1   
 22  12  28  1   
 23  13  16  1   
 24  13  29  1   
 25  13  30  1   
 26  14  17  am  
 27  14  31  1   
 28  15  18  1   
 29  15  32  1   
 30  15  33  1   
 31  16  18  1   
 32  16  34  1   
 33  16  35  1   
 34  17  19  2   
 35  17  20  1   
 36  20  36  1   
 37  20  37  1   
 38  20  38  1   
@<TRIPOS>SUBSTRUCTURE
  1 ****   4 GROUP 4 **** **** 0

# MOE 2024.06 (io_trps.svl 2023.06)
