@<TRIPOS>MOLECULE
NONAME
44 45 1 0 0 
SMALL
USER_CHARGES


@<TRIPOS>ATOM
  1 S       -0.0800     0.2410     0.2270 S.o2  1 <1>   1.4470 
  2 O       -0.8540     0.9430     1.2250 O.2   1 <1>  -0.6500 
  3 O       -0.2700     0.5290    -1.1780 O.2   1 <1>  -0.6500 
  4 N       -0.5680    -1.3440     0.4830 N.am  1 <1>  -0.9140 
  5 C        1.6880     0.2260     0.6320 C.ar  1 <1>  -0.0090 
  6 C       -1.7350    -1.7270    -0.2630 C.3   1 <1>   0.2760 
  7 C        2.3720     1.4280     0.7860 C.ar  1 <1>   0.0830 
  8 C        2.4010    -0.9580     0.7780 C.ar  1 <1>  -0.1500 
  9 C       -2.5710    -2.6260     0.6400 C.3   1 <1>  -0.2400 
 10 C       -1.2880    -2.4900    -1.5070 C.3   1 <1>  -0.2400 
 11 O        1.6710     2.5710     0.6170 O.3   1 <1>  -0.3630 
 12 C        3.7290     1.4270     1.1010 C.ar  1 <1>  -0.1500 
 13 C        3.7600    -0.9880     1.0820 C.ar  1 <1>   0.0860 
 14 C        2.2350     3.8530     0.7880 C.3   1 <1>   0.0400 
 15 C        4.4070     0.2340     1.2490 C.ar  1 <1>  -0.1500 
 16 C        4.4590    -2.2490     1.2230 C.2   1 <1>   0.5440 
 17 O        4.0060    -3.1070     1.9560 O.2   1 <1>  -0.5700 
 18 N        5.6240    -2.5090     0.5380 N.am  1 <1>  -0.6600 
 19 C        6.0940    -1.7620    -0.6500 C.3   1 <1>   0.1400 
 20 C        6.3390    -3.7980     0.6690 C.3   1 <1>   0.1400 
 21 C        6.9240    -2.7700    -1.4360 C.3   1 <1>  -0.1600 
 22 C        7.4420    -3.7450    -0.3830 C.3   1 <1>  -0.1600 
 23 H       -0.8650    -1.3100     1.4560 H     1 <1>   0.4200 
 24 H       -2.3210    -0.8630    -0.5410 H     1 <1>   0.0800 
 25 H        1.9020    -1.9050     0.6550 H     1 <1>   0.1500 
 26 H       -2.0070    -3.4890     0.9450 H     1 <1>   0.0800 
 27 H       -3.4440    -2.9610     0.1090 H     1 <1>   0.0800 
 28 H       -2.8990    -2.0830     1.5080 H     1 <1>   0.0800 
 29 H       -0.6990    -3.3470    -1.2320 H     1 <1>   0.0800 
 30 H       -0.7060    -1.8540    -2.1480 H     1 <1>   0.0800 
 31 H       -2.1460    -2.8240    -2.0600 H     1 <1>   0.0800 
 32 H        4.2710     2.3450     1.2340 H     1 <1>   0.1500 
 33 H        1.4630     4.5810     0.6130 H     1 <1>   0.0800 
 34 H        3.0290     3.9840     0.0740 H     1 <1>   0.0800 
 35 H        2.6000     3.9440     1.7950 H     1 <1>   0.0800 
 36 H        5.4530     0.2380     1.5030 H     1 <1>   0.1500 
 37 H        6.7130    -0.9420    -0.3280 H     1 <1>   0.0800 
 38 H        5.2680    -1.3910    -1.2340 H     1 <1>   0.0800 
 39 H        5.6540    -4.6030     0.4610 H     1 <1>   0.0800 
 40 H        6.7370    -3.9120     1.6630 H     1 <1>   0.0800 
 41 H        7.7190    -2.2950    -1.9840 H     1 <1>   0.0800 
 42 H        6.2820    -3.2870    -2.1270 H     1 <1>   0.0800 
 43 H        7.6510    -4.7180    -0.7900 H     1 <1>   0.0800 
 44 H        8.3370    -3.3550     0.0700 H     1 <1>   0.0800 
@<TRIPOS>BOND
  1   1   2  2   
  2   1   3  2   
  3   1   4  am  
  4   1   5  1   
  5   4   6  1   
  6   4  23  1   
  7   5   7  ar  
  8   5   8  ar  
  9   6   9  1   
 10   6  10  1   
 11   6  24  1   
 12   7  11  1   
 13   7  12  ar  
 14   8  13  ar  
 15   8  25  1   
 16   9  26  1   
 17   9  27  1   
 18   9  28  1   
 19  10  29  1   
 20  10  30  1   
 21  10  31  1   
 22  11  14  1   
 23  12  15  ar  
 24  12  32  1   
 25  13  15  ar  
 26  13  16  1   
 27  14  33  1   
 28  14  34  1   
 29  14  35  1   
 30  15  36  1   
 31  16  17  2   
 32  16  18  am  
 33  18  19  1   
 34  18  20  1   
 35  19  21  1   
 36  19  37  1   
 37  19  38  1   
 38  20  22  1   
 39  20  39  1   
 40  20  40  1   
 41  21  22  1   
 42  21  41  1   
 43  21  42  1   
 44  22  43  1   
 45  22  44  1   
@<TRIPOS>SUBSTRUCTURE
  1 ****   8 GROUP 4 **** **** 0

# MOE 2024.06 (io_trps.svl 2023.06)
