@<TRIPOS>MOLECULE
NONAME
39 40 1 0 0 
SMALL
USER_CHARGES


@<TRIPOS>ATOM
  1 S       -0.0220     0.2830     1.0270 S.o2  1 <1>   1.4470 
  2 O        0.5280     0.1100     2.3510 O.2   1 <1>  -0.6500 
  3 O       -0.2130     1.6050     0.4760 O.2   1 <1>  -0.6500 
  4 N        1.0100    -0.4590    -0.0680 N.am  1 <1>  -0.9140 
  5 C       -1.5590    -0.6720     0.8680 C.ar  1 <1>  -0.0090 
  6 C        2.4120    -0.4360     0.2900 C.3   1 <1>   0.2760 
  7 C       -2.7960    -0.0390     0.8320 C.ar  1 <1>  -0.1500 
  8 C       -1.5390    -2.0580     0.7990 C.ar  1 <1>  -0.1500 
  9 C        2.9860     0.9840     0.1590 C.3   1 <1>  -0.1600 
 10 C        3.1410    -1.4010    -0.6520 C.3   1 <1>  -0.1600 
 11 C       -3.9920    -0.7400     0.7200 C.ar  1 <1>  -0.0090 
 12 C       -2.7110    -2.7830     0.6890 C.ar  1 <1>  -0.1500 
 13 C        4.5030     1.0000     0.4010 C.3   1 <1>  -0.1600 
 14 C        4.6560    -1.3930    -0.4060 C.3   1 <1>  -0.1600 
 15 S       -5.5800     0.1270     0.6360 S.o2  1 <1>   1.2040 
 16 C       -3.9260    -2.1250     0.6480 C.ar  1 <1>  -0.1500 
 17 C        5.2280     0.0240    -0.5340 C.3   1 <1>  -0.1600 
 18 O       -6.6510    -0.7940     0.9410 O.2   1 <1>  -0.6500 
 19 O       -5.4770     1.3820     1.3450 O.2   1 <1>  -0.6500 
 20 C       -5.7000     0.5140    -1.1000 C.3   1 <1>  -0.1350 
 21 H        0.9190     0.1090    -0.9070 H     1 <1>   0.4200 
 22 H        2.5430    -0.7900     1.3010 H     1 <1>   0.0800 
 23 H       -2.8290     1.0380     0.8980 H     1 <1>   0.1500 
 24 H       -0.5940    -2.5760     0.8340 H     1 <1>   0.1500 
 25 H        2.5250     1.6380     0.8800 H     1 <1>   0.0800 
 26 H        2.7870     1.3690    -0.8260 H     1 <1>   0.0800 
 27 H        2.9530    -1.1210    -1.6730 H     1 <1>   0.0800 
 28 H        2.7650    -2.3970    -0.4990 H     1 <1>   0.0800 
 29 H       -2.6770    -3.8590     0.6380 H     1 <1>   0.1500 
 30 H        4.7020     0.7280     1.4240 H     1 <1>   0.0800 
 31 H        4.8820     1.9960     0.2470 H     1 <1>   0.0800 
 32 H        5.1410    -2.0430    -1.1150 H     1 <1>   0.0800 
 33 H        4.8610    -1.7730     0.5810 H     1 <1>   0.0800 
 34 H       -4.8360    -2.6980     0.5670 H     1 <1>   0.1500 
 35 H        6.2780     0.0120    -0.2980 H     1 <1>   0.0800 
 36 H        5.1240     0.3610    -1.5520 H     1 <1>   0.0800 
 37 H       -5.6950    -0.3840    -1.6850 H     1 <1>   0.0800 
 38 H       -4.8780     1.1340    -1.4030 H     1 <1>   0.0800 
 39 H       -6.6140     1.0420    -1.2930 H     1 <1>   0.0800 
@<TRIPOS>BOND
  1   1   2  2   
  2   1   3  2   
  3   1   4  am  
  4   1   5  1   
  5   4   6  1   
  6   4  21  1   
  7   5   7  ar  
  8   5   8  ar  
  9   6   9  1   
 10   6  10  1   
 11   6  22  1   
 12   7  11  ar  
 13   7  23  1   
 14   8  12  ar  
 15   8  24  1   
 16   9  13  1   
 17   9  25  1   
 18   9  26  1   
 19  10  14  1   
 20  10  27  1   
 21  10  28  1   
 22  11  15  1   
 23  11  16  ar  
 24  12  16  ar  
 25  12  29  1   
 26  13  17  1   
 27  13  30  1   
 28  13  31  1   
 29  14  17  1   
 30  14  32  1   
 31  14  33  1   
 32  15  18  2   
 33  15  19  2   
 34  15  20  1   
 35  16  34  1   
 36  17  35  1   
 37  17  36  1   
 38  20  37  1   
 39  20  38  1   
 40  20  39  1   
@<TRIPOS>SUBSTRUCTURE
  1 ****   5 GROUP 4 **** **** 0

# MOE 2024.06 (io_trps.svl 2023.06)
