@<TRIPOS>MOLECULE
NONAME
38 40 1 0 0 
SMALL
USER_CHARGES


@<TRIPOS>ATOM
  1 O       -0.9770     1.8770     1.5510 O.3   1 <1>  -0.5600 
  2 C        0.4150     1.7160     1.4560 C.3   1 <1>   0.1200 
  3 C       -1.6630     1.6710     0.3470 C.3   1 <1>   0.1200 
  4 C        1.0180     2.6020     0.3410 C.3   1 <1>   0.3430 
  5 C       -1.2160     2.6900    -0.7270 C.3   1 <1>   0.3430 
  6 N       -0.0310     3.4880    -0.2700 N.4   1 <1>  -0.9590 
  7 C        0.4940     4.4300    -1.2940 C.3   1 <1>   0.4860 
  8 C        1.6010     5.2610    -0.6720 C.ar  1 <1>  -0.1440 
  9 C        1.3160     6.3040     0.2330 C.ar  1 <1>  -0.1440 
 10 C        2.9040     4.9810    -0.9940 C.ar  1 <1>  -0.1500 
 11 C        2.3530     7.0010     0.7950 C.ar  1 <1>  -0.1500 
 12 C       -0.1140     6.6890     0.5970 C.3   1 <1>  -0.0970 
 13 C        3.9800     5.6900    -0.4290 C.ar  1 <1>   0.0000 
 14 C        3.6980     6.7180     0.4920 C.ar  1 <1>   0.0000 
 15 C        5.3260     5.4120    -0.7440 C.ar  1 <1>  -0.1500 
 16 C        4.7720     7.4240     1.0700 C.ar  1 <1>  -0.1500 
 17 C        6.3490     6.1140    -0.1690 C.ar  1 <1>  -0.1500 
 18 C        6.0690     7.1310     0.7500 C.ar  1 <1>  -0.1500 
 19 H        0.6310     0.6760     1.2750 H     1 <1>   0.0800 
 20 H        0.8400     1.9840     2.4080 H     1 <1>   0.0800 
 21 H       -2.7170     1.7750     0.5440 H     1 <1>   0.0800 
 22 H       -1.4820     0.6620     0.0170 H     1 <1>   0.0800 
 23 H        1.4530     1.9700    -0.4150 H     1 <1>   0.0800 
 24 H        1.8120     3.1980     0.7610 H     1 <1>   0.0800 
 25 H       -2.0400     3.3510    -0.9430 H     1 <1>   0.0800 
 26 H       -0.9800     2.1580    -1.6330 H     1 <1>   0.0800 
 27 H       -0.3590     4.0540     0.5240 H     1 <1>   0.4500 
 28 H       -0.2910     5.0810    -1.6430 H     1 <1>   0.0800 
 29 H        0.8820     3.8810    -2.1360 H     1 <1>   0.0800 
 30 H        3.1510     4.2030    -1.6950 H     1 <1>   0.1500 
 31 H        2.1650     7.8010     1.4900 H     1 <1>   0.1500 
 32 H       -0.7020     6.8450    -0.2890 H     1 <1>   0.0800 
 33 H       -0.1250     7.6080     1.1570 H     1 <1>   0.0800 
 34 H       -0.5700     5.9310     1.2060 H     1 <1>   0.0800 
 35 H        5.5430     4.6320    -1.4520 H     1 <1>   0.1500 
 36 H        4.5530     8.2070     1.7740 H     1 <1>   0.1500 
 37 H        7.3760     5.8990    -0.4120 H     1 <1>   0.1500 
 38 H        6.8850     7.6750     1.1940 H     1 <1>   0.1500 
@<TRIPOS>BOND
  1   1   2  1   
  2   1   3  1   
  3   2   4  1   
  4   2  19  1   
  5   2  20  1   
  6   3   5  1   
  7   3  21  1   
  8   3  22  1   
  9   4   6  1   
 10   4  23  1   
 11   4  24  1   
 12   5   6  1   
 13   5  25  1   
 14   5  26  1   
 15   6   7  1   
 16   6  27  1   
 17   7   8  1   
 18   7  28  1   
 19   7  29  1   
 20   8   9  ar  
 21   8  10  ar  
 22   9  11  ar  
 23   9  12  1   
 24  10  13  ar  
 25  10  30  1   
 26  11  14  ar  
 27  11  31  1   
 28  12  32  1   
 29  12  33  1   
 30  12  34  1   
 31  13  14  ar  
 32  13  15  ar  
 33  14  16  ar  
 34  15  17  ar  
 35  15  35  1   
 36  16  18  ar  
 37  16  36  1   
 38  17  18  ar  
 39  17  37  1   
 40  18  38  1   
@<TRIPOS>SUBSTRUCTURE
  1 ****   8 GROUP 4 **** **** 0

# MOE 2024.06 (io_trps.svl 2023.06)
