@<TRIPOS>MOLECULE
NONAME
45 48 1 0 0 
SMALL
USER_CHARGES


@<TRIPOS>ATOM
  1 BR      -2.1240     1.7370    -2.3670 Br    1 <1>  -0.1110 
  2 C       -0.8780     2.5170    -1.1160 C.ar  1 <1>   0.1110 
  3 C       -1.1010     2.4030     0.2510 C.ar  1 <1>   0.0830 
  4 C        0.2200     3.1830    -1.6240 C.ar  1 <1>  -0.1500 
  5 O       -2.1700     1.7460     0.7520 O.3   1 <1>  -0.3630 
  6 C       -0.2010     2.9950     1.1210 C.ar  1 <1>  -0.1500 
  7 C        1.1280     3.7630    -0.7480 C.ar  1 <1>  -0.1430 
  8 C       -2.0220     0.3520     0.8900 C.3   1 <1>   0.0400 
  9 C        0.9050     3.6670     0.6230 C.ar  1 <1>  -0.1500 
 10 C        2.3580     4.5040    -1.2830 C.3   1 <1>   0.3400 
 11 C        3.6190     3.8240    -0.7400 C.2   1 <1>  -0.1240 
 12 C        2.2610     5.9770    -0.8750 C.2   1 <1>  -0.1240 
 13 C        4.3620     4.4380     0.2180 C.2   1 <1>  -0.0380 
 14 C        3.9400     2.5490    -1.2890 C.2   1 <1>   0.4950 
 15 C        3.0780     6.4680     0.0920 C.2   1 <1>  -0.0380 
 16 C        1.2860     6.7620    -1.5570 C.2   1 <1>   0.4950 
 17 N        4.0680     5.7050     0.6670 N.pl3 1 <1>  -0.6000 
 18 C        5.5790     3.7670     0.8350 C.3   1 <1>  -0.0220 
 19 O        3.3350     2.0180    -2.1880 O.2   1 <1>  -0.5700 
 20 C        5.1580     1.8190    -0.7440 C.3   1 <1>  -0.0990 
 21 C        2.9610     7.9040     0.5800 C.3   1 <1>  -0.0220 
 22 O        0.6150     6.3690    -2.4810 O.2   1 <1>  -0.5700 
 23 C        1.1080     8.2120    -1.1350 C.3   1 <1>  -0.0990 
 24 C        5.4970     2.2390     0.6970 C.3   1 <1>  -0.1600 
 25 C        1.5540     8.4620     0.3160 C.3   1 <1>  -0.1600 
 26 H        0.3600     3.2460    -2.6890 H     1 <1>   0.1500 
 27 H       -0.3690     2.9280     2.1810 H     1 <1>   0.1500 
 28 H       -2.9380    -0.0450     1.2890 H     1 <1>   0.0800 
 29 H       -1.2070     0.1540     1.5640 H     1 <1>   0.0800 
 30 H       -1.8230    -0.0780    -0.0750 H     1 <1>   0.0800 
 31 H        1.5990     4.1210     1.3100 H     1 <1>   0.1500 
 32 H        2.3820     4.4510    -2.3580 H     1 <1>   0.0800 
 33 H        4.6550     6.1220     1.3990 H     1 <1>   0.4000 
 34 H        5.6430     4.0160     1.8800 H     1 <1>   0.0800 
 35 H        6.4650     4.1350     0.3470 H     1 <1>   0.0800 
 36 H        5.9890     2.0270    -1.3910 H     1 <1>   0.0800 
 37 H        4.9710     0.7600    -0.7740 H     1 <1>   0.0800 
 38 H        3.6970     8.5050     0.0770 H     1 <1>   0.0800 
 39 H        3.1560     7.9480     1.6380 H     1 <1>   0.0800 
 40 H        0.0730     8.4810    -1.2450 H     1 <1>   0.0800 
 41 H        1.6830     8.8260    -1.8050 H     1 <1>   0.0800 
 42 H        4.7230     1.8760     1.3520 H     1 <1>   0.0800 
 43 H        6.4260     1.7920     1.0030 H     1 <1>   0.0800 
 44 H        1.5280     9.5150     0.5340 H     1 <1>   0.0800 
 45 H        0.8600     7.9700     0.9770 H     1 <1>   0.0800 
@<TRIPOS>BOND
  1   1   2  1   
  2   2   3  ar  
  3   2   4  ar  
  4   3   5  1   
  5   3   6  ar  
  6   4   7  ar  
  7   4  26  1   
  8   5   8  1   
  9   6   9  ar  
 10   6  27  1   
 11   7   9  ar  
 12   7  10  1   
 13   8  28  1   
 14   8  29  1   
 15   8  30  1   
 16   9  31  1   
 17  10  11  1   
 18  10  12  1   
 19  10  32  1   
 20  11  13  2   
 21  11  14  1   
 22  12  15  2   
 23  12  16  1   
 24  13  17  1   
 25  13  18  1   
 26  14  19  2   
 27  14  20  1   
 28  15  17  1   
 29  15  21  1   
 30  16  22  2   
 31  16  23  1   
 32  17  33  1   
 33  18  24  1   
 34  18  34  1   
 35  18  35  1   
 36  20  24  1   
 37  20  36  1   
 38  20  37  1   
 39  21  25  1   
 40  21  38  1   
 41  21  39  1   
 42  23  25  1   
 43  23  40  1   
 44  23  41  1   
 45  24  42  1   
 46  24  43  1   
 47  25  44  1   
 48  25  45  1   
@<TRIPOS>SUBSTRUCTURE
  1 ****   7 GROUP 4 **** **** 0

# MOE 2024.06 (io_trps.svl 2023.06)
