@<TRIPOS>MOLECULE
NONAME
43 45 1 0 0 
SMALL
USER_CHARGES


@<TRIPOS>ATOM
  1 O        0.4620     0.5570    -0.3670 O.2   1 <1>  -0.5700 
  2 C        1.0080     1.6400    -0.4730 C.2   1 <1>   0.5440 
  3 N        0.2360     2.7600    -0.7210 N.am  1 <1>  -0.6600 
  4 C        2.4470     1.7150    -0.3270 C.ar  1 <1>   0.0860 
  5 C       -1.2020     2.6500    -1.0990 C.3   1 <1>   0.1400 
  6 C        0.6970     4.1550    -0.4740 C.3   1 <1>   0.1400 
  7 C        3.0850     1.1630     0.7830 C.ar  1 <1>  -0.1500 
  8 C        3.2540     2.3290    -1.2850 C.ar  1 <1>  -0.1500 
  9 C       -2.0740     3.2830    -0.0110 C.3   1 <1>  -0.1600 
 10 C       -0.1680     4.8030     0.6120 C.3   1 <1>  -0.1600 
 11 C        4.4560     1.2400     0.9390 C.ar  1 <1>  -0.1500 
 12 C        4.6240     2.4080    -1.1310 C.ar  1 <1>  -0.1500 
 13 C       -1.6640     4.7380     0.2650 C.3   1 <1>  -0.0800 
 14 C        5.2510     1.8720    -0.0100 C.ar  1 <1>   0.1170 
 15 C       -2.5080     5.3320     1.3980 C.3   1 <1>  -0.2400 
 16 N        6.6320     1.9220     0.1950 N.am  1 <1>  -0.5470 
 17 C        7.6130     2.7490    -0.2980 C.2   1 <1>   0.7150 
 18 O        7.3340     3.6710    -1.0430 O.2   1 <1>  -0.5700 
 19 C        8.9770     2.5080     0.1040 C.2   1 <1>   0.0550 
 20 O        9.2760     1.5150     0.9390 O.3   1 <1>  -0.2800 
 21 C       10.1300     3.1520    -0.2290 C.2   1 <1>  -0.1500 
 22 C       10.5750     1.5110     1.1430 C.2   1 <1>  -0.0100 
 23 C       11.1650     2.5040     0.4460 C.2   1 <1>  -0.1500 
 24 H       -1.4840     1.6190    -1.2340 H     1 <1>   0.0800 
 25 H       -1.3550     3.1590    -2.0340 H     1 <1>   0.0800 
 26 H        0.6180     4.7170    -1.3890 H     1 <1>   0.0800 
 27 H        1.7240     4.1730    -0.1560 H     1 <1>   0.0800 
 28 H        2.4840     0.6660     1.5250 H     1 <1>   0.1500 
 29 H        2.7920     2.7440    -2.1630 H     1 <1>   0.1500 
 30 H       -1.9810     2.6950     0.8850 H     1 <1>   0.0800 
 31 H       -3.1030     3.2470    -0.3230 H     1 <1>   0.0800 
 32 H        0.1320     5.8280     0.7330 H     1 <1>   0.0800 
 33 H        0.0130     4.2950     1.5430 H     1 <1>   0.0800 
 34 H        4.9110     0.8060     1.8110 H     1 <1>   0.1500 
 35 H        5.2080     2.8870    -1.8960 H     1 <1>   0.1500 
 36 H       -1.8350     5.3180    -0.6280 H     1 <1>   0.0800 
 37 H       -2.3650     4.7760     2.3080 H     1 <1>   0.0800 
 38 H       -3.5520     5.3030     1.1390 H     1 <1>   0.0800 
 39 H       -2.2300     6.3560     1.5730 H     1 <1>   0.0800 
 40 H        7.0070     1.2490     0.8630 H     1 <1>   0.3700 
 41 H       10.2360     4.0000    -0.8840 H     1 <1>   0.1500 
 42 H       11.0020     0.7700     1.7970 H     1 <1>   0.1500 
 43 H       12.2080     2.7660     0.4000 H     1 <1>   0.1500 
@<TRIPOS>BOND
  1   1   2  2   
  2   2   3  am  
  3   2   4  1   
  4   3   5  1   
  5   3   6  1   
  6   4   7  ar  
  7   4   8  ar  
  8   5   9  1   
  9   5  24  1   
 10   5  25  1   
 11   6  10  1   
 12   6  26  1   
 13   6  27  1   
 14   7  11  ar  
 15   7  28  1   
 16   8  12  ar  
 17   8  29  1   
 18   9  13  1   
 19   9  30  1   
 20   9  31  1   
 21  10  13  1   
 22  10  32  1   
 23  10  33  1   
 24  11  14  ar  
 25  11  34  1   
 26  12  14  ar  
 27  12  35  1   
 28  13  15  1   
 29  13  36  1   
 30  14  16  1   
 31  15  37  1   
 32  15  38  1   
 33  15  39  1   
 34  16  17  am  
 35  16  40  1   
 36  17  18  2   
 37  17  19  1   
 38  19  20  1   
 39  19  21  2   
 40  20  22  1   
 41  21  23  1   
 42  21  41  1   
 43  22  23  2   
 44  22  42  1   
 45  23  43  1   
@<TRIPOS>SUBSTRUCTURE
  1 ****  12 GROUP 4 **** **** 0

# MOE 2024.06 (io_trps.svl 2023.06)
