@<TRIPOS>MOLECULE
NONAME
32 32 1 0 0 
SMALL
USER_CHARGES


@<TRIPOS>ATOM
  1 CL      -1.9430    -1.2270    -3.0380 Cl    1 <1>  -0.1770 
  2 C       -2.2490    -1.3930    -1.3210 C.ar  1 <1>   0.1770 
  3 C       -1.3940    -2.1650    -0.5350 C.ar  1 <1>   0.1990 
  4 C       -3.3460    -0.7510    -0.7850 C.ar  1 <1>  -0.1500 
  5 N       -0.2800    -2.8080    -1.0770 N.am  1 <1>  -0.6930 
  6 C       -1.6860    -2.2750     0.8210 C.ar  1 <1>  -0.1500 
  7 C       -3.6130    -0.8740     0.5690 C.ar  1 <1>  -0.1500 
  8 S       -0.2490    -4.5280    -1.2560 S.o2  1 <1>   1.3330 
  9 C        1.0540    -2.1570    -0.8830 C.3   1 <1>   0.2570 
 10 C       -2.7850    -1.6370     1.3890 C.ar  1 <1>  -0.1440 
 11 O       -0.6290    -5.0910     0.0150 O.2   1 <1>  -0.6500 
 12 O        1.0090    -4.8580    -1.8790 O.2   1 <1>  -0.6500 
 13 C       -1.5410    -4.8020    -2.4490 C.3   1 <1>  -0.1350 
 14 C        1.6650    -2.4020     0.4970 C.2   1 <1>   0.6590 
 15 C       -3.1030    -1.7640     2.8900 C.3   1 <1>   1.1640 
 16 O        1.5240    -1.6110     1.3960 O.2   1 <1>  -0.5700 
 17 O        2.3440    -3.5310     0.6550 O.3   1 <1>  -0.4300 
 18 F       -4.1920    -2.4920     3.1000 F     1 <1>  -0.3400 
 19 F       -2.1320    -2.3300     3.5960 F     1 <1>  -0.3400 
 20 F       -3.3320    -0.5840     3.4510 F     1 <1>  -0.3400 
 21 C        2.8790    -3.9160     1.9030 C.3   1 <1>   0.0400 
 22 H       -3.9850    -0.1620    -1.4190 H     1 <1>   0.1500 
 23 H       -1.0330    -2.8770     1.4330 H     1 <1>   0.1500 
 24 H       -4.4720    -0.3700     0.9830 H     1 <1>   0.1500 
 25 H        0.9420    -1.0960    -1.0120 H     1 <1>   0.0800 
 26 H        1.7410    -2.5040    -1.6330 H     1 <1>   0.0800 
 27 H       -1.3290    -4.2670    -3.3530 H     1 <1>   0.0800 
 28 H       -2.4830    -4.4690    -2.0610 H     1 <1>   0.0800 
 29 H       -1.6140    -5.8480    -2.6760 H     1 <1>   0.0800 
 30 H        3.3770    -4.8610     1.7810 H     1 <1>   0.0800 
 31 H        2.0730    -4.0110     2.6110 H     1 <1>   0.0800 
 32 H        3.5780    -3.1660     2.2310 H     1 <1>   0.0800 
@<TRIPOS>BOND
  1   1   2  1   
  2   2   3  ar  
  3   2   4  ar  
  4   3   5  1   
  5   3   6  ar  
  6   4   7  ar  
  7   4  22  1   
  8   5   8  am  
  9   5   9  1   
 10   6  10  ar  
 11   6  23  1   
 12   7  10  ar  
 13   7  24  1   
 14   8  11  2   
 15   8  12  2   
 16   8  13  1   
 17   9  14  1   
 18   9  25  1   
 19   9  26  1   
 20  10  15  1   
 21  13  27  1   
 22  13  28  1   
 23  13  29  1   
 24  14  16  2   
 25  14  17  1   
 26  15  18  1   
 27  15  19  1   
 28  15  20  1   
 29  17  21  1   
 30  21  30  1   
 31  21  31  1   
 32  21  32  1   
@<TRIPOS>SUBSTRUCTURE
  1 ****   6 GROUP 4 **** **** 0

# MOE 2024.06 (io_trps.svl 2023.06)
