@<TRIPOS>MOLECULE
NONAME
48 50 1 0 0 
SMALL
USER_CHARGES


@<TRIPOS>ATOM
  1 O        0.6900     0.3980    -0.6740 O.2   1 <1>  -0.5700 
  2 C        1.1940     1.4930    -0.7150 C.2   1 <1>   0.5690 
  3 N        2.5170     1.5220    -1.0370 N.am  1 <1>  -0.7300 
  4 C        0.3240     2.7440    -0.4060 C.3   1 <1>   0.0610 
  5 C        3.5150     2.5990    -1.1750 C.3   1 <1>   0.1400 
  6 C       -1.1260     2.3220    -0.0290 C.3   1 <1>  -0.1600 
  7 C        0.2120     3.6700    -1.6460 C.3   1 <1>  -0.1600 
  8 C        0.8820     3.5490     0.7990 C.3   1 <1>  -0.1600 
  9 C        4.5360     2.4490    -0.0470 C.3   1 <1>  -0.1600 
 10 C       -2.0170     3.5410     0.2760 C.3   1 <1>  -0.0800 
 11 C       -0.6530     4.9070    -1.3400 C.3   1 <1>  -0.0800 
 12 C        0.0120     4.7850     1.0940 C.3   1 <1>  -0.0800 
 13 C        5.5800     3.5640    -0.1080 C.3   1 <1>   0.3430 
 14 C       -2.0730     4.4480    -0.9650 C.3   1 <1>  -0.1600 
 15 C       -1.4120     4.3260     1.4510 C.3   1 <1>  -0.1600 
 16 C       -0.0410     5.6810    -0.1580 C.3   1 <1>  -0.1600 
 17 N        6.4960     3.4900     1.0690 N.4   1 <1>  -0.9590 
 18 C        7.2930     4.7500     1.1950 C.3   1 <1>   0.2630 
 19 C        7.4130     2.3050     1.0110 C.3   1 <1>   0.2630 
 20 H        2.8680     0.5840    -1.2440 H     1 <1>   0.3700 
 21 H        3.0480     3.5640    -1.1310 H     1 <1>   0.0800 
 22 H        3.9950     2.5040    -2.1350 H     1 <1>   0.0800 
 23 H       -1.1040     1.6740     0.8300 H     1 <1>   0.0800 
 24 H       -1.5610     1.7600    -0.8380 H     1 <1>   0.0800 
 25 H       -0.2260     3.1200    -2.4610 H     1 <1>   0.0800 
 26 H        1.1770     3.9990    -1.9740 H     1 <1>   0.0800 
 27 H        0.9090     2.9130     1.6680 H     1 <1>   0.0800 
 28 H        1.8820     3.8790     0.6140 H     1 <1>   0.0800 
 29 H        5.0110     1.4900    -0.1430 H     1 <1>   0.0800 
 30 H        4.0150     2.4970     0.8940 H     1 <1>   0.0800 
 31 H       -3.0100     3.2110     0.5310 H     1 <1>   0.0800 
 32 H       -0.6990     5.5430    -2.2080 H     1 <1>   0.0800 
 33 H        0.4280     5.3370     1.9200 H     1 <1>   0.0800 
 34 H        5.0720     4.5150    -0.1050 H     1 <1>   0.0800 
 35 H        6.1470     3.4890    -1.0230 H     1 <1>   0.0800 
 36 H       -2.5140     3.9120    -1.7880 H     1 <1>   0.0800 
 37 H       -2.6940     5.3040    -0.7640 H     1 <1>   0.0800 
 38 H       -1.3880     3.7040     2.3300 H     1 <1>   0.0800 
 39 H       -2.0270     5.1800     1.6740 H     1 <1>   0.0800 
 40 H       -0.6360     6.5540     0.0480 H     1 <1>   0.0800 
 41 H        0.9490     6.0160    -0.4130 H     1 <1>   0.0800 
 42 H        5.9110     3.4000     1.9160 H     1 <1>   0.4500 
 43 H        7.9200     4.8860     0.3290 H     1 <1>   0.0800 
 44 H        7.9200     4.7100     2.0710 H     1 <1>   0.0800 
 45 H        6.6370     5.6010     1.2840 H     1 <1>   0.0800 
 46 H        8.0250     2.3470     0.1250 H     1 <1>   0.0800 
 47 H        6.8460     1.3880     0.9960 H     1 <1>   0.0800 
 48 H        8.0590     2.2900     1.8740 H     1 <1>   0.0800 
@<TRIPOS>BOND
  1   1   2  2   
  2   2   3  am  
  3   2   4  1   
  4   3   5  1   
  5   3  20  1   
  6   4   6  1   
  7   4   7  1   
  8   4   8  1   
  9   5   9  1   
 10   5  21  1   
 11   5  22  1   
 12   6  10  1   
 13   6  23  1   
 14   6  24  1   
 15   7  11  1   
 16   7  25  1   
 17   7  26  1   
 18   8  12  1   
 19   8  27  1   
 20   8  28  1   
 21   9  13  1   
 22   9  29  1   
 23   9  30  1   
 24  10  14  1   
 25  10  15  1   
 26  10  31  1   
 27  11  14  1   
 28  11  16  1   
 29  11  32  1   
 30  12  15  1   
 31  12  16  1   
 32  12  33  1   
 33  13  17  1   
 34  13  34  1   
 35  13  35  1   
 36  14  36  1   
 37  14  37  1   
 38  15  38  1   
 39  15  39  1   
 40  16  40  1   
 41  16  41  1   
 42  17  18  1   
 43  17  19  1   
 44  17  42  1   
 45  18  43  1   
 46  18  44  1   
 47  18  45  1   
 48  19  46  1   
 49  19  47  1   
 50  19  48  1   
@<TRIPOS>SUBSTRUCTURE
  1 ****   8 GROUP 4 **** **** 0

# MOE 2024.06 (io_trps.svl 2023.06)
