@<TRIPOS>MOLECULE
NONAME
42 44 1 0 0 
SMALL
USER_CHARGES


@<TRIPOS>ATOM
  1 O        1.3230    -0.4410     0.5070 O.3   1 <1>  -0.3630 
  2 C        0.6710    -1.5850     0.1590 C.ar  1 <1>   0.0830 
  3 C        0.6430     0.6150     1.1580 C.3   1 <1>   0.0400 
  4 C        1.3410    -2.4790    -0.6720 C.ar  1 <1>  -0.1440 
  5 C       -0.6120    -1.8900     0.6050 C.ar  1 <1>  -0.1500 
  6 C        0.7290    -3.6650    -1.0480 C.ar  1 <1>  -0.1500 
  7 C        2.7310    -2.1520    -1.1640 C.3   1 <1>   0.4870 
  8 C       -1.2140    -3.0750     0.2240 C.ar  1 <1>  -0.1500 
  9 C       -0.5460    -3.9620    -0.6000 C.ar  1 <1>  -0.1500 
 10 N        3.5930    -2.0630     0.0310 N.4   1 <1>  -0.9060 
 11 C        4.9710    -1.5860    -0.2130 C.3   1 <1>   0.4230 
 12 C        5.8350    -1.8630     1.0210 C.3   1 <1>  -0.0170 
 13 C        4.9590    -0.0860    -0.5180 C.3   1 <1>  -0.1600 
 14 C        7.2080    -1.2230     0.8990 C.ar  1 <1>  -0.1430 
 15 C        6.3670     0.3810    -0.9040 C.3   1 <1>  -0.0170 
 16 C        7.4470    -0.1760     0.0140 C.ar  1 <1>  -0.1430 
 17 C        8.2370    -1.6930     1.7010 C.ar  1 <1>  -0.1500 
 18 C        8.7140     0.3820    -0.0530 C.ar  1 <1>  -0.1500 
 19 C        9.4980    -1.1310     1.6270 C.ar  1 <1>  -0.1500 
 20 C        9.7370    -0.0910     0.7480 C.ar  1 <1>  -0.1500 
 21 H       -0.2090     0.9030     0.5660 H     1 <1>   0.0800 
 22 H        1.3160     1.4480     1.2520 H     1 <1>   0.0800 
 23 H        0.3330     0.2870     2.1360 H     1 <1>   0.0800 
 24 H       -1.1600    -1.2270     1.2480 H     1 <1>   0.1500 
 25 H        1.2260    -4.3700    -1.6940 H     1 <1>   0.1500 
 26 H        2.7070    -1.2100    -1.6860 H     1 <1>   0.0800 
 27 H        3.0860    -2.9190    -1.8340 H     1 <1>   0.0800 
 28 H       -2.2080    -3.3100     0.5690 H     1 <1>   0.1500 
 29 H       -1.0230    -4.8830    -0.8930 H     1 <1>   0.1500 
 30 H        3.5860    -2.9740     0.4990 H     1 <1>   0.4500 
 31 H        3.0980    -1.4100     0.6590 H     1 <1>   0.4500 
 32 H        5.3980    -2.1140    -1.0520 H     1 <1>   0.0800 
 33 H        5.9550    -2.9250     1.1420 H     1 <1>   0.0800 
 34 H        5.3630    -1.4640     1.9010 H     1 <1>   0.0800 
 35 H        4.6440     0.4600     0.3550 H     1 <1>   0.0800 
 36 H        4.2940     0.1490    -1.3290 H     1 <1>   0.0800 
 37 H        6.4020     1.4580    -0.8870 H     1 <1>   0.0800 
 38 H        6.5880     0.0650    -1.9090 H     1 <1>   0.0800 
 39 H        8.0680    -2.4990     2.3950 H     1 <1>   0.1500 
 40 H        8.9170     1.1920    -0.7330 H     1 <1>   0.1500 
 41 H       10.2920    -1.4990     2.2520 H     1 <1>   0.1500 
 42 H       10.7180     0.3490     0.6890 H     1 <1>   0.1500 
@<TRIPOS>BOND
  1   1   2  1   
  2   1   3  1   
  3   2   4  ar  
  4   2   5  ar  
  5   3  21  1   
  6   3  22  1   
  7   3  23  1   
  8   4   6  ar  
  9   4   7  1   
 10   5   8  ar  
 11   5  24  1   
 12   6   9  ar  
 13   6  25  1   
 14   7  10  1   
 15   7  26  1   
 16   7  27  1   
 17   8   9  ar  
 18   8  28  1   
 19   9  29  1   
 20  10  11  1   
 21  10  30  1   
 22  10  31  1   
 23  11  12  1   
 24  11  13  1   
 25  11  32  1   
 26  12  14  1   
 27  12  33  1   
 28  12  34  1   
 29  13  15  1   
 30  13  35  1   
 31  13  36  1   
 32  14  16  ar  
 33  14  17  ar  
 34  15  16  1   
 35  15  37  1   
 36  15  38  1   
 37  16  18  ar  
 38  17  19  ar  
 39  17  39  1   
 40  18  20  ar  
 41  18  40  1   
 42  19  20  ar  
 43  19  41  1   
 44  20  42  1   
@<TRIPOS>SUBSTRUCTURE
  1 ****  10 GROUP 4 **** **** 0

# MOE 2024.06 (io_trps.svl 2023.06)
