@<TRIPOS>MOLECULE
NONAME
37 39 1 0 0 
SMALL
USER_CHARGES


@<TRIPOS>ATOM
  1 S       -0.2150    -0.1340    -1.2160 S.o2  1 <1>   1.3330 
  2 O       -0.0580    -0.6660    -2.5490 O.2   1 <1>  -0.6500 
  3 O        0.9200     0.3090    -0.4380 O.2   1 <1>  -0.6500 
  4 N       -1.0820    -1.2900    -0.2380 N.am  1 <1>  -0.5140 
  5 C       -1.3750     1.2150    -1.2720 C.3   1 <1>  -0.1350 
  6 N       -2.4140    -1.6120    -0.2620 N.2   1 <1>  -0.4300 
  7 C       -0.3260    -2.0600     0.7460 C.3   1 <1>   0.4570 
  8 C       -2.6460    -2.5190     0.6060 C.2   1 <1>   0.4740 
  9 C        0.7820    -2.9090     0.1300 C.2   1 <1>  -0.1810 
 10 C       -1.4090    -2.9320     1.3710 C.3   1 <1>  -0.0990 
 11 C       -3.8990    -3.1440     0.9070 C.2   1 <1>  -0.0450 
 12 C        0.7920    -3.6800    -0.9850 C.2   1 <1>  -0.0400 
 13 C        2.0700    -3.0350     0.6790 C.2   1 <1>  -0.1810 
 14 S       -5.3420    -2.6260     0.0240 S.3   1 <1>  -0.0800 
 15 C       -4.2600    -4.1200     1.7850 C.2   1 <1>  -0.1500 
 16 O        1.9630    -4.2630    -1.1330 O.3   1 <1>  -0.2800 
 17 C       -0.2520    -3.9710    -2.0440 C.3   1 <1>  -0.0600 
 18 C        2.7340    -3.8750    -0.1410 C.2   1 <1>  -0.0100 
 19 C        2.5970    -2.3410     1.9200 C.3   1 <1>  -0.0590 
 20 C       -6.3680    -3.7560     0.8870 C.2   1 <1>  -0.1100 
 21 C       -5.6430    -4.4620     1.7730 C.2   1 <1>  -0.1500 
 22 H       -2.2850     0.8940    -1.7390 H     1 <1>   0.0800 
 23 H       -0.9650     2.0300    -1.8350 H     1 <1>   0.0800 
 24 H       -1.5960     1.5540    -0.2800 H     1 <1>   0.0800 
 25 H        0.0790    -1.3790     1.4730 H     1 <1>   0.0800 
 26 H       -1.5120    -2.7150     2.4170 H     1 <1>   0.0800 
 27 H       -1.2040    -3.9770     1.2280 H     1 <1>   0.0800 
 28 H       -3.5870    -4.6240     2.4550 H     1 <1>   0.1500 
 29 H       -1.1860    -3.4980    -1.8160 H     1 <1>   0.0800 
 30 H       -0.4070    -5.0310    -2.1200 H     1 <1>   0.0800 
 31 H        0.0930    -3.6000    -2.9910 H     1 <1>   0.0800 
 32 H        3.7440    -4.2410    -0.1010 H     1 <1>   0.1500 
 33 H        2.0110    -2.6150     2.7780 H     1 <1>   0.0800 
 34 H        2.5560    -1.2750     1.7850 H     1 <1>   0.0800 
 35 H        3.6200    -2.6240     2.0950 H     1 <1>   0.0800 
 36 H       -7.4140    -3.7700     0.6350 H     1 <1>   0.1500 
 37 H       -6.0360    -5.2210     2.4280 H     1 <1>   0.1500 
@<TRIPOS>BOND
  1   1   2  2   
  2   1   3  2   
  3   1   4  am  
  4   1   5  1   
  5   4   6  1   
  6   4   7  1   
  7   5  22  1   
  8   5  23  1   
  9   5  24  1   
 10   6   8  2   
 11   7   9  1   
 12   7  10  1   
 13   7  25  1   
 14   8  10  1   
 15   8  11  1   
 16   9  12  2   
 17   9  13  1   
 18  10  26  1   
 19  10  27  1   
 20  11  14  1   
 21  11  15  2   
 22  12  16  1   
 23  12  17  1   
 24  13  18  2   
 25  13  19  1   
 26  14  20  1   
 27  15  21  1   
 28  15  28  1   
 29  16  18  1   
 30  17  29  1   
 31  17  30  1   
 32  17  31  1   
 33  18  32  1   
 34  19  33  1   
 35  19  34  1   
 36  19  35  1   
 37  20  21  2   
 38  20  36  1   
 39  21  37  1   
@<TRIPOS>SUBSTRUCTURE
  1 ****   7 GROUP 4 **** **** 0

# MOE 2024.06 (io_trps.svl 2023.06)
