@<TRIPOS>MOLECULE
NONAME
34 35 1 0 0 
SMALL
USER_CHARGES


@<TRIPOS>ATOM
  1 O        0.1530     0.3060     0.6140 O.2   1 <1>  -0.5700 
  2 C       -0.0070     1.4820     0.3440 C.2   1 <1>   0.6900 
  3 N        1.0720     2.3220     0.2800 N.am  1 <1>  -0.6600 
  4 N       -1.2500     2.0030     0.1180 N.am  1 <1>  -0.5470 
  5 C        2.4550     1.8350     0.4750 C.3   1 <1>   0.1400 
  6 C        1.0660     3.7120    -0.2260 C.3   1 <1>   0.1400 
  7 C       -2.5150     1.4070     0.0240 C.ar  1 <1>   0.1170 
  8 C        3.3360     2.8830    -0.1940 C.3   1 <1>  -0.1600 
  9 C        2.5180     4.1700    -0.1310 C.3   1 <1>  -0.1600 
 10 C       -3.6420     2.1970     0.2210 C.ar  1 <1>  -0.1500 
 11 C       -2.7020     0.0640    -0.2780 C.ar  1 <1>  -0.1500 
 12 C       -4.9220     1.6750     0.1250 C.ar  1 <1>  -0.1440 
 13 C       -3.9730    -0.4680    -0.3750 C.ar  1 <1>  -0.1500 
 14 C       -5.0910     0.3270    -0.1750 C.ar  1 <1>  -0.1440 
 15 C       -6.1160     2.5900     0.3540 C.3   1 <1>  -0.0970 
 16 C       -6.4740    -0.2990    -0.2900 C.3   1 <1>  -0.0970 
 17 H       -1.2440     3.0130     0.0860 H     1 <1>   0.3700 
 18 H        2.5900     0.8620     0.0330 H     1 <1>   0.0800 
 19 H        2.6590     1.7820     1.5310 H     1 <1>   0.0800 
 20 H        0.4230     4.3380     0.3690 H     1 <1>   0.0800 
 21 H        0.7400     3.7130    -1.2520 H     1 <1>   0.0800 
 22 H        3.4950     2.5990    -1.2200 H     1 <1>   0.0800 
 23 H        4.2890     2.9760     0.2960 H     1 <1>   0.0800 
 24 H        2.6710     4.6520     0.8190 H     1 <1>   0.0800 
 25 H        2.7740     4.8580    -0.9180 H     1 <1>   0.0800 
 26 H       -3.5100     3.2350     0.4560 H     1 <1>   0.1500 
 27 H       -1.8520    -0.5720    -0.4420 H     1 <1>   0.1500 
 28 H       -4.0830    -1.5120    -0.6070 H     1 <1>   0.1500 
 29 H       -5.7990     3.5930     0.5760 H     1 <1>   0.0800 
 30 H       -6.7010     2.2320     1.1820 H     1 <1>   0.0800 
 31 H       -6.7330     2.6180    -0.5260 H     1 <1>   0.0800 
 32 H       -7.0350     0.1880    -1.0680 H     1 <1>   0.0800 
 33 H       -7.0010    -0.1990     0.6410 H     1 <1>   0.0800 
 34 H       -6.4040    -1.3440    -0.5290 H     1 <1>   0.0800 
@<TRIPOS>BOND
  1   1   2  2   
  2   2   3  am  
  3   2   4  am  
  4   3   5  1   
  5   3   6  1   
  6   4   7  1   
  7   4  17  1   
  8   5   8  1   
  9   5  18  1   
 10   5  19  1   
 11   6   9  1   
 12   6  20  1   
 13   6  21  1   
 14   7  10  ar  
 15   7  11  ar  
 16   8   9  1   
 17   8  22  1   
 18   8  23  1   
 19   9  24  1   
 20   9  25  1   
 21  10  12  ar  
 22  10  26  1   
 23  11  13  ar  
 24  11  27  1   
 25  12  14  ar  
 26  12  15  1   
 27  13  14  ar  
 28  13  28  1   
 29  14  16  1   
 30  15  29  1   
 31  15  30  1   
 32  15  31  1   
 33  16  32  1   
 34  16  33  1   
 35  16  34  1   
@<TRIPOS>SUBSTRUCTURE
  1 ****   4 GROUP 4 **** **** 0

# MOE 2024.06 (io_trps.svl 2023.06)
