@<TRIPOS>MOLECULE
NONAME
39 40 1 0 0 
SMALL
USER_CHARGES


@<TRIPOS>ATOM
  1 CL      -1.6130    -0.0280     1.0800 Cl    1 <1>  -0.1770 
  2 C       -0.0260     0.5530     0.6230 C.ar  1 <1>   0.1770 
  3 C        0.1460     1.8910     0.2680 C.ar  1 <1>   0.1170 
  4 C        1.0210    -0.3490     0.6220 C.ar  1 <1>  -0.1500 
  5 N       -0.9460     2.7800     0.2930 N.am  1 <1>  -0.5470 
  6 C        1.4290     2.2970    -0.0900 C.ar  1 <1>  -0.1500 
  7 C        2.2870     0.0780     0.2600 C.ar  1 <1>  -0.1500 
  8 C       -1.1850     3.9340    -0.4030 C.2   1 <1>   0.5690 
  9 C        2.4860     1.4010    -0.0960 C.ar  1 <1>  -0.1500 
 10 O       -0.4140     4.4040    -1.2050 O.2   1 <1>  -0.5700 
 11 C       -2.5070     4.6630    -0.1560 C.3   1 <1>   0.2010 
 12 N       -3.7150     3.8010    -0.3660 N.am  1 <1>  -0.7300 
 13 C       -4.1480     2.8790     0.5280 C.2   1 <1>   0.5690 
 14 O       -3.5410     2.6920     1.5560 O.2   1 <1>  -0.5700 
 15 C       -5.3960     2.0580     0.2070 C.3   1 <1>  -0.0190 
 16 C       -6.4960     2.2680     1.2660 C.3   1 <1>  -0.1600 
 17 C       -5.0600     0.5610     0.0670 C.3   1 <1>  -0.1600 
 18 C       -7.7480     1.4360     0.9510 C.3   1 <1>  -0.1600 
 19 C       -6.3100    -0.2710    -0.2500 C.3   1 <1>  -0.1600 
 20 C       -7.4020    -0.0520     0.8060 C.3   1 <1>  -0.1600 
 21 H        0.8450    -1.3720     0.9020 H     1 <1>   0.1500 
 22 H       -1.7460     2.4730     0.8700 H     1 <1>   0.3700 
 23 H        1.6100     3.3200    -0.3650 H     1 <1>   0.1500 
 24 H        3.1110    -0.6140     0.2540 H     1 <1>   0.1500 
 25 H        3.4690     1.7390    -0.3790 H     1 <1>   0.1500 
 26 H       -2.5610     5.5140    -0.8100 H     1 <1>   0.0800 
 27 H       -2.5050     5.0250     0.8570 H     1 <1>   0.0800 
 28 H       -4.1690     3.8820    -1.2780 H     1 <1>   0.3700 
 29 H       -5.7820     2.3970    -0.7370 H     1 <1>   0.0800 
 30 H       -6.7580     3.3100     1.3130 H     1 <1>   0.0800 
 31 H       -6.1150     1.9820     2.2330 H     1 <1>   0.0800 
 32 H       -4.6270     0.2080     0.9890 H     1 <1>   0.0800 
 33 H       -4.3280     0.4230    -0.7100 H     1 <1>   0.0800 
 34 H       -8.1930     1.7900     0.0370 H     1 <1>   0.0800 
 35 H       -8.4700     1.5610     1.7400 H     1 <1>   0.0800 
 36 H       -6.0480    -1.3150    -0.2830 H     1 <1>   0.0800 
 37 H       -6.6890     0.0040    -1.2190 H     1 <1>   0.0800 
 38 H       -8.2860    -0.6020     0.5320 H     1 <1>   0.0800 
 39 H       -7.0600    -0.4300     1.7540 H     1 <1>   0.0800 
@<TRIPOS>BOND
  1   1   2  1   
  2   2   3  ar  
  3   2   4  ar  
  4   3   5  1   
  5   3   6  ar  
  6   4   7  ar  
  7   4  21  1   
  8   5   8  am  
  9   5  22  1   
 10   6   9  ar  
 11   6  23  1   
 12   7   9  ar  
 13   7  24  1   
 14   8  10  2   
 15   8  11  1   
 16   9  25  1   
 17  11  12  1   
 18  11  26  1   
 19  11  27  1   
 20  12  13  am  
 21  12  28  1   
 22  13  14  2   
 23  13  15  1   
 24  15  16  1   
 25  15  17  1   
 26  15  29  1   
 27  16  18  1   
 28  16  30  1   
 29  16  31  1   
 30  17  19  1   
 31  17  32  1   
 32  17  33  1   
 33  18  20  1   
 34  18  34  1   
 35  18  35  1   
 36  19  20  1   
 37  19  36  1   
 38  19  37  1   
 39  20  38  1   
 40  20  39  1   
@<TRIPOS>SUBSTRUCTURE
  1 ****   5 GROUP 4 **** **** 0

# MOE 2024.06 (io_trps.svl 2023.06)
