@<TRIPOS>MOLECULE
NONAME
27 29 1 0 0 
SMALL
USER_CHARGES


@<TRIPOS>ATOM
  1 S       -0.0170     0.0190     0.1410 S.3   1 <1>   0.1810 
  2 N       -0.3300     1.1580     1.3750 N.2   1 <1>  -0.2210 
  3 C        1.5600     0.6740    -0.1890 C.ar  1 <1>   0.0400 
  4 N        0.6380     1.9460     1.5240 N.2   1 <1>  -0.2270 
  5 C        1.7190     1.7240     0.6800 C.ar  1 <1>   0.2270 
  6 C        2.5190     0.2920    -1.1080 C.ar  1 <1>  -0.1500 
  7 C        2.9050     2.4410     0.6390 C.ar  1 <1>  -0.1500 
  8 C        3.6950     1.0190    -1.1330 C.ar  1 <1>  -0.1500 
  9 C        3.9150     2.0970    -0.2600 C.ar  1 <1>   0.0860 
 10 C        5.1560     2.8480    -0.2900 C.2   1 <1>   0.5440 
 11 O        5.1180     4.0610    -0.3630 O.2   1 <1>  -0.5700 
 12 N        6.3810     2.2250    -0.2290 N.am  1 <1>  -0.6600 
 13 C        7.6500     2.9860    -0.2640 C.3   1 <1>   0.1400 
 14 C        6.6100     0.8380     0.2370 C.3   1 <1>   0.1400 
 15 C        8.7370     1.9520     0.0070 C.3   1 <1>  -0.1600 
 16 C        8.0320     0.8450     0.7860 C.3   1 <1>  -0.1600 
 17 H        2.3470    -0.5350    -1.7760 H     1 <1>   0.1500 
 18 H        3.0420     3.2730     1.3060 H     1 <1>   0.1500 
 19 H        4.4660     0.7640    -1.8410 H     1 <1>   0.1500 
 20 H        7.6330     3.7330     0.5120 H     1 <1>   0.0800 
 21 H        7.7800     3.4640    -1.2200 H     1 <1>   0.0800 
 22 H        6.5410     0.1690    -0.6030 H     1 <1>   0.0800 
 23 H        5.8980     0.5550     0.9930 H     1 <1>   0.0800 
 24 H        9.5630     2.3760     0.5510 H     1 <1>   0.0800 
 25 H        9.0960     1.5690    -0.9320 H     1 <1>   0.0800 
 26 H        8.5120    -0.1100     0.6690 H     1 <1>   0.0800 
 27 H        8.0010     1.0980     1.8310 H     1 <1>   0.0800 
@<TRIPOS>BOND
  1   1   2  1   
  2   1   3  1   
  3   2   4  2   
  4   3   5  ar  
  5   3   6  ar  
  6   4   5  1   
  7   5   7  ar  
  8   6   8  ar  
  9   6  17  1   
 10   7   9  ar  
 11   7  18  1   
 12   8   9  ar  
 13   8  19  1   
 14   9  10  1   
 15  10  11  2   
 16  10  12  am  
 17  12  13  1   
 18  12  14  1   
 19  13  15  1   
 20  13  20  1   
 21  13  21  1   
 22  14  16  1   
 23  14  22  1   
 24  14  23  1   
 25  15  16  1   
 26  15  24  1   
 27  15  25  1   
 28  16  26  1   
 29  16  27  1   
@<TRIPOS>SUBSTRUCTURE
  1 ****   9 GROUP 4 **** **** 0

# MOE 2024.06 (io_trps.svl 2023.06)
