@<TRIPOS>MOLECULE
NONAME
41 41 1 0 0 
SMALL
USER_CHARGES


@<TRIPOS>ATOM
  1 CL      -0.8710     0.3220    -2.1720 Cl    1 <1>  -0.1770 
  2 C       -1.9130     0.8970    -0.8910 C.ar  1 <1>   0.1770 
  3 C       -1.5660     2.0150    -0.1430 C.ar  1 <1>   0.0820 
  4 C       -3.0890     0.2060    -0.6540 C.ar  1 <1>  -0.1500 
  5 O       -0.4200     2.6860    -0.4170 O.3   1 <1>  -0.3630 
  6 C       -2.4480     2.4320     0.8480 C.ar  1 <1>   0.1770 
  7 C       -3.9600     0.6310     0.3420 C.ar  1 <1>  -0.1440 
  8 C        0.6410     2.6230     0.5120 C.3   1 <1>   0.2000 
  9 CL      -2.1210     3.8560     1.8110 Cl    1 <1>  -0.1770 
 10 C       -3.6270     1.7490     1.0960 C.ar  1 <1>  -0.1500 
 11 C       -5.2580    -0.1090     0.5930 C.3   1 <1>   0.4870 
 12 C        1.4760     3.8880     0.3310 C.3   1 <1>  -0.2400 
 13 C        1.4620     1.3650     0.2350 C.3   1 <1>  -0.2400 
 14 N       -6.2790     0.5090    -0.2880 N.4   1 <1>  -0.9060 
 15 C       -7.6500    -0.0480    -0.2360 C.3   1 <1>   0.5030 
 16 C       -8.5430     0.7490    -1.2340 C.3   1 <1>   0.1200 
 17 C       -8.1810     0.0990     1.1960 C.3   1 <1>  -0.2400 
 18 C       -7.5890    -1.5290    -0.6340 C.3   1 <1>  -0.2400 
 19 O       -9.8510     0.2750    -1.2360 O.3   1 <1>  -0.6800 
 20 H       -3.2990    -0.6600    -1.2600 H     1 <1>   0.1500 
 21 H        0.2380     2.5930     1.5100 H     1 <1>   0.0800 
 22 H       -4.2670     2.1130     1.8830 H     1 <1>   0.1500 
 23 H       -5.5410    -0.0130     1.6290 H     1 <1>   0.0800 
 24 H       -5.1350    -1.1540     0.3600 H     1 <1>   0.0800 
 25 H        1.8660     3.9390    -0.6690 H     1 <1>   0.0800 
 26 H        2.2980     3.8890     1.0230 H     1 <1>   0.0800 
 27 H        0.8700     4.7550     0.5230 H     1 <1>   0.0800 
 28 H        1.8230     1.3700    -0.7790 H     1 <1>   0.0800 
 29 H        0.8670     0.4850     0.3960 H     1 <1>   0.0800 
 30 H        2.3070     1.3250     0.8980 H     1 <1>   0.0800 
 31 H       -5.9340     0.4450    -1.2500 H     1 <1>   0.4500 
 32 H       -6.3200     1.5070    -0.0600 H     1 <1>   0.4500 
 33 H       -8.1660     0.6520    -2.2380 H     1 <1>   0.0800 
 34 H       -8.5800     1.7890    -0.9600 H     1 <1>   0.0800 
 35 H       -8.1850     1.1290     1.5040 H     1 <1>   0.0800 
 36 H       -7.6210    -0.4880     1.9000 H     1 <1>   0.0800 
 37 H       -9.1980    -0.2530     1.2400 H     1 <1>   0.0800 
 38 H       -7.1740    -1.6490    -1.6180 H     1 <1>   0.0800 
 39 H       -8.5860    -1.9370    -0.6530 H     1 <1>   0.0800 
 40 H       -7.0290    -2.1160     0.0690 H     1 <1>   0.0800 
 41 H      -10.4240     0.7700    -1.8610 H     1 <1>   0.4000 
@<TRIPOS>BOND
  1   1   2  1   
  2   2   3  ar  
  3   2   4  ar  
  4   3   5  1   
  5   3   6  ar  
  6   4   7  ar  
  7   4  20  1   
  8   5   8  1   
  9   6   9  1   
 10   6  10  ar  
 11   7  10  ar  
 12   7  11  1   
 13   8  12  1   
 14   8  13  1   
 15   8  21  1   
 16  10  22  1   
 17  11  14  1   
 18  11  23  1   
 19  11  24  1   
 20  12  25  1   
 21  12  26  1   
 22  12  27  1   
 23  13  28  1   
 24  13  29  1   
 25  13  30  1   
 26  14  15  1   
 27  14  31  1   
 28  14  32  1   
 29  15  16  1   
 30  15  17  1   
 31  15  18  1   
 32  16  19  1   
 33  16  33  1   
 34  16  34  1   
 35  17  35  1   
 36  17  36  1   
 37  17  37  1   
 38  18  38  1   
 39  18  39  1   
 40  18  40  1   
 41  19  41  1   
@<TRIPOS>SUBSTRUCTURE
  1 ****   7 GROUP 4 **** **** 0

# MOE 2024.06 (io_trps.svl 2023.06)
