@<TRIPOS>MOLECULE
NONAME
43 46 1 0 0 
SMALL
USER_CHARGES


@<TRIPOS>ATOM
  1 S        1.2680    -0.5540    -0.7100 S.3   1 <1>  -0.0800 
  2 C        2.0690     0.8680    -0.0410 C.2   1 <1>   0.1660 
  3 C       -0.1940     0.3850    -0.9490 C.2   1 <1>  -0.1400 
  4 N        3.3500     0.8380     0.3880 N.2   1 <1>  -0.5760 
  5 C        1.2430     1.9510    -0.0230 C.2   1 <1>  -0.0860 
  6 C       -0.0520     1.6400    -0.5530 C.2   1 <1>  -0.1810 
  7 C       -1.5270     0.0070    -1.5090 C.3   1 <1>   0.0200 
  8 C        3.7860     1.9620     0.8480 C.2   1 <1>   0.6510 
  9 C        1.7720     3.1640     0.4930 C.2   1 <1>   0.7160 
 10 C       -1.3220     2.4170    -0.7700 C.3   1 <1>   0.0210 
 11 C       -2.2800     1.3600    -1.3930 C.3   1 <1>  -0.1600 
 12 S        5.4770     1.9670     1.4170 S.3   1 <1>  -0.3710 
 13 N        3.0830     3.1480     0.9330 N.am  1 <1>  -0.4200 
 14 O        1.1040     4.1890     0.5500 O.2   1 <1>  -0.5700 
 15 C        6.0410     0.2040     1.2340 C.3   1 <1>   0.1310 
 16 C        3.6720     4.3990     1.4950 C.3   1 <1>   0.1400 
 17 C        7.5570     0.1330     1.3170 C.2   1 <1>   0.4230 
 18 C        3.4620     4.4430     3.0090 C.3   1 <1>  -0.2400 
 19 O        8.0230    -0.3990     2.2940 O.2   1 <1>  -0.5700 
 20 C        8.3750     0.6740     0.2460 C.ar  1 <1>   0.0860 
 21 C        7.8480     1.1850    -0.9470 C.ar  1 <1>  -0.1500 
 22 C        9.7660     0.7000     0.3770 C.ar  1 <1>  -0.1500 
 23 C        8.6610     1.6900    -1.9440 C.ar  1 <1>  -0.1500 
 24 C       10.5860     1.2040    -0.6160 C.ar  1 <1>  -0.1500 
 25 C       10.0340     1.7020    -1.7810 C.ar  1 <1>  -0.1500 
 26 H       -1.9880    -0.7600    -0.9120 H     1 <1>   0.0800 
 27 H       -1.4350    -0.3130    -2.5320 H     1 <1>   0.0800 
 28 H       -1.1490     3.2380    -1.4440 H     1 <1>   0.0800 
 29 H       -1.7000     2.7880     0.1670 H     1 <1>   0.0800 
 30 H       -3.1490     1.2430    -0.7700 H     1 <1>   0.0800 
 31 H       -2.5980     1.6860    -2.3680 H     1 <1>   0.0800 
 32 H        5.6930    -0.1730     0.2910 H     1 <1>   0.0800 
 33 H        5.5890    -0.3550     2.0340 H     1 <1>   0.0800 
 34 H        3.2020     5.2590     1.0460 H     1 <1>   0.0800 
 35 H        4.7200     4.4650     1.2620 H     1 <1>   0.0800 
 36 H        2.4110     4.4280     3.2410 H     1 <1>   0.0800 
 37 H        3.8810     5.3500     3.4050 H     1 <1>   0.0800 
 38 H        3.9470     3.6090     3.4860 H     1 <1>   0.0800 
 39 H        6.7870     1.1960    -1.1150 H     1 <1>   0.1500 
 40 H       10.2130     0.3160     1.2790 H     1 <1>   0.1500 
 41 H        8.2280     2.0770    -2.8510 H     1 <1>   0.1500 
 42 H       11.6540     1.2100    -0.4810 H     1 <1>   0.1500 
 43 H       10.6690     2.0950    -2.5560 H     1 <1>   0.1500 
@<TRIPOS>BOND
  1   1   2  1   
  2   1   3  1   
  3   2   4  1   
  4   2   5  2   
  5   3   6  2   
  6   3   7  1   
  7   4   8  2   
  8   5   6  1   
  9   5   9  1   
 10   6  10  1   
 11   7  11  1   
 12   7  26  1   
 13   7  27  1   
 14   8  12  1   
 15   8  13  1   
 16   9  13  am  
 17   9  14  2   
 18  10  11  1   
 19  10  28  1   
 20  10  29  1   
 21  11  30  1   
 22  11  31  1   
 23  12  15  1   
 24  13  16  1   
 25  15  17  1   
 26  15  32  1   
 27  15  33  1   
 28  16  18  1   
 29  16  34  1   
 30  16  35  1   
 31  17  19  2   
 32  17  20  1   
 33  18  36  1   
 34  18  37  1   
 35  18  38  1   
 36  20  21  ar  
 37  20  22  ar  
 38  21  23  ar  
 39  21  39  1   
 40  22  24  ar  
 41  22  40  1   
 42  23  25  ar  
 43  23  41  1   
 44  24  25  ar  
 45  24  42  1   
 46  25  43  1   
@<TRIPOS>SUBSTRUCTURE
  1 ****   8 GROUP 4 **** **** 0

# MOE 2024.06 (io_trps.svl 2023.06)
