@<TRIPOS>MOLECULE
NONAME
55 57 1 0 0 
SMALL
USER_CHARGES


@<TRIPOS>ATOM
  1 O       -3.4880     1.1490    -0.2690 O.3   1 <1>  -0.3630 
  2 C       -2.4080     1.9750    -0.3600 C.ar  1 <1>   0.0820 
  3 C       -3.7880     0.2150    -1.2820 C.3   1 <1>   0.0400 
  4 C       -2.1040     2.7710     0.7420 C.ar  1 <1>  -0.1440 
  5 C       -1.6090     2.0460    -1.5000 C.ar  1 <1>  -0.1500 
  6 C       -1.0030     3.6120     0.6940 C.ar  1 <1>  -0.1500 
  7 C       -2.9610     2.7300     2.0000 C.3   1 <1>   0.2540 
  8 C       -0.5190     2.8970    -1.5410 C.ar  1 <1>  -0.1500 
  9 C       -0.2120     3.6870    -0.4390 C.ar  1 <1>   0.0820 
 10 N       -4.1710     3.5610     1.8360 N.3   1 <1>  -0.8100 
 11 O        0.8330     4.5540    -0.3920 O.3   1 <1>  -0.3630 
 12 C       -5.1290     3.3880     2.9480 C.3   1 <1>   0.1100 
 13 C       -3.8780     4.9940     1.5930 C.3   1 <1>   0.1100 
 14 C        1.7310     4.6680    -1.4740 C.3   1 <1>   0.0400 
 15 C       -6.4490     4.1580     2.6940 C.3   1 <1>   0.3430 
 16 C       -5.1670     5.8280     1.4020 C.3   1 <1>   0.3430 
 17 N       -6.3810     4.9500     1.4200 N.4   1 <1>  -0.9590 
 18 C       -7.6250     5.6440     1.0350 C.3   1 <1>   0.4810 
 19 C       -8.6760     4.5980     0.7540 C.2   1 <1>  -0.2880 
 20 C       -9.0740     4.2220    -0.4740 C.2   1 <1>  -0.1780 
 21 C      -10.0740     3.2350    -0.8160 C.ar  1 <1>   0.0280 
 22 C      -10.1170     2.7060    -2.1040 C.ar  1 <1>  -0.1500 
 23 C      -11.0220     2.7810     0.1000 C.ar  1 <1>  -0.1500 
 24 C      -11.0610     1.7610    -2.4640 C.ar  1 <1>  -0.1500 
 25 C      -11.9680     1.8350    -0.2530 C.ar  1 <1>  -0.1500 
 26 C      -11.9890     1.3220    -1.5370 C.ar  1 <1>  -0.1500 
 27 H       -4.0190     0.7450    -2.1890 H     1 <1>   0.0800 
 28 H       -4.6430    -0.3570    -0.9670 H     1 <1>   0.0800 
 29 H       -2.9440    -0.4370    -1.4190 H     1 <1>   0.0800 
 30 H       -1.8190     1.4480    -2.3650 H     1 <1>   0.1500 
 31 H       -0.7430     4.2250     1.5370 H     1 <1>   0.1500 
 32 H       -2.3890     3.0740     2.8450 H     1 <1>   0.0800 
 33 H       -3.2470     1.7100     2.1890 H     1 <1>   0.0800 
 34 H        0.0760     2.9310    -2.4340 H     1 <1>   0.1500 
 35 H       -5.3570     2.3420     3.0630 H     1 <1>   0.0800 
 36 H       -4.6860     3.7280     3.8690 H     1 <1>   0.0800 
 37 H       -3.3040     5.3980     2.4090 H     1 <1>   0.0800 
 38 H       -3.2850     5.0920     0.6990 H     1 <1>   0.0800 
 39 H        2.4820     5.3900    -1.2100 H     1 <1>   0.0800 
 40 H        1.1910     5.0030    -2.3420 H     1 <1>   0.0800 
 41 H        2.1900     3.7110    -1.6490 H     1 <1>   0.0800 
 42 H       -6.6470     4.8100     3.5280 H     1 <1>   0.0800 
 43 H       -7.2540     3.4430     2.6360 H     1 <1>   0.0800 
 44 H       -5.1030     6.3520     0.4630 H     1 <1>   0.0800 
 45 H       -5.2320     6.5630     2.1870 H     1 <1>   0.0800 
 46 H       -6.1750     4.2290     0.7080 H     1 <1>   0.4500 
 47 H       -7.9520     6.3120     1.8150 H     1 <1>   0.0800 
 48 H       -7.4530     6.2190     0.1390 H     1 <1>   0.0800 
 49 H       -9.0900     4.1720     1.6490 H     1 <1>   0.1500 
 50 H       -8.6240     4.6750    -1.3420 H     1 <1>   0.1500 
 51 H       -9.4040     3.0330    -2.8390 H     1 <1>   0.1500 
 52 H      -11.0350     3.1710     1.0990 H     1 <1>   0.1500 
 53 H      -11.0750     1.3650    -3.4640 H     1 <1>   0.1500 
 54 H      -12.6910     1.4980     0.4690 H     1 <1>   0.1500 
 55 H      -12.7240     0.5870    -1.8140 H     1 <1>   0.1500 
@<TRIPOS>BOND
  1   1   2  1   
  2   1   3  1   
  3   2   4  ar  
  4   2   5  ar  
  5   3  27  1   
  6   3  28  1   
  7   3  29  1   
  8   4   6  ar  
  9   4   7  1   
 10   5   8  ar  
 11   5  30  1   
 12   6   9  ar  
 13   6  31  1   
 14   7  10  1   
 15   7  32  1   
 16   7  33  1   
 17   8   9  ar  
 18   8  34  1   
 19   9  11  1   
 20  10  12  1   
 21  10  13  1   
 22  11  14  1   
 23  12  15  1   
 24  12  35  1   
 25  12  36  1   
 26  13  16  1   
 27  13  37  1   
 28  13  38  1   
 29  14  39  1   
 30  14  40  1   
 31  14  41  1   
 32  15  17  1   
 33  15  42  1   
 34  15  43  1   
 35  16  17  1   
 36  16  44  1   
 37  16  45  1   
 38  17  18  1   
 39  17  46  1   
 40  18  19  1   
 41  18  47  1   
 42  18  48  1   
 43  19  20  2   
 44  19  49  1   
 45  20  21  1   
 46  20  50  1   
 47  21  22  ar  
 48  21  23  ar  
 49  22  24  ar  
 50  22  51  1   
 51  23  25  ar  
 52  23  52  1   
 53  24  26  ar  
 54  24  53  1   
 55  25  26  ar  
 56  25  54  1   
 57  26  55  1   
@<TRIPOS>SUBSTRUCTURE
  1 ****  10 GROUP 4 **** **** 0

# MOE 2024.06 (io_trps.svl 2023.06)
