@<TRIPOS>MOLECULE
NONAME
39 40 1 0 0 
SMALL
USER_CHARGES


@<TRIPOS>ATOM
  1 O       -1.3260    -1.2510     2.0330 O.2   1 <1>  -0.5700 
  2 C       -1.1080    -2.0820     1.1800 C.2   1 <1>   0.5690 
  3 N       -0.1600    -1.8650     0.2060 N.am  1 <1>  -0.6600 
  4 C       -1.8860    -3.3960     1.2920 C.3   1 <1>   0.1810 
  5 C        0.5520    -0.5590     0.0880 C.3   1 <1>   0.1400 
  6 C        0.1830    -2.8170    -0.8940 C.3   1 <1>   0.1400 
  7 O       -2.5000    -3.8110     0.0760 O.3   1 <1>  -0.3620 
  8 C        2.0530    -0.7730    -0.1620 C.3   1 <1>   0.1200 
  9 C        1.7050    -2.8890    -1.1080 C.3   1 <1>   0.1200 
 10 C       -3.8350    -3.6230    -0.0330 C.ar  1 <1>   0.0820 
 11 O        2.2540    -1.6120    -1.2640 O.3   1 <1>  -0.5600 
 12 C       -4.3860    -2.3680    -0.3000 C.ar  1 <1>   0.0820 
 13 C       -4.6580    -4.7260     0.1170 C.ar  1 <1>  -0.1500 
 14 O       -3.5400    -1.3170    -0.4730 O.3   1 <1>  -0.3630 
 15 C       -5.7680    -2.2420    -0.3900 C.ar  1 <1>  -0.1500 
 16 C       -6.0310    -4.5850     0.0230 C.ar  1 <1>  -0.1500 
 17 C       -4.0000     0.0140    -0.4480 C.3   1 <1>   0.1200 
 18 C       -6.6030    -3.3420    -0.2280 C.ar  1 <1>   0.0730 
 19 C       -2.7870     0.9360    -0.5000 C.3   1 <1>  -0.2400 
 20 C       -8.0280    -3.1990    -0.3220 C.1   1 <1>   0.4840 
 21 N       -9.1600    -3.0810    -0.3960 N.1   1 <1>  -0.5570 
 22 H       -2.6450    -3.2970     2.0470 H     1 <1>   0.0800 
 23 H       -1.2090    -4.1730     1.5910 H     1 <1>   0.0800 
 24 H        0.4240     0.0250     0.9830 H     1 <1>   0.0800 
 25 H        0.1340    -0.0030    -0.7320 H     1 <1>   0.0800 
 26 H       -0.2900    -2.4860    -1.8030 H     1 <1>   0.0800 
 27 H       -0.1750    -3.8050    -0.6750 H     1 <1>   0.0800 
 28 H        2.5200    -1.2140     0.7010 H     1 <1>   0.0800 
 29 H        2.5300     0.1670    -0.3730 H     1 <1>   0.0800 
 30 H        1.9270    -3.4520    -1.9970 H     1 <1>   0.0800 
 31 H        2.1810    -3.3670    -0.2700 H     1 <1>   0.0800 
 32 H       -4.2190    -5.6890     0.3080 H     1 <1>   0.1500 
 33 H       -6.2200    -1.2890    -0.5950 H     1 <1>   0.1500 
 34 H       -6.6620    -5.4490     0.1450 H     1 <1>   0.1500 
 35 H       -4.5530     0.1680     0.4620 H     1 <1>   0.0800 
 36 H       -4.6320     0.1730    -1.3050 H     1 <1>   0.0800 
 37 H       -2.1740     0.7790     0.3690 H     1 <1>   0.0800 
 38 H       -3.1080     1.9610    -0.5120 H     1 <1>   0.0800 
 39 H       -2.2130     0.7410    -1.3880 H     1 <1>   0.0800 
@<TRIPOS>BOND
  1   1   2  2   
  2   2   3  am  
  3   2   4  1   
  4   3   5  1   
  5   3   6  1   
  6   4   7  1   
  7   4  22  1   
  8   4  23  1   
  9   5   8  1   
 10   5  24  1   
 11   5  25  1   
 12   6   9  1   
 13   6  26  1   
 14   6  27  1   
 15   7  10  1   
 16   8  11  1   
 17   8  28  1   
 18   8  29  1   
 19   9  11  1   
 20   9  30  1   
 21   9  31  1   
 22  10  12  ar  
 23  10  13  ar  
 24  12  14  1   
 25  12  15  ar  
 26  13  16  ar  
 27  13  32  1   
 28  14  17  1   
 29  15  18  ar  
 30  15  33  1   
 31  16  18  ar  
 32  16  34  1   
 33  17  19  1   
 34  17  35  1   
 35  17  36  1   
 36  18  20  1   
 37  19  37  1   
 38  19  38  1   
 39  19  39  1   
 40  20  21  3   
@<TRIPOS>SUBSTRUCTURE
  1 ****  14 GROUP 4 **** **** 0

# MOE 2024.06 (io_trps.svl 2023.06)
