@<TRIPOS>MOLECULE
NONAME
42 45 1 0 0 
SMALL
USER_CHARGES


@<TRIPOS>ATOM
  1 O        0.8760    -1.1410     0.9380 O.3   1 <1>  -0.3630 
  2 C        0.0290    -2.0540     0.4540 C.ar  1 <1>   0.0830 
  3 C        1.8720    -0.9350    -0.0640 C.3   1 <1>   0.4000 
  4 C        0.4080    -2.4290    -0.8010 C.ar  1 <1>   0.0830 
  5 C       -1.0860    -2.5890     1.0640 C.ar  1 <1>  -0.1500 
  6 O        1.5130    -1.7710    -1.1630 O.3   1 <1>  -0.3630 
  7 C       -0.3080    -3.3650    -1.5180 C.ar  1 <1>  -0.1500 
  8 C       -1.8340    -3.5270     0.3570 C.ar  1 <1>  -0.1440 
  9 C       -1.4380    -3.9150    -0.9250 C.ar  1 <1>  -0.1500 
 10 C       -3.0840    -4.1160     0.9810 C.3   1 <1>   0.4870 
 11 N       -4.2670    -3.4610     0.3640 N.4   1 <1>  -0.9590 
 12 C       -4.3090    -1.9800     0.6540 C.3   1 <1>   0.3430 
 13 C       -5.5590    -4.1190     0.7730 C.3   1 <1>   0.3430 
 14 C       -5.5250    -1.2900     0.0070 C.3   1 <1>   0.2090 
 15 C       -6.7860    -3.4510     0.1220 C.3   1 <1>   0.2090 
 16 N       -6.8050    -1.9760     0.3590 N.pl3 1 <1>  -0.8380 
 17 C       -7.9230    -1.3490    -0.1450 C.ar  1 <1>   0.4100 
 18 N       -8.0520    -1.3630    -1.4650 N.ar  1 <1>  -0.6200 
 19 C       -8.8340    -0.7490     0.7170 C.ar  1 <1>  -0.1500 
 20 C       -9.1290    -0.7560    -1.9390 C.ar  1 <1>   0.1600 
 21 C       -9.9480    -0.1220     0.2100 C.ar  1 <1>  -0.1500 
 22 C      -10.0900    -0.1320    -1.1630 C.ar  1 <1>  -0.1500 
 23 H        2.8340    -1.2310     0.3150 H     1 <1>   0.0800 
 24 H        1.8660     0.0950    -0.3760 H     1 <1>   0.0800 
 25 H       -1.3410    -2.2670     2.0590 H     1 <1>   0.1500 
 26 H        0.0150    -3.6500    -2.5040 H     1 <1>   0.1500 
 27 H       -1.9970    -4.6500    -1.4780 H     1 <1>   0.1500 
 28 H       -3.0780    -3.9530     2.0470 H     1 <1>   0.0800 
 29 H       -3.1060    -5.1780     0.7970 H     1 <1>   0.0800 
 30 H       -4.1680    -3.5530    -0.6550 H     1 <1>   0.4500 
 31 H       -3.4110    -1.5080     0.2900 H     1 <1>   0.0800 
 32 H       -4.3590    -1.8200     1.7180 H     1 <1>   0.0800 
 33 H       -5.6740    -4.0570     1.8430 H     1 <1>   0.0800 
 34 H       -5.5450    -5.1610     0.5000 H     1 <1>   0.0800 
 35 H       -5.4050    -1.2780    -1.0640 H     1 <1>   0.0800 
 36 H       -5.5720    -0.2660     0.3390 H     1 <1>   0.0800 
 37 H       -7.6850    -3.8820     0.5290 H     1 <1>   0.0800 
 38 H       -6.7840    -3.6450    -0.9380 H     1 <1>   0.0800 
 39 H       -8.6530    -0.7840     1.7740 H     1 <1>   0.1500 
 40 H       -9.2540    -0.7540    -3.0080 H     1 <1>   0.1500 
 41 H      -10.6730     0.3520     0.8490 H     1 <1>   0.1500 
 42 H      -10.9380     0.3400    -1.6260 H     1 <1>   0.1500 
@<TRIPOS>BOND
  1   1   2  1   
  2   1   3  1   
  3   2   4  ar  
  4   2   5  ar  
  5   3   6  1   
  6   3  23  1   
  7   3  24  1   
  8   4   6  1   
  9   4   7  ar  
 10   5   8  ar  
 11   5  25  1   
 12   7   9  ar  
 13   7  26  1   
 14   8   9  ar  
 15   8  10  1   
 16   9  27  1   
 17  10  11  1   
 18  10  28  1   
 19  10  29  1   
 20  11  12  1   
 21  11  13  1   
 22  11  30  1   
 23  12  14  1   
 24  12  31  1   
 25  12  32  1   
 26  13  15  1   
 27  13  33  1   
 28  13  34  1   
 29  14  16  1   
 30  14  35  1   
 31  14  36  1   
 32  15  16  1   
 33  15  37  1   
 34  15  38  1   
 35  16  17  1   
 36  17  18  ar  
 37  17  19  ar  
 38  18  20  ar  
 39  19  21  ar  
 40  19  39  1   
 41  20  22  ar  
 42  20  40  1   
 43  21  22  ar  
 44  21  41  1   
 45  22  42  1   
@<TRIPOS>SUBSTRUCTURE
  1 ****  12 GROUP 4 **** **** 0

# MOE 2024.06 (io_trps.svl 2023.06)
