@<TRIPOS>MOLECULE
NONAME
18 17 1 0 0 
SMALL
USER_CHARGES


@<TRIPOS>ATOM
  1 O       -0.7790     0.2290    -2.2230 O.co2 1 <1>  -0.9000 
  2 C       -0.9470    -0.4890    -1.2140 C.2   1 <1>   0.9060 
  3 O        0.0540    -1.0200    -0.6940 O.co2 1 <1>  -0.9000 
  4 C       -2.4040    -0.7190    -0.6210 C.3   1 <1>   0.1740 
  5 O       -3.3350    -1.0260    -1.6300 O.3   1 <1>  -0.6800 
  6 C       -2.9870     0.5660     0.0250 C.3   1 <1>  -0.2660 
  7 C       -2.4950    -1.9340     0.3450 C.3   1 <1>  -0.2660 
  8 C       -2.4580     1.0040     1.3750 C.2   1 <1>   0.9060 
  9 C       -2.4040    -3.3250    -0.2620 C.2   1 <1>   0.9060 
 10 O       -2.8840     0.4530     2.4010 O.co2 1 <1>  -0.9000 
 11 O       -1.7650     2.0280     1.4570 O.co2 1 <1>  -0.9000 
 12 O       -2.7740    -3.5300    -1.4320 O.co2 1 <1>  -0.9000 
 13 O       -2.0950    -4.2790     0.4680 O.co2 1 <1>  -0.9000 
 14 H       -3.1720    -1.9960    -1.8300 H     1 <1>   0.4000 
 15 H       -4.0430     0.4420     0.1530 H     1 <1>   0.0800 
 16 H       -2.8270     1.3790    -0.6560 H     1 <1>   0.0800 
 17 H       -3.4200    -1.8860     0.8840 H     1 <1>   0.0800 
 18 H       -1.7100    -1.8470     1.0720 H     1 <1>   0.0800 
@<TRIPOS>BOND
  1   1   2  ar  
  2   2   3  ar  
  3   2   4  1   
  4   4   5  1   
  5   4   6  1   
  6   4   7  1   
  7   5  14  1   
  8   6   8  1   
  9   6  15  1   
 10   6  16  1   
 11   7   9  1   
 12   7  17  1   
 13   7  18  1   
 14   8  10  ar  
 15   8  11  ar  
 16   9  12  ar  
 17   9  13  ar  
@<TRIPOS>SUBSTRUCTURE
  1 ****   4 GROUP 4 **** **** 0

# MOE 2024.06 (io_trps.svl 2023.06)
