@<TRIPOS>MOLECULE
NONAME
42 43 1 0 0 
SMALL
USER_CHARGES


@<TRIPOS>ATOM
  1 S       -0.0640    -0.2680    -0.2300 S.o2  1 <1>   1.4470 
  2 O       -0.3820    -0.9650     0.9950 O.2   1 <1>  -0.6500 
  3 O       -0.1710    -0.9470    -1.5010 O.2   1 <1>  -0.6500 
  4 N       -1.1360     1.0110    -0.3910 N.am  1 <1>  -0.9140 
  5 C        1.5390     0.5630    -0.0780 C.ar  1 <1>  -0.0090 
  6 C       -2.4960     0.6740    -0.0620 C.3   1 <1>   0.2760 
  7 C        1.7780     1.4710     0.9470 C.ar  1 <1>  -0.1500 
  8 C        2.5730     0.3200    -0.9740 C.ar  1 <1>  -0.1500 
  9 C       -3.3940     1.4010    -1.0550 C.3   1 <1>  -0.2400 
 10 C       -2.7830     1.1440     1.3610 C.3   1 <1>  -0.2400 
 11 C        2.9980     2.1110     1.0730 C.ar  1 <1>  -0.1500 
 12 C        3.7950     0.9580    -0.8530 C.ar  1 <1>  -0.1500 
 13 C        4.0300     1.8630     0.1770 C.ar  1 <1>   0.1170 
 14 N        5.2440     2.5420     0.3360 N.am  1 <1>  -0.5470 
 15 C        6.5120     2.2460    -0.0810 C.2   1 <1>   0.6900 
 16 O        6.7660     1.1960    -0.6390 O.2   1 <1>  -0.5700 
 17 N        7.5080     3.1530     0.1600 N.am  1 <1>  -0.6600 
 18 C        8.8990     2.9210    -0.2880 C.3   1 <1>   0.1400 
 19 C        7.3380     4.5320     0.6680 C.3   1 <1>   0.1400 
 20 C        9.5410     4.3030    -0.2970 C.3   1 <1>  -0.1600 
 21 C        8.7510     5.1020     0.7350 C.3   1 <1>  -0.1600 
 22 H       -1.1300     1.1720    -1.3950 H     1 <1>   0.4200 
 23 H       -2.6640    -0.3900    -0.1470 H     1 <1>   0.0800 
 24 H        0.9920     1.6760     1.6550 H     1 <1>   0.1500 
 25 H        2.4240    -0.3790    -1.7800 H     1 <1>   0.1500 
 26 H       -3.2370     2.4640    -1.0030 H     1 <1>   0.0800 
 27 H       -4.4250     1.2000    -0.8260 H     1 <1>   0.0800 
 28 H       -3.2040     1.0570    -2.0550 H     1 <1>   0.0800 
 29 H       -2.6080     2.2010     1.4520 H     1 <1>   0.0800 
 30 H       -2.1590     0.6210     2.0630 H     1 <1>   0.0800 
 31 H       -3.8080     0.9410     1.6130 H     1 <1>   0.0800 
 32 H        3.1490     2.8040     1.8800 H     1 <1>   0.1500 
 33 H        4.5690     0.7490    -1.5690 H     1 <1>   0.1500 
 34 H        5.2180     3.3560     0.9370 H     1 <1>   0.3700 
 35 H        8.9220     2.4650    -1.2640 H     1 <1>   0.0800 
 36 H        9.3900     2.2770     0.4220 H     1 <1>   0.0800 
 37 H        6.8740     4.5330     1.6400 H     1 <1>   0.0800 
 38 H        6.7420     5.0950    -0.0300 H     1 <1>   0.0800 
 39 H        9.4140     4.7380    -1.2740 H     1 <1>   0.0800 
 40 H       10.5910     4.2570    -0.0690 H     1 <1>   0.0800 
 41 H        9.1540     4.9230     1.7180 H     1 <1>   0.0800 
 42 H        8.7680     6.1590     0.5370 H     1 <1>   0.0800 
@<TRIPOS>BOND
  1   1   2  2   
  2   1   3  2   
  3   1   4  am  
  4   1   5  1   
  5   4   6  1   
  6   4  22  1   
  7   5   7  ar  
  8   5   8  ar  
  9   6   9  1   
 10   6  10  1   
 11   6  23  1   
 12   7  11  ar  
 13   7  24  1   
 14   8  12  ar  
 15   8  25  1   
 16   9  26  1   
 17   9  27  1   
 18   9  28  1   
 19  10  29  1   
 20  10  30  1   
 21  10  31  1   
 22  11  13  ar  
 23  11  32  1   
 24  12  13  ar  
 25  12  33  1   
 26  13  14  1   
 27  14  15  am  
 28  14  34  1   
 29  15  16  2   
 30  15  17  am  
 31  17  18  1   
 32  17  19  1   
 33  18  20  1   
 34  18  35  1   
 35  18  36  1   
 36  19  21  1   
 37  19  37  1   
 38  19  38  1   
 39  20  21  1   
 40  20  39  1   
 41  20  40  1   
 42  21  41  1   
 43  21  42  1   
@<TRIPOS>SUBSTRUCTURE
  1 ****  13 GROUP 4 **** **** 0

# MOE 2024.06 (io_trps.svl 2023.06)
