@<TRIPOS>MOLECULE
NONAME
34 34 1 0 0 
SMALL
USER_CHARGES


@<TRIPOS>ATOM
  1 O       -0.5490     0.0150     0.9010 O.2   1 <1>  -0.5700 
  2 C       -1.6010    -0.5540     1.0980 C.2   1 <1>   0.6900 
  3 N       -2.7500    -0.0940     0.5170 N.am  1 <1>  -0.3680 
  4 N       -1.6420    -1.6340     1.8900 N.am  1 <1>  -0.8000 
  5 N       -4.0340    -0.6090     0.6380 N.2   1 <1>  -0.5120 
  6 C       -5.0450    -0.0950     0.0350 C.2   1 <1>   0.3750 
  7 C       -6.3790    -0.6400     0.2210 C.2   1 <1>  -0.1240 
  8 C       -4.8880     1.1110    -0.8970 C.3   1 <1>  -0.1790 
  9 C       -6.6120    -1.8580     0.7570 C.2   1 <1>  -0.2880 
 10 C       -7.5750     0.2240    -0.2010 C.3   1 <1>  -0.0220 
 11 C       -7.9710    -2.5030     0.9880 C.3   1 <1>  -0.0220 
 12 C       -8.9200    -0.2700     0.3610 C.3   1 <1>  -0.1600 
 13 C       -9.1060    -1.7930     0.2240 C.3   1 <1>   0.0000 
 14 C      -10.4620    -2.1910     0.8260 C.3   1 <1>  -0.2400 
 15 C       -9.0960    -2.2160    -1.2570 C.3   1 <1>  -0.2400 
 16 H       -2.5870     0.7380    -0.0510 H     1 <1>   0.3700 
 17 H       -0.8070    -1.9770     2.3560 H     1 <1>   0.3700 
 18 H       -2.5400    -2.0820     2.0640 H     1 <1>   0.3700 
 19 H       -5.5400     1.0180    -1.7440 H     1 <1>   0.0800 
 20 H       -3.8960     1.1960    -1.2950 H     1 <1>   0.0800 
 21 H       -5.1250     2.0120    -0.3630 H     1 <1>   0.0800 
 22 H       -5.8050    -2.4920     1.0860 H     1 <1>   0.1500 
 23 H       -7.4320     1.2340     0.1400 H     1 <1>   0.0800 
 24 H       -7.6360     0.2420    -1.2740 H     1 <1>   0.0800 
 25 H       -8.1690    -2.4750     2.0460 H     1 <1>   0.0800 
 26 H       -7.9320    -3.5370     0.6940 H     1 <1>   0.0800 
 27 H       -9.7220     0.2470    -0.1360 H     1 <1>   0.0800 
 28 H       -8.9630    -0.0100     1.4040 H     1 <1>   0.0800 
 29 H      -10.5220    -1.8970     1.8600 H     1 <1>   0.0800 
 30 H      -10.6020    -3.2570     0.7700 H     1 <1>   0.0800 
 31 H      -11.2670    -1.7150     0.2940 H     1 <1>   0.0800 
 32 H       -9.8360    -1.6670    -1.8120 H     1 <1>   0.0800 
 33 H       -9.3160    -3.2650    -1.3490 H     1 <1>   0.0800 
 34 H       -8.1350    -2.0440    -1.7050 H     1 <1>   0.0800 
@<TRIPOS>BOND
  1   1   2  2   
  2   2   3  am  
  3   2   4  am  
  4   3   5  1   
  5   3  16  1   
  6   4  17  1   
  7   4  18  1   
  8   5   6  2   
  9   6   7  1   
 10   6   8  1   
 11   7   9  2   
 12   7  10  1   
 13   8  19  1   
 14   8  20  1   
 15   8  21  1   
 16   9  11  1   
 17   9  22  1   
 18  10  12  1   
 19  10  23  1   
 20  10  24  1   
 21  11  13  1   
 22  11  25  1   
 23  11  26  1   
 24  12  13  1   
 25  12  27  1   
 26  12  28  1   
 27  13  14  1   
 28  13  15  1   
 29  14  29  1   
 30  14  30  1   
 31  14  31  1   
 32  15  32  1   
 33  15  33  1   
 34  15  34  1   
@<TRIPOS>SUBSTRUCTURE
  1 ****   7 GROUP 4 **** **** 0

# MOE 2024.06 (io_trps.svl 2023.06)
