@<TRIPOS>MOLECULE
NONAME
47 49 1 0 0 
SMALL
USER_CHARGES


@<TRIPOS>ATOM
  1 CL       2.9120     1.2970    -1.5450 Cl    1 <1>  -0.1770 
  2 C        4.0270     1.4770    -0.2110 C.ar  1 <1>   0.1770 
  3 C        3.9590     0.6060     0.8750 C.ar  1 <1>   0.0540 
  4 C        4.9670     2.4880    -0.2840 C.ar  1 <1>  -0.1500 
  5 C        3.0000    -0.4690     0.9520 C.2   1 <1>   0.2350 
  6 C        4.8700     0.8060     1.9100 C.ar  1 <1>  -0.1500 
  7 C        5.8700     2.6560     0.7510 C.ar  1 <1>  -0.1500 
  8 N        1.9310    -0.4430     1.6710 N.2   1 <1>  -0.4100 
  9 C        3.1070    -1.7060     0.3270 C.2   1 <1>  -0.0860 
 10 C        5.8160     1.8150     1.8500 C.ar  1 <1>  -0.1500 
 11 O        1.3000    -1.5900     1.5810 O.3   1 <1>  -0.0190 
 12 C        2.0140    -2.3450     0.7850 C.2   1 <1>  -0.0400 
 13 C        4.1570    -2.1350    -0.5470 C.2   1 <1>   0.7160 
 14 C        1.5300    -3.7560     0.5130 C.3   1 <1>  -0.0600 
 15 O        4.8270    -3.1190    -0.3010 O.2   1 <1>  -0.5700 
 16 N        4.4690    -1.4190    -1.6650 N.am  1 <1>  -0.7300 
 17 C        5.3830    -1.8750    -2.7550 C.3   1 <1>   0.1400 
 18 C        6.8690    -1.5640    -2.4730 C.3   1 <1>   0.3430 
 19 N        7.2740    -1.9960    -1.1010 N.4   1 <1>  -0.9590 
 20 C        7.4060    -0.8420    -0.1680 C.3   1 <1>   0.3430 
 21 C        8.4750    -2.8740    -1.0970 C.3   1 <1>   0.3430 
 22 C        7.6100    -1.3590     1.2570 C.3   1 <1>  -0.1600 
 23 C        8.6930    -3.4280     0.3120 C.3   1 <1>  -0.1600 
 24 C        8.8120    -2.3070     1.3530 C.3   1 <1>  -0.1600 
 25 H        4.9850     3.1440    -1.1370 H     1 <1>   0.1500 
 26 H        4.8250     0.1660     2.7760 H     1 <1>   0.1500 
 27 H        6.6010     3.4470     0.7100 H     1 <1>   0.1500 
 28 H        6.5060     1.9560     2.6670 H     1 <1>   0.1500 
 29 H        2.2070    -4.2740    -0.1420 H     1 <1>   0.0800 
 30 H        0.5570    -3.7270     0.0560 H     1 <1>   0.0800 
 31 H        1.4620    -4.3000     1.4370 H     1 <1>   0.0800 
 32 H        3.8190    -0.6630    -1.9190 H     1 <1>   0.3700 
 33 H        5.0920    -1.4050    -3.6800 H     1 <1>   0.0800 
 34 H        5.2690    -2.9380    -2.8870 H     1 <1>   0.0800 
 35 H        7.0380    -0.5060    -2.5880 H     1 <1>   0.0800 
 36 H        7.4700    -2.0710    -3.2100 H     1 <1>   0.0800 
 37 H        6.4860    -2.5710    -0.7310 H     1 <1>   0.4500 
 38 H        6.5170    -0.2330    -0.2050 H     1 <1>   0.0800 
 39 H        8.2490    -0.2340    -0.4560 H     1 <1>   0.0800 
 40 H        9.3420    -2.3100    -1.4030 H     1 <1>   0.0800 
 41 H        8.3370    -3.6930    -1.7850 H     1 <1>   0.0800 
 42 H        6.7170    -1.8670     1.5790 H     1 <1>   0.0800 
 43 H        7.7620    -0.5230     1.9170 H     1 <1>   0.0800 
 44 H        9.5910    -4.0220     0.3220 H     1 <1>   0.0800 
 45 H        7.8740    -4.0780     0.5660 H     1 <1>   0.0800 
 46 H        8.8640    -2.7320     2.3420 H     1 <1>   0.0800 
 47 H        9.7210    -1.7540     1.1850 H     1 <1>   0.0800 
@<TRIPOS>BOND
  1   1   2  1   
  2   2   3  ar  
  3   2   4  ar  
  4   3   5  1   
  5   3   6  ar  
  6   4   7  ar  
  7   4  25  1   
  8   5   8  2   
  9   5   9  1   
 10   6  10  ar  
 11   6  26  1   
 12   7  10  ar  
 13   7  27  1   
 14   8  11  1   
 15   9  12  2   
 16   9  13  1   
 17  10  28  1   
 18  11  12  1   
 19  12  14  1   
 20  13  15  2   
 21  13  16  am  
 22  14  29  1   
 23  14  30  1   
 24  14  31  1   
 25  16  17  1   
 26  16  32  1   
 27  17  18  1   
 28  17  33  1   
 29  17  34  1   
 30  18  19  1   
 31  18  35  1   
 32  18  36  1   
 33  19  20  1   
 34  19  21  1   
 35  19  37  1   
 36  20  22  1   
 37  20  38  1   
 38  20  39  1   
 39  21  23  1   
 40  21  40  1   
 41  21  41  1   
 42  22  24  1   
 43  22  42  1   
 44  22  43  1   
 45  23  24  1   
 46  23  44  1   
 47  23  45  1   
 48  24  46  1   
 49  24  47  1   
@<TRIPOS>SUBSTRUCTURE
  1 ****  13 GROUP 4 **** **** 0

# MOE 2024.06 (io_trps.svl 2023.06)
