@<TRIPOS>MOLECULE
NONAME
43 44 1 0 0 
SMALL
USER_CHARGES


@<TRIPOS>ATOM
  1 O        0.0230     0.4620     1.5010 O.2   1 <1>  -0.5700 
  2 C       -0.0880     1.4780     0.8420 C.2   1 <1>   0.6900 
  3 N        0.9860     2.2860     0.6290 N.am  1 <1>  -0.6600 
  4 N       -1.2650     1.8840     0.2950 N.am  1 <1>  -0.5470 
  5 C        2.2610     1.7330     0.0730 C.3   1 <1>   0.2200 
  6 C        1.1610     3.3820     1.6160 C.3   1 <1>   0.1400 
  7 C       -2.5660     1.3600     0.3170 C.ar  1 <1>   0.1170 
  8 C        3.1080     2.8880    -0.5030 C.3   1 <1>  -0.1600 
  9 C        1.9780     0.6660    -1.0100 C.3   1 <1>  -0.1600 
 10 C        1.9540     4.5340     1.0020 C.3   1 <1>  -0.1600 
 11 C       -3.4730     1.7160    -0.6870 C.ar  1 <1>  -0.1440 
 12 C       -2.9920     0.5060     1.3300 C.ar  1 <1>  -0.1500 
 13 C        3.3080     4.0410     0.4890 C.3   1 <1>  -0.1600 
 14 C        3.2380     0.0530    -1.6420 C.3   1 <1>  -0.2400 
 15 C       -4.7680     1.2210    -0.6520 C.ar  1 <1>  -0.1500 
 16 C       -3.0810     2.6370    -1.8390 C.3   1 <1>  -0.0170 
 17 C       -4.2830     0.0140     1.3550 C.ar  1 <1>  -0.1500 
 18 C       -5.1750     0.3730     0.3620 C.ar  1 <1>  -0.1500 
 19 C       -3.1800     4.1080    -1.4240 C.3   1 <1>  -0.2400 
 20 H       -1.1330     2.6830    -0.3150 H     1 <1>   0.3700 
 21 H        2.8030     1.2700     0.8810 H     1 <1>   0.0800 
 22 H        1.6820     2.9940     2.4760 H     1 <1>   0.0800 
 23 H        0.1970     3.7360     1.9420 H     1 <1>   0.0800 
 24 H        2.6290     3.2620    -1.3910 H     1 <1>   0.0800 
 25 H        4.0770     2.5190    -0.7850 H     1 <1>   0.0800 
 26 H        1.3700     1.0960    -1.7860 H     1 <1>   0.0800 
 27 H        1.4270    -0.1460    -0.5680 H     1 <1>   0.0800 
 28 H        2.1050     5.2980     1.7450 H     1 <1>   0.0800 
 29 H        1.3870     4.9640     0.1950 H     1 <1>   0.0800 
 30 H       -2.3120     0.2230     2.1120 H     1 <1>   0.1500 
 31 H        3.8340     4.8480     0.0090 H     1 <1>   0.0800 
 32 H        3.9050     3.6990     1.3180 H     1 <1>   0.0800 
 33 H        3.7640     0.7740    -2.2420 H     1 <1>   0.0800 
 34 H        2.9600    -0.7680    -2.2780 H     1 <1>   0.0800 
 35 H        3.8980    -0.3190    -0.8780 H     1 <1>   0.0800 
 36 H       -5.4730     1.4930    -1.4180 H     1 <1>   0.1500 
 37 H       -3.7340     2.4650    -2.6770 H     1 <1>   0.0800 
 38 H       -2.0830     2.4110    -2.1730 H     1 <1>   0.0800 
 39 H       -4.5910    -0.6460     2.1470 H     1 <1>   0.1500 
 40 H       -6.1820    -0.0070     0.3790 H     1 <1>   0.1500 
 41 H       -4.1890     4.3380    -1.1300 H     1 <1>   0.0800 
 42 H       -2.9070     4.7440    -2.2470 H     1 <1>   0.0800 
 43 H       -2.5280     4.3150    -0.5950 H     1 <1>   0.0800 
@<TRIPOS>BOND
  1   1   2  2   
  2   2   3  am  
  3   2   4  am  
  4   3   5  1   
  5   3   6  1   
  6   4   7  1   
  7   4  20  1   
  8   5   8  1   
  9   5   9  1   
 10   5  21  1   
 11   6  10  1   
 12   6  22  1   
 13   6  23  1   
 14   7  11  ar  
 15   7  12  ar  
 16   8  13  1   
 17   8  24  1   
 18   8  25  1   
 19   9  14  1   
 20   9  26  1   
 21   9  27  1   
 22  10  13  1   
 23  10  28  1   
 24  10  29  1   
 25  11  15  ar  
 26  11  16  1   
 27  12  17  ar  
 28  12  30  1   
 29  13  31  1   
 30  13  32  1   
 31  14  33  1   
 32  14  34  1   
 33  14  35  1   
 34  15  18  ar  
 35  15  36  1   
 36  16  19  1   
 37  16  37  1   
 38  16  38  1   
 39  17  18  ar  
 40  17  39  1   
 41  18  40  1   
 42  19  41  1   
 43  19  42  1   
 44  19  43  1   
@<TRIPOS>SUBSTRUCTURE
  1 ****   4 GROUP 4 **** **** 0

# MOE 2024.06 (io_trps.svl 2023.06)
