@<TRIPOS>MOLECULE
NONAME
43 44 1 0 0 
SMALL
USER_CHARGES


@<TRIPOS>ATOM
  1 S       -0.1960    -0.1770    -0.1530 S.o2  1 <1>   1.3330 
  2 O       -0.1590     0.4630     1.1410 O.2   1 <1>  -0.6500 
  3 O        0.7930    -1.1750    -0.4890 O.2   1 <1>  -0.6500 
  4 N       -1.7310    -0.8670    -0.3500 N.am  1 <1>  -0.8490 
  5 C       -0.1500     1.0680    -1.4250 C.3   1 <1>  -0.1350 
  6 C       -2.8020    -0.0280     0.2170 C.3   1 <1>   0.1960 
  7 C       -1.7800    -2.2150     0.2270 C.3   1 <1>   0.1960 
  8 C       -4.1880    -0.6010    -0.1270 C.3   1 <1>  -0.0190 
  9 C       -3.1220    -2.8840    -0.0880 C.3   1 <1>  -0.1600 
 10 C       -5.3080     0.2900     0.4030 C.2   1 <1>   0.5690 
 11 C       -4.3090    -2.0430     0.4010 C.3   1 <1>  -0.1600 
 12 O       -5.0390     1.2090     1.1370 O.2   1 <1>  -0.5700 
 13 N       -6.5850    -0.0140     0.0120 N.am  1 <1>  -0.5470 
 14 C       -7.8420     0.5520     0.2880 C.ar  1 <1>   0.1170 
 15 C       -9.0220    -0.1970     0.0820 C.ar  1 <1>   0.0860 
 16 C       -7.9410     1.8620     0.7540 C.ar  1 <1>  -0.1500 
 17 C       -9.0070    -1.5630    -0.4170 C.2   1 <1>   0.6340 
 18 C      -10.2450     0.4190     0.3780 C.ar  1 <1>  -0.1500 
 19 C       -9.1610     2.4400     1.0340 C.ar  1 <1>  -0.1500 
 20 O       -8.0280    -2.1060    -0.8990 O.2   1 <1>  -0.5700 
 21 O      -10.1420    -2.2700    -0.3470 O.3   1 <1>  -0.4300 
 22 C      -10.3200     1.7140     0.8470 C.ar  1 <1>  -0.1500 
 23 C      -10.2290    -3.6040    -0.8070 C.3   1 <1>   0.0400 
 24 H        0.8090     1.5470    -1.4300 H     1 <1>   0.0800 
 25 H       -0.9030     1.8100    -1.2530 H     1 <1>   0.0800 
 26 H       -0.3150     0.6170    -2.3830 H     1 <1>   0.0800 
 27 H       -2.7320     0.9710    -0.1800 H     1 <1>   0.0800 
 28 H       -2.6910     0.0360     1.2880 H     1 <1>   0.0800 
 29 H       -1.6300    -2.1610     1.2930 H     1 <1>   0.0800 
 30 H       -0.9920    -2.8200    -0.1910 H     1 <1>   0.0800 
 31 H       -4.2730    -0.6140    -1.1990 H     1 <1>   0.0800 
 32 H       -3.1510    -3.8540     0.3770 H     1 <1>   0.0800 
 33 H       -3.1920    -3.0300    -1.1520 H     1 <1>   0.0800 
 34 H       -5.2290    -2.4930     0.0690 H     1 <1>   0.0800 
 35 H       -4.3140    -2.0280     1.4790 H     1 <1>   0.0800 
 36 H       -6.6580    -0.8930    -0.5190 H     1 <1>   0.3700 
 37 H       -7.0560     2.4520     0.9010 H     1 <1>   0.1500 
 38 H      -11.1640    -0.1240     0.2370 H     1 <1>   0.1500 
 39 H       -9.2090     3.4530     1.3970 H     1 <1>   0.1500 
 40 H      -11.2760     2.1600     1.0670 H     1 <1>   0.1500 
 41 H      -11.2310    -3.9570    -0.6430 H     1 <1>   0.0800 
 42 H       -9.5280    -4.2090    -0.2570 H     1 <1>   0.0800 
 43 H       -9.9950    -3.6270    -1.8580 H     1 <1>   0.0800 
@<TRIPOS>BOND
  1   1   2  2   
  2   1   3  2   
  3   1   4  am  
  4   1   5  1   
  5   4   6  1   
  6   4   7  1   
  7   5  24  1   
  8   5  25  1   
  9   5  26  1   
 10   6   8  1   
 11   6  27  1   
 12   6  28  1   
 13   7   9  1   
 14   7  29  1   
 15   7  30  1   
 16   8  10  1   
 17   8  11  1   
 18   8  31  1   
 19   9  11  1   
 20   9  32  1   
 21   9  33  1   
 22  10  12  2   
 23  10  13  am  
 24  11  34  1   
 25  11  35  1   
 26  13  14  1   
 27  13  36  1   
 28  14  15  ar  
 29  14  16  ar  
 30  15  17  1   
 31  15  18  ar  
 32  16  19  ar  
 33  16  37  1   
 34  17  20  2   
 35  17  21  1   
 36  18  22  ar  
 37  18  38  1   
 38  19  22  ar  
 39  19  39  1   
 40  21  23  1   
 41  22  40  1   
 42  23  41  1   
 43  23  42  1   
 44  23  43  1   
@<TRIPOS>SUBSTRUCTURE
  1 ****  10 GROUP 4 **** **** 0

# MOE 2024.06 (io_trps.svl 2023.06)
