@<TRIPOS>MOLECULE
NONAME
31 31 1 0 0 
SMALL
USER_CHARGES


@<TRIPOS>ATOM
  1 S        0.1060     0.0910    -1.4790 S.o2  1 <1>   1.3260 
  2 O        0.3440    -1.0160    -2.3790 O.2   1 <1>  -0.6500 
  3 O        0.5190     1.4240    -1.8590 O.2   1 <1>  -0.6500 
  4 C       -1.6420     0.1100    -1.0030 C.ar  1 <1>  -0.0090 
  5 C        0.9190    -0.3140     0.0750 C.2   1 <1>  -0.1670 
  6 C       -2.3780    -1.0630    -0.9210 C.ar  1 <1>  -0.1500 
  7 C       -2.2880     1.2940    -0.6740 C.ar  1 <1>  -0.1500 
  8 C        0.6200     0.0890     1.3200 C.2   1 <1>  -0.3000 
  9 C       -3.7030    -1.0530    -0.5250 C.ar  1 <1>  -0.1500 
 10 C       -3.6140     1.3080    -0.2780 C.ar  1 <1>  -0.1500 
 11 C       -4.3510     0.1310    -0.1930 C.ar  1 <1>  -0.1430 
 12 C       -5.8320     0.0920     0.2430 C.3   1 <1>   0.1440 
 13 C       -6.6850    -0.4970    -0.8900 C.3   1 <1>  -0.2400 
 14 C       -5.9750    -0.7820     1.4980 C.3   1 <1>  -0.2400 
 15 C       -6.4010     1.4810     0.5790 C.3   1 <1>  -0.2400 
 16 H        1.7600    -0.9570    -0.0950 H     1 <1>   0.1500 
 17 H       -1.9100    -2.0000    -1.1740 H     1 <1>   0.1500 
 18 H       -1.7470     2.2240    -0.7310 H     1 <1>   0.1500 
 19 H        1.1770    -0.2000     2.1950 H     1 <1>   0.1500 
 20 H       -0.2010     0.7420     1.5650 H     1 <1>   0.1500 
 21 H       -4.2290    -1.9900    -0.4800 H     1 <1>   0.1500 
 22 H       -4.0490     2.2600    -0.0410 H     1 <1>   0.1500 
 23 H       -6.3960    -1.5080    -1.1090 H     1 <1>   0.0800 
 24 H       -6.5650     0.0890    -1.7830 H     1 <1>   0.0800 
 25 H       -7.7260    -0.4990    -0.6190 H     1 <1>   0.0800 
 26 H       -5.3550    -0.3970     2.2870 H     1 <1>   0.0800 
 27 H       -5.6800    -1.7960     1.3010 H     1 <1>   0.0800 
 28 H       -6.9950    -0.7930     1.8390 H     1 <1>   0.0800 
 29 H       -6.3520     2.1270    -0.2800 H     1 <1>   0.0800 
 30 H       -5.8530     1.9290     1.3880 H     1 <1>   0.0800 
 31 H       -7.4310     1.4060     0.8780 H     1 <1>   0.0800 
@<TRIPOS>BOND
  1   1   2  2   
  2   1   3  2   
  3   1   4  1   
  4   1   5  1   
  5   4   6  ar  
  6   4   7  ar  
  7   5   8  2   
  8   5  16  1   
  9   6   9  ar  
 10   6  17  1   
 11   7  10  ar  
 12   7  18  1   
 13   8  19  1   
 14   8  20  1   
 15   9  11  ar  
 16   9  21  1   
 17  10  11  ar  
 18  10  22  1   
 19  11  12  1   
 20  12  13  1   
 21  12  14  1   
 22  12  15  1   
 23  13  23  1   
 24  13  24  1   
 25  13  25  1   
 26  14  26  1   
 27  14  27  1   
 28  14  28  1   
 29  15  29  1   
 30  15  30  1   
 31  15  31  1   
@<TRIPOS>SUBSTRUCTURE
  1 ****   4 GROUP 4 **** **** 0

# MOE 2024.06 (io_trps.svl 2023.06)
