@<TRIPOS>MOLECULE
NONAME
28 28 1 0 0 
SMALL
USER_CHARGES


@<TRIPOS>ATOM
  1 BR      -0.3140    -0.2480     0.0010 Br    1 <1>  -0.1110 
  2 C        1.4670    -0.9800     0.0000 C.ar  1 <1>   0.1110 
  3 C        1.6230    -2.3530     0.0010 C.ar  1 <1>  -0.1500 
  4 C        2.5430    -0.1130    -0.0010 C.ar  1 <1>  -0.1500 
  5 C        2.9060    -2.8710     0.0010 C.ar  1 <1>  -0.1500 
  6 C        3.8240    -0.6400    -0.0020 C.ar  1 <1>  -0.1500 
  7 C        4.0080    -2.0240    -0.0010 C.ar  1 <1>   0.0830 
  8 O        5.2270    -2.6220    -0.0010 O.3   1 <1>  -0.3630 
  9 C        6.4150    -1.8710    -0.0020 C.3   1 <1>   0.1200 
 10 C        7.5750    -2.8690    -0.0020 C.3   1 <1>   0.3430 
 11 N        8.9040    -2.1850    -0.0030 N.4   1 <1>  -0.9060 
 12 C       10.0240    -3.1510    -0.0030 C.3   1 <1>   0.3430 
 13 C       11.3260    -2.3660    -0.0050 C.3   1 <1>  -0.2400 
 14 H        0.7610    -2.9960     0.0020 H     1 <1>   0.1500 
 15 H        2.3760     0.9500    -0.0020 H     1 <1>   0.1500 
 16 H        3.0560    -3.9360     0.0020 H     1 <1>   0.1500 
 17 H        4.6520     0.0430    -0.0030 H     1 <1>   0.1500 
 18 H        6.4250    -1.2630     0.8850 H     1 <1>   0.0800 
 19 H        6.4240    -1.2640    -0.8910 H     1 <1>   0.0800 
 20 H        7.4900    -3.4950    -0.8760 H     1 <1>   0.0800 
 21 H        7.4910    -3.4940     0.8730 H     1 <1>   0.0800 
 22 H        8.9930    -1.5790     0.8230 H     1 <1>   0.4500 
 23 H        8.9920    -1.5810    -0.8310 H     1 <1>   0.4500 
 24 H        9.9750    -3.7800    -0.8790 H     1 <1>   0.0800 
 25 H        9.9760    -3.7790     0.8740 H     1 <1>   0.0800 
 26 H       11.4080    -1.7540    -0.8850 H     1 <1>   0.0800 
 27 H       12.1530    -3.0540    -0.0050 H     1 <1>   0.0800 
 28 H       11.4090    -1.7520     0.8750 H     1 <1>   0.0800 
@<TRIPOS>BOND
  1   1   2  1   
  2   2   3  ar  
  3   2   4  ar  
  4   3   5  ar  
  5   3  14  1   
  6   4   6  ar  
  7   4  15  1   
  8   5   7  ar  
  9   5  16  1   
 10   6   7  ar  
 11   6  17  1   
 12   7   8  1   
 13   8   9  1   
 14   9  10  1   
 15   9  18  1   
 16   9  19  1   
 17  10  11  1   
 18  10  20  1   
 19  10  21  1   
 20  11  12  1   
 21  11  22  1   
 22  11  23  1   
 23  12  13  1   
 24  12  24  1   
 25  12  25  1   
 26  13  26  1   
 27  13  27  1   
 28  13  28  1   
@<TRIPOS>SUBSTRUCTURE
  1 ****   8 GROUP 4 **** **** 0

# MOE 2024.06 (io_trps.svl 2023.06)
