@<TRIPOS>MOLECULE
NONAME
42 44 1 0 0 
SMALL
USER_CHARGES


@<TRIPOS>ATOM
  1 O       -0.4910    -0.1330    -0.1840 O.2   1 <1>  -0.5700 
  2 C        0.6220    -0.5030    -0.4760 C.2   1 <1>   0.5690 
  3 N        1.7020     0.3210    -0.4010 N.am  1 <1>  -0.7300 
  4 C        0.7800    -1.9680    -0.9230 C.3   1 <1>   0.4040 
  5 C        1.6440     1.7460     0.0150 C.3   1 <1>   0.2200 
  6 N       -0.3360    -2.8610    -0.4290 N.4   1 <1>  -0.9590 
  7 C        2.1520     2.7430    -1.1810 C.3   1 <1>  -0.0800 
  8 C        2.6440     1.9880     1.3300 C.3   1 <1>  -0.1600 
  9 C       -0.2880    -3.0300     1.0540 C.3   1 <1>   0.3430 
 10 C       -0.4080    -4.1560    -1.1600 C.3   1 <1>   0.3430 
 11 C        2.8860     3.0110    -0.0940 C.3   1 <1>  -0.1600 
 12 C        3.1180     4.0200    -1.5170 C.3   1 <1>  -0.1600 
 13 C        3.6270     3.2520     0.9920 C.3   1 <1>  -0.0800 
 14 C       -1.5310    -3.7860     1.5240 C.3   1 <1>  -0.1600 
 15 C       -1.6540    -4.9270    -0.7200 C.3   1 <1>  -0.1600 
 16 C        4.1160     4.2650    -0.1960 C.3   1 <1>  -0.1600 
 17 C       -1.6920    -5.1290     0.8010 C.3   1 <1>  -0.1600 
 18 H        2.6450     0.0170    -0.6540 H     1 <1>   0.3700 
 19 H        1.7260    -2.3400    -0.5740 H     1 <1>   0.0800 
 20 H        0.7910    -1.9760    -1.9990 H     1 <1>   0.0800 
 21 H        0.6300     2.0060     0.2850 H     1 <1>   0.0800 
 22 H       -1.2040    -2.3280    -0.6110 H     1 <1>   0.4500 
 23 H        2.4830     2.0430    -1.9350 H     1 <1>   0.0800 
 24 H        3.2320     1.1080     1.5360 H     1 <1>   0.0800 
 25 H        2.0490     2.1970     2.2050 H     1 <1>   0.0800 
 26 H       -0.2570    -2.0640     1.5350 H     1 <1>   0.0800 
 27 H        0.5950    -3.5810     1.3330 H     1 <1>   0.0800 
 28 H        0.4700    -4.7450    -0.9480 H     1 <1>   0.0800 
 29 H       -0.4540    -3.9810    -2.2240 H     1 <1>   0.0800 
 30 H        3.6930     2.2370    -0.4640 H     1 <1>   0.0800 
 31 H        2.0780     3.7810     0.2850 H     1 <1>   0.0800 
 32 H        2.5180     4.9010    -1.6980 H     1 <1>   0.0800 
 33 H        3.7040     3.8420    -2.4050 H     1 <1>   0.0800 
 34 H        3.3140     3.9620     1.7460 H     1 <1>   0.0800 
 35 H       -2.4010    -3.1730     1.3600 H     1 <1>   0.0800 
 36 H       -1.4580    -3.9580     2.5840 H     1 <1>   0.0800 
 37 H       -1.6650    -5.8870    -1.2070 H     1 <1>   0.0800 
 38 H       -2.5340    -4.3950    -1.0400 H     1 <1>   0.0800 
 39 H        4.0670     5.2940     0.1260 H     1 <1>   0.0800 
 40 H        5.1420     4.0590    -0.4610 H     1 <1>   0.0800 
 41 H       -2.6250    -5.5880     1.0850 H     1 <1>   0.0800 
 42 H       -0.8970    -5.7950     1.0960 H     1 <1>   0.0800 
@<TRIPOS>BOND
  1   1   2  2   
  2   2   3  am  
  3   2   4  1   
  4   3   5  1   
  5   3  18  1   
  6   4   6  1   
  7   4  19  1   
  8   4  20  1   
  9   5   7  1   
 10   5   8  1   
 11   5  21  1   
 12   6   9  1   
 13   6  10  1   
 14   6  22  1   
 15   7  11  1   
 16   7  12  1   
 17   7  23  1   
 18   8  13  1   
 19   8  24  1   
 20   8  25  1   
 21   9  14  1   
 22   9  26  1   
 23   9  27  1   
 24  10  15  1   
 25  10  28  1   
 26  10  29  1   
 27  11  13  1   
 28  11  30  1   
 29  11  31  1   
 30  12  16  1   
 31  12  32  1   
 32  12  33  1   
 33  13  16  1   
 34  13  34  1   
 35  14  17  1   
 36  14  35  1   
 37  14  36  1   
 38  15  17  1   
 39  15  37  1   
 40  15  38  1   
 41  16  39  1   
 42  16  40  1   
 43  17  41  1   
 44  17  42  1   
@<TRIPOS>SUBSTRUCTURE
  1 ****   2 GROUP 4 **** **** 0

# MOE 2024.06 (io_trps.svl 2023.06)
