@<TRIPOS>MOLECULE
NONAME
50 52 1 0 0 
SMALL
USER_CHARGES


@<TRIPOS>ATOM
  1 O       -3.0840     7.3430    -0.0060 O.3   1 <1>  -0.3630 
  2 C       -4.3140     6.7770    -0.0190 C.ar  1 <1>   0.0830 
  3 C       -1.9140     6.5650    -0.0530 C.3   1 <1>   0.1200 
  4 C       -5.3990     7.6360     0.0430 C.ar  1 <1>  -0.1500 
  5 C       -4.5400     5.4040    -0.0890 C.ar  1 <1>  -0.1500 
  6 C       -0.7240     7.5280    -0.0170 C.3   1 <1>  -0.1600 
  7 C       -6.6890     7.1390     0.0360 C.ar  1 <1>  -0.1500 
  8 C       -5.8330     4.9160    -0.0960 C.ar  1 <1>  -0.1500 
  9 C        0.6200     6.7850    -0.0570 C.3   1 <1>  -0.1600 
 10 C       -6.9310     5.7700    -0.0340 C.ar  1 <1>   0.0000 
 11 C        1.7780     7.7850    -0.0270 C.3   1 <1>   0.3430 
 12 C       -8.2790     5.2520    -0.0400 C.ar  1 <1>   0.0000 
 13 N        3.0840     7.0850    -0.1630 N.4   1 <1>  -0.9590 
 14 C       -9.1510     5.5100     1.0130 C.ar  1 <1>  -0.1500 
 15 C       -8.7450     4.4780    -1.0990 C.ar  1 <1>  -0.1500 
 16 C        3.4470     6.2960     1.0710 C.3   1 <1>   0.3430 
 17 C        4.1780     8.0690    -0.4870 C.3   1 <1>   0.3430 
 18 C      -10.4430     5.0150     1.0110 C.ar  1 <1>  -0.1500 
 19 C      -10.0350     3.9790    -1.1080 C.ar  1 <1>  -0.1500 
 20 C        4.8330     5.6290     0.9390 C.3   1 <1>   0.1100 
 21 C        5.5550     7.3800    -0.6040 C.3   1 <1>   0.1100 
 22 C      -10.8870     4.2470    -0.0510 C.ar  1 <1>  -0.1500 
 23 N        5.8730     6.6160     0.6120 N.3   1 <1>  -0.9000 
 24 H       -1.9240     5.9940    -0.9650 H     1 <1>   0.0800 
 25 H       -1.9100     5.9100     0.8010 H     1 <1>   0.0800 
 26 H       -5.2250     8.6950     0.0970 H     1 <1>   0.1500 
 27 H       -3.7280     4.7050    -0.1380 H     1 <1>   0.1500 
 28 H       -0.7880     8.1140     0.8850 H     1 <1>   0.0800 
 29 H       -0.7990     8.1910    -0.8620 H     1 <1>   0.0800 
 30 H       -7.5230     7.8170     0.0800 H     1 <1>   0.1500 
 31 H       -6.0040     3.8550    -0.1460 H     1 <1>   0.1500 
 32 H        0.6680     6.2010    -0.9600 H     1 <1>   0.0800 
 33 H        0.6730     6.1270     0.7920 H     1 <1>   0.0800 
 34 H        1.7550     8.3480     0.8930 H     1 <1>   0.0800 
 35 H        1.6550     8.4780    -0.8440 H     1 <1>   0.0800 
 36 H        3.0260     6.4260    -0.9490 H     1 <1>   0.4500 
 37 H       -8.8090     6.1030     1.8430 H     1 <1>   0.1500 
 38 H       -8.0870     4.2710    -1.9250 H     1 <1>   0.1500 
 39 H        2.7080     5.5350     1.2550 H     1 <1>   0.0800 
 40 H        3.4690     6.9520     1.9250 H     1 <1>   0.0800 
 41 H        4.2390     8.8120     0.2920 H     1 <1>   0.0800 
 42 H        3.9570     8.5750    -1.4120 H     1 <1>   0.0800 
 43 H      -11.1020     5.2250     1.8350 H     1 <1>   0.1500 
 44 H      -10.3760     3.3830    -1.9360 H     1 <1>   0.1500 
 45 H        4.8010     4.8650     0.1810 H     1 <1>   0.0800 
 46 H        5.0850     5.1540     1.8730 H     1 <1>   0.0800 
 47 H        6.3130     8.1320    -0.7510 H     1 <1>   0.0800 
 48 H        5.5670     6.7290    -1.4610 H     1 <1>   0.0800 
 49 H      -11.8910     3.8600    -0.0550 H     1 <1>   0.1500 
 50 H        6.7850     6.1440     0.5020 H     1 <1>   0.3600 
@<TRIPOS>BOND
  1   1   2  1   
  2   1   3  1   
  3   2   4  ar  
  4   2   5  ar  
  5   3   6  1   
  6   3  24  1   
  7   3  25  1   
  8   4   7  ar  
  9   4  26  1   
 10   5   8  ar  
 11   5  27  1   
 12   6   9  1   
 13   6  28  1   
 14   6  29  1   
 15   7  10  ar  
 16   7  30  1   
 17   8  10  ar  
 18   8  31  1   
 19   9  11  1   
 20   9  32  1   
 21   9  33  1   
 22  10  12  1   
 23  11  13  1   
 24  11  34  1   
 25  11  35  1   
 26  12  14  ar  
 27  12  15  ar  
 28  13  16  1   
 29  13  17  1   
 30  13  36  1   
 31  14  18  ar  
 32  14  37  1   
 33  15  19  ar  
 34  15  38  1   
 35  16  20  1   
 36  16  39  1   
 37  16  40  1   
 38  17  21  1   
 39  17  41  1   
 40  17  42  1   
 41  18  22  ar  
 42  18  43  1   
 43  19  22  ar  
 44  19  44  1   
 45  20  23  1   
 46  20  45  1   
 47  20  46  1   
 48  21  23  1   
 49  21  47  1   
 50  21  48  1   
 51  22  49  1   
 52  23  50  1   
@<TRIPOS>SUBSTRUCTURE
  1 ****   3 GROUP 4 **** **** 0

# MOE 2024.06 (io_trps.svl 2023.06)
