@<TRIPOS>MOLECULE
NONAME
29 29 1 0 0 
SMALL
USER_CHARGES


@<TRIPOS>ATOM
  1 CL      -0.2700     1.0430    -0.6970 Cl    1 <1>  -0.1770 
  2 C        1.4520     1.3450    -0.6290 C.ar  1 <1>   0.1770 
  3 C        1.9350     2.5220    -0.0700 C.ar  1 <1>  -0.1440 
  4 C        2.3050     0.3860    -1.1470 C.ar  1 <1>  -0.1500 
  5 C        3.3060     2.7240    -0.0330 C.ar  1 <1>  -0.1500 
  6 C        0.9870     3.5740     0.4870 C.3   1 <1>  -0.0960 
  7 C        3.6720     0.5960    -1.1030 C.ar  1 <1>  -0.1500 
  8 C        4.1710     1.7590    -0.5380 C.ar  1 <1>   0.0830 
  9 O        5.5110     1.9310    -0.5100 O.3   1 <1>  -0.3630 
 10 C        6.1460     2.1630     0.7440 C.3   1 <1>   0.2610 
 11 C        7.4300     2.9840     0.5490 C.2   1 <1>   0.5690 
 12 C        6.4220     0.7980     1.3880 C.3   1 <1>  -0.2400 
 13 O        7.9050     3.5550     1.5030 O.2   1 <1>  -0.5700 
 14 N        8.0030     3.0540    -0.6860 N.am  1 <1>  -0.7300 
 15 C        9.2370     3.8000    -1.0330 C.3   1 <1>   0.0600 
 16 H        1.8990    -0.5110    -1.5770 H     1 <1>   0.1500 
 17 H        3.7050     3.6340     0.3770 H     1 <1>   0.1500 
 18 H        0.3950     3.1530     1.2800 H     1 <1>   0.0800 
 19 H        0.3280     3.9220    -0.2890 H     1 <1>   0.0800 
 20 H        1.5290     4.4170     0.8760 H     1 <1>   0.0800 
 21 H        4.3520    -0.1340    -1.5020 H     1 <1>   0.1500 
 22 H        5.4870     2.7320     1.3730 H     1 <1>   0.0800 
 23 H        7.0700     0.2150     0.7580 H     1 <1>   0.0800 
 24 H        5.5010     0.2680     1.5500 H     1 <1>   0.0800 
 25 H        6.9060     0.9400     2.3370 H     1 <1>   0.0800 
 26 H        7.5110     2.5890    -1.4550 H     1 <1>   0.3700 
 27 H        9.6580     4.2570    -0.1530 H     1 <1>   0.0800 
 28 H        9.0070     4.5710    -1.7480 H     1 <1>   0.0800 
 29 H        9.9630     3.1270    -1.4560 H     1 <1>   0.0800 
@<TRIPOS>BOND
  1   1   2  1   
  2   2   3  ar  
  3   2   4  ar  
  4   3   5  ar  
  5   3   6  1   
  6   4   7  ar  
  7   4  16  1   
  8   5   8  ar  
  9   5  17  1   
 10   6  18  1   
 11   6  19  1   
 12   6  20  1   
 13   7   8  ar  
 14   7  21  1   
 15   8   9  1   
 16   9  10  1   
 17  10  11  1   
 18  10  12  1   
 19  10  22  1   
 20  11  13  2   
 21  11  14  am  
 22  12  23  1   
 23  12  24  1   
 24  12  25  1   
 25  14  15  1   
 26  14  26  1   
 27  15  27  1   
 28  15  28  1   
 29  15  29  1   
@<TRIPOS>SUBSTRUCTURE
  1 ****   8 GROUP 4 **** **** 0

# MOE 2024.06 (io_trps.svl 2023.06)
