@<TRIPOS>MOLECULE
NONAME
36 36 1 0 0 
SMALL
USER_CHARGES


@<TRIPOS>ATOM
  1 CL       1.1760    -0.5320    -2.2480 Cl    1 <1>  -0.1770 
  2 C        0.5380    -1.8170    -1.2430 C.ar  1 <1>   0.1770 
  3 C        1.3040    -2.2980    -0.1820 C.ar  1 <1>   0.1170 
  4 C       -0.7140    -2.3140    -1.5300 C.ar  1 <1>  -0.1500 
  5 N        2.5730    -1.7610     0.0830 N.am  1 <1>  -0.5470 
  6 C        0.7430    -3.3020     0.5950 C.ar  1 <1>  -0.1500 
  7 C       -1.2850    -3.3300    -0.7590 C.ar  1 <1>   0.0860 
  8 C        3.7480    -2.3140     0.4870 C.2   1 <1>   0.5690 
  9 C       -0.5090    -3.8210     0.3060 C.ar  1 <1>   0.0830 
 10 C       -2.6170    -3.8060    -1.0770 C.2   1 <1>   0.5440 
 11 O        4.7020    -1.6090     0.6770 O.2   1 <1>  -0.5700 
 12 C        3.9030    -3.8050     0.6750 C.3   1 <1>  -0.1790 
 13 O       -0.9530    -4.8140     1.1030 O.3   1 <1>  -0.3620 
 14 O       -3.0320    -3.7500    -2.2200 O.2   1 <1>  -0.5700 
 15 N       -3.4420    -4.3110    -0.1130 N.am  1 <1>  -0.7300 
 16 C       -0.7680    -6.1330     0.6330 C.3   1 <1>   0.0400 
 17 C       -4.8300    -4.7750    -0.3050 C.3   1 <1>   0.1400 
 18 C       -5.6940    -4.2450     0.8390 C.3   1 <1>  -0.1600 
 19 C       -7.1490    -4.7010     0.6960 C.3   1 <1>  -0.2400 
 20 H       -1.2650    -1.9090    -2.3610 H     1 <1>   0.1500 
 21 H        2.6950    -0.7760    -0.1660 H     1 <1>   0.3700 
 22 H        1.2730    -3.6850     1.4460 H     1 <1>   0.1500 
 23 H        3.3310    -4.3400    -0.0590 H     1 <1>   0.0800 
 24 H        3.5850    -4.0810     1.6620 H     1 <1>   0.0800 
 25 H        4.9380    -4.0710     0.5620 H     1 <1>   0.0800 
 26 H       -3.0460    -4.4410     0.8230 H     1 <1>   0.3700 
 27 H       -1.1540    -6.8120     1.3720 H     1 <1>   0.0800 
 28 H        0.2840    -6.3080     0.4870 H     1 <1>   0.0800 
 29 H       -1.3010    -6.2570    -0.2940 H     1 <1>   0.0800 
 30 H       -4.8450    -5.8510    -0.3170 H     1 <1>   0.0800 
 31 H       -5.2100    -4.4180    -1.2490 H     1 <1>   0.0800 
 32 H       -5.6610    -3.1690     0.8360 H     1 <1>   0.0800 
 33 H       -5.3050    -4.5990     1.7780 H     1 <1>   0.0800 
 34 H       -7.5660    -4.3420    -0.2290 H     1 <1>   0.0800 
 35 H       -7.7380    -4.3130     1.5080 H     1 <1>   0.0800 
 36 H       -7.2120    -5.7750     0.7110 H     1 <1>   0.0800 
@<TRIPOS>BOND
  1   1   2  1   
  2   2   3  ar  
  3   2   4  ar  
  4   3   5  1   
  5   3   6  ar  
  6   4   7  ar  
  7   4  20  1   
  8   5   8  am  
  9   5  21  1   
 10   6   9  ar  
 11   6  22  1   
 12   7   9  ar  
 13   7  10  1   
 14   8  11  2   
 15   8  12  1   
 16   9  13  1   
 17  10  14  2   
 18  10  15  am  
 19  12  23  1   
 20  12  24  1   
 21  12  25  1   
 22  13  16  1   
 23  15  17  1   
 24  15  26  1   
 25  16  27  1   
 26  16  28  1   
 27  16  29  1   
 28  17  18  1   
 29  17  30  1   
 30  17  31  1   
 31  18  19  1   
 32  18  32  1   
 33  18  33  1   
 34  19  34  1   
 35  19  35  1   
 36  19  36  1   
@<TRIPOS>SUBSTRUCTURE
  1 ****   9 GROUP 4 **** **** 0

# MOE 2024.06 (io_trps.svl 2023.06)
