@<TRIPOS>MOLECULE
NONAME
43 44 1 0 0 
SMALL
USER_CHARGES


@<TRIPOS>ATOM
  1 CL      -3.7160     0.4050    -4.0380 Cl    1 <1>  -0.1770 
  2 C       -3.9130     0.2090    -2.3110 C.ar  1 <1>   0.1770 
  3 C       -3.3700     1.1220    -1.4230 C.ar  1 <1>   0.1900 
  4 C       -4.6230    -0.8770    -1.8340 C.ar  1 <1>  -0.1500 
  5 F       -2.6980     2.1530    -1.8700 F     1 <1>  -0.1900 
  6 C       -3.5250     0.9710    -0.0590 C.ar  1 <1>  -0.1500 
  7 C       -4.7940    -1.0560    -0.4640 C.ar  1 <1>   0.1170 
  8 C       -4.2390    -0.1190     0.4120 C.ar  1 <1>  -0.1500 
  9 N       -5.5300    -2.1710    -0.0280 N.am  1 <1>  -0.5470 
 10 C       -5.6180    -2.7870     1.1910 C.2   1 <1>   0.5690 
 11 O       -5.0440    -2.4130     2.1830 O.2   1 <1>  -0.5700 
 12 C       -6.5280    -4.0140     1.2970 C.3   1 <1>   0.1710 
 13 N       -7.9250    -3.7890     0.8090 N.3   1 <1>  -0.8100 
 14 C       -8.7030    -5.0520     0.8570 C.3   1 <1>   0.1100 
 15 C       -8.6000    -2.7450     1.6290 C.3   1 <1>   0.1100 
 16 C      -10.1820    -4.8660     0.4320 C.3   1 <1>   0.3430 
 17 C      -10.0900    -2.5460     1.2540 C.3   1 <1>   0.3430 
 18 N      -10.4920    -3.4330     0.1110 N.4   1 <1>  -0.9590 
 19 C      -11.8910    -3.2430    -0.3530 C.3   1 <1>   0.3430 
 20 C      -12.0530    -1.8740    -1.0170 C.3   1 <1>  -0.1600 
 21 C      -13.4560    -1.7160    -1.6120 C.3   1 <1>  -0.2400 
 22 H       -5.0330    -1.5780    -2.5350 H     1 <1>   0.1500 
 23 H       -3.0960     1.6900     0.6170 H     1 <1>   0.1500 
 24 H       -4.3600    -0.2310     1.4740 H     1 <1>   0.1500 
 25 H       -6.1010    -2.6200    -0.7440 H     1 <1>   0.3700 
 26 H       -6.5480    -4.3290     2.3270 H     1 <1>   0.0800 
 27 H       -6.0740    -4.8040     0.7250 H     1 <1>   0.0800 
 28 H       -8.6800    -5.4570     1.8560 H     1 <1>   0.0800 
 29 H       -8.2460    -5.7790     0.2070 H     1 <1>   0.0800 
 30 H       -8.0910    -1.8030     1.5050 H     1 <1>   0.0800 
 31 H       -8.5390    -3.0020     2.6740 H     1 <1>   0.0800 
 32 H      -10.8220    -5.2110     1.2270 H     1 <1>   0.0800 
 33 H      -10.3750    -5.4830    -0.4310 H     1 <1>   0.0800 
 34 H      -10.2420    -1.5120     0.9920 H     1 <1>   0.0800 
 35 H      -10.7010    -2.7560     2.1150 H     1 <1>   0.0800 
 36 H       -9.8380    -3.1930    -0.6480 H     1 <1>   0.4500 
 37 H      -12.5740    -3.3320     0.4770 H     1 <1>   0.0800 
 38 H      -12.1380    -4.0060    -1.0740 H     1 <1>   0.0800 
 39 H      -11.3320    -1.7650    -1.8090 H     1 <1>   0.0800 
 40 H      -11.9010    -1.0880    -0.2990 H     1 <1>   0.0800 
 41 H      -13.6430    -2.4670    -2.3610 H     1 <1>   0.0800 
 42 H      -13.5530    -0.7490    -2.0760 H     1 <1>   0.0800 
 43 H      -14.2100    -1.7960    -0.8460 H     1 <1>   0.0800 
@<TRIPOS>BOND
  1   1   2  1   
  2   2   3  ar  
  3   2   4  ar  
  4   3   5  1   
  5   3   6  ar  
  6   4   7  ar  
  7   4  22  1   
  8   6   8  ar  
  9   6  23  1   
 10   7   8  ar  
 11   7   9  1   
 12   8  24  1   
 13   9  10  am  
 14   9  25  1   
 15  10  11  2   
 16  10  12  1   
 17  12  13  1   
 18  12  26  1   
 19  12  27  1   
 20  13  14  1   
 21  13  15  1   
 22  14  16  1   
 23  14  28  1   
 24  14  29  1   
 25  15  17  1   
 26  15  30  1   
 27  15  31  1   
 28  16  18  1   
 29  16  32  1   
 30  16  33  1   
 31  17  18  1   
 32  17  34  1   
 33  17  35  1   
 34  18  19  1   
 35  18  36  1   
 36  19  20  1   
 37  19  37  1   
 38  19  38  1   
 39  20  21  1   
 40  20  39  1   
 41  20  40  1   
 42  21  41  1   
 43  21  42  1   
 44  21  43  1   
@<TRIPOS>SUBSTRUCTURE
  1 ****   9 GROUP 4 **** **** 0

# MOE 2024.06 (io_trps.svl 2023.06)
