@<TRIPOS>MOLECULE
NONAME
37 38 1 0 0 
SMALL
USER_CHARGES


@<TRIPOS>ATOM
  1 O        0.3880    -1.7160    -1.8890 O.2   1 <1>  -0.5700 
  2 C        0.2900    -1.7810    -0.6870 C.2   1 <1>   0.5690 
  3 N        1.2830    -1.3530     0.1300 N.am  1 <1>  -0.7300 
  4 C       -0.9640    -2.3820    -0.0530 C.3   1 <1>  -0.0190 
  5 C        2.5860    -0.8680    -0.3340 C.3   1 <1>   0.3640 
  6 C       -0.9940    -3.9110    -0.2390 C.3   1 <1>  -0.1600 
  7 C       -2.2520    -1.7430    -0.6090 C.3   1 <1>  -0.1600 
  8 C        3.6110    -1.9650    -0.0600 C.ar  1 <1>  -0.1440 
  9 C        2.8730     0.4600     0.3610 C.3   1 <1>  -0.2400 
 10 C       -2.2500    -4.5310     0.3910 C.3   1 <1>  -0.1600 
 11 C       -3.5070    -2.3620     0.0220 C.3   1 <1>  -0.1600 
 12 C        4.5110    -1.9710     0.9920 C.ar  1 <1>  -0.1500 
 13 C        3.6670    -3.0590    -0.9010 C.ar  1 <1>  -0.1500 
 14 C       -3.5250    -3.8850    -0.1640 C.3   1 <1>  -0.1600 
 15 C        5.3910    -3.0310     1.1380 C.ar  1 <1>   0.1600 
 16 C        4.5850    -4.0680    -0.6660 C.ar  1 <1>   0.1600 
 17 N        5.4500    -4.0800     0.3350 N.ar  1 <1>  -0.6200 
 18 H        1.2290    -1.5260     1.1310 H     1 <1>   0.3700 
 19 H       -0.9310    -2.1780     1.0020 H     1 <1>   0.0800 
 20 H        2.5500    -0.6930    -1.3980 H     1 <1>   0.0800 
 21 H       -0.1160    -4.3460     0.2060 H     1 <1>   0.0800 
 22 H       -0.9750    -4.1380    -1.2920 H     1 <1>   0.0800 
 23 H       -2.2870    -1.8850    -1.6770 H     1 <1>   0.0800 
 24 H       -2.2380    -0.6830    -0.4220 H     1 <1>   0.0800 
 25 H        2.8340     0.3560     1.4290 H     1 <1>   0.0800 
 26 H        2.1490     1.1920     0.0510 H     1 <1>   0.0800 
 27 H        3.8480     0.8120     0.0770 H     1 <1>   0.0800 
 28 H       -2.2180    -4.3990     1.4590 H     1 <1>   0.0800 
 29 H       -2.2670    -5.5890     0.1900 H     1 <1>   0.0800 
 30 H       -4.3850    -1.9340    -0.4300 H     1 <1>   0.0800 
 31 H       -3.5310    -2.1300     1.0730 H     1 <1>   0.0800 
 32 H        4.5480    -1.1700     1.7050 H     1 <1>   0.1500 
 33 H        2.9950    -3.1340    -1.7390 H     1 <1>   0.1500 
 34 H       -4.3860    -4.2990     0.3330 H     1 <1>   0.0800 
 35 H       -3.6110    -4.1120    -1.2140 H     1 <1>   0.0800 
 36 H        6.0840    -3.0150     1.9610 H     1 <1>   0.1500 
 37 H        4.6070    -4.9100    -1.3370 H     1 <1>   0.1500 
@<TRIPOS>BOND
  1   1   2  2   
  2   2   3  am  
  3   2   4  1   
  4   3   5  1   
  5   3  18  1   
  6   4   6  1   
  7   4   7  1   
  8   4  19  1   
  9   5   8  1   
 10   5   9  1   
 11   5  20  1   
 12   6  10  1   
 13   6  21  1   
 14   6  22  1   
 15   7  11  1   
 16   7  23  1   
 17   7  24  1   
 18   8  12  ar  
 19   8  13  ar  
 20   9  25  1   
 21   9  26  1   
 22   9  27  1   
 23  10  14  1   
 24  10  28  1   
 25  10  29  1   
 26  11  14  1   
 27  11  30  1   
 28  11  31  1   
 29  12  15  ar  
 30  12  32  1   
 31  13  16  ar  
 32  13  33  1   
 33  14  34  1   
 34  14  35  1   
 35  15  17  ar  
 36  15  36  1   
 37  16  17  ar  
 38  16  37  1   
@<TRIPOS>SUBSTRUCTURE
  1 ****   3 GROUP 4 **** **** 0

# MOE 2024.06 (io_trps.svl 2023.06)
