@<TRIPOS>MOLECULE
NONAME
48 50 1 0 0 
SMALL
USER_CHARGES


@<TRIPOS>ATOM
  1 S       -0.4270     0.2810     0.4830 S.3   1 <1>  -0.2860 
  2 C        1.2640     0.8740     0.3690 C.2   1 <1>   0.2420 
  3 C       -1.3710     1.8260     0.9150 C.3   1 <1>   0.1310 
  4 N        1.5980     2.1040     0.5320 N.2   1 <1>  -0.3380 
  5 N        2.2930     0.0710     0.1010 N.pl3 1 <1>   0.0480 
  6 C       -2.8670     1.5660     1.0010 C.2   1 <1>   0.5690 
  7 N        2.9240     2.1430     0.3660 N.2   1 <1>  -0.3380 
  8 C        3.3170     0.9360     0.1140 C.2   1 <1>   0.1010 
  9 C        2.2950    -1.3860    -0.1460 C.3   1 <1>   0.0960 
 10 O       -3.5540     2.3560     1.6020 O.2   1 <1>  -0.5700 
 11 N       -3.3950     0.4680     0.3980 N.am  1 <1>  -0.7300 
 12 C        4.7590     0.5330    -0.1460 C.3   1 <1>  -0.0150 
 13 C        2.1200    -1.6800    -1.6410 C.3   1 <1>  -0.1600 
 14 C       -4.8140     0.0840     0.3990 C.3   1 <1>   0.2200 
 15 C        5.5220    -0.2390     0.8880 C.3   1 <1>  -0.2000 
 16 C        5.8760     1.1890     0.6070 C.3   1 <1>  -0.2000 
 17 C        2.1290    -3.1880    -1.9140 C.3   1 <1>  -0.2400 
 18 C       -4.9640    -1.2510     1.1350 C.3   1 <1>  -0.1600 
 19 C       -5.2990    -0.0210    -1.0510 C.3   1 <1>  -0.1600 
 20 C       -6.4120    -1.7600     1.0720 C.3   1 <1>  -0.1600 
 21 C       -6.7470    -0.5280    -1.1170 C.3   1 <1>  -0.1600 
 22 C       -6.9000    -1.8650    -0.3790 C.3   1 <1>  -0.1600 
 23 H       -1.1630     2.5530     0.1530 H     1 <1>   0.0800 
 24 H       -0.9970     2.1730     1.8600 H     1 <1>   0.0800 
 25 H        1.4950    -1.8360     0.4160 H     1 <1>   0.0800 
 26 H        3.2240    -1.7980     0.2060 H     1 <1>   0.0800 
 27 H       -2.7630    -0.1890    -0.0610 H     1 <1>   0.3700 
 28 H        4.9420     0.3130    -1.1830 H     1 <1>   0.1000 
 29 H        2.9190    -1.2180    -2.1960 H     1 <1>   0.0800 
 30 H        1.1850    -1.2680    -1.9810 H     1 <1>   0.0800 
 31 H       -5.3940     0.8360     0.9110 H     1 <1>   0.0800 
 32 H        6.2010    -1.0090     0.5680 H     1 <1>   0.1000 
 33 H        5.0510    -0.4630     1.8300 H     1 <1>   0.1000 
 34 H        5.6250     1.9440     1.3330 H     1 <1>   0.1000 
 35 H        6.7870     1.4110     0.0800 H     1 <1>   0.1000 
 36 H        3.0620    -3.6250    -1.6010 H     1 <1>   0.0800 
 37 H        2.0050    -3.3710    -2.9670 H     1 <1>   0.0800 
 38 H        1.3250    -3.6730    -1.3880 H     1 <1>   0.0800 
 39 H       -4.6770    -1.1210     2.1640 H     1 <1>   0.0800 
 40 H       -4.3160    -1.9840     0.6880 H     1 <1>   0.0800 
 41 H       -4.6660    -0.6990    -1.5940 H     1 <1>   0.0800 
 42 H       -5.2400     0.9480    -1.5140 H     1 <1>   0.0800 
 43 H       -7.0500    -1.0840     1.6150 H     1 <1>   0.0800 
 44 H       -6.4760    -2.7250     1.5460 H     1 <1>   0.0800 
 45 H       -7.0410    -0.6470    -2.1460 H     1 <1>   0.0800 
 46 H       -7.4000     0.2020    -0.6700 H     1 <1>   0.0800 
 47 H       -7.9340    -2.1650    -0.3900 H     1 <1>   0.0800 
 48 H       -6.3330    -2.6230    -0.8920 H     1 <1>   0.0800 
@<TRIPOS>BOND
  1   1   2  1   
  2   1   3  1   
  3   2   4  2   
  4   2   5  1   
  5   3   6  1   
  6   3  23  1   
  7   3  24  1   
  8   4   7  1   
  9   5   8  1   
 10   5   9  1   
 11   6  10  2   
 12   6  11  am  
 13   7   8  2   
 14   8  12  1   
 15   9  13  1   
 16   9  25  1   
 17   9  26  1   
 18  11  14  1   
 19  11  27  1   
 20  12  15  1   
 21  12  16  1   
 22  12  28  1   
 23  13  17  1   
 24  13  29  1   
 25  13  30  1   
 26  14  18  1   
 27  14  19  1   
 28  14  31  1   
 29  15  16  1   
 30  15  32  1   
 31  15  33  1   
 32  16  34  1   
 33  16  35  1   
 34  17  36  1   
 35  17  37  1   
 36  17  38  1   
 37  18  20  1   
 38  18  39  1   
 39  18  40  1   
 40  19  21  1   
 41  19  41  1   
 42  19  42  1   
 43  20  22  1   
 44  20  43  1   
 45  20  44  1   
 46  21  22  1   
 47  21  45  1   
 48  21  46  1   
 49  22  47  1   
 50  22  48  1   
@<TRIPOS>SUBSTRUCTURE
  1 ****   1 GROUP 4 **** **** 0

# MOE 2024.06 (io_trps.svl 2023.06)
