@<TRIPOS>MOLECULE
NONAME
45 46 1 0 0 
SMALL
USER_CHARGES


@<TRIPOS>ATOM
  1 S       -0.7070     0.2920    -0.5020 S.o2  1 <1>   1.3330 
  2 O       -0.7250     1.7100    -0.2540 O.2   1 <1>  -0.6500 
  3 O        0.2620    -0.5730     0.1230 O.2   1 <1>  -0.6500 
  4 N       -2.2790    -0.2500    -0.0760 N.am  1 <1>  -0.7570 
  5 C       -0.6970     0.0340    -2.2620 C.3   1 <1>  -0.1350 
  6 C       -2.7590    -1.5270     0.1980 C.ar  1 <1>   0.1990 
  7 C       -4.0300    -1.6880     0.7850 C.ar  1 <1>   0.0860 
  8 C       -2.0070    -2.6630    -0.1010 C.ar  1 <1>  -0.1500 
  9 C       -4.8800    -0.5500     1.0790 C.2   1 <1>   0.5440 
 10 C       -4.4660    -2.9810     1.0850 C.ar  1 <1>  -0.1500 
 11 C       -2.4700    -3.9300     0.1860 C.ar  1 <1>  -0.1500 
 12 O       -4.4030     0.4500     1.5870 O.2   1 <1>  -0.5700 
 13 N       -6.2310    -0.5510     0.7930 N.am  1 <1>  -0.6600 
 14 C       -3.7040    -4.0920     0.7880 C.ar  1 <1>  -0.1500 
 15 C       -6.8480    -1.3540    -0.3120 C.3   1 <1>   0.1400 
 16 C       -7.1660     0.4440     1.4120 C.3   1 <1>   0.1400 
 17 C       -7.4960    -0.4440    -1.3690 C.3   1 <1>   0.1400 
 18 C       -7.7950     1.3530     0.3460 C.3   1 <1>   0.1400 
 19 N       -8.4250     0.5330    -0.7310 N.am  1 <1>  -0.6600 
 20 C       -9.7570     0.5790    -1.0420 C.2   1 <1>   0.7800 
 21 O      -10.2600    -0.1510    -1.8750 O.2   1 <1>  -0.5700 
 22 O      -10.5180     1.4600    -0.3900 O.3   1 <1>  -0.4300 
 23 C      -11.8970     1.5650    -0.6620 C.3   1 <1>   0.1200 
 24 C      -12.4760     2.6490     0.2410 C.3   1 <1>  -0.2400 
 25 H       -2.7690     0.5070     0.4210 H     1 <1>   0.4200 
 26 H       -1.4920     0.5870    -2.7210 H     1 <1>   0.0800 
 27 H       -0.8210    -1.0060    -2.4880 H     1 <1>   0.0800 
 28 H        0.2350     0.3670    -2.6750 H     1 <1>   0.0800 
 29 H       -1.0390    -2.5680    -0.5550 H     1 <1>   0.1500 
 30 H       -5.4210    -3.1110     1.5640 H     1 <1>   0.1500 
 31 H       -1.8690    -4.7930    -0.0480 H     1 <1>   0.1500 
 32 H       -4.0610    -5.0800     1.0260 H     1 <1>   0.1500 
 33 H       -7.6000    -2.0030     0.1010 H     1 <1>   0.0800 
 34 H       -6.1080    -1.9660    -0.7960 H     1 <1>   0.0800 
 35 H       -6.6510     1.0510     2.1360 H     1 <1>   0.0800 
 36 H       -7.9470    -0.0840     1.9290 H     1 <1>   0.0800 
 37 H       -8.0210    -1.0510    -2.0870 H     1 <1>   0.0800 
 38 H       -6.7280     0.0950    -1.8940 H     1 <1>   0.0800 
 39 H       -7.0290     1.9750    -0.0830 H     1 <1>   0.0800 
 40 H       -8.5180     1.9980     0.8130 H     1 <1>   0.0800 
 41 H      -12.3570     0.6110    -0.4660 H     1 <1>   0.0800 
 42 H      -12.0200     1.8190    -1.7020 H     1 <1>   0.0800 
 43 H      -12.3360     2.3850     1.2730 H     1 <1>   0.0800 
 44 H      -13.5300     2.7520     0.0530 H     1 <1>   0.0800 
 45 H      -11.9990     3.5920     0.0400 H     1 <1>   0.0800 
@<TRIPOS>BOND
  1   1   2  2   
  2   1   3  2   
  3   1   4  am  
  4   1   5  1   
  5   4   6  1   
  6   4  25  1   
  7   5  26  1   
  8   5  27  1   
  9   5  28  1   
 10   6   7  ar  
 11   6   8  ar  
 12   7   9  1   
 13   7  10  ar  
 14   8  11  ar  
 15   8  29  1   
 16   9  12  2   
 17   9  13  am  
 18  10  14  ar  
 19  10  30  1   
 20  11  14  ar  
 21  11  31  1   
 22  13  15  1   
 23  13  16  1   
 24  14  32  1   
 25  15  17  1   
 26  15  33  1   
 27  15  34  1   
 28  16  18  1   
 29  16  35  1   
 30  16  36  1   
 31  17  19  1   
 32  17  37  1   
 33  17  38  1   
 34  18  19  1   
 35  18  39  1   
 36  18  40  1   
 37  19  20  am  
 38  20  21  2   
 39  20  22  1   
 40  22  23  1   
 41  23  24  1   
 42  23  41  1   
 43  23  42  1   
 44  24  43  1   
 45  24  44  1   
 46  24  45  1   
@<TRIPOS>SUBSTRUCTURE
  1 ****  13 GROUP 4 **** **** 0

# MOE 2024.06 (io_trps.svl 2023.06)
