@<TRIPOS>MOLECULE
NONAME
43 44 1 0 0 
SMALL
USER_CHARGES


@<TRIPOS>ATOM
  1 CL       0.6570     1.8890     0.0100 Cl    1 <1>  -0.1770 
  2 C        2.2090     1.0910    -0.0580 C.ar  1 <1>   0.1770 
  3 C        3.3780     1.8120     0.1180 C.ar  1 <1>  -0.1440 
  4 C        2.2400    -0.2690    -0.2900 C.ar  1 <1>  -0.1500 
  5 C        4.5830     1.1320     0.0540 C.ar  1 <1>  -0.1500 
  6 C        3.3460     3.3110     0.3780 C.3   1 <1>  -0.0960 
  7 C        3.4520    -0.9410    -0.3530 C.ar  1 <1>  -0.1430 
  8 C        4.6510    -0.2410    -0.1800 C.ar  1 <1>  -0.0090 
  9 C        3.4190    -2.4440    -0.6050 C.3   1 <1>  -0.0960 
 10 S        6.2880    -1.0320    -0.2720 S.o2  1 <1>   1.4470 
 11 O        7.3530    -0.0810    -0.0590 O.2   1 <1>  -0.6500 
 12 O        6.3540    -2.2820     0.4550 O.2   1 <1>  -0.6500 
 13 N        6.4520    -1.4610    -1.8930 N.am  1 <1>  -0.9140 
 14 C        7.8250    -1.6830    -2.3890 C.3   1 <1>   0.1960 
 15 C        8.4380    -3.0660    -2.0450 C.3   1 <1>   0.3430 
 16 N        8.6530    -3.3140    -0.5850 N.4   1 <1>  -0.9590 
 17 C        9.6400    -2.3770     0.0600 C.3   1 <1>   0.3430 
 18 C        9.0040    -4.7420    -0.2880 C.3   1 <1>   0.3430 
 19 C        9.8200    -2.7060     1.5530 C.3   1 <1>   0.1200 
 20 C        9.2200    -4.9570     1.2230 C.3   1 <1>   0.1200 
 21 O       10.1690    -4.0520     1.7110 O.3   1 <1>  -0.5600 
 22 H        1.3060    -0.7880    -0.4170 H     1 <1>   0.1500 
 23 H        5.4970     1.6860     0.1930 H     1 <1>   0.1500 
 24 H        2.7920     3.5160     1.2770 H     1 <1>   0.0800 
 25 H        2.8700     3.8170    -0.4430 H     1 <1>   0.0800 
 26 H        4.3390     3.7080     0.4930 H     1 <1>   0.0800 
 27 H        2.4140    -2.7820    -0.7890 H     1 <1>   0.0800 
 28 H        3.7910    -2.9740     0.2540 H     1 <1>   0.0800 
 29 H        4.0120    -2.7020    -1.4630 H     1 <1>   0.0800 
 30 H        6.1110    -0.6350    -2.3900 H     1 <1>   0.4200 
 31 H        8.4820    -0.8940    -2.0660 H     1 <1>   0.0800 
 32 H        7.7880    -1.6250    -3.4640 H     1 <1>   0.0800 
 33 H        9.3820    -3.1580    -2.5570 H     1 <1>   0.0800 
 34 H        7.7820    -3.8240    -2.4420 H     1 <1>   0.0800 
 35 H        7.7410    -3.1430    -0.1110 H     1 <1>   0.4500 
 36 H        9.3050    -1.3580    -0.0350 H     1 <1>   0.0800 
 37 H       10.5980    -2.4610    -0.4260 H     1 <1>   0.0800 
 38 H        9.9100    -5.0120    -0.8040 H     1 <1>   0.0800 
 39 H        8.2170    -5.3940    -0.6280 H     1 <1>   0.0800 
 40 H        8.9150    -2.5110     2.1030 H     1 <1>   0.0800 
 41 H       10.6120    -2.1100     1.9720 H     1 <1>   0.0800 
 42 H        9.5900    -5.9510     1.4090 H     1 <1>   0.0800 
 43 H        8.3010    -4.8250     1.7680 H     1 <1>   0.0800 
@<TRIPOS>BOND
  1   1   2  1   
  2   2   3  ar  
  3   2   4  ar  
  4   3   5  ar  
  5   3   6  1   
  6   4   7  ar  
  7   4  22  1   
  8   5   8  ar  
  9   5  23  1   
 10   6  24  1   
 11   6  25  1   
 12   6  26  1   
 13   7   8  ar  
 14   7   9  1   
 15   8  10  1   
 16   9  27  1   
 17   9  28  1   
 18   9  29  1   
 19  10  11  2   
 20  10  12  2   
 21  10  13  am  
 22  13  14  1   
 23  13  30  1   
 24  14  15  1   
 25  14  31  1   
 26  14  32  1   
 27  15  16  1   
 28  15  33  1   
 29  15  34  1   
 30  16  17  1   
 31  16  18  1   
 32  16  35  1   
 33  17  19  1   
 34  17  36  1   
 35  17  37  1   
 36  18  20  1   
 37  18  38  1   
 38  18  39  1   
 39  19  21  1   
 40  19  40  1   
 41  19  41  1   
 42  20  21  1   
 43  20  42  1   
 44  20  43  1   
@<TRIPOS>SUBSTRUCTURE
  1 ****  10 GROUP 4 **** **** 0

# MOE 2024.06 (io_trps.svl 2023.06)
