@<TRIPOS>MOLECULE
NONAME
23 24 1 0 0 
SMALL
USER_CHARGES


@<TRIPOS>ATOM
  1 CL      -0.2620    -1.0520    -0.4420 Cl    1 <1>  -0.1770 
  2 C        1.4390    -1.3930    -0.2560 C.ar  1 <1>   0.1770 
  3 C        2.3610    -0.3970    -0.5050 C.ar  1 <1>  -0.1500 
  4 C        1.8320    -2.6590     0.1420 C.ar  1 <1>  -0.1500 
  5 C        3.7260    -0.6500    -0.3580 C.ar  1 <1>   0.0860 
  6 C        3.1810    -2.9290     0.2830 C.ar  1 <1>  -0.1500 
  7 C        4.1170    -1.9380     0.0250 C.ar  1 <1>   0.0830 
  8 C        4.7240     0.3630    -0.5610 C.2   1 <1>   0.4230 
  9 O        5.4250    -2.2580     0.1480 O.3   1 <1>  -0.3630 
 10 O        4.4840     1.4850    -0.9250 O.2   1 <1>  -0.5700 
 11 C        6.1600     0.0170    -0.2470 C.3   1 <1>  -0.0990 
 12 C        6.4380    -1.4750    -0.4770 C.3   1 <1>   0.5600 
 13 O        6.2640    -1.7360    -1.8400 O.3   1 <1>  -0.6800 
 14 C        7.8670    -1.8980     0.0530 C.3   1 <1>   1.0200 
 15 F        7.9930    -1.7550     1.3700 F     1 <1>  -0.3400 
 16 F        8.8540    -1.1850    -0.4840 F     1 <1>  -0.3400 
 17 F        8.1540    -3.1730    -0.2090 F     1 <1>  -0.3400 
 18 H        2.0260     0.5790    -0.8080 H     1 <1>   0.1500 
 19 H        1.0900    -3.4130     0.3340 H     1 <1>   0.1500 
 20 H        3.5100    -3.9070     0.5880 H     1 <1>   0.1500 
 21 H        6.3540     0.2740     0.7770 H     1 <1>   0.0800 
 22 H        6.8150     0.6060    -0.8630 H     1 <1>   0.0800 
 23 H        6.3240    -2.7010    -1.9880 H     1 <1>   0.4000 
@<TRIPOS>BOND
  1   1   2  1   
  2   2   3  ar  
  3   2   4  ar  
  4   3   5  ar  
  5   3  18  1   
  6   4   6  ar  
  7   4  19  1   
  8   5   7  ar  
  9   5   8  1   
 10   6   7  ar  
 11   6  20  1   
 12   7   9  1   
 13   8  10  2   
 14   8  11  1   
 15   9  12  1   
 16  11  12  1   
 17  11  21  1   
 18  11  22  1   
 19  12  13  1   
 20  12  14  1   
 21  13  23  1   
 22  14  15  1   
 23  14  16  1   
 24  14  17  1   
@<TRIPOS>SUBSTRUCTURE
  1 ****   7 GROUP 4 **** **** 0

# MOE 2024.06 (io_trps.svl 2023.06)
