@<TRIPOS>MOLECULE
NONAME
41 42 1 0 0 
SMALL
USER_CHARGES


@<TRIPOS>ATOM
  1 O        0.0060     0.0080    -0.5210 O.3   1 <1>  -0.3630 
  2 C       -1.0560    -0.6870    -0.0370 C.ar  1 <1>   0.0830 
  3 C        1.2860    -0.5740    -0.5900 C.3   1 <1>   0.1200 
  4 C       -0.9840    -2.0010     0.4190 C.ar  1 <1>  -0.1500 
  5 C       -2.2720    -0.0230    -0.0070 C.ar  1 <1>  -0.1500 
  6 C        2.2470     0.4580    -1.1770 C.3   1 <1>  -0.1600 
  7 C       -2.1180    -2.6360     0.8980 C.ar  1 <1>  -0.1500 
  8 C       -3.4050    -0.6570     0.4710 C.ar  1 <1>  -0.1500 
  9 C        3.6670    -0.1100    -1.2550 C.3   1 <1>   0.1200 
 10 C       -3.3370    -1.9640     0.9260 C.ar  1 <1>   0.0830 
 11 O        4.5260     0.8390    -1.8500 O.3   1 <1>  -0.3630 
 12 O       -4.4950    -2.5130     1.3780 O.3   1 <1>  -0.3630 
 13 C        5.0460     1.8950    -1.1690 C.ar  1 <1>   0.0830 
 14 C       -4.5330    -3.8370     1.8620 C.3   1 <1>   0.0400 
 15 C        4.8520     2.1250     0.1910 C.ar  1 <1>  -0.1500 
 16 C        5.8160     2.7830    -1.9030 C.ar  1 <1>  -0.1500 
 17 C        5.4240     3.2300     0.8000 C.ar  1 <1>  -0.1500 
 18 C        6.3870     3.8860    -1.2960 C.ar  1 <1>  -0.1500 
 19 C        6.1960     4.1180     0.0570 C.ar  1 <1>   0.0830 
 20 O        6.7910     5.2240     0.5760 O.3   1 <1>  -0.3620 
 21 C        6.6510     5.5530     1.9400 C.3   1 <1>   0.0400 
 22 H        1.2280    -1.4440    -1.2220 H     1 <1>   0.0800 
 23 H        1.5840    -0.8520     0.4060 H     1 <1>   0.0800 
 24 H       -0.0590    -2.5450     0.4100 H     1 <1>   0.1500 
 25 H       -2.3240     0.9910    -0.3600 H     1 <1>   0.1500 
 26 H        2.2360     1.3370    -0.5580 H     1 <1>   0.0800 
 27 H        1.9190     0.7190    -2.1670 H     1 <1>   0.0800 
 28 H       -2.0340    -3.6480     1.2430 H     1 <1>   0.1500 
 29 H       -4.3480    -0.1420     0.4940 H     1 <1>   0.1500 
 30 H        3.6780    -0.9790    -1.8900 H     1 <1>   0.0800 
 31 H        4.0570    -0.3880    -0.2930 H     1 <1>   0.0800 
 32 H       -5.5420    -4.0530     2.1630 H     1 <1>   0.0800 
 33 H       -3.8740    -3.9180     2.7090 H     1 <1>   0.0800 
 34 H       -4.2350    -4.5050     1.0740 H     1 <1>   0.0800 
 35 H        4.2620     1.4610     0.7920 H     1 <1>   0.1500 
 36 H        5.9640     2.6030    -2.9530 H     1 <1>   0.1500 
 37 H        5.2570     3.3820     1.8490 H     1 <1>   0.1500 
 38 H        6.9840     4.5740    -1.8660 H     1 <1>   0.1500 
 39 H        7.1980     6.4610     2.1220 H     1 <1>   0.0800 
 40 H        7.0590     4.7550     2.5350 H     1 <1>   0.0800 
 41 H        5.6090     5.7050     2.1570 H     1 <1>   0.0800 
@<TRIPOS>BOND
  1   1   2  1   
  2   1   3  1   
  3   2   4  ar  
  4   2   5  ar  
  5   3   6  1   
  6   3  22  1   
  7   3  23  1   
  8   4   7  ar  
  9   4  24  1   
 10   5   8  ar  
 11   5  25  1   
 12   6   9  1   
 13   6  26  1   
 14   6  27  1   
 15   7  10  ar  
 16   7  28  1   
 17   8  10  ar  
 18   8  29  1   
 19   9  11  1   
 20   9  30  1   
 21   9  31  1   
 22  10  12  1   
 23  11  13  1   
 24  12  14  1   
 25  13  15  ar  
 26  13  16  ar  
 27  14  32  1   
 28  14  33  1   
 29  14  34  1   
 30  15  17  ar  
 31  15  35  1   
 32  16  18  ar  
 33  16  36  1   
 34  17  19  ar  
 35  17  37  1   
 36  18  19  ar  
 37  18  38  1   
 38  19  20  1   
 39  20  21  1   
 40  21  39  1   
 41  21  40  1   
 42  21  41  1   
@<TRIPOS>SUBSTRUCTURE
  1 ****   6 GROUP 4 **** **** 0

# MOE 2024.06 (io_trps.svl 2023.06)
