@<TRIPOS>MOLECULE
NONAME
49 50 1 0 0 
SMALL
USER_CHARGES


@<TRIPOS>ATOM
  1 O        0.1290    -0.4990     0.8080 O.2   1 <1>  -0.5700 
  2 C       -0.0290    -1.2100    -0.1640 C.2   1 <1>   0.6900 
  3 N       -1.2800    -1.5020    -0.5870 N.am  1 <1>  -0.7300 
  4 N        1.0040    -1.7250    -0.8680 N.am  1 <1>  -0.7300 
  5 C       -2.4840    -1.0170     0.0960 C.3   1 <1>   0.2200 
  6 C        2.4520    -1.5500    -0.6200 C.3   1 <1>   0.2200 
  7 C       -3.6380    -1.9860    -0.1280 C.3   1 <1>  -0.1600 
  8 C       -2.8410     0.3680    -0.4320 C.3   1 <1>  -0.1600 
  9 C        2.8570    -2.1440     0.7350 C.3   1 <1>  -0.1600 
 10 C        2.8640    -0.0770    -0.7400 C.3   1 <1>  -0.1600 
 11 C       -4.9070    -1.4480     0.5310 C.3   1 <1>   0.3430 
 12 C       -4.1150     0.8710     0.2360 C.3   1 <1>   0.3430 
 13 C        4.3650    -1.9750     0.9790 C.3   1 <1>  -0.1600 
 14 C        4.3710     0.0920    -0.4980 C.3   1 <1>  -0.1600 
 15 N       -5.2450    -0.0870    -0.0020 N.4   1 <1>  -0.9590 
 16 C        4.7840    -0.5030     0.8570 C.3   1 <1>  -0.1600 
 17 C       -6.5430     0.4270     0.5320 C.3   1 <1>   0.4230 
 18 C       -7.6710    -0.5560     0.2090 C.3   1 <1>  -0.2400 
 19 C       -6.8750     1.7790    -0.1040 C.3   1 <1>  -0.2400 
 20 H       -1.3890    -1.9510    -1.4920 H     1 <1>   0.3700 
 21 H        0.7900    -2.4180    -1.5780 H     1 <1>   0.3700 
 22 H       -2.2790    -0.9500     1.1540 H     1 <1>   0.0800 
 23 H        2.9790    -2.0960    -1.3850 H     1 <1>   0.0800 
 24 H       -3.3920    -2.9350     0.3150 H     1 <1>   0.0800 
 25 H       -3.8120    -2.1350    -1.1780 H     1 <1>   0.0800 
 26 H       -2.9700     0.3490    -1.4990 H     1 <1>   0.0800 
 27 H       -2.0390     1.0490    -0.2020 H     1 <1>   0.0800 
 28 H        2.6040    -3.1890     0.7620 H     1 <1>   0.0800 
 29 H        2.3240    -1.6440     1.5240 H     1 <1>   0.0800 
 30 H        2.3320     0.5090    -0.0110 H     1 <1>   0.0800 
 31 H        2.6140     0.2900    -1.7190 H     1 <1>   0.0800 
 32 H       -4.7620    -1.3950     1.5980 H     1 <1>   0.0800 
 33 H       -5.7110    -2.1380     0.3340 H     1 <1>   0.0800 
 34 H       -4.3510     1.8410    -0.1690 H     1 <1>   0.0800 
 35 H       -3.9450     0.9810     1.2950 H     1 <1>   0.0800 
 36 H        4.9120    -2.5630     0.2610 H     1 <1>   0.0800 
 37 H        4.6120    -2.3390     1.9610 H     1 <1>   0.0800 
 38 H        4.6240     1.1380    -0.5230 H     1 <1>   0.0800 
 39 H        4.9180    -0.3990    -1.2840 H     1 <1>   0.0800 
 40 H       -5.3660    -0.1720    -1.0180 H     1 <1>   0.4500 
 41 H        5.8500    -0.4200     0.9780 H     1 <1>   0.0800 
 42 H        4.3180     0.0630     1.6470 H     1 <1>   0.0800 
 43 H       -6.4770     0.5480     1.6020 H     1 <1>   0.0800 
 44 H       -7.7030    -0.7800    -0.8420 H     1 <1>   0.0800 
 45 H       -8.6180    -0.1230     0.4830 H     1 <1>   0.0800 
 46 H       -7.5790    -1.4650     0.7740 H     1 <1>   0.0800 
 47 H       -6.8490     1.7210    -1.1780 H     1 <1>   0.0800 
 48 H       -6.2090     2.5510     0.2360 H     1 <1>   0.0800 
 49 H       -7.8650     2.0830     0.1870 H     1 <1>   0.0800 
@<TRIPOS>BOND
  1   1   2  2   
  2   2   3  am  
  3   2   4  am  
  4   3   5  1   
  5   3  20  1   
  6   4   6  1   
  7   4  21  1   
  8   5   7  1   
  9   5   8  1   
 10   5  22  1   
 11   6   9  1   
 12   6  10  1   
 13   6  23  1   
 14   7  11  1   
 15   7  24  1   
 16   7  25  1   
 17   8  12  1   
 18   8  26  1   
 19   8  27  1   
 20   9  13  1   
 21   9  28  1   
 22   9  29  1   
 23  10  14  1   
 24  10  30  1   
 25  10  31  1   
 26  11  15  1   
 27  11  32  1   
 28  11  33  1   
 29  12  15  1   
 30  12  34  1   
 31  12  35  1   
 32  13  16  1   
 33  13  36  1   
 34  13  37  1   
 35  14  16  1   
 36  14  38  1   
 37  14  39  1   
 38  15  17  1   
 39  15  40  1   
 40  16  41  1   
 41  16  42  1   
 42  17  18  1   
 43  17  19  1   
 44  17  43  1   
 45  18  44  1   
 46  18  45  1   
 47  18  46  1   
 48  19  47  1   
 49  19  48  1   
 50  19  49  1   
@<TRIPOS>SUBSTRUCTURE
  1 ****   3 GROUP 4 **** **** 0

# MOE 2024.06 (io_trps.svl 2023.06)
