@<TRIPOS>MOLECULE
NONAME
52 53 1 0 0 
SMALL
USER_CHARGES


@<TRIPOS>ATOM
  1 O        0.3290    -0.9270     1.5360 O.2   1 <1>  -0.5700 
  2 C        1.3680    -1.0740     0.9370 C.2   1 <1>   0.4950 
  3 C        2.4660    -0.1440     0.9410 C.2   1 <1>   0.0290 
  4 C        1.4470    -2.3940     0.1840 C.3   1 <1>  -0.0990 
  5 C        3.7650    -0.7560     0.8060 C.2   1 <1>   0.4950 
  6 C        2.3210     1.2400     1.0310 C.2   1 <1>  -0.0380 
  7 C        2.7310    -2.5770    -0.6350 C.3   1 <1>   0.0000 
  8 O        4.8220    -0.2340     1.0950 O.2   1 <1>  -0.5700 
  9 C        3.9080    -2.1660     0.2560 C.3   1 <1>  -0.0990 
 10 N        3.4010     2.0680     1.0240 N.pl3 1 <1>  -0.8690 
 11 C        0.9580     1.9410     1.1010 C.3   1 <1>  -0.0220 
 12 C        2.6860    -1.7270    -1.9200 C.3   1 <1>  -0.2400 
 13 C        2.8800    -4.0510    -1.0420 C.3   1 <1>  -0.2400 
 14 C        3.5190     3.5490     1.0150 C.3   1 <1>   0.2090 
 15 C        0.3900     2.1690    -0.3030 C.3   1 <1>  -0.2400 
 16 C        4.7250     3.9550     0.1570 C.3   1 <1>   0.1100 
 17 N        4.8870     5.4270     0.0610 N.3   1 <1>  -0.8100 
 18 C        3.9080     6.0360    -0.8650 C.3   1 <1>   0.1100 
 19 C        6.2740     5.7730    -0.3110 C.3   1 <1>   0.1100 
 20 C        4.0780     7.5680    -0.9360 C.3   1 <1>   0.3430 
 21 C        6.4770     7.3000    -0.3690 C.3   1 <1>   0.3430 
 22 N        5.4850     7.9510    -1.2890 N.4   1 <1>  -0.9060 
 23 H        1.3730    -3.1780     0.9180 H     1 <1>   0.0800 
 24 H        0.5870    -2.4790    -0.4560 H     1 <1>   0.0800 
 25 H        4.8230    -2.2270    -0.3070 H     1 <1>   0.0800 
 26 H        3.9980    -2.8380     1.0900 H     1 <1>   0.0800 
 27 H        4.3250     1.5940     1.0720 H     1 <1>   0.4000 
 28 H        0.2520     1.3910     1.6890 H     1 <1>   0.0800 
 29 H        1.0460     2.8820     1.6100 H     1 <1>   0.0800 
 30 H        2.5570    -0.6800    -1.7120 H     1 <1>   0.0800 
 31 H        1.8720    -2.0400    -2.5490 H     1 <1>   0.0800 
 32 H        3.6000    -1.8420    -2.4770 H     1 <1>   0.0800 
 33 H        2.0450    -4.3640    -1.6440 H     1 <1>   0.0800 
 34 H        2.9270    -4.6880    -0.1750 H     1 <1>   0.0800 
 35 H        3.7800    -4.1970    -1.6140 H     1 <1>   0.0800 
 36 H        2.6240     3.9820     0.6090 H     1 <1>   0.0800 
 37 H        3.6580     3.8980     2.0240 H     1 <1>   0.0800 
 38 H        0.2170     1.2240    -0.7880 H     1 <1>   0.0800 
 39 H        1.0800     2.7410    -0.8960 H     1 <1>   0.0800 
 40 H       -0.5430     2.6980    -0.2420 H     1 <1>   0.0800 
 41 H        4.6230     3.5300    -0.8270 H     1 <1>   0.0800 
 42 H        5.6000     3.5300     0.6190 H     1 <1>   0.0800 
 43 H        4.0170     5.6120    -1.8500 H     1 <1>   0.0800 
 44 H        2.9080     5.8240    -0.5260 H     1 <1>   0.0800 
 45 H        6.9490     5.3670     0.4250 H     1 <1>   0.0800 
 46 H        6.5230     5.3340    -1.2630 H     1 <1>   0.0800 
 47 H        3.8230     7.9790     0.0270 H     1 <1>   0.0800 
 48 H        3.3910     7.9710    -1.6620 H     1 <1>   0.0800 
 49 H        7.4820     7.5150    -0.6950 H     1 <1>   0.0800 
 50 H        6.3590     7.6940     0.6270 H     1 <1>   0.0800 
 51 H        5.5920     8.9720    -1.2560 H     1 <1>   0.4500 
 52 H        5.6790     7.6470    -2.2500 H     1 <1>   0.4500 
@<TRIPOS>BOND
  1   1   2  2   
  2   2   3  1   
  3   2   4  1   
  4   3   5  1   
  5   3   6  2   
  6   4   7  1   
  7   4  23  1   
  8   4  24  1   
  9   5   8  2   
 10   5   9  1   
 11   6  10  1   
 12   6  11  1   
 13   7   9  1   
 14   7  12  1   
 15   7  13  1   
 16   9  25  1   
 17   9  26  1   
 18  10  14  1   
 19  10  27  1   
 20  11  15  1   
 21  11  28  1   
 22  11  29  1   
 23  12  30  1   
 24  12  31  1   
 25  12  32  1   
 26  13  33  1   
 27  13  34  1   
 28  13  35  1   
 29  14  16  1   
 30  14  36  1   
 31  14  37  1   
 32  15  38  1   
 33  15  39  1   
 34  15  40  1   
 35  16  17  1   
 36  16  41  1   
 37  16  42  1   
 38  17  18  1   
 39  17  19  1   
 40  18  20  1   
 41  18  43  1   
 42  18  44  1   
 43  19  21  1   
 44  19  45  1   
 45  19  46  1   
 46  20  22  1   
 47  20  47  1   
 48  20  48  1   
 49  21  22  1   
 50  21  49  1   
 51  21  50  1   
 52  22  51  1   
 53  22  52  1   
@<TRIPOS>SUBSTRUCTURE
  1 ****  10 GROUP 4 **** **** 0

# MOE 2024.06 (io_trps.svl 2023.06)
