@<TRIPOS>MOLECULE
NONAME
34 34 1 0 0 
SMALL
USER_CHARGES


@<TRIPOS>ATOM
  1 S       -0.1970    -0.2890     0.9940 S.3   1 <1>  -0.2420 
  2 C       -1.5530     0.8140     0.6810 C.2   1 <1>   0.6510 
  3 C        1.0520     0.8630     0.4580 C.2   1 <1>   0.1150 
  4 N       -2.7500     0.3930     0.8400 N.2   1 <1>  -0.5120 
  5 N       -1.0280     2.0450     0.2640 N.am  1 <1>  -0.4200 
  6 C        0.3430     2.0680     0.1040 C.2   1 <1>   0.6160 
  7 C        2.3790     0.5840     0.4240 C.2   1 <1>  -0.4000 
  8 N       -3.8740     1.1570     0.4750 N.am  1 <1>  -0.3680 
  9 C       -1.8140     3.3110     0.2330 C.3   1 <1>   0.0600 
 10 O        0.8930     3.0740    -0.3120 O.2   1 <1>  -0.5700 
 11 C        3.1270    -0.5830     0.7630 C.2   1 <1>   1.0500 
 12 C       -5.1980     0.9300     0.7430 C.2   1 <1>   0.7800 
 13 O        4.3600    -0.5480     0.6390 O.co2 1 <1>  -0.9000 
 14 O        2.5900    -1.6200     1.1710 O.co2 1 <1>  -0.9000 
 15 O       -5.6090     0.0140     1.4270 O.2   1 <1>  -0.5700 
 16 O       -6.0280     1.8190     0.1920 O.3   1 <1>  -0.4300 
 17 C       -7.4360     1.8450     0.2930 C.3   1 <1>   0.2800 
 18 C       -7.8600     2.0410     1.7530 C.3   1 <1>  -0.2400 
 19 C       -7.8730     3.0610    -0.5250 C.3   1 <1>  -0.2400 
 20 C       -8.0370     0.5780    -0.3270 C.3   1 <1>  -0.2400 
 21 H        3.0420     1.3530     0.0860 H     1 <1>   0.1500 
 22 H       -3.7290     1.9550    -0.1390 H     1 <1>   0.3700 
 23 H       -1.1620     4.1650     0.3030 H     1 <1>   0.0800 
 24 H       -2.4920     3.3430     1.0690 H     1 <1>   0.0800 
 25 H       -2.3620     3.3740    -0.6900 H     1 <1>   0.0800 
 26 H       -7.6340     1.1720     2.3440 H     1 <1>   0.0800 
 27 H       -8.9220     2.1990     1.8080 H     1 <1>   0.0800 
 28 H       -7.3660     2.8960     2.1770 H     1 <1>   0.0800 
 29 H       -8.9430     3.1600    -0.5050 H     1 <1>   0.0800 
 30 H       -7.5640     2.9540    -1.5490 H     1 <1>   0.0800 
 31 H       -7.4430     3.9590    -0.1190 H     1 <1>   0.0800 
 32 H       -9.1070     0.6650    -0.3740 H     1 <1>   0.0800 
 33 H       -7.8090    -0.2900     0.2640 H     1 <1>   0.0800 
 34 H       -7.6630     0.4340    -1.3250 H     1 <1>   0.0800 
@<TRIPOS>BOND
  1   1   2  1   
  2   1   3  1   
  3   2   4  2   
  4   2   5  1   
  5   3   6  1   
  6   3   7  2   
  7   4   8  1   
  8   5   6  am  
  9   5   9  1   
 10   6  10  2   
 11   7  11  1   
 12   7  21  1   
 13   8  12  am  
 14   8  22  1   
 15   9  23  1   
 16   9  24  1   
 17   9  25  1   
 18  11  13  ar  
 19  11  14  ar  
 20  12  15  2   
 21  12  16  1   
 22  16  17  1   
 23  17  18  1   
 24  17  19  1   
 25  17  20  1   
 26  18  26  1   
 27  18  27  1   
 28  18  28  1   
 29  19  29  1   
 30  19  30  1   
 31  19  31  1   
 32  20  32  1   
 33  20  33  1   
 34  20  34  1   
@<TRIPOS>SUBSTRUCTURE
  1 ****   2 GROUP 4 **** **** 0

# MOE 2024.06 (io_trps.svl 2023.06)
