@<TRIPOS>MOLECULE
NONAME
37 40 1 0 0 
SMALL
USER_CHARGES


@<TRIPOS>ATOM
  1 N        0.1840     0.4170    -0.1430 N.2   1 <1>  -0.6290 
  2 C        0.5620     1.5670    -0.5950 C.2   1 <1>   0.5850 
  3 C       -1.1110     0.2850     0.3030 C.ar  1 <1>   0.1790 
  4 N        1.8730     1.6560    -1.0420 N.pl3 1 <1>  -0.7880 
  5 C       -0.2970     2.7180    -0.6050 C.2   1 <1>   0.1020 
  6 C       -2.0290     1.3480     0.3090 C.ar  1 <1>  -0.0230 
  7 C       -1.5200    -0.9640     0.7650 C.ar  1 <1>  -0.1500 
  8 C        2.7870     2.6570    -0.4130 C.3   1 <1>   0.2090 
  9 C        2.5580     0.4410    -1.5760 C.3   1 <1>   0.2090 
 10 N       -0.0440     3.9460    -0.9790 N.2   1 <1>  -0.3380 
 11 N       -1.5600     2.5920    -0.1640 N.pl3 1 <1>   0.3260 
 12 C       -3.3260     1.1220     0.7760 C.ar  1 <1>  -0.1500 
 13 C       -2.8010    -1.1710     1.2250 C.ar  1 <1>  -0.1500 
 14 C        3.6400     1.9830     0.6850 C.3   1 <1>   0.3430 
 15 C        3.3750    -0.2340    -0.4560 C.3   1 <1>   0.3430 
 16 N       -1.1440     4.6490    -0.7780 N.2   1 <1>  -0.3380 
 17 C       -2.0330     3.8450    -0.3000 C.2   1 <1>   0.0060 
 18 C       -3.7080    -0.1230     1.2290 C.ar  1 <1>  -0.1500 
 19 N        4.3310     0.7290     0.2050 N.4   1 <1>  -0.9060 
 20 C       -3.4290     4.3260     0.0500 C.3   1 <1>  -0.0600 
 21 H       -0.8150    -1.7750     0.7570 H     1 <1>   0.1500 
 22 H        2.2270     3.4600     0.0320 H     1 <1>   0.0800 
 23 H        3.4210     3.0870    -1.1690 H     1 <1>   0.0800 
 24 H        3.2020     0.7210    -2.3910 H     1 <1>   0.0800 
 25 H        1.8320    -0.2550    -1.9640 H     1 <1>   0.0800 
 26 H       -4.0560     1.9060     0.7920 H     1 <1>   0.1500 
 27 H       -3.1030    -2.1430     1.5790 H     1 <1>   0.1500 
 28 H        2.9840     1.7350     1.5040 H     1 <1>   0.0800 
 29 H        4.3670     2.6890     1.0510 H     1 <1>   0.0800 
 30 H        3.9150    -1.0720    -0.8650 H     1 <1>   0.0800 
 31 H        2.6790    -0.6140     0.2750 H     1 <1>   0.0800 
 32 H       -4.7100    -0.2890     1.5880 H     1 <1>   0.1500 
 33 H        4.7920     0.2650     0.9980 H     1 <1>   0.4500 
 34 H        5.0630     0.9870    -0.4670 H     1 <1>   0.4500 
 35 H       -3.6250     4.1740     1.0960 H     1 <1>   0.0800 
 36 H       -4.1610     3.8070    -0.5410 H     1 <1>   0.0800 
 37 H       -3.5140     5.3780    -0.1590 H     1 <1>   0.0800 
@<TRIPOS>BOND
  1   1   2  2   
  2   1   3  1   
  3   2   4  1   
  4   2   5  1   
  5   3   6  ar  
  6   3   7  ar  
  7   4   8  1   
  8   4   9  1   
  9   5  10  2   
 10   5  11  1   
 11   6  11  1   
 12   6  12  ar  
 13   7  13  ar  
 14   7  21  1   
 15   8  14  1   
 16   8  22  1   
 17   8  23  1   
 18   9  15  1   
 19   9  24  1   
 20   9  25  1   
 21  10  16  1   
 22  11  17  1   
 23  12  18  ar  
 24  12  26  1   
 25  13  18  ar  
 26  13  27  1   
 27  14  19  1   
 28  14  28  1   
 29  14  29  1   
 30  15  19  1   
 31  15  30  1   
 32  15  31  1   
 33  16  17  2   
 34  17  20  1   
 35  18  32  1   
 36  19  33  1   
 37  19  34  1   
 38  20  35  1   
 39  20  36  1   
 40  20  37  1   
@<TRIPOS>SUBSTRUCTURE
  1 ****   2 GROUP 4 **** **** 0

# MOE 2024.06 (io_trps.svl 2023.06)
