@<TRIPOS>MOLECULE
NONAME
36 38 1 0 0 
SMALL
USER_CHARGES


@<TRIPOS>ATOM
  1 O      -10.7050    -0.5730     0.2460 O.3   1 <1>  -0.3630 
  2 C       -9.6820     0.3130     0.1400 C.ar  1 <1>   0.0830 
  3 C      -11.9310    -0.3810    -0.4270 C.3   1 <1>   0.0400 
  4 C       -9.8360     1.7200     0.0080 C.ar  1 <1>   0.0830 
  5 C       -8.4280    -0.2310     0.1790 C.ar  1 <1>  -0.1500 
  6 O      -11.0760     2.2580     0.0160 O.3   1 <1>  -0.3630 
  7 C       -8.7050     2.5010    -0.1060 C.ar  1 <1>  -0.1500 
  8 C       -7.2610     0.5540     0.0700 C.ar  1 <1>   0.0000 
  9 C      -11.3330     3.6440    -0.0310 C.3   1 <1>   0.0400 
 10 C       -7.4140     1.9520    -0.0800 C.ar  1 <1>   0.0000 
 11 C       -5.9550     0.0430     0.1000 C.ar  1 <1>   0.2180 
 12 C       -6.2440     2.7370    -0.1900 C.ar  1 <1>  -0.1500 
 13 N       -4.8860     0.8160    -0.0070 N.ar  1 <1>  -0.2100 
 14 C       -5.5820    -1.4140     0.2560 C.3   1 <1>  -0.0160 
 15 C       -4.9980     2.1770    -0.1530 C.ar  1 <1>   0.2180 
 16 C       -3.6250     0.0480     0.0570 C.3   1 <1>   0.3280 
 17 C       -4.0660    -1.4220     0.0200 C.3   1 <1>  -0.1600 
 18 C       -3.7420     3.0290    -0.2680 C.3   1 <1>  -0.0970 
 19 H      -12.5460     0.2820     0.1550 H     1 <1>   0.0800 
 20 H      -11.7390     0.0310    -1.4010 H     1 <1>   0.0800 
 21 H      -12.4160    -1.3360    -0.5190 H     1 <1>   0.0800 
 22 H       -8.3430    -1.2960     0.2940 H     1 <1>   0.1500 
 23 H       -8.7830     3.5660    -0.2140 H     1 <1>   0.1500 
 24 H      -12.3970     3.7880     0.0200 H     1 <1>   0.0800 
 25 H      -10.8610     4.1160     0.8130 H     1 <1>   0.0800 
 26 H      -10.9550     4.0400    -0.9570 H     1 <1>   0.0800 
 27 H       -6.3660     3.8000    -0.3030 H     1 <1>   0.1500 
 28 H       -6.0940    -2.0310    -0.4640 H     1 <1>   0.0800 
 29 H       -5.8200    -1.7460     1.2530 H     1 <1>   0.0800 
 30 H       -3.1150     0.2710     0.9780 H     1 <1>   0.0800 
 31 H       -2.9910     0.2820    -0.7820 H     1 <1>   0.0800 
 32 H       -3.8480    -1.8340    -0.9500 H     1 <1>   0.0800 
 33 H       -3.5480    -2.0060     0.7620 H     1 <1>   0.0800 
 34 H       -3.9980     4.0690    -0.3610 H     1 <1>   0.0800 
 35 H       -3.1760     2.7480    -1.1380 H     1 <1>   0.0800 
 36 H       -3.1280     2.9150     0.6080 H     1 <1>   0.0800 
@<TRIPOS>BOND
  1   1   2  1   
  2   1   3  1   
  3   2   4  ar  
  4   2   5  ar  
  5   3  19  1   
  6   3  20  1   
  7   3  21  1   
  8   4   6  1   
  9   4   7  ar  
 10   5   8  ar  
 11   5  22  1   
 12   6   9  1   
 13   7  10  ar  
 14   7  23  1   
 15   8  10  ar  
 16   8  11  ar  
 17   9  24  1   
 18   9  25  1   
 19   9  26  1   
 20  10  12  ar  
 21  11  13  ar  
 22  11  14  1   
 23  12  15  ar  
 24  12  27  1   
 25  13  15  ar  
 26  13  16  1   
 27  14  17  1   
 28  14  28  1   
 29  14  29  1   
 30  15  18  1   
 31  16  17  1   
 32  16  30  1   
 33  16  31  1   
 34  17  32  1   
 35  17  33  1   
 36  18  34  1   
 37  18  35  1   
 38  18  36  1   
@<TRIPOS>SUBSTRUCTURE
  1 ****   8 GROUP 4 **** **** 0

# MOE 2024.06 (io_trps.svl 2023.06)
