@<TRIPOS>MOLECULE
NONAME
51 54 1 0 0 
SMALL
USER_CHARGES


@<TRIPOS>ATOM
  1 O        1.4540    -0.1910    -2.3710 O.2   1 <1>  -0.5700 
  2 C        0.9860    -0.9280    -1.5360 C.2   1 <1>   0.4950 
  3 C        1.7340    -1.5530    -0.4960 C.2   1 <1>  -0.1240 
  4 C       -0.4940    -1.2580    -1.6570 C.3   1 <1>  -0.0990 
  5 C        1.2190    -2.4930     0.3330 C.2   1 <1>  -0.0380 
  6 C        3.1940    -1.1230    -0.3380 C.3   1 <1>   0.3400 
  7 C       -1.0960    -1.7690    -0.3360 C.3   1 <1>  -0.1600 
  8 N        2.0000    -3.1520     1.2490 N.pl3 1 <1>  -0.6000 
  9 C       -0.2470    -2.8930     0.2750 C.3   1 <1>  -0.0220 
 10 C        4.0150    -2.0410     0.5850 C.2   1 <1>  -0.1240 
 11 C        3.2260     0.3050     0.2180 C.ar  1 <1>  -0.1430 
 12 C        3.3660    -2.9880     1.3220 C.2   1 <1>  -0.0380 
 13 C        5.4190    -1.7430     0.5900 C.2   1 <1>   0.7060 
 14 C        2.9400     0.5490     1.5550 C.ar  1 <1>  -0.1500 
 15 C        3.5340     1.3760    -0.6070 C.ar  1 <1>  -0.1500 
 16 C        4.0240    -3.9660     2.2850 C.3   1 <1>  -0.1020 
 17 O        6.1660    -2.0080     1.5150 O.2   1 <1>  -0.5700 
 18 O        5.9430    -1.1450    -0.4870 O.3   1 <1>  -0.4300 
 19 C        2.9740     1.8370     2.0600 C.ar  1 <1>  -0.1500 
 20 C        3.5660     2.6660    -0.1060 C.ar  1 <1>  -0.1500 
 21 C        7.3000    -0.7590    -0.5560 C.3   1 <1>   0.2000 
 22 C        3.2890     2.8970     1.2290 C.ar  1 <1>  -0.1500 
 23 C        7.4580     0.6210     0.0840 C.3   1 <1>  -0.1600 
 24 C        7.6430    -0.5320    -2.0220 C.3   1 <1>  -0.1600 
 25 C        7.2220     1.6510    -1.0290 C.3   1 <1>  -0.1600 
 26 C        7.1010     0.8620    -2.3370 C.3   1 <1>  -0.1600 
 27 H       -0.6070    -2.0060    -2.4210 H     1 <1>   0.0800 
 28 H       -1.0210    -0.3770    -1.9750 H     1 <1>   0.0800 
 29 H        3.6350    -1.1420    -1.3200 H     1 <1>   0.0800 
 30 H       -2.1030    -2.1120    -0.4970 H     1 <1>   0.0800 
 31 H       -1.1340    -0.9500     0.3630 H     1 <1>   0.0800 
 32 H        1.5630    -3.8520     1.8600 H     1 <1>   0.4000 
 33 H       -0.6090    -3.1000     1.2670 H     1 <1>   0.0800 
 34 H       -0.3420    -3.7900    -0.3120 H     1 <1>   0.0800 
 35 H        2.6880    -0.2680     2.2110 H     1 <1>   0.1500 
 36 H        3.7440     1.2110    -1.6500 H     1 <1>   0.1500 
 37 H        3.9130    -3.6120     3.2940 H     1 <1>   0.0800 
 38 H        5.0690    -4.0950     2.0790 H     1 <1>   0.0800 
 39 H        3.5650    -4.9340     2.2030 H     1 <1>   0.0800 
 40 H        2.7560     2.0130     3.0980 H     1 <1>   0.1500 
 41 H        3.8040     3.4880    -0.7580 H     1 <1>   0.1500 
 42 H        7.9170    -1.5180    -0.1020 H     1 <1>   0.0800 
 43 H        3.3150     3.8990     1.6190 H     1 <1>   0.1500 
 44 H        8.4670     0.7200     0.4420 H     1 <1>   0.0800 
 45 H        6.7860     0.7580     0.9140 H     1 <1>   0.0800 
 46 H        7.2270    -1.2940    -2.6590 H     1 <1>   0.0800 
 47 H        8.7130    -0.5280    -2.1320 H     1 <1>   0.0800 
 48 H        8.0510     2.3350    -1.0780 H     1 <1>   0.0800 
 49 H        6.3220     2.2110    -0.8450 H     1 <1>   0.0800 
 50 H        6.0620     0.7820    -2.6080 H     1 <1>   0.0800 
 51 H        7.6380     1.3290    -3.1440 H     1 <1>   0.0800 
@<TRIPOS>BOND
  1   1   2  2   
  2   2   3  1   
  3   2   4  1   
  4   3   5  2   
  5   3   6  1   
  6   4   7  1   
  7   4  27  1   
  8   4  28  1   
  9   5   8  1   
 10   5   9  1   
 11   6  10  1   
 12   6  11  1   
 13   6  29  1   
 14   7   9  1   
 15   7  30  1   
 16   7  31  1   
 17   8  12  1   
 18   8  32  1   
 19   9  33  1   
 20   9  34  1   
 21  10  12  2   
 22  10  13  1   
 23  11  14  ar  
 24  11  15  ar  
 25  12  16  1   
 26  13  17  2   
 27  13  18  1   
 28  14  19  ar  
 29  14  35  1   
 30  15  20  ar  
 31  15  36  1   
 32  16  37  1   
 33  16  38  1   
 34  16  39  1   
 35  18  21  1   
 36  19  22  ar  
 37  19  40  1   
 38  20  22  ar  
 39  20  41  1   
 40  21  23  1   
 41  21  24  1   
 42  21  42  1   
 43  22  43  1   
 44  23  25  1   
 45  23  44  1   
 46  23  45  1   
 47  24  26  1   
 48  24  46  1   
 49  24  47  1   
 50  25  26  1   
 51  25  48  1   
 52  25  49  1   
 53  26  50  1   
 54  26  51  1   
@<TRIPOS>SUBSTRUCTURE
  1 ****   6 GROUP 4 **** **** 0

# MOE 2024.06 (io_trps.svl 2023.06)
