@<TRIPOS>MOLECULE
ka-07877
44 45 1 0 0 
SMALL
USER_CHARGES


@<TRIPOS>ATOM
  1 O       -1.3160    -1.4670    -2.2760 O.3   1 <1>  -0.5320 
  2 C       -2.1720    -1.4640    -1.2430 C.ar  1 <1>   0.0820 
  3 C       -1.9120    -2.2800    -0.1590 C.ar  1 <1>  -0.1500 
  4 C       -3.2970    -0.6540    -1.2630 C.ar  1 <1>  -0.1500 
  5 C       -2.7820    -2.2790     0.9130 C.ar  1 <1>   0.0820 
  6 C       -4.1790    -0.6570    -0.1890 C.ar  1 <1>  -0.1440 
  7 O       -2.5160    -3.0670     1.9660 O.3   1 <1>  -0.5320 
  8 C       -3.9120    -1.4750     0.9050 C.ar  1 <1>  -0.1500 
  9 C       -5.4230     0.2160    -0.2330 C.3   1 <1>   0.3430 
 10 O       -5.5570     0.8680     0.9910 O.3   1 <1>  -0.6800 
 11 C       -6.6910    -0.6300    -0.4880 C.3   1 <1>   0.3430 
 12 N       -7.9070     0.0190     0.1030 N.4   1 <1>  -0.9060 
 13 C       -9.0110    -0.9010     0.4410 C.3   1 <1>   0.4230 
 14 C       -9.6840    -1.4520    -0.8280 C.3   1 <1>  -0.0170 
 15 C       -9.9830    -0.1200     1.3210 C.3   1 <1>  -0.2400 
 16 C      -10.6930    -2.5300    -0.4700 C.ar  1 <1>  -0.1440 
 17 C      -10.2520    -3.7950    -0.1040 C.ar  1 <1>  -0.1500 
 18 C      -12.0550    -2.2620    -0.5000 C.ar  1 <1>  -0.1500 
 19 C      -11.1630    -4.7770     0.2400 C.ar  1 <1>  -0.1500 
 20 C      -12.9690    -3.2440    -0.1580 C.ar  1 <1>  -0.1500 
 21 C      -12.5170    -4.4980     0.2140 C.ar  1 <1>   0.0820 
 22 O      -13.3870    -5.4600     0.5520 O.3   1 <1>  -0.5320 
 23 H       -1.5280    -0.8320    -2.9810 H     1 <1>   0.4500 
 24 H       -1.0390    -2.9070    -0.1490 H     1 <1>   0.1500 
 25 H       -3.4720    -0.0280    -2.1200 H     1 <1>   0.1500 
 26 H       -3.1240    -2.9570     2.7180 H     1 <1>   0.4500 
 27 H       -4.5710    -1.4910     1.7540 H     1 <1>   0.1500 
 28 H       -5.3220     0.9720    -0.9940 H     1 <1>   0.0800 
 29 H       -4.6820     1.2310     1.2540 H     1 <1>   0.4000 
 30 H       -6.5380    -1.5890    -0.0210 H     1 <1>   0.0800 
 31 H       -6.8150    -0.7980    -1.5450 H     1 <1>   0.0800 
 32 H       -8.2440     0.7930    -0.4780 H     1 <1>   0.4500 
 33 H       -7.5590     0.4640     0.9720 H     1 <1>   0.4500 
 34 H       -8.6220    -1.7300     1.0120 H     1 <1>   0.0800 
 35 H       -8.9530    -1.8930    -1.4800 H     1 <1>   0.0800 
 36 H      -10.1760    -0.6590    -1.3630 H     1 <1>   0.0800 
 37 H      -10.4290     0.6970     0.7830 H     1 <1>   0.0800 
 38 H       -9.4870     0.2550     2.1990 H     1 <1>   0.0800 
 39 H      -10.7740    -0.7690     1.6540 H     1 <1>   0.0800 
 40 H       -9.2040    -4.0350    -0.0850 H     1 <1>   0.1500 
 41 H      -12.4190    -1.2910    -0.7890 H     1 <1>   0.1500 
 42 H      -10.8350    -5.7610     0.5260 H     1 <1>   0.1500 
 43 H      -14.0220    -3.0300    -0.1830 H     1 <1>   0.1500 
 44 H      -14.3170    -5.1810     0.4870 H     1 <1>   0.4500 
@<TRIPOS>BOND
  1   1   2  1   
  2   1  23  1   
  3   2   3  ar  
  4   2   4  ar  
  5   3   5  ar  
  6   3  24  1   
  7   4   6  ar  
  8   4  25  1   
  9   5   7  1   
 10   5   8  ar  
 11   6   8  ar  
 12   6   9  1   
 13   7  26  1   
 14   8  27  1   
 15   9  10  1   
 16   9  11  1   
 17   9  28  1   
 18  10  29  1   
 19  11  12  1   
 20  11  30  1   
 21  11  31  1   
 22  12  13  1   
 23  12  32  1   
 24  12  33  1   
 25  13  14  1   
 26  13  15  1   
 27  13  34  1   
 28  14  16  1   
 29  14  35  1   
 30  14  36  1   
 31  15  37  1   
 32  15  38  1   
 33  15  39  1   
 34  16  17  ar  
 35  16  18  ar  
 36  17  19  ar  
 37  17  40  1   
 38  18  20  ar  
 39  18  41  1   
 40  19  21  ar  
 41  19  42  1   
 42  20  21  ar  
 43  20  43  1   
 44  21  22  1   
 45  22  44  1   
@<TRIPOS>SUBSTRUCTURE
  1 ****  11 GROUP 4 **** **** 0

# MOE 2024.06 (io_trps.svl 2023.06)
