@<TRIPOS>MOLECULE
NONAME
51 53 1 0 0 
SMALL
USER_CHARGES


@<TRIPOS>ATOM
  1 O      -10.4860     3.1410     0.8400 O.2   1 <1>  -0.5700 
  2 C      -11.4440     2.7830     0.1770 C.2   1 <1>   0.5440 
  3 N      -11.4650     3.2110    -1.1210 N.am  1 <1>  -0.7300 
  4 C      -12.4720     1.9150     0.7420 C.ar  1 <1>   0.0860 
  5 C      -10.7350     4.3810    -1.6930 C.3   1 <1>   0.1400 
  6 C      -13.6700     1.5630     0.0840 C.ar  1 <1>   0.0820 
  7 C      -12.2730     1.3870     2.0230 C.ar  1 <1>  -0.1500 
  8 C       -9.3160     4.0050    -2.1650 C.3   1 <1>   0.3430 
  9 O      -13.9160     2.0590    -1.1590 O.3   1 <1>  -0.3630 
 10 C      -14.5900     0.7180     0.7050 C.ar  1 <1>  -0.1500 
 11 C      -13.1910     0.5540     2.6300 C.ar  1 <1>  -0.1500 
 12 N       -8.5060     3.4670    -1.0370 N.4   1 <1>  -0.9590 
 13 C      -15.1300     1.8370    -1.8500 C.3   1 <1>   0.0400 
 14 C      -14.3540     0.2160     1.9680 C.ar  1 <1>  -0.1500 
 15 C       -7.8860     4.5430    -0.1850 C.3   1 <1>   0.3430 
 16 C       -7.4990     2.4330    -1.4570 C.3   1 <1>   0.3430 
 17 C       -7.1430     3.9630     1.0360 C.3   1 <1>   0.2090 
 18 C       -6.7110     1.8450    -0.2640 C.3   1 <1>   0.2090 
 19 N       -6.1600     2.9180     0.6190 N.pl3 1 <1>  -0.8380 
 20 C       -4.8090     3.2610     0.5800 C.ar  1 <1>   0.1000 
 21 C       -4.0960     3.3380    -0.6130 C.ar  1 <1>  -0.1500 
 22 C       -4.1450     3.5490     1.7660 C.ar  1 <1>  -0.1500 
 23 C       -2.7600     3.6970    -0.6180 C.ar  1 <1>  -0.1500 
 24 C       -2.8100     3.9100     1.7660 C.ar  1 <1>  -0.1500 
 25 C       -2.1140     3.9850     0.5720 C.ar  1 <1>  -0.1500 
 26 H      -12.3160     2.9320    -1.6340 H     1 <1>   0.3700 
 27 H      -10.6790     5.1630    -0.9550 H     1 <1>   0.0800 
 28 H      -11.2950     4.7620    -2.5300 H     1 <1>   0.0800 
 29 H      -11.3770     1.6350     2.5650 H     1 <1>   0.1500 
 30 H       -8.8290     4.8660    -2.5910 H     1 <1>   0.0800 
 31 H       -9.4090     3.2580    -2.9360 H     1 <1>   0.0800 
 32 H      -15.5070     0.4320     0.2240 H     1 <1>   0.1500 
 33 H      -13.0030     0.1670     3.6180 H     1 <1>   0.1500 
 34 H       -9.1970     3.0080    -0.4020 H     1 <1>   0.4500 
 35 H      -15.0900     2.3700    -2.7830 H     1 <1>   0.0800 
 36 H      -15.9460     2.2090    -1.2550 H     1 <1>   0.0800 
 37 H      -15.2400     0.7830    -2.0380 H     1 <1>   0.0800 
 38 H      -15.0710    -0.4350     2.4380 H     1 <1>   0.1500 
 39 H       -8.6510     5.2140     0.1670 H     1 <1>   0.0800 
 40 H       -7.1820     5.1100    -0.7700 H     1 <1>   0.0800 
 41 H       -6.7930     2.8780    -2.1370 H     1 <1>   0.0800 
 42 H       -7.9950     1.6290    -1.9740 H     1 <1>   0.0800 
 43 H       -7.8540     3.5320     1.7200 H     1 <1>   0.0800 
 44 H       -6.6330     4.7600     1.5500 H     1 <1>   0.0800 
 45 H       -5.9080     1.2270    -0.6270 H     1 <1>   0.0800 
 46 H       -7.3620     1.2170     0.3200 H     1 <1>   0.0800 
 47 H       -4.5780     3.1220    -1.5440 H     1 <1>   0.1500 
 48 H       -4.6810     3.4810     2.6940 H     1 <1>   0.1500 
 49 H       -2.2170     3.7530    -1.5460 H     1 <1>   0.1500 
 50 H       -2.3110     4.1290     2.6940 H     1 <1>   0.1500 
 51 H       -1.0750     4.2640     0.5700 H     1 <1>   0.1500 
@<TRIPOS>BOND
  1   1   2  2   
  2   2   3  am  
  3   2   4  1   
  4   3   5  1   
  5   3  26  1   
  6   4   6  ar  
  7   4   7  ar  
  8   5   8  1   
  9   5  27  1   
 10   5  28  1   
 11   6   9  1   
 12   6  10  ar  
 13   7  11  ar  
 14   7  29  1   
 15   8  12  1   
 16   8  30  1   
 17   8  31  1   
 18   9  13  1   
 19  10  14  ar  
 20  10  32  1   
 21  11  14  ar  
 22  11  33  1   
 23  12  15  1   
 24  12  16  1   
 25  12  34  1   
 26  13  35  1   
 27  13  36  1   
 28  13  37  1   
 29  14  38  1   
 30  15  17  1   
 31  15  39  1   
 32  15  40  1   
 33  16  18  1   
 34  16  41  1   
 35  16  42  1   
 36  17  19  1   
 37  17  43  1   
 38  17  44  1   
 39  18  19  1   
 40  18  45  1   
 41  18  46  1   
 42  19  20  1   
 43  20  21  ar  
 44  20  22  ar  
 45  21  23  ar  
 46  21  47  1   
 47  22  24  ar  
 48  22  48  1   
 49  23  25  ar  
 50  23  49  1   
 51  24  25  ar  
 52  24  50  1   
 53  25  51  1   
@<TRIPOS>SUBSTRUCTURE
  1 ****  12 GROUP 4 **** **** 0

# MOE 2024.06 (io_trps.svl 2023.06)
