@<TRIPOS>MOLECULE
NONAME
41 42 1 0 0 
SMALL
USER_CHARGES


@<TRIPOS>ATOM
  1 O       -2.4110     1.1840     1.6440 O.2   1 <1>  -0.5700 
  2 C       -1.7440     1.4400     0.6740 C.2   1 <1>   0.6590 
  3 O       -1.0560     0.4970     0.0340 O.3   1 <1>  -0.4300 
  4 C       -1.6240     2.8280     0.0830 C.3   1 <1>   0.0420 
  5 C       -1.0650    -0.8470     0.4740 C.3   1 <1>   0.0400 
  6 C       -0.2750     3.3550     0.5350 C.2   1 <1>   0.5690 
  7 C       -2.8240     3.7570     0.4030 C.3   1 <1>  -0.0800 
  8 O       -0.2130     4.1800     1.4140 O.2   1 <1>  -0.5700 
  9 N        0.8350     2.8450    -0.0870 N.am  1 <1>  -0.5470 
 10 C       -4.1680     3.2240    -0.0990 C.3   1 <1>  -0.1600 
 11 C       -2.7290     5.1350    -0.2570 C.3   1 <1>  -0.1600 
 12 C        2.2000     3.1360     0.0680 C.ar  1 <1>   0.1170 
 13 C       -5.0820     4.4480    -0.1650 C.3   1 <1>  -0.1600 
 14 C       -4.1620     5.6680    -0.2850 C.3   1 <1>  -0.1600 
 15 C        3.1500     2.1560    -0.2330 C.ar  1 <1>  -0.1430 
 16 C        2.6390     4.3870     0.4920 C.ar  1 <1>  -0.1500 
 17 C        4.5000     2.4420    -0.1050 C.ar  1 <1>  -0.1500 
 18 C        2.7330     0.7650    -0.6950 C.3   1 <1>  -0.0970 
 19 C        3.9870     4.6630     0.6200 C.ar  1 <1>  -0.1500 
 20 C        4.9200     3.6900     0.3200 C.ar  1 <1>  -0.1500 
 21 H       -1.5850     2.7160    -0.9830 H     1 <1>   0.0800 
 22 H       -0.6730    -0.8880     1.4760 H     1 <1>   0.0800 
 23 H       -0.4520    -1.4310    -0.1890 H     1 <1>   0.0800 
 24 H       -2.0780    -1.2120     0.4600 H     1 <1>   0.0800 
 25 H       -2.8920     3.8960     1.4710 H     1 <1>   0.0800 
 26 H        0.6630     2.0350    -0.6800 H     1 <1>   0.3700 
 27 H       -4.5700     2.4660     0.5520 H     1 <1>   0.0800 
 28 H       -4.0580     2.8150    -1.0890 H     1 <1>   0.0800 
 29 H       -2.3710     5.0380    -1.2670 H     1 <1>   0.0800 
 30 H       -2.0730     5.7950     0.2850 H     1 <1>   0.0800 
 31 H       -5.6550     4.5200     0.7440 H     1 <1>   0.0800 
 32 H       -5.7600     4.3790    -0.9980 H     1 <1>   0.0800 
 33 H       -4.3500     6.2150    -1.1920 H     1 <1>   0.0800 
 34 H       -4.3240     6.3220     0.5550 H     1 <1>   0.0800 
 35 H        1.9240     5.1550     0.7240 H     1 <1>   0.1500 
 36 H        5.2390     1.6940    -0.3340 H     1 <1>   0.1500 
 37 H        2.0660     0.3220     0.0230 H     1 <1>   0.0800 
 38 H        3.5880     0.1210    -0.7970 H     1 <1>   0.0800 
 39 H        2.2410     0.8240    -1.6490 H     1 <1>   0.0800 
 40 H        4.3070     5.6350     0.9520 H     1 <1>   0.1500 
 41 H        5.9710     3.9020     0.4170 H     1 <1>   0.1500 
@<TRIPOS>BOND
  1   1   2  2   
  2   2   3  1   
  3   2   4  1   
  4   3   5  1   
  5   4   6  1   
  6   4   7  1   
  7   4  21  1   
  8   5  22  1   
  9   5  23  1   
 10   5  24  1   
 11   6   8  2   
 12   6   9  am  
 13   7  10  1   
 14   7  11  1   
 15   7  25  1   
 16   9  12  1   
 17   9  26  1   
 18  10  13  1   
 19  10  27  1   
 20  10  28  1   
 21  11  14  1   
 22  11  29  1   
 23  11  30  1   
 24  12  15  ar  
 25  12  16  ar  
 26  13  14  1   
 27  13  31  1   
 28  13  32  1   
 29  14  33  1   
 30  14  34  1   
 31  15  17  ar  
 32  15  18  1   
 33  16  19  ar  
 34  16  35  1   
 35  17  20  ar  
 36  17  36  1   
 37  18  37  1   
 38  18  38  1   
 39  18  39  1   
 40  19  20  ar  
 41  19  40  1   
 42  20  41  1   
@<TRIPOS>SUBSTRUCTURE
  1 ****   6 GROUP 4 **** **** 0

# MOE 2024.06 (io_trps.svl 2023.06)
