@<TRIPOS>MOLECULE
NONAME
36 37 1 0 0 
SMALL
USER_CHARGES


@<TRIPOS>ATOM
  1 O       -2.0160     0.7820    -1.3590 O.2   1 <1>  -0.5700 
  2 C       -2.6230    -0.1710    -0.9100 C.2   1 <1>   0.7060 
  3 O       -3.9420    -0.1960    -1.1010 O.3   1 <1>  -0.2330 
  4 C       -2.0030    -1.2620    -0.2010 C.2   1 <1>  -0.1240 
  5 C       -4.7300    -1.1950    -0.6590 C.ar  1 <1>   0.0820 
  6 C       -2.7510    -2.3130     0.2360 C.2   1 <1>  -0.1670 
  7 C       -0.4880    -1.1500     0.0040 C.3   1 <1>  -0.1020 
  8 C       -4.1770    -2.2860     0.0270 C.ar  1 <1>   0.0280 
  9 C       -6.0910    -1.0980    -0.9040 C.ar  1 <1>  -0.1500 
 10 C       -2.1680    -3.5450     0.9330 C.3   1 <1>  -0.1020 
 11 C       -5.0670    -3.2740     0.4650 C.ar  1 <1>  -0.1500 
 12 C       -6.9490    -2.0950    -0.4630 C.ar  1 <1>   0.0830 
 13 C       -6.4220    -3.1790     0.2230 C.ar  1 <1>  -0.1500 
 14 O       -8.2890    -2.0940    -0.6510 O.3   1 <1>  -0.3630 
 15 C       -8.9880    -0.9920    -1.2120 C.3   1 <1>   0.2610 
 16 C       -8.9590     0.2260    -0.2780 C.2   1 <1>   0.6590 
 17 C      -10.4120    -1.4730    -1.5130 C.3   1 <1>  -0.2400 
 18 O       -8.5400     1.2920    -0.6560 O.2   1 <1>  -0.5700 
 19 O       -9.4250     0.0570     0.9580 O.3   1 <1>  -0.4300 
 20 C       -9.4190     1.1050     1.9050 C.3   1 <1>   0.0400 
 21 H       -0.1970    -0.1200     0.1190 H     1 <1>   0.0800 
 22 H        0.0260    -1.5520    -0.8500 H     1 <1>   0.0800 
 23 H       -0.1600    -1.6590     0.8890 H     1 <1>   0.0800 
 24 H       -6.4430    -0.2350    -1.4370 H     1 <1>   0.1500 
 25 H       -2.5120    -4.4380     0.4420 H     1 <1>   0.0800 
 26 H       -2.4850    -3.5680     1.9610 H     1 <1>   0.0800 
 27 H       -1.0970    -3.5770     0.9080 H     1 <1>   0.0800 
 28 H       -4.7090    -4.1300     1.0050 H     1 <1>   0.1500 
 29 H       -7.0920    -3.9480     0.5650 H     1 <1>   0.1500 
 30 H       -8.5070    -0.7350    -2.1380 H     1 <1>   0.0800 
 31 H      -10.9050    -1.7680    -0.6030 H     1 <1>   0.0800 
 32 H      -10.3840    -2.3050    -2.1920 H     1 <1>   0.0800 
 33 H      -10.9770    -0.6780    -1.9670 H     1 <1>   0.0800 
 34 H       -9.8390     0.7360     2.8240 H     1 <1>   0.0800 
 35 H      -10.0100     1.9210     1.5260 H     1 <1>   0.0800 
 36 H       -8.4030     1.4230     2.0620 H     1 <1>   0.0800 
@<TRIPOS>BOND
  1   1   2  2   
  2   2   3  1   
  3   2   4  1   
  4   3   5  1   
  5   4   6  2   
  6   4   7  1   
  7   5   8  ar  
  8   5   9  ar  
  9   6   8  1   
 10   6  10  1   
 11   7  21  1   
 12   7  22  1   
 13   7  23  1   
 14   8  11  ar  
 15   9  12  ar  
 16   9  24  1   
 17  10  25  1   
 18  10  26  1   
 19  10  27  1   
 20  11  13  ar  
 21  11  28  1   
 22  12  13  ar  
 23  12  14  1   
 24  13  29  1   
 25  14  15  1   
 26  15  16  1   
 27  15  17  1   
 28  15  30  1   
 29  16  18  2   
 30  16  19  1   
 31  17  31  1   
 32  17  32  1   
 33  17  33  1   
 34  19  20  1   
 35  20  34  1   
 36  20  35  1   
 37  20  36  1   
@<TRIPOS>SUBSTRUCTURE
  1 ****   9 GROUP 4 **** **** 0

# MOE 2024.06 (io_trps.svl 2023.06)
