@<TRIPOS>MOLECULE
NONAME
36 36 1 0 0 
SMALL
USER_CHARGES


@<TRIPOS>ATOM
  1 S       -0.5650     0.9680     1.3430 S.3   1 <1>  -0.2660 
  2 C       -1.1420    -0.7190     1.0780 C.1   1 <1>   0.5930 
  3 C       -0.8740     1.7470    -0.3140 C.3   1 <1>   0.2110 
  4 N       -1.4780    -1.7860     0.8730 N.1   1 <1>  -0.5570 
  5 C        0.3000     2.6480    -0.6710 C.2   1 <1>   0.6590 
  6 C       -2.2100     2.5030    -0.2770 C.3   1 <1>  -0.0160 
  7 O        0.9840     2.4220    -1.6360 O.2   1 <1>  -0.5700 
  8 O        0.5170     3.6920     0.1240 O.3   1 <1>  -0.4300 
  9 C       -3.3760     1.5690     0.0110 C.ar  1 <1>  -0.1440 
 10 C        1.5950     4.5840    -0.0590 C.3   1 <1>   0.1200 
 11 C       -3.8090     0.6690    -0.9520 C.ar  1 <1>  -0.1500 
 12 C       -4.0110     1.6010     1.2430 C.ar  1 <1>  -0.1500 
 13 C        2.8280     4.0120     0.6370 C.3   1 <1>  -0.2400 
 14 C       -4.8550    -0.1970    -0.6850 C.ar  1 <1>  -0.1500 
 15 C       -5.0590     0.7390     1.5110 C.ar  1 <1>  -0.1500 
 16 C       -5.4860    -0.1670     0.5550 C.ar  1 <1>   0.0830 
 17 O       -6.5140    -0.9820     0.9010 O.3   1 <1>  -0.3630 
 18 C       -6.9140    -2.0450     0.0690 C.3   1 <1>   0.1200 
 19 C       -8.0170    -2.8160     0.7860 C.3   1 <1>  -0.2400 
 20 H       -0.9190     0.9450    -1.0260 H     1 <1>   0.0800 
 21 H       -2.3730     2.9770    -1.2290 H     1 <1>   0.0800 
 22 H       -2.1650     3.2790     0.4660 H     1 <1>   0.0800 
 23 H        1.3180     5.5260     0.3820 H     1 <1>   0.0800 
 24 H        1.7670     4.7260    -1.1130 H     1 <1>   0.0800 
 25 H       -3.3340     0.6330    -1.9170 H     1 <1>   0.1500 
 26 H       -3.6930     2.2920     2.0050 H     1 <1>   0.1500 
 27 H        2.6300     3.8610     1.6830 H     1 <1>   0.0800 
 28 H        3.6490     4.7000     0.5400 H     1 <1>   0.0800 
 29 H        3.1150     3.0800     0.1840 H     1 <1>   0.0800 
 30 H       -5.1630    -0.8830    -1.4500 H     1 <1>   0.1500 
 31 H       -5.5520     0.7600     2.4650 H     1 <1>   0.1500 
 32 H       -6.0600    -2.6770    -0.1090 H     1 <1>   0.0800 
 33 H       -7.2770    -1.6350    -0.8580 H     1 <1>   0.0800 
 34 H       -7.6470    -3.2070     1.7170 H     1 <1>   0.0800 
 35 H       -8.3440    -3.6370     0.1750 H     1 <1>   0.0800 
 36 H       -8.8550    -2.1710     0.9750 H     1 <1>   0.0800 
@<TRIPOS>BOND
  1   1   2  1   
  2   1   3  1   
  3   2   4  3   
  4   3   5  1   
  5   3   6  1   
  6   3  20  1   
  7   5   7  2   
  8   5   8  1   
  9   6   9  1   
 10   6  21  1   
 11   6  22  1   
 12   8  10  1   
 13   9  11  ar  
 14   9  12  ar  
 15  10  13  1   
 16  10  23  1   
 17  10  24  1   
 18  11  14  ar  
 19  11  25  1   
 20  12  15  ar  
 21  12  26  1   
 22  13  27  1   
 23  13  28  1   
 24  13  29  1   
 25  14  16  ar  
 26  14  30  1   
 27  15  16  ar  
 28  15  31  1   
 29  16  17  1   
 30  17  18  1   
 31  18  19  1   
 32  18  32  1   
 33  18  33  1   
 34  19  34  1   
 35  19  35  1   
 36  19  36  1   
@<TRIPOS>SUBSTRUCTURE
  1 ****   9 GROUP 4 **** **** 0

# MOE 2024.06 (io_trps.svl 2023.06)
