@<TRIPOS>MOLECULE
NONAME
39 40 1 0 0 
SMALL
USER_CHARGES


@<TRIPOS>ATOM
  1 O       -0.2530     0.6850     0.5540 O.2   1 <1>  -0.5700 
  2 C       -0.8310     1.7560     0.5490 C.2   1 <1>   0.5440 
  3 N       -0.1680     2.8830     1.0020 N.am  1 <1>  -0.6600 
  4 C       -2.1930     1.8070     0.0530 C.ar  1 <1>   0.0860 
  5 C       -0.7570     4.2510     0.9870 C.3   1 <1>   0.1400 
  6 C        1.1580     2.7590     1.6620 C.3   1 <1>   0.1400 
  7 C       -3.2660     2.1180     0.8850 C.ar  1 <1>  -0.1500 
  8 C       -2.4710     1.5340    -1.2850 C.ar  1 <1>  -0.1500 
  9 C       -0.8230     4.8400    -0.4260 C.3   1 <1>  -0.1600 
 10 C        2.3010     2.7370     0.6430 C.3   1 <1>  -0.1600 
 11 C       -4.5610     2.1860     0.4060 C.ar  1 <1>   0.0830 
 12 C       -3.7620     1.5930    -1.7780 C.ar  1 <1>  -0.1500 
 13 C        0.5040     5.3910    -0.9710 C.3   1 <1>  -0.1600 
 14 C        2.5460     4.0620    -0.0970 C.3   1 <1>  -0.1600 
 15 O       -5.5260     2.5130     1.3000 O.3   1 <1>  -0.3630 
 16 C       -4.8100     1.9220    -0.9380 C.ar  1 <1>  -0.1500 
 17 C        1.5770     4.3290    -1.2650 C.3   1 <1>  -0.1600 
 18 C       -6.8870     2.5490     0.9320 C.3   1 <1>   0.0400 
 19 H       -0.1870     4.9100     1.6190 H     1 <1>   0.0800 
 20 H       -1.7500     4.2080     1.3960 H     1 <1>   0.0800 
 21 H        1.1800     1.8390     2.2230 H     1 <1>   0.0800 
 22 H        1.3050     3.5620     2.3630 H     1 <1>   0.0800 
 23 H       -3.0860     2.3090     1.9270 H     1 <1>   0.1500 
 24 H       -1.6550     1.2720    -1.9370 H     1 <1>   0.1500 
 25 H       -1.5180     5.6600    -0.3940 H     1 <1>   0.0800 
 26 H       -1.2290     4.1190    -1.1120 H     1 <1>   0.0800 
 27 H        2.1420     1.9360    -0.0580 H     1 <1>   0.0800 
 28 H        3.1980     2.4970     1.1860 H     1 <1>   0.0800 
 29 H       -3.9490     1.3810    -2.8170 H     1 <1>   0.1500 
 30 H        0.8910     6.1480    -0.3110 H     1 <1>   0.0800 
 31 H        0.2770     5.8830    -1.9020 H     1 <1>   0.0800 
 32 H        3.5370     4.0070    -0.5140 H     1 <1>   0.0800 
 33 H        2.5520     4.8810     0.6010 H     1 <1>   0.0800 
 34 H       -5.8030     1.9650    -1.3430 H     1 <1>   0.1500 
 35 H        2.1680     4.6980    -2.0860 H     1 <1>   0.0800 
 36 H        1.1200     3.4150    -1.6030 H     1 <1>   0.0800 
 37 H       -7.4620     2.8060     1.8040 H     1 <1>   0.0800 
 38 H       -7.1790     1.5770     0.5760 H     1 <1>   0.0800 
 39 H       -7.0240     3.2970     0.1710 H     1 <1>   0.0800 
@<TRIPOS>BOND
  1   1   2  2   
  2   2   3  am  
  3   2   4  1   
  4   3   5  1   
  5   3   6  1   
  6   4   7  ar  
  7   4   8  ar  
  8   5   9  1   
  9   5  19  1   
 10   5  20  1   
 11   6  10  1   
 12   6  21  1   
 13   6  22  1   
 14   7  11  ar  
 15   7  23  1   
 16   8  12  ar  
 17   8  24  1   
 18   9  13  1   
 19   9  25  1   
 20   9  26  1   
 21  10  14  1   
 22  10  27  1   
 23  10  28  1   
 24  11  15  1   
 25  11  16  ar  
 26  12  16  ar  
 27  12  29  1   
 28  13  17  1   
 29  13  30  1   
 30  13  31  1   
 31  14  17  1   
 32  14  32  1   
 33  14  33  1   
 34  15  18  1   
 35  16  34  1   
 36  17  35  1   
 37  17  36  1   
 38  18  37  1   
 39  18  38  1   
 40  18  39  1   
@<TRIPOS>SUBSTRUCTURE
  1 ****   4 GROUP 4 **** **** 0

# MOE 2024.06 (io_trps.svl 2023.06)
