@<TRIPOS>MOLECULE
NONAME
45 47 1 0 0 
SMALL
USER_CHARGES


@<TRIPOS>ATOM
  1 N       -0.8310    -1.1880     1.9060 N.1   1 <1>  -0.5570 
  2 C       -1.6940    -0.5760     1.4750 C.1   1 <1>   0.4920 
  3 C       -2.7360     0.2700     0.9630 C.2   1 <1>   0.0650 
  4 C       -2.6810     1.6150     1.1800 C.2   1 <1>  -0.0380 
  5 C       -3.8080    -0.3430     0.2170 C.2   1 <1>  -0.0280 
  6 N       -1.6350     2.2360     1.8580 N.pl3 1 <1>  -0.9000 
  7 C       -3.8020     2.5370     0.6680 C.3   1 <1>   0.3960 
  8 C       -3.7700    -1.7830     0.0400 C.ar  1 <1>   0.0280 
  9 C       -4.8090     0.4150    -0.3160 C.2   1 <1>  -0.1380 
 10 C       -4.4090     3.2750     1.8210 C.1   1 <1>   0.3570 
 11 C       -4.9020     1.8430    -0.1470 C.2   1 <1>  -0.1380 
 12 C       -4.4020    -2.6270     0.9580 C.ar  1 <1>  -0.1430 
 13 C       -3.1080    -2.3550    -1.0510 C.ar  1 <1>  -0.1430 
 14 C       -5.9030    -0.2220    -1.1860 C.3   1 <1>  -0.0220 
 15 N       -4.8470     3.8740     2.6860 N.1   1 <1>  -0.5570 
 16 C       -5.9070     2.5800    -0.6650 C.2   1 <1>  -0.2880 
 17 C       -4.3720    -3.9990     0.7810 C.ar  1 <1>  -0.1500 
 18 C       -5.1310    -2.0550     2.1680 C.3   1 <1>  -0.0970 
 19 C       -3.0890    -3.7300    -1.2120 C.ar  1 <1>  -0.1500 
 20 C       -2.3910    -1.4850    -2.0760 C.3   1 <1>  -0.0970 
 21 C       -7.2420     0.5140    -1.0710 C.3   1 <1>  -0.1600 
 22 C       -7.0830     1.9960    -1.4230 C.3   1 <1>  -0.0220 
 23 C       -3.7200    -4.5580    -0.3020 C.ar  1 <1>  -0.1430 
 24 C       -3.6880    -6.0650    -0.4860 C.3   1 <1>  -0.0970 
 25 H       -0.8500     1.7040     2.2660 H     1 <1>   0.4000 
 26 H       -1.6310     3.2260     2.1430 H     1 <1>   0.4000 
 27 H       -3.3460     3.2690     0.0290 H     1 <1>   0.0800 
 28 H       -6.0650    -1.2520    -0.9220 H     1 <1>   0.0800 
 29 H       -5.5790    -0.1980    -2.2110 H     1 <1>   0.0800 
 30 H       -5.9680     3.6520    -0.5710 H     1 <1>   0.1500 
 31 H       -4.8570    -4.6430     1.4930 H     1 <1>   0.1500 
 32 H       -5.8840    -1.3560     1.8520 H     1 <1>   0.0800 
 33 H       -4.4340    -1.5490     2.8120 H     1 <1>   0.0800 
 34 H       -5.6100    -2.8320     2.7350 H     1 <1>   0.0800 
 35 H       -2.5750    -4.1660    -2.0500 H     1 <1>   0.1500 
 36 H       -3.0620    -0.7450    -2.4720 H     1 <1>   0.0800 
 37 H       -2.0230    -2.0760    -2.8940 H     1 <1>   0.0800 
 38 H       -1.5560    -0.9890    -1.6150 H     1 <1>   0.0800 
 39 H       -7.5960     0.4300    -0.0580 H     1 <1>   0.0800 
 40 H       -7.9690     0.0600    -1.7200 H     1 <1>   0.0800 
 41 H       -6.9240     2.1170    -2.4810 H     1 <1>   0.0800 
 42 H       -7.9850     2.5180    -1.1540 H     1 <1>   0.0800 
 43 H       -4.5720    -6.5130    -0.0680 H     1 <1>   0.0800 
 44 H       -2.8250    -6.4710     0.0090 H     1 <1>   0.0800 
 45 H       -3.6420    -6.3160    -1.5300 H     1 <1>   0.0800 
@<TRIPOS>BOND
  1   1   2  3   
  2   2   3  1   
  3   3   4  2   
  4   3   5  1   
  5   4   6  1   
  6   4   7  1   
  7   5   8  1   
  8   5   9  2   
  9   6  25  1   
 10   6  26  1   
 11   7  10  1   
 12   7  11  1   
 13   7  27  1   
 14   8  12  ar  
 15   8  13  ar  
 16   9  11  1   
 17   9  14  1   
 18  10  15  3   
 19  11  16  2   
 20  12  17  ar  
 21  12  18  1   
 22  13  19  ar  
 23  13  20  1   
 24  14  21  1   
 25  14  28  1   
 26  14  29  1   
 27  16  22  1   
 28  16  30  1   
 29  17  23  ar  
 30  17  31  1   
 31  18  32  1   
 32  18  33  1   
 33  18  34  1   
 34  19  23  ar  
 35  19  35  1   
 36  20  36  1   
 37  20  37  1   
 38  20  38  1   
 39  21  22  1   
 40  21  39  1   
 41  21  40  1   
 42  22  41  1   
 43  22  42  1   
 44  23  24  1   
 45  24  43  1   
 46  24  44  1   
 47  24  45  1   
@<TRIPOS>SUBSTRUCTURE
  1 ****   5 GROUP 4 **** **** 0

# MOE 2024.06 (io_trps.svl 2023.06)
