@<TRIPOS>MOLECULE
NONAME
49 51 1 0 0 
SMALL
USER_CHARGES


@<TRIPOS>ATOM
  1 S       -0.6650    -1.4620    -0.4200 S.o2  1 <1>   1.4470 
  2 O       -1.2840    -1.6150     0.8750 O.2   1 <1>  -0.6500 
  3 O       -0.8010    -2.5010    -1.4120 O.2   1 <1>  -0.6500 
  4 N       -1.4370    -0.1060    -1.1340 N.am  1 <1>  -0.7570 
  5 C        1.0600    -0.9270    -0.2850 C.ar  1 <1>  -0.0090 
  6 C       -1.4320     1.1410    -0.5340 C.ar  1 <1>   0.1990 
  7 C        1.9660    -1.1300    -1.3210 C.ar  1 <1>  -0.1500 
  8 C        1.5080    -0.2380     0.8370 C.ar  1 <1>  -0.1500 
  9 C       -0.3140     1.9620    -0.6220 C.ar  1 <1>  -0.1500 
 10 C       -2.5360     1.5880     0.1790 C.ar  1 <1>  -0.1500 
 11 C        3.2600    -0.6440    -1.2490 C.ar  1 <1>  -0.1500 
 12 C        2.7980     0.2540     0.9100 C.ar  1 <1>  -0.1500 
 13 C       -0.2750     3.1890     0.0160 C.ar  1 <1>  -0.1430 
 14 C       -2.5140     2.8210     0.8050 C.ar  1 <1>  -0.1500 
 15 C        3.6900     0.0700    -0.1380 C.ar  1 <1>   0.1170 
 16 C       -1.3840     3.6190     0.7270 C.ar  1 <1>  -0.1500 
 17 C        0.9810     4.0390    -0.0660 C.3   1 <1>  -0.0970 
 18 N        4.9930     0.5750    -0.1010 N.am  1 <1>  -0.5470 
 19 C        5.4590     1.7530     0.4130 C.2   1 <1>   0.6900 
 20 O        4.6880     2.5600     0.9010 O.2   1 <1>  -0.5700 
 21 N        6.8060     2.0230     0.3640 N.am  1 <1>  -0.6600 
 22 C        7.3400     3.2150     1.0930 C.3   1 <1>   0.1400 
 23 C        7.7890     1.2090    -0.4150 C.3   1 <1>   0.1400 
 24 C        8.7920     2.9800     1.5230 C.3   1 <1>  -0.1600 
 25 C        8.9760     2.0680    -0.8610 C.3   1 <1>  -0.1600 
 26 C        9.7200     2.7010     0.3280 C.3   1 <1>  -0.1600 
 27 H       -2.3340    -0.4230    -1.4850 H     1 <1>   0.4200 
 28 H        1.6480    -1.6670    -2.1990 H     1 <1>   0.1500 
 29 H        0.8310    -0.0670     1.6580 H     1 <1>   0.1500 
 30 H        0.5370     1.6340    -1.1900 H     1 <1>   0.1500 
 31 H       -3.4080     0.9650     0.2550 H     1 <1>   0.1500 
 32 H        3.9360    -0.8090    -2.0680 H     1 <1>   0.1500 
 33 H        3.1130     0.7940     1.7860 H     1 <1>   0.1500 
 34 H       -3.3720     3.1610     1.3580 H     1 <1>   0.1500 
 35 H       -1.3710     4.5740     1.2240 H     1 <1>   0.1500 
 36 H        1.0240     4.5390    -1.0160 H     1 <1>   0.0800 
 37 H        1.8570     3.4220     0.0410 H     1 <1>   0.0800 
 38 H        0.9940     4.7770     0.7160 H     1 <1>   0.0800 
 39 H        5.7020     0.0300    -0.5760 H     1 <1>   0.3700 
 40 H        6.7380     3.4100     1.9650 H     1 <1>   0.0800 
 41 H        7.2810     4.0740     0.4470 H     1 <1>   0.0800 
 42 H        7.3160     0.7960    -1.2880 H     1 <1>   0.0800 
 43 H        8.1420     0.4010     0.2040 H     1 <1>   0.0800 
 44 H        8.8080     2.1410     2.1970 H     1 <1>   0.0800 
 45 H        9.1500     3.8360     2.0660 H     1 <1>   0.0800 
 46 H        8.6040     2.8450    -1.5070 H     1 <1>   0.0800 
 47 H        9.6610     1.4720    -1.4370 H     1 <1>   0.0800 
 48 H       10.5110     2.0470     0.6520 H     1 <1>   0.0800 
 49 H       10.1730     3.6210    -0.0010 H     1 <1>   0.0800 
@<TRIPOS>BOND
  1   1   2  2   
  2   1   3  2   
  3   1   4  am  
  4   1   5  1   
  5   4   6  1   
  6   4  27  1   
  7   5   7  ar  
  8   5   8  ar  
  9   6   9  ar  
 10   6  10  ar  
 11   7  11  ar  
 12   7  28  1   
 13   8  12  ar  
 14   8  29  1   
 15   9  13  ar  
 16   9  30  1   
 17  10  14  ar  
 18  10  31  1   
 19  11  15  ar  
 20  11  32  1   
 21  12  15  ar  
 22  12  33  1   
 23  13  16  ar  
 24  13  17  1   
 25  14  16  ar  
 26  14  34  1   
 27  15  18  1   
 28  16  35  1   
 29  17  36  1   
 30  17  37  1   
 31  17  38  1   
 32  18  19  am  
 33  18  39  1   
 34  19  20  2   
 35  19  21  am  
 36  21  22  1   
 37  21  23  1   
 38  22  24  1   
 39  22  40  1   
 40  22  41  1   
 41  23  25  1   
 42  23  42  1   
 43  23  43  1   
 44  24  26  1   
 45  24  44  1   
 46  24  45  1   
 47  25  26  1   
 48  25  46  1   
 49  25  47  1   
 50  26  48  1   
 51  26  49  1   
@<TRIPOS>SUBSTRUCTURE
  1 ****  12 GROUP 4 **** **** 0

# MOE 2024.06 (io_trps.svl 2023.06)
