@<TRIPOS>MOLECULE
NONAME
50 51 1 0 0 
SMALL
USER_CHARGES


@<TRIPOS>ATOM
  1 O       -0.3290     0.6870    -0.7930 O.2   1 <1>  -0.5700 
  2 C       -0.0890     1.7700    -0.2990 C.2   1 <1>   0.6340 
  3 O       -1.1120     2.5270     0.1150 O.3   1 <1>  -0.4300 
  4 C        1.2560     2.2880    -0.1340 C.ar  1 <1>   0.0860 
  5 C       -2.4540     2.0980    -0.0080 C.3   1 <1>   0.0400 
  6 C        2.3680     1.5480    -0.5470 C.ar  1 <1>  -0.1500 
  7 C        1.5080     3.5390     0.4380 C.ar  1 <1>  -0.1500 
  8 C        3.6590     2.0210    -0.4000 C.ar  1 <1>  -0.1500 
  9 C        2.7940     4.0200     0.5890 C.ar  1 <1>  -0.1500 
 10 C        3.8810     3.2690     0.1730 C.ar  1 <1>   0.0830 
 11 O        5.1060     3.8100     0.3560 O.3   1 <1>  -0.3620 
 12 C        6.2820     3.1390    -0.0250 C.3   1 <1>   0.1200 
 13 C        7.4620     4.0450     0.3320 C.3   1 <1>  -0.1600 
 14 C        8.8090     3.4060    -0.0360 C.3   1 <1>  -0.1600 
 15 C        9.9620     4.3450     0.3310 C.3   1 <1>   0.3430 
 16 N       11.2640     3.7760    -0.1110 N.4   1 <1>  -0.9590 
 17 C       11.6610     2.5600     0.6770 C.3   1 <1>   0.3430 
 18 C       12.3390     4.8050    -0.0800 C.3   1 <1>   0.3430 
 19 C       13.1330     2.1560     0.4460 C.3   1 <1>  -0.0800 
 20 C       13.5610     4.2910    -0.8530 C.3   1 <1>  -0.1600 
 21 C       13.7080     2.7570    -0.8470 C.3   1 <1>  -0.1600 
 22 C       13.2760     0.6280     0.4320 C.3   1 <1>  -0.2400 
 23 H       -3.0950     2.8640     0.3890 H     1 <1>   0.0800 
 24 H       -2.5790     1.1840     0.5470 H     1 <1>   0.0800 
 25 H       -2.6720     1.9330    -1.0490 H     1 <1>   0.0800 
 26 H        2.2090     0.5790    -0.9920 H     1 <1>   0.1500 
 27 H        0.6830     4.1460     0.7710 H     1 <1>   0.1500 
 28 H        4.4730     1.4070    -0.7350 H     1 <1>   0.1500 
 29 H        2.9670     4.9850     1.0310 H     1 <1>   0.1500 
 30 H        6.2380     2.9570    -1.0850 H     1 <1>   0.0800 
 31 H        6.3290     2.2090     0.5140 H     1 <1>   0.0800 
 32 H        7.4310     4.2430     1.3900 H     1 <1>   0.0800 
 33 H        7.3460     4.9780    -0.1950 H     1 <1>   0.0800 
 34 H        8.8250     3.2110    -1.0950 H     1 <1>   0.0800 
 35 H        8.9040     2.4750     0.4940 H     1 <1>   0.0800 
 36 H        9.9730     4.5130     1.3960 H     1 <1>   0.0800 
 37 H        9.8000     5.2940    -0.1560 H     1 <1>   0.0800 
 38 H       11.1770     3.4840    -1.0930 H     1 <1>   0.4500 
 39 H       11.0250     1.7370     0.3920 H     1 <1>   0.0800 
 40 H       11.5130     2.7380     1.7300 H     1 <1>   0.0800 
 41 H       12.6170     5.0000     0.9430 H     1 <1>   0.0800 
 42 H       11.9970     5.7280    -0.5210 H     1 <1>   0.0800 
 43 H       13.7100     2.5280     1.2760 H     1 <1>   0.0800 
 44 H       14.4380     4.7350    -0.4150 H     1 <1>   0.0800 
 45 H       13.5140     4.6380    -1.8710 H     1 <1>   0.0800 
 46 H       13.1850     2.3450    -1.6940 H     1 <1>   0.0800 
 47 H       14.7480     2.4950    -0.9530 H     1 <1>   0.0800 
 48 H       12.7240     0.1940    -0.3840 H     1 <1>   0.0800 
 49 H       12.9170     0.2040     1.3540 H     1 <1>   0.0800 
 50 H       14.3110     0.3520     0.3230 H     1 <1>   0.0800 
@<TRIPOS>BOND
  1   1   2  2   
  2   2   3  1   
  3   2   4  1   
  4   3   5  1   
  5   4   6  ar  
  6   4   7  ar  
  7   5  23  1   
  8   5  24  1   
  9   5  25  1   
 10   6   8  ar  
 11   6  26  1   
 12   7   9  ar  
 13   7  27  1   
 14   8  10  ar  
 15   8  28  1   
 16   9  10  ar  
 17   9  29  1   
 18  10  11  1   
 19  11  12  1   
 20  12  13  1   
 21  12  30  1   
 22  12  31  1   
 23  13  14  1   
 24  13  32  1   
 25  13  33  1   
 26  14  15  1   
 27  14  34  1   
 28  14  35  1   
 29  15  16  1   
 30  15  36  1   
 31  15  37  1   
 32  16  17  1   
 33  16  18  1   
 34  16  38  1   
 35  17  19  1   
 36  17  39  1   
 37  17  40  1   
 38  18  20  1   
 39  18  41  1   
 40  18  42  1   
 41  19  21  1   
 42  19  22  1   
 43  19  43  1   
 44  20  21  1   
 45  20  44  1   
 46  20  45  1   
 47  21  46  1   
 48  21  47  1   
 49  22  48  1   
 50  22  49  1   
 51  22  50  1   
@<TRIPOS>SUBSTRUCTURE
  1 ****  12 GROUP 4 **** **** 0

# MOE 2024.06 (io_trps.svl 2023.06)
