@<TRIPOS>MOLECULE
NONAME
46 49 1 0 0 
SMALL
USER_CHARGES


@<TRIPOS>ATOM
  1 S       -0.5310     0.2930     0.1550 S.3   1 <1>  -0.3710 
  2 C        0.9030     1.0100     0.9340 C.2   1 <1>   0.6410 
  3 C       -0.9070     1.2920    -1.3650 C.3   1 <1>   0.1310 
  4 N        1.3000     2.2480     0.5190 N.pl3 1 <1>  -0.5500 
  5 N        1.4790     0.3150     1.8420 N.2   1 <1>  -0.6610 
  6 C       -1.3950     2.6890    -1.0110 C.2   1 <1>   0.5690 
  7 C        2.3980     2.8460     1.0660 C.2   1 <1>  -0.0380 
  8 C        2.5840     0.8710     2.4190 C.2   1 <1>   0.7670 
  9 O       -0.5840     3.5770    -1.1140 O.2   1 <1>  -0.5700 
 10 N       -2.6400     3.0110    -0.5820 N.am  1 <1>  -0.7300 
 11 C        3.0520     2.1540     2.0240 C.2   1 <1>  -0.1360 
 12 C        2.7760     4.2230     0.5590 C.3   1 <1>  -0.1020 
 13 O        3.1710     0.2440     3.2870 O.2   1 <1>  -0.5700 
 14 C       -3.8350     2.2700    -0.1280 C.3   1 <1>   0.3000 
 15 C       -3.7010     1.9580     1.3730 C.3   1 <1>  -0.1600 
 16 C       -4.1010     0.9620    -0.9020 C.3   1 <1>  -0.1600 
 17 C       -5.0340     3.2160    -0.3320 C.3   1 <1>  -0.1600 
 18 C       -4.9910     1.2900     1.8930 C.3   1 <1>  -0.0800 
 19 C       -5.3980     0.3000    -0.3970 C.3   1 <1>  -0.0800 
 20 C       -6.3340     2.5680     0.1800 C.3   1 <1>  -0.0800 
 21 C       -5.2460    -0.0100     1.1060 C.3   1 <1>  -0.1600 
 22 C       -6.1790     2.2470     1.6790 C.3   1 <1>  -0.1600 
 23 C       -6.5820     1.2640    -0.5980 C.3   1 <1>  -0.1600 
 24 H       -1.6300     0.7580    -1.9480 H     1 <1>   0.0800 
 25 H        0.0070     1.3510    -1.9270 H     1 <1>   0.0800 
 26 H        0.7200     2.7650    -0.1560 H     1 <1>   0.4000 
 27 H       -2.7460     4.0100    -0.4060 H     1 <1>   0.3700 
 28 H        3.9260     2.5210     2.5240 H     1 <1>   0.1500 
 29 H        1.9630     4.9090     0.7190 H     1 <1>   0.0800 
 30 H        2.9910     4.1810    -0.4940 H     1 <1>   0.0800 
 31 H        3.6440     4.5910     1.0740 H     1 <1>   0.0800 
 32 H       -3.5220     2.8650     1.9230 H     1 <1>   0.0800 
 33 H       -2.8710     1.2980     1.5390 H     1 <1>   0.0800 
 34 H       -3.3090     0.2600    -0.7350 H     1 <1>   0.0800 
 35 H       -4.1810     1.1640    -1.9550 H     1 <1>   0.0800 
 36 H       -5.1410     3.4470    -1.3770 H     1 <1>   0.0800 
 37 H       -4.8720     4.1370     0.2000 H     1 <1>   0.0800 
 38 H       -4.8870     1.0660     2.9420 H     1 <1>   0.0800 
 39 H       -5.5770    -0.6130    -0.9390 H     1 <1>   0.0800 
 40 H       -7.1620     3.2420     0.0350 H     1 <1>   0.0800 
 41 H       -6.1390    -0.4860     1.4710 H     1 <1>   0.0800 
 42 H       -4.4280    -0.6930     1.2580 H     1 <1>   0.0800 
 43 H       -6.0210     3.1550     2.2340 H     1 <1>   0.0800 
 44 H       -7.0820     1.7930     2.0490 H     1 <1>   0.0800 
 45 H       -6.7030     1.4790    -1.6450 H     1 <1>   0.0800 
 46 H       -7.4910     0.8010    -0.2530 H     1 <1>   0.0800 
@<TRIPOS>BOND
  1   1   2  1   
  2   1   3  1   
  3   2   4  1   
  4   2   5  2   
  5   3   6  1   
  6   3  24  1   
  7   3  25  1   
  8   4   7  1   
  9   4  26  1   
 10   5   8  1   
 11   6   9  2   
 12   6  10  am  
 13   7  11  2   
 14   7  12  1   
 15   8  11  1   
 16   8  13  2   
 17  10  14  1   
 18  10  27  1   
 19  11  28  1   
 20  12  29  1   
 21  12  30  1   
 22  12  31  1   
 23  14  15  1   
 24  14  16  1   
 25  14  17  1   
 26  15  18  1   
 27  15  32  1   
 28  15  33  1   
 29  16  19  1   
 30  16  34  1   
 31  16  35  1   
 32  17  20  1   
 33  17  36  1   
 34  17  37  1   
 35  18  21  1   
 36  18  22  1   
 37  18  38  1   
 38  19  21  1   
 39  19  23  1   
 40  19  39  1   
 41  20  22  1   
 42  20  23  1   
 43  20  40  1   
 44  21  41  1   
 45  21  42  1   
 46  22  43  1   
 47  22  44  1   
 48  23  45  1   
 49  23  46  1   
@<TRIPOS>SUBSTRUCTURE
  1 ****   6 GROUP 4 **** **** 0

# MOE 2024.06 (io_trps.svl 2023.06)
