@<TRIPOS>MOLECULE
NONAME
53 57 1 0 0 
SMALL
USER_CHARGES


@<TRIPOS>ATOM
  1 O       -5.4360     3.4410     1.8280 O.2   1 <1>  -0.5740 
  2 C       -6.5980     3.1510     1.7430 C.2   1 <1>   0.4430 
  3 C       -7.6360     4.0260     1.0150 C.3   1 <1>   0.0540 
  4 C       -7.0680     1.8280     2.3500 C.3   1 <1>   0.4100 
  5 C       -6.9440     5.2140     0.2960 C.3   1 <1>  -0.1670 
  6 C       -8.6610     4.6100     2.0210 C.3   1 <1>  -0.1670 
  7 C       -8.4030     3.2060    -0.0580 C.3   1 <1>  -0.1670 
  8 N       -6.7950     0.6440     1.4700 N.pl3 1 <1>  -0.7670 
  9 C       -7.9700     6.1000    -0.4320 C.3   1 <1>  -0.0870 
 10 C       -9.6990     5.4880     1.2970 C.3   1 <1>  -0.0870 
 11 C       -9.4380     4.0820    -0.7840 C.3   1 <1>  -0.0870 
 12 C       -5.6430     0.2970     0.8920 C.cat 1 <1>   1.0690 
 13 C       -7.7300    -0.3300     1.1430 C.ar  1 <1>   0.3030 
 14 C       -8.9770     6.6500     0.5930 C.3   1 <1>  -0.1670 
 15 C       -8.7170     5.2520    -1.4760 C.3   1 <1>  -0.1670 
 16 C      -10.4380     4.6400     0.2460 C.3   1 <1>  -0.1670 
 17 N       -4.5320     0.9920     0.9570 N.pl3 1 <1>  -0.8390 
 18 N       -5.7640    -0.8470     0.2240 N.pl3 1 <1>  -0.7670 
 19 C       -7.0810    -1.2660     0.3560 C.ar  1 <1>   0.3030 
 20 C       -9.0790    -0.4800     1.4540 C.ar  1 <1>  -0.1160 
 21 C       -4.7370    -1.5800    -0.5440 C.3   1 <1>   0.3490 
 22 C       -7.7630    -2.3720    -0.1420 C.ar  1 <1>  -0.1160 
 23 C       -9.7560    -1.5790     0.9610 C.ar  1 <1>  -0.1570 
 24 C       -4.8020    -1.1430    -2.0030 C.3   1 <1>  -0.2460 
 25 C       -9.1010    -2.5200     0.1660 C.ar  1 <1>  -0.1570 
 26 H       -8.1160     1.8840     2.5740 H     1 <1>   0.0730 
 27 H       -6.5500     1.6850     3.2820 H     1 <1>   0.0730 
 28 H       -6.2250     4.8460    -0.4150 H     1 <1>   0.0730 
 29 H       -6.4080     5.8140     1.0130 H     1 <1>   0.0730 
 30 H       -8.1480     5.2060     2.7570 H     1 <1>   0.0730 
 31 H       -9.1830     3.8280     2.5400 H     1 <1>   0.0730 
 32 H       -8.9230     2.3800     0.3900 H     1 <1>   0.0730 
 33 H       -7.7090     2.8080    -0.7780 H     1 <1>   0.0730 
 34 H       -7.4660     6.9170    -0.9210 H     1 <1>   0.0730 
 35 H      -10.4050     5.8810     2.0090 H     1 <1>   0.0730 
 36 H       -9.9640     3.4970    -1.5190 H     1 <1>   0.0730 
 37 H       -9.6960     7.2760     0.0940 H     1 <1>   0.0730 
 38 H       -8.4650     7.2580     1.3180 H     1 <1>   0.0730 
 39 H       -8.0230     4.8750    -2.2060 H     1 <1>   0.0730 
 40 H       -9.4340     5.8650    -1.9940 H     1 <1>   0.0730 
 41 H      -11.1720     5.2470    -0.2560 H     1 <1>   0.0730 
 42 H      -10.9620     3.8320     0.7270 H     1 <1>   0.0730 
 43 H       -3.6790     0.7290     0.4770 H     1 <1>   0.4450 
 44 H       -4.5230     1.9360     1.3700 H     1 <1>   0.4450 
 45 H       -9.5900     0.2410     2.0650 H     1 <1>   0.1430 
 46 H       -4.9130    -2.6400    -0.4680 H     1 <1>   0.0730 
 47 H       -3.7580    -1.3800    -0.1420 H     1 <1>   0.0730 
 48 H       -7.2580    -3.0950    -0.7560 H     1 <1>   0.1430 
 49 H      -10.8010    -1.7180     1.1880 H     1 <1>   0.1430 
 50 H       -5.7680    -1.3670    -2.4200 H     1 <1>   0.0730 
 51 H       -4.0590    -1.6730    -2.5720 H     1 <1>   0.0730 
 52 H       -4.6110    -0.0890    -2.0950 H     1 <1>   0.0730 
 53 H       -9.6520    -3.3690    -0.2080 H     1 <1>   0.1430 
@<TRIPOS>BOND
  1   1   2  2   
  2   2   3  1   
  3   2   4  1   
  4   3   5  1   
  5   3   6  1   
  6   3   7  1   
  7   4   8  1   
  8   4  26  1   
  9   4  27  1   
 10   5   9  1   
 11   5  28  1   
 12   5  29  1   
 13   6  10  1   
 14   6  30  1   
 15   6  31  1   
 16   7  11  1   
 17   7  32  1   
 18   7  33  1   
 19   8  12  ar  
 20   8  13  1   
 21   9  14  1   
 22   9  15  1   
 23   9  34  1   
 24  10  14  1   
 25  10  16  1   
 26  10  35  1   
 27  11  15  1   
 28  11  16  1   
 29  11  36  1   
 30  12  17  ar  
 31  12  18  ar  
 32  13  19  ar  
 33  13  20  ar  
 34  14  37  1   
 35  14  38  1   
 36  15  39  1   
 37  15  40  1   
 38  16  41  1   
 39  16  42  1   
 40  17  43  1   
 41  17  44  1   
 42  18  19  1   
 43  18  21  1   
 44  19  22  ar  
 45  20  23  ar  
 46  20  45  1   
 47  21  24  1   
 48  21  46  1   
 49  21  47  1   
 50  22  25  ar  
 51  22  48  1   
 52  23  25  ar  
 53  23  49  1   
 54  24  50  1   
 55  24  51  1   
 56  24  52  1   
 57  25  53  1   
@<TRIPOS>SUBSTRUCTURE
  1 ****   7 GROUP 4 **** **** 0

# MOE 2024.06 (io_trps.svl 2023.06)
