@<TRIPOS>MOLECULE
NONAME
26 26 1 0 0 
SMALL
USER_CHARGES


@<TRIPOS>ATOM
  1 O       -0.1390    -0.2780    -0.0010 O.2   1 <1>  -0.5700 
  2 C       -0.5430    -1.4310     0.0050 C.2   1 <1>   0.7290 
  3 O        0.3620    -2.4220     0.0100 O.3   1 <1>  -0.4300 
  4 N       -1.9270    -1.7880     0.0050 N.pl3 1 <1>   0.5610 
  5 C        1.7540    -2.1760     0.0100 C.3   1 <1>   0.0400 
  6 N       -2.4120    -3.0880     0.0110 N.2   1 <1>  -0.7070 
  7 C       -3.0030    -0.9210     0.0000 C.2   1 <1>  -0.0680 
  8 C       -3.6950    -2.9880     0.0090 C.2   1 <1>   0.1390 
  9 N       -2.9460     0.4700    -0.0070 N.pl3 1 <1>  -0.8840 
 10 C       -4.1500    -1.6660     0.0020 C.2   1 <1>  -0.0860 
 11 C       -5.5210    -1.2640    -0.0010 C.2   1 <1>   0.8060 
 12 O       -5.8910    -0.1020    -0.0070 O.2   1 <1>  -0.5700 
 13 O       -6.4450    -2.2320     0.0030 O.3   1 <1>  -0.4300 
 14 C       -7.8230    -1.9320     0.0010 C.3   1 <1>   0.1200 
 15 C       -8.5930    -3.2490     0.0070 C.3   1 <1>  -0.2400 
 16 H        2.2660    -3.1220     0.0150 H     1 <1>   0.0800 
 17 H        2.0090    -1.6120     0.8910 H     1 <1>   0.0800 
 18 H        2.0100    -1.6200    -0.8750 H     1 <1>   0.0800 
 19 H       -4.3540    -3.8420     0.0130 H     1 <1>   0.1500 
 20 H       -3.8040     1.0450    -0.0110 H     1 <1>   0.4000 
 21 H       -2.0540     0.9920    -0.0090 H     1 <1>   0.4000 
 22 H       -8.0470    -1.3580    -0.8830 H     1 <1>   0.0800 
 23 H       -8.0490    -1.3490     0.8780 H     1 <1>   0.0800 
 24 H       -8.3520    -3.8240    -0.8690 H     1 <1>   0.0800 
 25 H       -9.6490    -3.0500     0.0050 H     1 <1>   0.0800 
 26 H       -8.3530    -3.8150     0.8890 H     1 <1>   0.0800 
@<TRIPOS>BOND
  1   1   2  2   
  2   2   3  1   
  3   2   4  1   
  4   3   5  1   
  5   4   6  1   
  6   4   7  1   
  7   5  16  1   
  8   5  17  1   
  9   5  18  1   
 10   6   8  2   
 11   7   9  1   
 12   7  10  2   
 13   8  10  1   
 14   8  19  1   
 15   9  20  1   
 16   9  21  1   
 17  10  11  1   
 18  11  12  2   
 19  11  13  1   
 20  13  14  1   
 21  14  15  1   
 22  14  22  1   
 23  14  23  1   
 24  15  24  1   
 25  15  25  1   
 26  15  26  1   
@<TRIPOS>SUBSTRUCTURE
  1 ****  10 GROUP 4 **** **** 0

# MOE 2024.06 (io_trps.svl 2023.06)
