@<TRIPOS>MOLECULE
NONAME
50 51 1 0 0 
SMALL
USER_CHARGES


@<TRIPOS>ATOM
  1 O       -1.3070    -0.0890    -0.2270 O.2   1 <1>  -0.5700 
  2 C       -0.2820    -0.6330    -0.5960 C.2   1 <1>   0.6340 
  3 O        0.6890     0.1450    -1.0890 O.3   1 <1>  -0.4300 
  4 C       -0.0440    -2.0640    -0.5370 C.ar  1 <1>   0.0860 
  5 C        0.5510     1.5490    -1.1940 C.3   1 <1>   0.0400 
  6 C       -0.9060    -2.9600     0.1300 C.ar  1 <1>   0.1170 
  7 C        1.0860    -2.6040    -1.1610 C.ar  1 <1>  -0.1500 
  8 N       -2.0510    -2.4810     0.7930 N.am  1 <1>  -0.5470 
  9 C       -0.6220    -4.3240     0.1160 C.ar  1 <1>  -0.1500 
 10 C        1.3770    -3.9510    -1.1470 C.ar  1 <1>   0.0830 
 11 C       -2.8940    -2.9970     1.7450 C.2   1 <1>   0.5690 
 12 C        0.5040    -4.8410    -0.5090 C.ar  1 <1>   0.0830 
 13 O        2.5240    -4.3140    -1.7880 O.3   1 <1>  -0.3630 
 14 O       -2.7810    -4.1070     2.2090 O.2   1 <1>  -0.5700 
 15 C       -4.0320    -2.1060     2.2640 C.3   1 <1>   0.2610 
 16 O        0.7640    -6.1770    -0.5340 O.3   1 <1>  -0.3630 
 17 C        3.3850    -5.2610    -1.1930 C.3   1 <1>   0.0400 
 18 O       -4.4890    -1.2150     1.2590 O.3   1 <1>  -0.3630 
 19 C       -3.5870    -1.2410     3.4480 C.3   1 <1>  -0.2400 
 20 C       -0.0920    -7.1260     0.0650 C.3   1 <1>   0.0400 
 21 C       -5.1200    -1.6400     0.1300 C.ar  1 <1>   0.0830 
 22 C       -5.3510    -0.6940    -0.8660 C.ar  1 <1>  -0.1430 
 23 C       -5.5280    -2.9580    -0.0640 C.ar  1 <1>  -0.1500 
 24 C       -5.9840    -1.0740    -2.0380 C.ar  1 <1>  -0.1500 
 25 C       -4.9120     0.7520    -0.6810 C.3   1 <1>  -0.0970 
 26 C       -6.1580    -3.3260    -1.2390 C.ar  1 <1>  -0.1500 
 27 C       -6.3870    -2.3850    -2.2260 C.ar  1 <1>  -0.1500 
 28 H        1.4550     1.9500    -1.6150 H     1 <1>   0.0800 
 29 H        0.3860     1.9570    -0.2120 H     1 <1>   0.0800 
 30 H       -0.2860     1.7690    -1.8340 H     1 <1>   0.0800 
 31 H        1.7730    -1.9580    -1.6780 H     1 <1>   0.1500 
 32 H       -2.3040    -1.5150     0.5280 H     1 <1>   0.3700 
 33 H       -1.3060    -4.9870     0.6010 H     1 <1>   0.1500 
 34 H       -4.8600    -2.7190     2.5700 H     1 <1>   0.0800 
 35 H        4.3740    -5.1080    -1.5840 H     1 <1>   0.0800 
 36 H        3.0450    -6.2480    -1.4480 H     1 <1>   0.0800 
 37 H        3.3820    -5.1220    -0.1260 H     1 <1>   0.0800 
 38 H       -2.7780    -0.5960     3.1540 H     1 <1>   0.0800 
 39 H       -3.2490    -1.8720     4.2500 H     1 <1>   0.0800 
 40 H       -4.4110    -0.6480     3.8010 H     1 <1>   0.0800 
 41 H        0.3300    -8.1020    -0.0900 H     1 <1>   0.0800 
 42 H       -1.0590    -7.0680    -0.4020 H     1 <1>   0.0800 
 43 H       -0.1610    -6.9210     1.1190 H     1 <1>   0.0800 
 44 H       -5.3690    -3.7150     0.6800 H     1 <1>   0.1500 
 45 H       -6.1680    -0.3520    -2.8140 H     1 <1>   0.1500 
 46 H       -3.8430     0.7970    -0.5770 H     1 <1>   0.0800 
 47 H       -5.3620     1.1590     0.2060 H     1 <1>   0.0800 
 48 H       -5.2000     1.3570    -1.5200 H     1 <1>   0.0800 
 49 H       -6.4700    -4.3450    -1.3860 H     1 <1>   0.1500 
 50 H       -6.8770    -2.6710    -3.1400 H     1 <1>   0.1500 
@<TRIPOS>BOND
  1   1   2  2   
  2   2   3  1   
  3   2   4  1   
  4   3   5  1   
  5   4   6  ar  
  6   4   7  ar  
  7   5  28  1   
  8   5  29  1   
  9   5  30  1   
 10   6   8  1   
 11   6   9  ar  
 12   7  10  ar  
 13   7  31  1   
 14   8  11  am  
 15   8  32  1   
 16   9  12  ar  
 17   9  33  1   
 18  10  12  ar  
 19  10  13  1   
 20  11  14  2   
 21  11  15  1   
 22  12  16  1   
 23  13  17  1   
 24  15  18  1   
 25  15  19  1   
 26  15  34  1   
 27  16  20  1   
 28  17  35  1   
 29  17  36  1   
 30  17  37  1   
 31  18  21  1   
 32  19  38  1   
 33  19  39  1   
 34  19  40  1   
 35  20  41  1   
 36  20  42  1   
 37  20  43  1   
 38  21  22  ar  
 39  21  23  ar  
 40  22  24  ar  
 41  22  25  1   
 42  23  26  ar  
 43  23  44  1   
 44  24  27  ar  
 45  24  45  1   
 46  25  46  1   
 47  25  47  1   
 48  25  48  1   
 49  26  27  ar  
 50  26  49  1   
 51  27  50  1   
@<TRIPOS>SUBSTRUCTURE
  1 ****   8 GROUP 4 **** **** 0

# MOE 2024.06 (io_trps.svl 2023.06)
