@<TRIPOS>MOLECULE
NONAME
50 52 1 0 0 
SMALL
USER_CHARGES


@<TRIPOS>ATOM
  1 CL       0.9090    -1.1240    -2.7740 Cl    1 <1>  -0.1770 
  2 C        1.4860    -2.3230    -1.6440 C.ar  1 <1>   0.1770 
  3 C        2.7350    -2.1750    -1.0800 C.ar  1 <1>  -0.1500 
  4 C        0.6790    -3.4010    -1.3330 C.ar  1 <1>  -0.1500 
  5 C        3.2070    -3.1220    -0.1790 C.ar  1 <1>   0.1000 
  6 C        1.1420    -4.3480    -0.4360 C.ar  1 <1>  -0.1500 
  7 N        4.4680    -2.9760     0.3970 N.pl3 1 <1>  -0.8380 
  8 C        2.3960    -4.2150     0.1400 C.ar  1 <1>  -0.1430 
  9 C        5.6820    -3.0870    -0.4680 C.3   1 <1>   0.2090 
 10 C        4.6220    -2.0410     1.5490 C.3   1 <1>   0.2090 
 11 C        2.8880    -5.2700     1.1210 C.3   1 <1>  -0.0970 
 12 C        6.3100    -1.7120    -0.8020 C.3   1 <1>   0.1960 
 13 C        5.1970    -0.6810     1.1010 C.3   1 <1>   0.1960 
 14 N        6.4570    -0.7880     0.3430 N.am  1 <1>  -0.8490 
 15 S        7.7960    -1.1130     1.3220 S.o2  1 <1>   1.5760 
 16 O        7.8600    -2.5340     1.5770 O.2   1 <1>  -0.6500 
 17 O        7.7950    -0.1780     2.4240 O.2   1 <1>  -0.6500 
 18 N        9.0450    -0.6800     0.2690 N.am  1 <1>  -0.8490 
 19 C        9.0420     0.7680     0.0300 C.3   1 <1>   0.1960 
 20 C       10.3360    -1.1720     0.7610 C.3   1 <1>   0.1960 
 21 C        9.9960     1.2050    -1.0890 C.3   1 <1>  -0.1600 
 22 C       11.3100    -1.3720    -0.4040 C.3   1 <1>  -0.1600 
 23 C       11.4690     1.2150    -0.6560 C.3   1 <1>  -0.1600 
 24 C       12.1660    -0.1470    -0.7650 C.3   1 <1>  -0.1600 
 25 H        3.3370    -1.3280    -1.3390 H     1 <1>   0.1500 
 26 H       -0.2910    -3.4940    -1.7860 H     1 <1>   0.1500 
 27 H        0.5170    -5.1900    -0.1900 H     1 <1>   0.1500 
 28 H        5.4190    -3.5840    -1.3850 H     1 <1>   0.0800 
 29 H        6.4050    -3.7090     0.0290 H     1 <1>   0.0800 
 30 H        5.2700    -2.4890     2.2820 H     1 <1>   0.0800 
 31 H        3.6630    -1.8860     2.0110 H     1 <1>   0.0800 
 32 H        3.0550    -4.8200     2.0830 H     1 <1>   0.0800 
 33 H        3.8170    -5.6840     0.7720 H     1 <1>   0.0800 
 34 H        2.1760    -6.0660     1.2310 H     1 <1>   0.0800 
 35 H        5.6840    -1.2360    -1.5350 H     1 <1>   0.0800 
 36 H        7.2680    -1.8680    -1.2680 H     1 <1>   0.0800 
 37 H        5.3420    -0.0540     1.9650 H     1 <1>   0.0800 
 38 H        4.4640    -0.1960     0.4820 H     1 <1>   0.0800 
 39 H        9.2780     1.2940     0.9410 H     1 <1>   0.0800 
 40 H        8.0500     1.0690    -0.2630 H     1 <1>   0.0800 
 41 H       10.2010    -2.1380     1.2180 H     1 <1>   0.0800 
 42 H       10.7420    -0.5150     1.5120 H     1 <1>   0.0800 
 43 H        9.7290     2.2130    -1.3510 H     1 <1>   0.0800 
 44 H        9.8470     0.6000    -1.9660 H     1 <1>   0.0800 
 45 H       10.7540    -1.6980    -1.2660 H     1 <1>   0.0800 
 46 H       11.9810    -2.1730    -0.1480 H     1 <1>   0.0800 
 47 H       11.5390     1.5750     0.3560 H     1 <1>   0.0800 
 48 H       12.0080     1.9140    -1.2730 H     1 <1>   0.0800 
 49 H       12.5190    -0.2770    -1.7740 H     1 <1>   0.0800 
 50 H       13.0360    -0.1270    -0.1290 H     1 <1>   0.0800 
@<TRIPOS>BOND
  1   1   2  1   
  2   2   3  ar  
  3   2   4  ar  
  4   3   5  ar  
  5   3  25  1   
  6   4   6  ar  
  7   4  26  1   
  8   5   7  1   
  9   5   8  ar  
 10   6   8  ar  
 11   6  27  1   
 12   7   9  1   
 13   7  10  1   
 14   8  11  1   
 15   9  12  1   
 16   9  28  1   
 17   9  29  1   
 18  10  13  1   
 19  10  30  1   
 20  10  31  1   
 21  11  32  1   
 22  11  33  1   
 23  11  34  1   
 24  12  14  1   
 25  12  35  1   
 26  12  36  1   
 27  13  14  1   
 28  13  37  1   
 29  13  38  1   
 30  14  15  am  
 31  15  16  2   
 32  15  17  2   
 33  15  18  am  
 34  18  19  1   
 35  18  20  1   
 36  19  21  1   
 37  19  39  1   
 38  19  40  1   
 39  20  22  1   
 40  20  41  1   
 41  20  42  1   
 42  21  23  1   
 43  21  43  1   
 44  21  44  1   
 45  22  24  1   
 46  22  45  1   
 47  22  46  1   
 48  23  24  1   
 49  23  47  1   
 50  23  48  1   
 51  24  49  1   
 52  24  50  1   
@<TRIPOS>SUBSTRUCTURE
  1 ****  12 GROUP 4 **** **** 0

# MOE 2024.06 (io_trps.svl 2023.06)
