@<TRIPOS>MOLECULE
NONAME
28 28 1 0 0 
SMALL
USER_CHARGES


@<TRIPOS>ATOM
  1 O       -0.1210     4.6880     1.8280 O.2   1 <1>  -0.5700 
  2 C       -0.3070     3.9460     0.8790 C.2   1 <1>   0.6340 
  3 O        0.7530     3.6100     0.1350 O.3   1 <1>  -0.4300 
  4 C       -1.6220     3.4110     0.5230 C.ar  1 <1>   0.3960 
  5 C        2.0650     4.0140     0.4470 C.3   1 <1>   0.1200 
  6 N       -1.7340     2.4800    -0.4340 N.ar  1 <1>  -0.6200 
  7 C       -2.7470     3.8850     1.1980 C.ar  1 <1>  -0.1500 
  8 C        3.0430     3.4270    -0.5790 C.3   1 <1>  -0.1600 
  9 C       -2.9500     1.9880    -0.7490 C.ar  1 <1>   0.1310 
 10 C       -4.0020     3.4120     0.8990 C.ar  1 <1>  -0.1500 
 11 C        3.2650     1.9060    -0.4680 C.3   1 <1>  -0.1600 
 12 C       -3.1390     0.9520    -1.7900 C.2   1 <1>   0.9790 
 13 C       -4.0860     2.4560    -0.0840 C.ar  1 <1>  -0.1500 
 14 C        2.0680     1.0700    -0.9380 C.3   1 <1>  -0.2400 
 15 O       -2.2070     0.2440    -2.2220 O.co2 1 <1>  -0.9000 
 16 O       -4.2790     0.7380    -2.2570 O.co2 1 <1>  -0.9000 
 17 H        2.2980     3.6750     1.4420 H     1 <1>   0.0800 
 18 H        2.0920     5.0900     0.4210 H     1 <1>   0.0800 
 19 H       -2.6290     4.6320     1.9620 H     1 <1>   0.1500 
 20 H        3.9930     3.9070    -0.4260 H     1 <1>   0.0800 
 21 H        2.7140     3.6820    -1.5710 H     1 <1>   0.0800 
 22 H       -4.8800     3.7680     1.4090 H     1 <1>   0.1500 
 23 H        3.5070     1.6450     0.5480 H     1 <1>   0.0800 
 24 H        4.1110     1.6450    -1.0800 H     1 <1>   0.0800 
 25 H       -5.0470     2.0530    -0.3560 H     1 <1>   0.1500 
 26 H        1.2330     1.1700    -0.2680 H     1 <1>   0.0800 
 27 H        2.3340     0.0290    -0.9770 H     1 <1>   0.0800 
 28 H        1.7490     1.3750    -1.9190 H     1 <1>   0.0800 
@<TRIPOS>BOND
  1   1   2  2   
  2   2   3  1   
  3   2   4  1   
  4   3   5  1   
  5   4   6  ar  
  6   4   7  ar  
  7   5   8  1   
  8   5  17  1   
  9   5  18  1   
 10   6   9  ar  
 11   7  10  ar  
 12   7  19  1   
 13   8  11  1   
 14   8  20  1   
 15   8  21  1   
 16   9  12  1   
 17   9  13  ar  
 18  10  13  ar  
 19  10  22  1   
 20  11  14  1   
 21  11  23  1   
 22  11  24  1   
 23  12  15  ar  
 24  12  16  ar  
 25  13  25  1   
 26  14  26  1   
 27  14  27  1   
 28  14  28  1   
@<TRIPOS>SUBSTRUCTURE
  1 ****   6 GROUP 4 **** **** 0

# MOE 2024.06 (io_trps.svl 2023.06)
