@<TRIPOS>MOLECULE
NONAME
46 49 1 0 0 
SMALL
USER_CHARGES


@<TRIPOS>ATOM
  1 S       -0.4180    -0.2390     0.0200 S.3   1 <1>  -0.0800 
  2 C       -1.1850     1.3540     0.0480 C.2   1 <1>  -0.0450 
  3 C        1.1410     0.4360    -0.4060 C.2   1 <1>  -0.1100 
  4 C       -2.5790     1.4410     0.3640 C.2   1 <1>   0.4740 
  5 C       -0.2460     2.2890    -0.2590 C.2   1 <1>  -0.1500 
  6 C        1.0580     1.7740    -0.5140 C.2   1 <1>  -0.1500 
  7 N       -3.3840     0.4890     0.6260 N.2   1 <1>  -0.5120 
  8 C       -3.2430     2.7930     0.4130 C.3   1 <1>  -0.0990 
  9 N       -4.6510     0.9550     0.8780 N.am  1 <1>  -0.2980 
 10 C       -4.6720     2.4370     0.8080 C.3   1 <1>   0.4000 
 11 C       -5.7420     0.1350     1.1450 C.2   1 <1>   0.5690 
 12 C       -5.6950     2.9520    -0.1990 C.2   1 <1>  -0.1400 
 13 O       -5.6700    -1.0730     1.1780 O.2   1 <1>  -0.5700 
 14 C       -7.1520     0.6950     1.3810 C.3   1 <1>   0.4040 
 15 S       -5.6740     2.2790    -1.8260 S.3   1 <1>  -0.0800 
 16 C       -6.6710     3.8750    -0.0890 C.2   1 <1>  -0.1500 
 17 N       -8.2130    -0.0840     0.6400 N.4   1 <1>  -0.9590 
 18 C       -7.0210     3.2900    -2.3130 C.2   1 <1>  -0.1100 
 19 C       -7.4260     4.0640    -1.2900 C.2   1 <1>  -0.1500 
 20 C       -8.0580     0.0610    -0.8370 C.3   1 <1>   0.3430 
 21 C       -9.5900     0.2240     1.1120 C.3   1 <1>   0.3430 
 22 C       -9.0380    -0.8670    -1.5540 C.3   1 <1>  -0.1600 
 23 C      -10.5910    -0.7050     0.4230 C.3   1 <1>  -0.1600 
 24 C      -10.4850    -0.6250    -1.1050 C.3   1 <1>  -0.1600 
 25 H        1.9610    -0.2500    -0.5320 H     1 <1>   0.1500 
 26 H       -0.4250     3.3480    -0.3200 H     1 <1>   0.1500 
 27 H        1.8760     2.4260    -0.7660 H     1 <1>   0.1500 
 28 H       -3.1950     3.2720    -0.5480 H     1 <1>   0.0800 
 29 H       -2.7840     3.4180     1.1560 H     1 <1>   0.0800 
 30 H       -4.8800     2.8310     1.7880 H     1 <1>   0.0800 
 31 H       -7.2020     1.7280     1.0980 H     1 <1>   0.0800 
 32 H       -7.3440     0.6320     2.4380 H     1 <1>   0.0800 
 33 H       -6.9020     4.4560     0.7890 H     1 <1>   0.1500 
 34 H       -8.0050    -1.0780     0.8440 H     1 <1>   0.4500 
 35 H       -7.3650     3.2050    -3.3300 H     1 <1>   0.1500 
 36 H       -8.2300     4.7810    -1.3340 H     1 <1>   0.1500 
 37 H       -7.0500    -0.1920    -1.1320 H     1 <1>   0.0800 
 38 H       -8.2500     1.0820    -1.1270 H     1 <1>   0.0800 
 39 H       -9.8350     1.2480     0.8790 H     1 <1>   0.0800 
 40 H       -9.6560     0.0910     2.1800 H     1 <1>   0.0800 
 41 H       -8.7600    -1.8890    -1.3650 H     1 <1>   0.0800 
 42 H       -8.9620    -0.7050    -2.6160 H     1 <1>   0.0800 
 43 H      -11.5880    -0.4350     0.7260 H     1 <1>   0.0800 
 44 H      -10.4200    -1.7170     0.7490 H     1 <1>   0.0800 
 45 H      -11.1340    -1.3580    -1.5560 H     1 <1>   0.0800 
 46 H      -10.8080     0.3480    -1.4390 H     1 <1>   0.0800 
@<TRIPOS>BOND
  1   1   2  1   
  2   1   3  1   
  3   2   4  1   
  4   2   5  2   
  5   3   6  2   
  6   3  25  1   
  7   4   7  2   
  8   4   8  1   
  9   5   6  1   
 10   5  26  1   
 11   6  27  1   
 12   7   9  1   
 13   8  10  1   
 14   8  28  1   
 15   8  29  1   
 16   9  10  1   
 17   9  11  am  
 18  10  12  1   
 19  10  30  1   
 20  11  13  2   
 21  11  14  1   
 22  12  15  1   
 23  12  16  2   
 24  14  17  1   
 25  14  31  1   
 26  14  32  1   
 27  15  18  1   
 28  16  19  1   
 29  16  33  1   
 30  17  20  1   
 31  17  21  1   
 32  17  34  1   
 33  18  19  2   
 34  18  35  1   
 35  19  36  1   
 36  20  22  1   
 37  20  37  1   
 38  20  38  1   
 39  21  23  1   
 40  21  39  1   
 41  21  40  1   
 42  22  24  1   
 43  22  41  1   
 44  22  42  1   
 45  23  24  1   
 46  23  43  1   
 47  23  44  1   
 48  24  45  1   
 49  24  46  1   
@<TRIPOS>SUBSTRUCTURE
  1 ****   9 GROUP 4 **** **** 0

# MOE 2024.06 (io_trps.svl 2023.06)
