@<TRIPOS>MOLECULE
NONAME
44 46 1 0 0 
SMALL
USER_CHARGES


@<TRIPOS>ATOM
  1 F       -1.6390     3.1540    -2.0170 F     1 <1>  -0.1900 
  2 C       -0.9330     3.1210    -0.9170 C.ar  1 <1>   0.1900 
  3 C       -1.3920     2.3490     0.1440 C.ar  1 <1>  -0.1440 
  4 C        0.2310     3.8680    -0.8610 C.ar  1 <1>  -0.1500 
  5 C       -0.6400     2.3330     1.3120 C.ar  1 <1>  -0.1500 
  6 C       -2.6740     1.5500     0.0180 C.3   1 <1>   0.4870 
  7 C        0.9750     3.8510     0.3080 C.ar  1 <1>  -0.1500 
  8 C        0.5230     3.0850     1.3680 C.ar  1 <1>   0.1900 
  9 N       -3.8220     2.4850    -0.1030 N.4   1 <1>  -0.9590 
 10 F        1.2180     3.0690     2.4720 F     1 <1>  -0.1900 
 11 C       -3.9970     3.3480     1.1240 C.3   1 <1>   0.3430 
 12 C       -5.1040     1.7660    -0.4410 C.3   1 <1>   0.3430 
 13 C       -5.1830     4.3230     0.9920 C.3   1 <1>   0.2090 
 14 C       -6.2970     2.7320    -0.5850 C.3   1 <1>   0.2090 
 15 N       -6.4350     3.5970     0.6230 N.pl3 1 <1>  -0.8380 
 16 C       -7.5880     4.3950     0.6330 C.ar  1 <1>   0.1000 
 17 C       -7.8200     5.4520    -0.2680 C.ar  1 <1>   0.0830 
 18 C       -8.5490     4.1120     1.5930 C.ar  1 <1>  -0.1500 
 19 O       -6.8650     5.7240    -1.2130 O.3   1 <1>  -0.3620 
 20 C       -9.0000     6.1860    -0.1760 C.ar  1 <1>  -0.1500 
 21 C       -9.7170     4.8460     1.6770 C.ar  1 <1>  -0.1500 
 22 C       -7.0340     6.7750    -2.1410 C.3   1 <1>   0.0400 
 23 C       -9.9430     5.8830     0.7920 C.ar  1 <1>  -0.1500 
 24 H        0.5480     4.4490    -1.7110 H     1 <1>   0.1500 
 25 H       -0.9270     1.7550     2.1740 H     1 <1>   0.1500 
 26 H       -2.8010     0.9160     0.8800 H     1 <1>   0.0800 
 27 H       -2.6140     0.9260    -0.8590 H     1 <1>   0.0800 
 28 H        1.8870     4.4160     0.3990 H     1 <1>   0.1500 
 29 H       -3.6070     3.1180    -0.8880 H     1 <1>   0.4500 
 30 H       -3.1000     3.9170     1.3070 H     1 <1>   0.0800 
 31 H       -4.1750     2.7240     1.9840 H     1 <1>   0.0800 
 32 H       -5.3400     1.0620     0.3390 H     1 <1>   0.0800 
 33 H       -4.9870     1.2180    -1.3610 H     1 <1>   0.0800 
 34 H       -4.9560     5.0680     0.2500 H     1 <1>   0.0800 
 35 H       -5.3360     4.8310     1.9300 H     1 <1>   0.0800 
 36 H       -7.2030     2.1650    -0.7150 H     1 <1>   0.0800 
 37 H       -6.1640     3.3420    -1.4620 H     1 <1>   0.0800 
 38 H       -8.3740     3.3060     2.2810 H     1 <1>   0.1500 
 39 H       -9.2130     6.9980    -0.8430 H     1 <1>   0.1500 
 40 H      -10.4500     4.6100     2.4300 H     1 <1>   0.1500 
 41 H       -6.1680     6.8040    -2.7780 H     1 <1>   0.0800 
 42 H       -7.1220     7.7040    -1.6050 H     1 <1>   0.0800 
 43 H       -7.9130     6.5840    -2.7310 H     1 <1>   0.0800 
 44 H      -10.8520     6.4560     0.8560 H     1 <1>   0.1500 
@<TRIPOS>BOND
  1   1   2  1   
  2   2   3  ar  
  3   2   4  ar  
  4   3   5  ar  
  5   3   6  1   
  6   4   7  ar  
  7   4  24  1   
  8   5   8  ar  
  9   5  25  1   
 10   6   9  1   
 11   6  26  1   
 12   6  27  1   
 13   7   8  ar  
 14   7  28  1   
 15   8  10  1   
 16   9  11  1   
 17   9  12  1   
 18   9  29  1   
 19  11  13  1   
 20  11  30  1   
 21  11  31  1   
 22  12  14  1   
 23  12  32  1   
 24  12  33  1   
 25  13  15  1   
 26  13  34  1   
 27  13  35  1   
 28  14  15  1   
 29  14  36  1   
 30  14  37  1   
 31  15  16  1   
 32  16  17  ar  
 33  16  18  ar  
 34  17  19  1   
 35  17  20  ar  
 36  18  21  ar  
 37  18  38  1   
 38  19  22  1   
 39  20  23  ar  
 40  20  39  1   
 41  21  23  ar  
 42  21  40  1   
 43  22  41  1   
 44  22  42  1   
 45  22  43  1   
 46  23  44  1   
@<TRIPOS>SUBSTRUCTURE
  1 ****  11 GROUP 4 **** **** 0

# MOE 2024.06 (io_trps.svl 2023.06)
