@<TRIPOS>MOLECULE
NONAME
51 53 1 0 0 
SMALL
USER_CHARGES


@<TRIPOS>ATOM
  1 O       -3.0370     1.3160    -2.2980 O.3   1 <1>  -0.6800 
  2 C       -3.0610     2.1570    -1.1750 C.3   1 <1>   0.1200 
  3 C       -3.8980     1.5260    -0.0260 C.3   1 <1>   0.4230 
  4 N       -3.7500     0.0540    -0.1340 N.4   1 <1>  -0.9060 
  5 C       -5.4110     1.9080    -0.0160 C.3   1 <1>   0.0000 
  6 C       -2.6240    -0.5290     0.6310 C.3   1 <1>   0.3430 
  7 C       -6.1330     1.1860     1.1600 C.3   1 <1>  -0.1600 
  8 C       -6.1360     1.5300    -1.3370 C.3   1 <1>  -0.1600 
  9 C       -5.5840     3.4360     0.2130 C.3   1 <1>  -0.1600 
 10 C       -2.5180    -2.0510     0.3920 C.3   1 <1>   0.0000 
 11 C       -7.6220     1.5660     1.2220 C.3   1 <1>  -0.0800 
 12 C       -7.6260     1.9150    -1.2760 C.3   1 <1>  -0.0800 
 13 C       -7.0710     3.8290     0.2710 C.3   1 <1>  -0.0800 
 14 C       -2.2600    -2.3610    -1.0940 C.3   1 <1>  -0.2400 
 15 C       -1.3370    -2.5890     1.2130 C.3   1 <1>  -0.2400 
 16 C       -3.7980    -2.7770     0.8460 C.3   1 <1>  -0.2400 
 17 C       -8.2980     1.1770    -0.1050 C.3   1 <1>  -0.1600 
 18 C       -7.7490     3.0840     1.4320 C.3   1 <1>  -0.1600 
 19 C       -7.7500     3.4330    -1.0530 C.3   1 <1>  -0.1600 
 20 H       -2.6040     1.7610    -3.0620 H     1 <1>   0.4000 
 21 H       -3.4430     3.1150    -1.4760 H     1 <1>   0.0800 
 22 H       -2.0440     2.2930    -0.8480 H     1 <1>   0.0800 
 23 H       -3.4910     1.8610     0.9130 H     1 <1>   0.0800 
 24 H       -3.5790    -0.0940    -1.1450 H     1 <1>   0.4500 
 25 H       -4.6330    -0.4070     0.0950 H     1 <1>   0.4500 
 26 H       -2.7660    -0.3470     1.6840 H     1 <1>   0.0800 
 27 H       -1.7000    -0.0620     0.3280 H     1 <1>   0.0800 
 28 H       -5.6690     1.4490     2.0950 H     1 <1>   0.0800 
 29 H       -6.0790     0.1170     1.0610 H     1 <1>   0.0800 
 30 H       -6.0610     0.4750    -1.5280 H     1 <1>   0.0800 
 31 H       -5.6880     2.0410    -2.1710 H     1 <1>   0.0800 
 32 H       -5.1320     4.0030    -0.5800 H     1 <1>   0.0800 
 33 H       -5.1090     3.7300     1.1330 H     1 <1>   0.0800 
 34 H       -8.1010     1.0500     2.0370 H     1 <1>   0.0800 
 35 H       -8.1110     1.6460    -2.2000 H     1 <1>   0.0800 
 36 H       -7.1640     4.8910     0.4210 H     1 <1>   0.0800 
 37 H       -1.3810    -1.8480    -1.4450 H     1 <1>   0.0800 
 38 H       -3.0920    -2.0750    -1.7120 H     1 <1>   0.0800 
 39 H       -2.1030    -3.4180    -1.2320 H     1 <1>   0.0800 
 40 H       -0.4150    -2.1200     0.9140 H     1 <1>   0.0800 
 41 H       -1.2280    -3.6510     1.0710 H     1 <1>   0.0800 
 42 H       -1.4840    -2.4090     2.2640 H     1 <1>   0.0800 
 43 H       -4.6460    -2.5020     0.2460 H     1 <1>   0.0800 
 44 H       -4.0170    -2.5580     1.8770 H     1 <1>   0.0800 
 45 H       -3.6720    -3.8430     0.7560 H     1 <1>   0.0800 
 46 H       -9.3430     1.4340    -0.0680 H     1 <1>   0.0800 
 47 H       -8.2350     0.1130    -0.2550 H     1 <1>   0.0800 
 48 H       -7.2950     3.3670     2.3660 H     1 <1>   0.0800 
 49 H       -8.7890     3.3590     1.4820 H     1 <1>   0.0800 
 50 H       -7.2970     3.9630    -1.8720 H     1 <1>   0.0800 
 51 H       -8.7890     3.7120    -1.0240 H     1 <1>   0.0800 
@<TRIPOS>BOND
  1   1   2  1   
  2   1  20  1   
  3   2   3  1   
  4   2  21  1   
  5   2  22  1   
  6   3   4  1   
  7   3   5  1   
  8   3  23  1   
  9   4   6  1   
 10   4  24  1   
 11   4  25  1   
 12   5   7  1   
 13   5   8  1   
 14   5   9  1   
 15   6  10  1   
 16   6  26  1   
 17   6  27  1   
 18   7  11  1   
 19   7  28  1   
 20   7  29  1   
 21   8  12  1   
 22   8  30  1   
 23   8  31  1   
 24   9  13  1   
 25   9  32  1   
 26   9  33  1   
 27  10  14  1   
 28  10  15  1   
 29  10  16  1   
 30  11  17  1   
 31  11  18  1   
 32  11  34  1   
 33  12  17  1   
 34  12  19  1   
 35  12  35  1   
 36  13  18  1   
 37  13  19  1   
 38  13  36  1   
 39  14  37  1   
 40  14  38  1   
 41  14  39  1   
 42  15  40  1   
 43  15  41  1   
 44  15  42  1   
 45  16  43  1   
 46  16  44  1   
 47  16  45  1   
 48  17  46  1   
 49  17  47  1   
 50  18  48  1   
 51  18  49  1   
 52  19  50  1   
 53  19  51  1   
@<TRIPOS>SUBSTRUCTURE
  1 ****   5 GROUP 4 **** **** 0

# MOE 2024.06 (io_trps.svl 2023.06)
