@<TRIPOS>MOLECULE
NONAME
35 35 1 0 0 
SMALL
USER_CHARGES


@<TRIPOS>ATOM
  1 CL       0.0180     0.6600     0.1830 Cl    1 <1>  -0.1770 
  2 C        1.6710     1.2280     0.1120 C.ar  1 <1>   0.1770 
  3 C        1.9450     2.5890     0.1230 C.ar  1 <1>  -0.1440 
  4 C        2.6830     0.2880     0.0460 C.ar  1 <1>  -0.1500 
  5 C        3.2700     2.9940     0.0660 C.ar  1 <1>  -0.1500 
  6 C        0.8270     3.6180     0.1960 C.3   1 <1>  -0.0960 
  7 C        4.0020     0.7030    -0.0110 C.ar  1 <1>  -0.1500 
  8 C        4.2990     2.0650    -0.0010 C.ar  1 <1>   0.0830 
  9 O        5.5600     2.5620    -0.0540 O.3   1 <1>  -0.3630 
 10 C        6.6800     1.7180    -0.1230 C.3   1 <1>   0.1200 
 11 C        7.9150     2.6170    -0.1670 C.3   1 <1>  -0.1600 
 12 C        9.1930     1.7910    -0.2450 C.3   1 <1>   0.3430 
 13 N       10.3530     2.7110    -0.2800 N.4   1 <1>  -0.9060 
 14 C       11.6500     2.0220    -0.3420 C.3   1 <1>   0.4810 
 15 C       12.6900     3.1080    -0.2460 C.2   1 <1>  -0.2880 
 16 C       13.4680     3.3390     0.8170 C.2   1 <1>  -0.3000 
 17 H        2.4330    -0.7580     0.0400 H     1 <1>   0.1500 
 18 H        3.5190     4.0400     0.0720 H     1 <1>   0.1500 
 19 H        0.2570     3.4770     1.0970 H     1 <1>   0.0800 
 20 H        0.1720     3.5080    -0.6490 H     1 <1>   0.0800 
 21 H        1.2220     4.6180     0.1940 H     1 <1>   0.0800 
 22 H        4.7710    -0.0430    -0.0620 H     1 <1>   0.1500 
 23 H        6.5960     1.1210    -1.0160 H     1 <1>   0.0800 
 24 H        6.6810     1.0890     0.7520 H     1 <1>   0.0800 
 25 H        7.9250     3.2200     0.7250 H     1 <1>   0.0800 
 26 H        7.8390     3.2550    -1.0300 H     1 <1>   0.0800 
 27 H        9.1770     1.1800    -1.1350 H     1 <1>   0.0800 
 28 H        9.2600     1.1430     0.6150 H     1 <1>   0.0800 
 29 H       10.3670     3.3050     0.5580 H     1 <1>   0.4500 
 30 H       10.2820     3.3500    -1.0790 H     1 <1>   0.4500 
 31 H       11.7590     1.4700    -1.2630 H     1 <1>   0.0800 
 32 H       11.7530     1.3440     0.4910 H     1 <1>   0.0800 
 33 H       12.7630     3.7030    -1.1420 H     1 <1>   0.1500 
 34 H       14.2100     4.1220     0.8570 H     1 <1>   0.1500 
 35 H       13.4500     2.7780     1.7380 H     1 <1>   0.1500 
@<TRIPOS>BOND
  1   1   2  1   
  2   2   3  ar  
  3   2   4  ar  
  4   3   5  ar  
  5   3   6  1   
  6   4   7  ar  
  7   4  17  1   
  8   5   8  ar  
  9   5  18  1   
 10   6  19  1   
 11   6  20  1   
 12   6  21  1   
 13   7   8  ar  
 14   7  22  1   
 15   8   9  1   
 16   9  10  1   
 17  10  11  1   
 18  10  23  1   
 19  10  24  1   
 20  11  12  1   
 21  11  25  1   
 22  11  26  1   
 23  12  13  1   
 24  12  27  1   
 25  12  28  1   
 26  13  14  1   
 27  13  29  1   
 28  13  30  1   
 29  14  15  1   
 30  14  31  1   
 31  14  32  1   
 32  15  16  2   
 33  15  33  1   
 34  16  34  1   
 35  16  35  1   
@<TRIPOS>SUBSTRUCTURE
  1 ****   9 GROUP 4 **** **** 0

# MOE 2024.06 (io_trps.svl 2023.06)
