@<TRIPOS>MOLECULE
NONAME
28 28 1 0 0 
SMALL
USER_CHARGES


@<TRIPOS>ATOM
  1 BR      -0.7200     0.4610    -0.8510 Br    1 <1>  -0.1110 
  2 C        0.4730     1.8210    -0.1810 C.ar  1 <1>   0.1110 
  3 C       -0.0480     2.8970     0.5230 C.ar  1 <1>   0.0820 
  4 C        1.8270     1.6900    -0.4310 C.ar  1 <1>  -0.1500 
  5 O       -1.3790     2.9880     0.7650 O.3   1 <1>  -0.3630 
  6 C        0.8420     3.8580     0.9840 C.ar  1 <1>   0.1770 
  7 C        2.7010     2.6630     0.0350 C.ar  1 <1>  -0.1440 
  8 C       -2.1170     3.8130    -0.0990 C.3   1 <1>   0.1200 
  9 CL       0.2510     5.2430     1.8770 Cl    1 <1>  -0.1770 
 10 C        2.2020     3.7480     0.7450 C.ar  1 <1>  -0.1500 
 11 C        4.1930     2.5390    -0.2240 C.3   1 <1>  -0.0960 
 12 C       -3.5410     3.8870     0.4550 C.3   1 <1>   0.3430 
 13 N       -4.4130     4.7810    -0.3680 N.4   1 <1>  -0.9060 
 14 C       -5.8020     4.8560     0.1760 C.3   1 <1>   0.2630 
 15 H        2.1880     0.8380    -0.9800 H     1 <1>   0.1500 
 16 H       -2.0980     3.3670    -1.0790 H     1 <1>   0.0800 
 17 H       -1.6560     4.7850    -0.1160 H     1 <1>   0.0800 
 18 H        2.8640     4.5090     1.1190 H     1 <1>   0.1500 
 19 H        4.3750     2.0010    -1.1370 H     1 <1>   0.0800 
 20 H        4.6620     2.0120     0.5870 H     1 <1>   0.0800 
 21 H        4.6430     3.5120    -0.3110 H     1 <1>   0.0800 
 22 H       -3.4950     4.2590     1.4670 H     1 <1>   0.0800 
 23 H       -3.9550     2.8920     0.4760 H     1 <1>   0.0800 
 24 H       -4.4420     4.4370    -1.3390 H     1 <1>   0.4500 
 25 H       -4.0060     5.7270    -0.3980 H     1 <1>   0.4500 
 26 H       -6.2540     3.8770     0.1880 H     1 <1>   0.0800 
 27 H       -6.4090     5.5060    -0.4340 H     1 <1>   0.0800 
 28 H       -5.7910     5.2420     1.1830 H     1 <1>   0.0800 
@<TRIPOS>BOND
  1   1   2  1   
  2   2   3  ar  
  3   2   4  ar  
  4   3   5  1   
  5   3   6  ar  
  6   4   7  ar  
  7   4  15  1   
  8   5   8  1   
  9   6   9  1   
 10   6  10  ar  
 11   7  10  ar  
 12   7  11  1   
 13   8  12  1   
 14   8  16  1   
 15   8  17  1   
 16  10  18  1   
 17  11  19  1   
 18  11  20  1   
 19  11  21  1   
 20  12  13  1   
 21  12  22  1   
 22  12  23  1   
 23  13  14  1   
 24  13  24  1   
 25  13  25  1   
 26  14  26  1   
 27  14  27  1   
 28  14  28  1   
@<TRIPOS>SUBSTRUCTURE
  1 ****   3 GROUP 4 **** **** 0

# MOE 2024.06 (io_trps.svl 2023.06)
