@<TRIPOS>MOLECULE
NONAME
37 37 1 0 0 
SMALL
USER_CHARGES


@<TRIPOS>ATOM
  1 BR      -0.3750    -0.2970    -1.1850 Br    1 <1>  -0.1110 
  2 C        0.6240    -1.6150    -0.1950 C.ar  1 <1>   0.1110 
  3 C        1.8480    -1.2730     0.3610 C.ar  1 <1>  -0.1440 
  4 C        0.0700    -2.8720    -0.0690 C.ar  1 <1>  -0.1500 
  5 C        2.5140    -2.2570     1.0800 C.ar  1 <1>  -0.1500 
  6 C        2.4030     0.1370     0.1820 C.3   1 <1>   0.2640 
  7 C        0.7450    -3.8660     0.6360 C.ar  1 <1>   0.0860 
  8 C        1.9690    -3.5220     1.2150 C.ar  1 <1>  -0.1500 
  9 O        3.7610     0.1770     0.5610 O.3   1 <1>  -0.4300 
 10 C        0.1760    -5.1930     0.7680 C.2   1 <1>   0.6340 
 11 C        4.5390     1.2540     0.5360 C.2   1 <1>   0.6590 
 12 O       -0.9700    -5.3690     1.1070 O.2   1 <1>  -0.5700 
 13 O        0.9040    -6.2770     0.4910 O.3   1 <1>  -0.4300 
 14 O        5.6760     1.1670     0.9160 O.2   1 <1>  -0.5700 
 15 C        3.9730     2.5900     0.0240 C.3   1 <1>   0.2010 
 16 C        1.9610    -6.2770    -0.4410 C.3   1 <1>   0.1200 
 17 N        4.9610     3.7090     0.0570 N.am  1 <1>  -0.7300 
 18 C        2.3100    -7.7290    -0.7490 C.3   1 <1>  -0.2400 
 19 C        4.7990     4.9960    -0.3160 C.2   1 <1>   0.5690 
 20 O        5.7090     5.7750    -0.2230 O.2   1 <1>  -0.5700 
 21 C        3.4730     5.4720    -0.8540 C.3   1 <1>  -0.1790 
 22 H       -0.8870    -3.0870    -0.5120 H     1 <1>   0.1500 
 23 H        3.4640    -2.0470     1.5460 H     1 <1>   0.1500 
 24 H        1.8540     0.8250     0.8010 H     1 <1>   0.0800 
 25 H        2.3370     0.4320    -0.8510 H     1 <1>   0.0800 
 26 H        2.5000    -4.2630     1.7900 H     1 <1>   0.1500 
 27 H        3.1300     2.8620     0.6320 H     1 <1>   0.0800 
 28 H        3.6430     2.4560    -0.9900 H     1 <1>   0.0800 
 29 H        2.8080    -5.7710    -0.0120 H     1 <1>   0.0800 
 30 H        1.6360    -5.7680    -1.3330 H     1 <1>   0.0800 
 31 H        5.8900     3.4480     0.4140 H     1 <1>   0.3700 
 32 H        2.6210    -8.2340     0.1480 H     1 <1>   0.0800 
 33 H        3.1130    -7.7690    -1.4620 H     1 <1>   0.0800 
 34 H        1.4560    -8.2340    -1.1660 H     1 <1>   0.0800 
 35 H        3.2240     4.9280    -1.7450 H     1 <1>   0.0800 
 36 H        3.5390     6.5170    -1.0950 H     1 <1>   0.0800 
 37 H        2.7080     5.3360    -0.1150 H     1 <1>   0.0800 
@<TRIPOS>BOND
  1   1   2  1   
  2   2   3  ar  
  3   2   4  ar  
  4   3   5  ar  
  5   3   6  1   
  6   4   7  ar  
  7   4  22  1   
  8   5   8  ar  
  9   5  23  1   
 10   6   9  1   
 11   6  24  1   
 12   6  25  1   
 13   7   8  ar  
 14   7  10  1   
 15   8  26  1   
 16   9  11  1   
 17  10  12  2   
 18  10  13  1   
 19  11  14  2   
 20  11  15  1   
 21  13  16  1   
 22  15  17  1   
 23  15  27  1   
 24  15  28  1   
 25  16  18  1   
 26  16  29  1   
 27  16  30  1   
 28  17  19  am  
 29  17  31  1   
 30  18  32  1   
 31  18  33  1   
 32  18  34  1   
 33  19  20  2   
 34  19  21  1   
 35  21  35  1   
 36  21  36  1   
 37  21  37  1   
@<TRIPOS>SUBSTRUCTURE
  1 ****   3 GROUP 4 **** **** 0

# MOE 2024.06 (io_trps.svl 2023.06)
