@<TRIPOS>MOLECULE
NONAME
49 51 1 0 0 
SMALL
USER_CHARGES


@<TRIPOS>ATOM
  1 O       -0.0780     0.4710    -1.3680 O.2   1 <1>  -0.5700 
  2 C       -0.7200     1.2950    -0.7620 C.2   1 <1>   0.5690 
  3 N       -1.9900     1.0630    -0.2960 N.am  1 <1>  -0.5470 
  4 C       -0.0990     2.6780    -0.4880 C.3   1 <1>   0.1710 
  5 C       -2.7950    -0.0890    -0.3310 C.ar  1 <1>   0.1170 
  6 N        1.3700     2.6860    -0.2200 N.3   1 <1>  -0.8100 
  7 C       -4.2110     0.0550    -0.2370 C.ar  1 <1>   0.0000 
  8 C       -2.2480    -1.3500    -0.4180 C.ar  1 <1>  -0.1500 
  9 C        1.9420     4.0430    -0.0820 C.3   1 <1>   0.1100 
 10 C        1.7710     1.8150     0.9130 C.3   1 <1>   0.1100 
 11 C       -5.0140    -1.1090    -0.1970 C.ar  1 <1>   0.0000 
 12 C       -4.8730     1.3050    -0.1870 C.ar  1 <1>  -0.1500 
 13 C       -3.0460    -2.4920    -0.3990 C.ar  1 <1>  -0.1500 
 14 C        3.4840     4.0040     0.0860 C.3   1 <1>   0.3430 
 15 C        3.3090     1.7550     1.0820 C.3   1 <1>   0.3430 
 16 C       -4.4020    -2.3720    -0.2860 C.ar  1 <1>  -0.1500 
 17 C       -6.4130    -0.9820    -0.0760 C.ar  1 <1>  -0.1500 
 18 C       -6.2340     1.4000    -0.0750 C.ar  1 <1>  -0.1500 
 19 N        3.9990     2.5950     0.0440 N.4   1 <1>  -0.9590 
 20 C       -7.0140     0.2430    -0.0140 C.ar  1 <1>  -0.1500 
 21 C        5.4820     2.5130     0.0540 C.3   1 <1>   0.3430 
 22 C        5.9430     1.1180    -0.3750 C.3   1 <1>  -0.1600 
 23 C        7.4700     1.0580    -0.4920 C.3   1 <1>  -0.2400 
 24 H       -2.4600     1.8630     0.1180 H     1 <1>   0.3700 
 25 H       -0.6080     3.1270     0.3460 H     1 <1>   0.0800 
 26 H       -0.2900     3.2840    -1.3560 H     1 <1>   0.0800 
 27 H       -1.1850    -1.4870    -0.4950 H     1 <1>   0.1500 
 28 H        1.5040     4.5440     0.7660 H     1 <1>   0.0800 
 29 H        1.7050     4.6210    -0.9590 H     1 <1>   0.0800 
 30 H        1.4150     0.8120     0.7450 H     1 <1>   0.0800 
 31 H        1.3230     2.1670     1.8270 H     1 <1>   0.0800 
 32 H       -4.3040     2.2110    -0.2460 H     1 <1>   0.1500 
 33 H       -2.5800    -3.4600    -0.4720 H     1 <1>   0.1500 
 34 H        3.7510     4.4660     1.0210 H     1 <1>   0.0800 
 35 H        3.9330     4.5810    -0.7050 H     1 <1>   0.0800 
 36 H        3.6210     0.7280     0.9920 H     1 <1>   0.0800 
 37 H        3.5740     2.0940     2.0690 H     1 <1>   0.0800 
 38 H       -5.0220    -3.2500    -0.2660 H     1 <1>   0.1500 
 39 H       -7.0080    -1.8770    -0.0360 H     1 <1>   0.1500 
 40 H       -6.7220     2.3590    -0.0350 H     1 <1>   0.1500 
 41 H        3.6290     2.2240    -0.8480 H     1 <1>   0.4500 
 42 H       -8.0830     0.3330     0.0780 H     1 <1>   0.1500 
 43 H        5.8610     2.7390     1.0370 H     1 <1>   0.0800 
 44 H        5.8850     3.2350    -0.6370 H     1 <1>   0.0800 
 45 H        5.5160     0.8720    -1.3320 H     1 <1>   0.0800 
 46 H        5.6300     0.3820     0.3440 H     1 <1>   0.0800 
 47 H        7.8270     1.7600    -1.2260 H     1 <1>   0.0800 
 48 H        7.7770     0.0710    -0.7970 H     1 <1>   0.0800 
 49 H        7.9370     1.2770     0.4530 H     1 <1>   0.0800 
@<TRIPOS>BOND
  1   1   2  2   
  2   2   3  am  
  3   2   4  1   
  4   3   5  1   
  5   3  24  1   
  6   4   6  1   
  7   4  25  1   
  8   4  26  1   
  9   5   7  ar  
 10   5   8  ar  
 11   6   9  1   
 12   6  10  1   
 13   7  11  ar  
 14   7  12  ar  
 15   8  13  ar  
 16   8  27  1   
 17   9  14  1   
 18   9  28  1   
 19   9  29  1   
 20  10  15  1   
 21  10  30  1   
 22  10  31  1   
 23  11  16  ar  
 24  11  17  ar  
 25  12  18  ar  
 26  12  32  1   
 27  13  16  ar  
 28  13  33  1   
 29  14  19  1   
 30  14  34  1   
 31  14  35  1   
 32  15  19  1   
 33  15  36  1   
 34  15  37  1   
 35  16  38  1   
 36  17  20  ar  
 37  17  39  1   
 38  18  20  ar  
 39  18  40  1   
 40  19  21  1   
 41  19  41  1   
 42  20  42  1   
 43  21  22  1   
 44  21  43  1   
 45  21  44  1   
 46  22  23  1   
 47  22  45  1   
 48  22  46  1   
 49  23  47  1   
 50  23  48  1   
 51  23  49  1   
@<TRIPOS>SUBSTRUCTURE
  1 ****   2 GROUP 4 **** **** 0

# MOE 2024.06 (io_trps.svl 2023.06)
