@<TRIPOS>MOLECULE
NONAME
45 47 1 0 0 
SMALL
USER_CHARGES


@<TRIPOS>ATOM
  1 O        0.1550    -0.7690     0.7500 O.2   1 <1>  -0.5700 
  2 C       -0.2710    -1.8810     0.5230 C.2   1 <1>   0.5690 
  3 N        0.5880    -2.9610     0.6730 N.am  1 <1>  -0.6600 
  4 C       -1.7640    -1.9860     0.0770 C.3   1 <1>   0.0610 
  5 C        0.2520    -4.4110     0.7070 C.3   1 <1>   0.0600 
  6 C        2.0420    -2.7210     0.9100 C.3   1 <1>   0.0600 
  7 C       -1.9560    -2.8940    -1.1690 C.3   1 <1>  -0.1600 
  8 C       -2.3070    -0.5810    -0.3230 C.3   1 <1>  -0.1600 
  9 C       -2.6600    -2.4870     1.2390 C.3   1 <1>  -0.1600 
 10 C       -3.4350    -2.9790    -1.5920 C.3   1 <1>   0.0000 
 11 C       -3.7870    -0.6200    -0.7530 C.3   1 <1>   0.0000 
 12 C       -4.1410    -2.5740     0.8170 C.3   1 <1>   0.0000 
 13 C       -3.9290    -1.5680    -1.9570 C.3   1 <1>  -0.1600 
 14 C       -4.2630    -3.5100    -0.4030 C.3   1 <1>  -0.1600 
 15 C       -3.5860    -3.9140    -2.7990 C.3   1 <1>  -0.2400 
 16 C       -4.6260    -1.1680     0.4160 C.3   1 <1>  -0.1600 
 17 C       -4.2650     0.7870    -1.1310 C.3   1 <1>  -0.2400 
 18 C       -4.9880    -3.1090     1.9780 C.3   1 <1>  -0.2400 
 19 H       -0.7920    -4.5800     0.8700 H     1 <1>   0.0800 
 20 H        0.7890    -4.8880     1.5090 H     1 <1>   0.0800 
 21 H        0.5390    -4.8680    -0.2230 H     1 <1>   0.0800 
 22 H        2.3290    -1.7360     0.5850 H     1 <1>   0.0800 
 23 H        2.6290    -3.4370     0.3620 H     1 <1>   0.0800 
 24 H        2.2560    -2.8130     1.9600 H     1 <1>   0.0800 
 25 H       -1.6120    -3.8890    -0.9810 H     1 <1>   0.0800 
 26 H       -1.3660    -2.5050    -1.9810 H     1 <1>   0.0800 
 27 H       -1.7090    -0.1850    -1.1250 H     1 <1>   0.0800 
 28 H       -2.2060     0.0940     0.5100 H     1 <1>   0.0800 
 29 H       -2.3400    -3.4490     1.5830 H     1 <1>   0.0800 
 30 H       -2.5620    -1.8100     2.0710 H     1 <1>   0.0800 
 31 H       -3.3580    -1.1870    -2.7860 H     1 <1>   0.0800 
 32 H       -4.9590    -1.6110    -2.2640 H     1 <1>   0.0800 
 33 H       -3.9260    -4.4960    -0.1380 H     1 <1>   0.0800 
 34 H       -5.2970    -3.5870    -0.6930 H     1 <1>   0.0800 
 35 H       -3.0060    -3.5520    -3.6290 H     1 <1>   0.0800 
 36 H       -4.6160    -3.9720    -3.1030 H     1 <1>   0.0800 
 37 H       -3.2480    -4.9050    -2.5530 H     1 <1>   0.0800 
 38 H       -5.6620    -1.2100     0.1290 H     1 <1>   0.0800 
 39 H       -4.5470    -0.5040     1.2590 H     1 <1>   0.0800 
 40 H       -3.6800     1.1770    -1.9450 H     1 <1>   0.0800 
 41 H       -4.1670     1.4550    -0.2930 H     1 <1>   0.0800 
 42 H       -5.2970     0.7670    -1.4310 H     1 <1>   0.0800 
 43 H       -4.6600    -4.0930     2.2630 H     1 <1>   0.0800 
 44 H       -6.0240    -3.1650     1.6940 H     1 <1>   0.0800 
 45 H       -4.9050    -2.4620     2.8330 H     1 <1>   0.0800 
@<TRIPOS>BOND
  1   1   2  2   
  2   2   3  am  
  3   2   4  1   
  4   3   5  1   
  5   3   6  1   
  6   4   7  1   
  7   4   8  1   
  8   4   9  1   
  9   5  19  1   
 10   5  20  1   
 11   5  21  1   
 12   6  22  1   
 13   6  23  1   
 14   6  24  1   
 15   7  10  1   
 16   7  25  1   
 17   7  26  1   
 18   8  11  1   
 19   8  27  1   
 20   8  28  1   
 21   9  12  1   
 22   9  29  1   
 23   9  30  1   
 24  10  13  1   
 25  10  14  1   
 26  10  15  1   
 27  11  13  1   
 28  11  16  1   
 29  11  17  1   
 30  12  14  1   
 31  12  16  1   
 32  12  18  1   
 33  13  31  1   
 34  13  32  1   
 35  14  33  1   
 36  14  34  1   
 37  15  35  1   
 38  15  36  1   
 39  15  37  1   
 40  16  38  1   
 41  16  39  1   
 42  17  40  1   
 43  17  41  1   
 44  17  42  1   
 45  18  43  1   
 46  18  44  1   
 47  18  45  1   
@<TRIPOS>SUBSTRUCTURE
  1 ****   4 GROUP 4 **** **** 0

# MOE 2024.06 (io_trps.svl 2023.06)
