@<TRIPOS>MOLECULE
NONAME
50 52 1 0 0 
SMALL
USER_CHARGES


@<TRIPOS>ATOM
  1 S        0.4020     0.1390    -0.5280 S.o2  1 <1>   1.4470 
  2 O       -0.1330    -0.8310     0.4020 O.2   1 <1>  -0.6500 
  3 O        0.2270    -0.0650    -1.9510 O.2   1 <1>  -0.6500 
  4 N        2.0740     0.2100    -0.2530 N.am  1 <1>  -0.8490 
  5 C       -0.1590     1.7980    -0.0550 C.ar  1 <1>  -0.0090 
  6 C        2.6560    -1.1390    -0.1830 C.3   1 <1>   0.1960 
  7 C        2.7760     1.0360    -1.2360 C.3   1 <1>   0.1960 
  8 C       -0.6460     2.6940    -0.9750 C.ar  1 <1>  -0.1500 
  9 C       -0.0830     2.2090     1.2870 C.ar  1 <1>  -0.1500 
 10 C        4.1950    -1.1230    -0.2010 C.3   1 <1>  -0.1600 
 11 C        4.2000     1.3380    -0.7440 C.3   1 <1>  -0.1600 
 12 C       -1.0600     3.9930    -0.6200 C.ar  1 <1>   0.0000 
 13 C       -0.4770     3.4620     1.6680 C.ar  1 <1>  -0.1500 
 14 C        4.7690     0.2490     0.1920 C.3   1 <1>  -0.0190 
 15 C       -0.9730     4.3870     0.7300 C.ar  1 <1>   0.0000 
 16 C       -1.5570     4.9140    -1.5640 C.ar  1 <1>  -0.1500 
 17 C        6.2960     0.2490     0.2040 C.2   1 <1>   0.5690 
 18 C       -1.3840     5.6870     1.0860 C.ar  1 <1>  -0.1500 
 19 C       -1.9490     6.1700    -1.1920 C.ar  1 <1>  -0.1500 
 20 O        6.8970    -0.0560    -0.7980 O.2   1 <1>  -0.5700 
 21 N        6.9450     0.5980     1.3460 N.am  1 <1>  -0.7300 
 22 C       -1.8610     6.5610     0.1490 C.ar  1 <1>  -0.1500 
 23 C        8.4210     0.5540     1.5240 C.3   1 <1>   0.1400 
 24 C        9.0880     1.7460     0.8370 C.3   1 <1>   0.1200 
 25 O       10.4300     1.7760     1.2120 O.3   1 <1>  -0.5600 
 26 C       11.1690     2.7670     0.5750 C.3   1 <1>   0.0400 
 27 H        2.3000    -1.7380    -1.0070 H     1 <1>   0.0800 
 28 H        2.3190    -1.6050     0.7290 H     1 <1>   0.0800 
 29 H        2.2550     1.9650    -1.3920 H     1 <1>   0.0800 
 30 H        2.8150     0.5140    -2.1790 H     1 <1>   0.0800 
 31 H       -0.7190     2.4080    -2.0100 H     1 <1>   0.1500 
 32 H        0.2950     1.5090     2.0130 H     1 <1>   0.1500 
 33 H        4.5310    -1.3730    -1.1930 H     1 <1>   0.0800 
 34 H        4.5670    -1.8850     0.4590 H     1 <1>   0.0800 
 35 H        4.2050     2.2810    -0.2280 H     1 <1>   0.0800 
 36 H        4.8310     1.4460    -1.6100 H     1 <1>   0.0800 
 37 H       -0.4140     3.7620     2.6990 H     1 <1>   0.1500 
 38 H        4.4250     0.4620     1.1890 H     1 <1>   0.0800 
 39 H       -1.6250     4.6090    -2.5930 H     1 <1>   0.1500 
 40 H       -1.3150     5.9830     2.1180 H     1 <1>   0.1500 
 41 H       -2.3270     6.8690    -1.9170 H     1 <1>   0.1500 
 42 H        6.4090     0.8680     2.1710 H     1 <1>   0.3700 
 43 H       -2.1730     7.5530     0.4250 H     1 <1>   0.1500 
 44 H        8.8040    -0.3570     1.0970 H     1 <1>   0.0800 
 45 H        8.6500     0.5710     2.5750 H     1 <1>   0.0800 
 46 H        8.6290     2.6670     1.1480 H     1 <1>   0.0800 
 47 H        9.0260     1.6360    -0.2330 H     1 <1>   0.0800 
 48 H       12.1810     2.7120     0.9340 H     1 <1>   0.0800 
 49 H       10.7510     3.7300     0.8120 H     1 <1>   0.0800 
 50 H       11.1510     2.5960    -0.4870 H     1 <1>   0.0800 
@<TRIPOS>BOND
  1   1   2  2   
  2   1   3  2   
  3   1   4  am  
  4   1   5  1   
  5   4   6  1   
  6   4   7  1   
  7   5   8  ar  
  8   5   9  ar  
  9   6  10  1   
 10   6  27  1   
 11   6  28  1   
 12   7  11  1   
 13   7  29  1   
 14   7  30  1   
 15   8  12  ar  
 16   8  31  1   
 17   9  13  ar  
 18   9  32  1   
 19  10  14  1   
 20  10  33  1   
 21  10  34  1   
 22  11  14  1   
 23  11  35  1   
 24  11  36  1   
 25  12  15  ar  
 26  12  16  ar  
 27  13  15  ar  
 28  13  37  1   
 29  14  17  1   
 30  14  38  1   
 31  15  18  ar  
 32  16  19  ar  
 33  16  39  1   
 34  17  20  2   
 35  17  21  am  
 36  18  22  ar  
 37  18  40  1   
 38  19  22  ar  
 39  19  41  1   
 40  21  23  1   
 41  21  42  1   
 42  22  43  1   
 43  23  24  1   
 44  23  44  1   
 45  23  45  1   
 46  24  25  1   
 47  24  46  1   
 48  24  47  1   
 49  25  26  1   
 50  26  48  1   
 51  26  49  1   
 52  26  50  1   
@<TRIPOS>SUBSTRUCTURE
  1 ****   7 GROUP 4 **** **** 0

# MOE 2024.06 (io_trps.svl 2023.06)
