@<TRIPOS>MOLECULE
NONAME
47 48 1 0 0 
SMALL
USER_CHARGES


@<TRIPOS>ATOM
  1 S       -5.6530    -2.2830    -1.2130 S.o2  1 <1>   1.4470 
  2 O       -5.8780    -1.0680    -1.9660 O.2   1 <1>  -0.6500 
  3 O       -6.1060    -3.5480    -1.7470 O.2   1 <1>  -0.6500 
  4 N       -6.4070    -2.0820     0.2900 N.am  1 <1>  -0.8490 
  5 C       -3.8950    -2.4200    -0.7740 C.ar  1 <1>  -0.0090 
  6 C       -6.1750    -0.7490     0.8710 C.3   1 <1>   0.1960 
  7 C       -7.8560    -2.3230     0.2000 C.3   1 <1>   0.1960 
  8 C       -2.9280    -1.6440    -1.3990 C.ar  1 <1>  -0.1500 
  9 C       -3.4700    -3.3100     0.2020 C.ar  1 <1>  -0.1500 
 10 C       -6.8870    -0.6080     2.2290 C.3   1 <1>   0.1200 
 11 C       -8.5390    -2.1320     1.5670 C.3   1 <1>   0.1200 
 12 C       -1.5900    -1.7470    -1.0580 C.ar  1 <1>  -0.1500 
 13 C       -2.1340    -3.4150     0.5460 C.ar  1 <1>  -0.1500 
 14 O       -8.2550    -0.8650     2.0910 O.3   1 <1>  -0.5600 
 15 C       -1.1580    -2.6380    -0.0750 C.ar  1 <1>   0.0860 
 16 C        0.2390    -2.7580     0.3030 C.2   1 <1>   0.5440 
 17 O        0.5540    -3.0720     1.4340 O.2   1 <1>  -0.5700 
 18 N        1.2460    -2.5030    -0.5870 N.am  1 <1>  -0.7300 
 19 C        2.6890    -2.8590    -0.4080 C.3   1 <1>   0.1400 
 20 C        3.4580    -1.8240     0.4420 C.3   1 <1>   0.3430 
 21 N        2.9300    -1.7570     1.8380 N.4   1 <1>  -0.9590 
 22 C        3.0580    -0.3980     2.4380 C.3   1 <1>   0.2630 
 23 C        3.5060    -2.8120     2.7230 C.3   1 <1>   0.2630 
 24 H       -6.5420     0.0190     0.2090 H     1 <1>   0.0800 
 25 H       -5.1190    -0.5930     1.0120 H     1 <1>   0.0800 
 26 H       -8.0360    -3.3290    -0.1380 H     1 <1>   0.0800 
 27 H       -8.3000    -1.6480    -0.5140 H     1 <1>   0.0800 
 28 H       -3.2310    -0.9460    -2.1640 H     1 <1>   0.1500 
 29 H       -4.2000    -3.9290     0.7000 H     1 <1>   0.1500 
 30 H       -6.7780     0.3930     2.6060 H     1 <1>   0.0800 
 31 H       -6.4760    -1.2980     2.9450 H     1 <1>   0.0800 
 32 H       -8.1970    -2.8770     2.2650 H     1 <1>   0.0800 
 33 H       -9.6060    -2.2150     1.4660 H     1 <1>   0.0800 
 34 H       -0.8800    -1.1150    -1.5610 H     1 <1>   0.1500 
 35 H       -1.8400    -4.1150     1.3110 H     1 <1>   0.1500 
 36 H        0.9670    -2.3540    -1.5620 H     1 <1>   0.3700 
 37 H        3.1510    -2.9210    -1.3790 H     1 <1>   0.0800 
 38 H        2.7650    -3.8320     0.0490 H     1 <1>   0.0800 
 39 H        3.3580    -0.8620    -0.0320 H     1 <1>   0.0800 
 40 H        4.5050    -2.0760     0.4620 H     1 <1>   0.0800 
 41 H        1.9130    -1.9920     1.7550 H     1 <1>   0.4500 
 42 H        4.0970    -0.1300     2.5420 H     1 <1>   0.0800 
 43 H        2.5960    -0.3780     3.4120 H     1 <1>   0.0800 
 44 H        2.5700     0.3320     1.8140 H     1 <1>   0.0800 
 45 H        4.5700    -2.6760     2.8320 H     1 <1>   0.0800 
 46 H        3.3170    -3.7880     2.3080 H     1 <1>   0.0800 
 47 H        3.0480    -2.7670     3.6980 H     1 <1>   0.0800 
@<TRIPOS>BOND
  1   1   2  2   
  2   1   3  2   
  3   1   4  am  
  4   1   5  1   
  5   4   6  1   
  6   4   7  1   
  7   5   8  ar  
  8   5   9  ar  
  9   6  10  1   
 10   6  24  1   
 11   6  25  1   
 12   7  11  1   
 13   7  26  1   
 14   7  27  1   
 15   8  12  ar  
 16   8  28  1   
 17   9  13  ar  
 18   9  29  1   
 19  10  14  1   
 20  10  30  1   
 21  10  31  1   
 22  11  14  1   
 23  11  32  1   
 24  11  33  1   
 25  12  15  ar  
 26  12  34  1   
 27  13  15  ar  
 28  13  35  1   
 29  15  16  1   
 30  16  17  2   
 31  16  18  am  
 32  18  19  1   
 33  18  36  1   
 34  19  20  1   
 35  19  37  1   
 36  19  38  1   
 37  20  21  1   
 38  20  39  1   
 39  20  40  1   
 40  21  22  1   
 41  21  23  1   
 42  21  41  1   
 43  22  42  1   
 44  22  43  1   
 45  22  44  1   
 46  23  45  1   
 47  23  46  1   
 48  23  47  1   
@<TRIPOS>SUBSTRUCTURE
  1 ****  13 GROUP 4 **** **** 0

# MOE 2024.06 (io_trps.svl 2023.06)
