@<TRIPOS>MOLECULE
NONAME
34 34 1 0 0 
SMALL
USER_CHARGES


@<TRIPOS>ATOM
  1 O       -1.8080     1.0300     1.1380 O.2   1 <1>  -0.5700 
  2 C       -1.6160     1.2100    -0.0480 C.2   1 <1>   0.7800 
  3 O       -0.3960     1.2680    -0.5560 O.3   1 <1>  -0.4300 
  4 N       -2.6360     1.3300    -0.9250 N.am  1 <1>  -0.7300 
  5 C        0.7400     1.1740     0.2740 C.3   1 <1>   0.1200 
  6 C       -4.0340     1.7000    -0.5350 C.3   1 <1>   0.1400 
  7 C        1.9800     1.2760    -0.6080 C.3   1 <1>  -0.2400 
  8 C       -4.6740     0.8420     0.5960 C.3   1 <1>   0.6230 
  9 N       -4.7770    -0.6260     0.3350 N.4   1 <1>  -0.9590 
 10 C       -6.0740     1.2950     0.8240 C.1   1 <1>  -0.2000 
 11 C       -3.5490    -1.3960     0.6310 C.3   1 <1>   0.3430 
 12 C       -5.2000    -1.0320    -1.0240 C.3   1 <1>   0.3430 
 13 C       -7.1940     1.6510     1.0080 C.1   1 <1>  -0.1770 
 14 C       -3.8190    -2.7590     0.0090 C.3   1 <1>  -0.1600 
 15 C       -4.8620    -2.5170    -1.0870 C.3   1 <1>  -0.1600 
 16 H       -2.3420     1.5960    -1.8690 H     1 <1>   0.3700 
 17 H        0.7130     0.2290     0.7910 H     1 <1>   0.0800 
 18 H        0.7100     1.9790     0.9890 H     1 <1>   0.0800 
 19 H       -4.6630     1.6640    -1.4070 H     1 <1>   0.0800 
 20 H       -4.0230     2.7250    -0.2020 H     1 <1>   0.0800 
 21 H        1.9960     0.4730    -1.3240 H     1 <1>   0.0800 
 22 H        2.8640     1.2080    -0.0010 H     1 <1>   0.0800 
 23 H        1.9930     2.2190    -1.1250 H     1 <1>   0.0800 
 24 H       -4.1200     1.0060     1.5060 H     1 <1>   0.0800 
 25 H       -5.4990    -0.9590     0.9840 H     1 <1>   0.4500 
 26 H       -3.3530    -1.4610     1.6900 H     1 <1>   0.0800 
 27 H       -2.7030    -0.9500     0.1370 H     1 <1>   0.0800 
 28 H       -4.6190    -0.5050    -1.7640 H     1 <1>   0.0800 
 29 H       -6.2500    -0.8500    -1.1880 H     1 <1>   0.0800 
 30 H       -8.2060     1.9840     1.1820 H     1 <1>   0.1770 
 31 H       -4.2070    -3.4290     0.7570 H     1 <1>   0.0800 
 32 H       -2.9090    -3.1780    -0.3860 H     1 <1>   0.0800 
 33 H       -4.4820    -2.7700    -2.0620 H     1 <1>   0.0800 
 34 H       -5.7460    -3.1030    -0.9030 H     1 <1>   0.0800 
@<TRIPOS>BOND
  1   1   2  2   
  2   2   3  1   
  3   2   4  am  
  4   3   5  1   
  5   4   6  1   
  6   4  16  1   
  7   5   7  1   
  8   5  17  1   
  9   5  18  1   
 10   6   8  1   
 11   6  19  1   
 12   6  20  1   
 13   7  21  1   
 14   7  22  1   
 15   7  23  1   
 16   8   9  1   
 17   8  10  1   
 18   8  24  1   
 19   9  11  1   
 20   9  12  1   
 21   9  25  1   
 22  10  13  3   
 23  11  14  1   
 24  11  26  1   
 25  11  27  1   
 26  12  15  1   
 27  12  28  1   
 28  12  29  1   
 29  13  30  1   
 30  14  15  1   
 31  14  31  1   
 32  14  32  1   
 33  15  33  1   
 34  15  34  1   
@<TRIPOS>SUBSTRUCTURE
  1 ****   4 GROUP 4 **** **** 0

# MOE 2024.06 (io_trps.svl 2023.06)
