@<TRIPOS>MOLECULE
NONAME
39 40 1 0 0 
SMALL
USER_CHARGES


@<TRIPOS>ATOM
  1 CL       0.1620     0.1050     0.1570 Cl    1 <1>  -0.1770 
  2 C        1.8590     0.2190    -0.2210 C.ar  1 <1>   0.1770 
  3 C        2.3990     1.4420    -0.5690 C.ar  1 <1>  -0.1500 
  4 C        2.6460    -0.9150    -0.1700 C.ar  1 <1>  -0.1500 
  5 C        3.7480     1.5260    -0.8680 C.ar  1 <1>  -0.1500 
  6 C        3.9930    -0.8180    -0.4710 C.ar  1 <1>  -0.1500 
  7 C        4.5790     0.4030    -0.8190 C.ar  1 <1>   0.0860 
  8 C        5.9940     0.4610    -1.1350 C.2   1 <1>   0.5440 
  9 O        6.4360    -0.3000    -1.9810 O.2   1 <1>  -0.5700 
 10 N        6.8500     1.3550    -0.4950 N.am  1 <1>  -0.2980 
 11 N        6.4400     2.4790     0.2010 N.2   1 <1>  -0.5120 
 12 C        8.3420     1.3430    -0.6290 C.3   1 <1>   0.5800 
 13 C        7.4130     3.2530     0.3710 C.2   1 <1>   0.3280 
 14 O        8.6370     1.2200    -1.9680 O.3   1 <1>  -0.6800 
 15 C        9.0700     0.2100     0.2140 C.3   1 <1>   0.0000 
 16 C        8.7160     2.7710    -0.2020 C.3   1 <1>  -0.0990 
 17 C        7.3640     4.5870     1.0790 C.3   1 <1>  -0.1790 
 18 C       10.6070     0.2900     0.0560 C.3   1 <1>  -0.2400 
 19 C        8.6740    -1.2210    -0.2140 C.3   1 <1>  -0.2400 
 20 C        8.7490     0.3180     1.7230 C.3   1 <1>  -0.2400 
 21 H        1.7700     2.3140    -0.6050 H     1 <1>   0.1500 
 22 H        2.2050    -1.8580     0.0990 H     1 <1>   0.1500 
 23 H        4.1710     2.4770    -1.1440 H     1 <1>   0.1500 
 24 H        4.6110    -1.6990    -0.4410 H     1 <1>   0.1500 
 25 H        8.0230     0.5270    -2.3060 H     1 <1>   0.4000 
 26 H        8.9980     3.3770    -1.0420 H     1 <1>   0.0800 
 27 H        9.4840     2.8080     0.5430 H     1 <1>   0.0800 
 28 H        7.6610     5.3700     0.4060 H     1 <1>   0.0800 
 29 H        8.0230     4.5780     1.9280 H     1 <1>   0.0800 
 30 H        6.3630     4.7820     1.4190 H     1 <1>   0.0800 
 31 H       11.0030     1.2200     0.4200 H     1 <1>   0.0800 
 32 H       10.8830     0.1910    -0.9790 H     1 <1>   0.0800 
 33 H       11.0890    -0.5010     0.6030 H     1 <1>   0.0800 
 34 H        8.8380    -1.3660    -1.2670 H     1 <1>   0.0800 
 35 H        7.6410    -1.4180     0.0040 H     1 <1>   0.0800 
 36 H        9.2570    -1.9550     0.3150 H     1 <1>   0.0800 
 37 H        9.0940     1.2470     2.1380 H     1 <1>   0.0800 
 38 H        9.2220    -0.4790     2.2680 H     1 <1>   0.0800 
 39 H        7.6880     0.2500     1.8890 H     1 <1>   0.0800 
@<TRIPOS>BOND
  1   1   2  1   
  2   2   3  ar  
  3   2   4  ar  
  4   3   5  ar  
  5   3  21  1   
  6   4   6  ar  
  7   4  22  1   
  8   5   7  ar  
  9   5  23  1   
 10   6   7  ar  
 11   6  24  1   
 12   7   8  1   
 13   8   9  2   
 14   8  10  am  
 15  10  11  1   
 16  10  12  1   
 17  11  13  2   
 18  12  14  1   
 19  12  15  1   
 20  12  16  1   
 21  13  16  1   
 22  13  17  1   
 23  14  25  1   
 24  15  18  1   
 25  15  19  1   
 26  15  20  1   
 27  16  26  1   
 28  16  27  1   
 29  17  28  1   
 30  17  29  1   
 31  17  30  1   
 32  18  31  1   
 33  18  32  1   
 34  18  33  1   
 35  19  34  1   
 36  19  35  1   
 37  19  36  1   
 38  20  37  1   
 39  20  38  1   
 40  20  39  1   
@<TRIPOS>SUBSTRUCTURE
  1 ****  10 GROUP 4 **** **** 0

# MOE 2024.06 (io_trps.svl 2023.06)
