@<TRIPOS>MOLECULE
NONAME
59 61 1 0 0 
SMALL
USER_CHARGES


@<TRIPOS>ATOM
  1 O        3.5830    -3.8110     2.0550 O.2   1 <1>  -0.5700 
  2 C        3.4490    -3.2620     0.9920 C.2   1 <1>   0.5690 
  3 N        4.0620    -2.0800     0.7680 N.am  1 <1>  -0.7300 
  4 C        2.5730    -3.9430    -0.0630 C.3   1 <1>  -0.0190 
  5 C        4.0190    -1.1800    -0.3940 C.3   1 <1>   0.2840 
  6 C        1.1100    -4.0060     0.4180 C.3   1 <1>  -0.1600 
  7 C        3.0970    -5.3620    -0.3670 C.3   1 <1>  -0.1600 
  8 C        4.7370     0.1010    -0.0210 C.ar  1 <1>  -0.1440 
  9 C        0.2210    -4.8210    -0.5170 C.3   1 <1>   0.3430 
 10 C        2.1640    -6.1440    -1.2880 C.3   1 <1>   0.3430 
 11 C        4.0650     1.1120     0.6480 C.ar  1 <1>  -0.1500 
 12 C        6.0760     0.2730    -0.3380 C.ar  1 <1>  -0.1500 
 13 N        0.8020    -6.1850    -0.6910 N.4   1 <1>  -0.9590 
 14 C        4.7210     2.2810     0.9910 C.ar  1 <1>  -0.1500 
 15 C        6.7310     1.4430     0.0050 C.ar  1 <1>  -0.1500 
 16 C       -0.1060    -7.0840    -1.4550 C.3   1 <1>   0.4860 
 17 C        6.0570     2.4530     0.6710 C.ar  1 <1>  -0.1430 
 18 C       -1.3820    -7.2720    -0.6590 C.ar  1 <1>  -0.1430 
 19 C        6.7760     3.7370     1.0460 C.3   1 <1>  -0.0970 
 20 C       -2.5290    -6.5740    -1.0110 C.ar  1 <1>  -0.1500 
 21 C       -1.4160    -8.1370     0.4260 C.ar  1 <1>  -0.1500 
 22 C       -3.6950    -6.7180    -0.2800 C.ar  1 <1>   0.0820 
 23 C       -2.5780    -8.2800     1.1660 C.ar  1 <1>  -0.1500 
 24 O       -4.7720    -6.0120    -0.7030 O.3   1 <1>  -0.3630 
 25 C       -3.7140    -7.5630     0.8350 C.ar  1 <1>   0.0820 
 26 C       -5.9070    -6.7520    -1.1010 C.3   1 <1>   0.0400 
 27 O       -4.8020    -7.7210     1.6260 O.3   1 <1>  -0.3630 
 28 C       -5.2050    -6.5980     2.3800 C.3   1 <1>   0.0400 
 29 H        4.6220    -1.7110     1.5440 H     1 <1>   0.3700 
 30 H        2.6060    -3.3740    -0.9740 H     1 <1>   0.0800 
 31 H        2.9970    -0.9630    -0.6550 H     1 <1>   0.0800 
 32 H        4.5050    -1.6450    -1.2340 H     1 <1>   0.0800 
 33 H        0.7180    -3.0070     0.4960 H     1 <1>   0.0800 
 34 H        1.0670    -4.4390     1.4030 H     1 <1>   0.0800 
 35 H        3.2210    -5.9130     0.5500 H     1 <1>   0.0800 
 36 H        4.0680    -5.2910    -0.8250 H     1 <1>   0.0800 
 37 H        0.1460    -4.3280    -1.4730 H     1 <1>   0.0800 
 38 H       -0.7680    -4.8890    -0.0910 H     1 <1>   0.0800 
 39 H        2.5450    -7.1460    -1.4130 H     1 <1>   0.0800 
 40 H        2.1270    -5.6700    -2.2550 H     1 <1>   0.0800 
 41 H        3.0280     0.9950     0.9100 H     1 <1>   0.1500 
 42 H        6.6190    -0.5010    -0.8520 H     1 <1>   0.1500 
 43 H        0.8780    -6.5870     0.2530 H     1 <1>   0.4500 
 44 H        4.1860     3.0580     1.5080 H     1 <1>   0.1500 
 45 H        7.7690     1.5640    -0.2500 H     1 <1>   0.1500 
 46 H        0.3610    -8.0440    -1.6060 H     1 <1>   0.0800 
 47 H       -0.3320    -6.6580    -2.4190 H     1 <1>   0.0800 
 48 H        6.3510     4.1590     1.9380 H     1 <1>   0.0800 
 49 H        6.6870     4.4500     0.2460 H     1 <1>   0.0800 
 50 H        7.8190     3.5440     1.2260 H     1 <1>   0.0800 
 51 H       -2.5450    -5.9100    -1.8570 H     1 <1>   0.1500 
 52 H       -0.5490    -8.7090     0.7120 H     1 <1>   0.1500 
 53 H       -2.6120    -8.9460     2.0110 H     1 <1>   0.1500 
 54 H       -6.6060    -6.0750    -1.5580 H     1 <1>   0.0800 
 55 H       -5.6050    -7.5030    -1.8090 H     1 <1>   0.0800 
 56 H       -6.3580    -7.2110    -0.2400 H     1 <1>   0.0800 
 57 H       -4.3810    -6.2780     2.9930 H     1 <1>   0.0800 
 58 H       -5.5070    -5.8090     1.7160 H     1 <1>   0.0800 
 59 H       -6.0320    -6.8910     3.0010 H     1 <1>   0.0800 
@<TRIPOS>BOND
  1   1   2  2   
  2   2   3  am  
  3   2   4  1   
  4   3   5  1   
  5   3  29  1   
  6   4   6  1   
  7   4   7  1   
  8   4  30  1   
  9   5   8  1   
 10   5  31  1   
 11   5  32  1   
 12   6   9  1   
 13   6  33  1   
 14   6  34  1   
 15   7  10  1   
 16   7  35  1   
 17   7  36  1   
 18   8  11  ar  
 19   8  12  ar  
 20   9  13  1   
 21   9  37  1   
 22   9  38  1   
 23  10  13  1   
 24  10  39  1   
 25  10  40  1   
 26  11  14  ar  
 27  11  41  1   
 28  12  15  ar  
 29  12  42  1   
 30  13  16  1   
 31  13  43  1   
 32  14  17  ar  
 33  14  44  1   
 34  15  17  ar  
 35  15  45  1   
 36  16  18  1   
 37  16  46  1   
 38  16  47  1   
 39  17  19  1   
 40  18  20  ar  
 41  18  21  ar  
 42  19  48  1   
 43  19  49  1   
 44  19  50  1   
 45  20  22  ar  
 46  20  51  1   
 47  21  23  ar  
 48  21  52  1   
 49  22  24  1   
 50  22  25  ar  
 51  23  25  ar  
 52  23  53  1   
 53  24  26  1   
 54  25  27  1   
 55  26  54  1   
 56  26  55  1   
 57  26  56  1   
 58  27  28  1   
 59  28  57  1   
 60  28  58  1   
 61  28  59  1   
@<TRIPOS>SUBSTRUCTURE
  1 ****   6 GROUP 4 **** **** 0

# MOE 2024.06 (io_trps.svl 2023.06)
