@<TRIPOS>MOLECULE
NONAME
44 45 1 0 0 
SMALL
USER_CHARGES


@<TRIPOS>ATOM
  1 BR       0.3420     0.5380     0.7720 Br    1 <1>  -0.1110 
  2 C        1.8100    -0.6530     0.4110 C.ar  1 <1>   0.1110 
  3 C        3.0900    -0.1380     0.3680 C.ar  1 <1>  -0.1500 
  4 C        1.5430    -1.9920     0.2030 C.ar  1 <1>  -0.1500 
  5 C        4.1480    -0.9940     0.1080 C.ar  1 <1>   0.0830 
  6 C        2.6020    -2.8450    -0.0570 C.ar  1 <1>  -0.1500 
  7 O        5.3850    -0.4400     0.0790 O.3   1 <1>  -0.3630 
  8 C        3.8980    -2.3520    -0.1060 C.ar  1 <1>  -0.1500 
  9 C        6.5350    -1.2180    -0.1410 C.3   1 <1>   0.1200 
 10 C        7.7380    -0.2690    -0.1030 C.3   1 <1>   0.3430 
 11 N        9.0460    -0.9670    -0.3420 N.4   1 <1>  -0.9590 
 12 C        9.4130    -1.8840     0.7790 C.3   1 <1>   0.3430 
 13 C       10.1210     0.0380    -0.5910 C.3   1 <1>   0.3430 
 14 C       10.6810    -2.6520     0.4150 C.3   1 <1>  -0.1600 
 15 C       11.4080    -0.6800    -0.9910 C.3   1 <1>  -0.1600 
 16 C       11.8500    -1.7100     0.0660 C.3   1 <1>  -0.0190 
 17 C       13.0640    -2.4970    -0.4190 C.2   1 <1>   0.6590 
 18 O       12.9870    -3.2390    -1.3630 O.2   1 <1>  -0.5700 
 19 O       14.1870    -2.3070     0.2550 O.3   1 <1>  -0.4300 
 20 C       15.3770    -2.9740    -0.0980 C.3   1 <1>   0.1200 
 21 C       16.4720    -2.5340     0.8690 C.3   1 <1>  -0.2400 
 22 H        3.2600     0.9100     0.5340 H     1 <1>   0.1500 
 23 H        0.5320    -2.3560     0.2440 H     1 <1>   0.1500 
 24 H        2.4150    -3.8930    -0.2230 H     1 <1>   0.1500 
 25 H        4.6910    -3.0440    -0.3120 H     1 <1>   0.1500 
 26 H        6.4430    -1.6840    -1.1060 H     1 <1>   0.0800 
 27 H        6.5890    -1.9540     0.6420 H     1 <1>   0.0800 
 28 H        7.7610     0.2250     0.8550 H     1 <1>   0.0800 
 29 H        7.5900     0.4800    -0.8640 H     1 <1>   0.0800 
 30 H        8.9660    -1.5330    -1.1990 H     1 <1>   0.4500 
 31 H        8.6160    -2.5860     0.9660 H     1 <1>   0.0800 
 32 H        9.5800    -1.3140     1.6800 H     1 <1>   0.0800 
 33 H       10.2930     0.6200     0.3010 H     1 <1>   0.0800 
 34 H        9.8260     0.7090    -1.3830 H     1 <1>   0.0800 
 35 H       10.4720    -3.3050    -0.4150 H     1 <1>   0.0800 
 36 H       10.9650    -3.2760     1.2450 H     1 <1>   0.0800 
 37 H       12.1900     0.0490    -1.1240 H     1 <1>   0.0800 
 38 H       11.2620    -1.1660    -1.9410 H     1 <1>   0.0800 
 39 H       12.1390    -1.1810     0.9580 H     1 <1>   0.0800 
 40 H       15.6300    -2.7120    -1.1120 H     1 <1>   0.0800 
 41 H       15.2070    -4.0360    -0.0320 H     1 <1>   0.0800 
 42 H       16.6260    -1.4720     0.7980 H     1 <1>   0.0800 
 43 H       17.3930    -3.0300     0.6220 H     1 <1>   0.0800 
 44 H       16.2040    -2.7940     1.8770 H     1 <1>   0.0800 
@<TRIPOS>BOND
  1   1   2  1   
  2   2   3  ar  
  3   2   4  ar  
  4   3   5  ar  
  5   3  22  1   
  6   4   6  ar  
  7   4  23  1   
  8   5   7  1   
  9   5   8  ar  
 10   6   8  ar  
 11   6  24  1   
 12   7   9  1   
 13   8  25  1   
 14   9  10  1   
 15   9  26  1   
 16   9  27  1   
 17  10  11  1   
 18  10  28  1   
 19  10  29  1   
 20  11  12  1   
 21  11  13  1   
 22  11  30  1   
 23  12  14  1   
 24  12  31  1   
 25  12  32  1   
 26  13  15  1   
 27  13  33  1   
 28  13  34  1   
 29  14  16  1   
 30  14  35  1   
 31  14  36  1   
 32  15  16  1   
 33  15  37  1   
 34  15  38  1   
 35  16  17  1   
 36  16  39  1   
 37  17  18  2   
 38  17  19  1   
 39  19  20  1   
 40  20  21  1   
 41  20  40  1   
 42  20  41  1   
 43  21  42  1   
 44  21  43  1   
 45  21  44  1   
@<TRIPOS>SUBSTRUCTURE
  1 ****  11 GROUP 4 **** **** 0

# MOE 2024.06 (io_trps.svl 2023.06)
