@<TRIPOS>MOLECULE
NONAME
48 51 1 0 0 
SMALL
USER_CHARGES


@<TRIPOS>ATOM
  1 O        0.0530     0.7590    -0.2400 O.2   1 <1>  -0.5700 
  2 C        0.7360     1.7680    -0.2000 C.2   1 <1>   0.6900 
  3 N        0.3020     2.8780     0.5130 N.am  1 <1>  -0.4690 
  4 N        1.9410     1.8160    -0.8760 N.am  1 <1>  -0.4200 
  5 C        1.0730     4.0270     0.5240 C.2   1 <1>   0.2090 
  6 C       -0.9860     2.8090     1.2650 C.3   1 <1>   0.0600 
  7 C        2.7010     2.9750    -0.8770 C.2   1 <1>   0.6160 
  8 C        2.3910     0.6450    -1.6850 C.3   1 <1>   0.0600 
  9 N        0.5190     5.2190     0.9670 N.pl3 1 <1>  -0.6000 
 10 C        2.3240     4.0320    -0.0170 C.2   1 <1>  -0.1240 
 11 O        3.6290     3.0630    -1.6660 O.2   1 <1>  -0.5700 
 12 C        1.0040     6.4050     0.4390 C.2   1 <1>  -0.0380 
 13 C        3.1630     5.2730     0.3240 C.3   1 <1>   0.3400 
 14 C        2.2790     6.4860    -0.0390 C.2   1 <1>  -0.1240 
 15 C        0.0080     7.5520     0.3310 C.3   1 <1>  -0.0220 
 16 C        4.7140     5.2690     0.3540 C.ar  1 <1>  -0.1440 
 17 C        2.7200     7.5850    -0.8360 C.2   1 <1>   0.4950 
 18 C        0.3630     8.4970    -0.8260 C.3   1 <1>  -0.1600 
 19 C        5.4380     4.0810     0.4020 C.ar  1 <1>  -0.1500 
 20 C        5.4420     6.4510     0.4600 C.ar  1 <1>  -0.1500 
 21 O        3.6910     7.5970    -1.5500 O.2   1 <1>  -0.5700 
 22 C        1.8610     8.8390    -0.8340 C.3   1 <1>  -0.0990 
 23 C        6.8220     4.0610     0.4790 C.ar  1 <1>   0.0820 
 24 C        6.8240     6.4510     0.5340 C.ar  1 <1>  -0.1500 
 25 O        7.4170     2.8410     0.5060 O.3   1 <1>  -0.3630 
 26 C        7.5210     5.2590     0.5360 C.ar  1 <1>  -0.1500 
 27 C        8.8190     2.7130     0.4460 C.3   1 <1>   0.0400 
 28 H       -1.2470     1.7880     1.4830 H     1 <1>   0.0800 
 29 H       -1.7700     3.2480     0.6760 H     1 <1>   0.0800 
 30 H       -0.8960     3.3320     2.2010 H     1 <1>   0.0800 
 31 H        2.0380     0.7530    -2.6950 H     1 <1>   0.0800 
 32 H        2.0070    -0.2710    -1.2720 H     1 <1>   0.0800 
 33 H        3.4660     0.5890    -1.6920 H     1 <1>   0.0800 
 34 H       -0.4290     5.1850     1.3490 H     1 <1>   0.4000 
 35 H        3.0520     5.2860     1.3960 H     1 <1>   0.0800 
 36 H        0.0060     8.0960     1.2600 H     1 <1>   0.0800 
 37 H       -0.9830     7.1670     0.1670 H     1 <1>   0.0800 
 38 H       -0.2220     9.3970    -0.7590 H     1 <1>   0.0800 
 39 H        0.1190     8.0110    -1.7560 H     1 <1>   0.0800 
 40 H        4.9530     3.1260     0.3930 H     1 <1>   0.1500 
 41 H        4.9510     7.4030     0.5000 H     1 <1>   0.1500 
 42 H        2.0900     9.4250    -1.7060 H     1 <1>   0.0800 
 43 H        2.1120     9.4220     0.0340 H     1 <1>   0.0800 
 44 H        7.3540     7.3850     0.5920 H     1 <1>   0.1500 
 45 H        8.5920     5.2850     0.5900 H     1 <1>   0.1500 
 46 H        9.0570     1.6650     0.4230 H     1 <1>   0.0800 
 47 H        9.2490     3.1660     1.3220 H     1 <1>   0.0800 
 48 H        9.1750     3.1890    -0.4510 H     1 <1>   0.0800 
@<TRIPOS>BOND
  1   1   2  2   
  2   2   3  am  
  3   2   4  am  
  4   3   5  1   
  5   3   6  1   
  6   4   7  am  
  7   4   8  1   
  8   5   9  1   
  9   5  10  2   
 10   6  28  1   
 11   6  29  1   
 12   6  30  1   
 13   7  10  1   
 14   7  11  2   
 15   8  31  1   
 16   8  32  1   
 17   8  33  1   
 18   9  12  1   
 19   9  34  1   
 20  10  13  1   
 21  12  14  2   
 22  12  15  1   
 23  13  14  1   
 24  13  16  1   
 25  13  35  1   
 26  14  17  1   
 27  15  18  1   
 28  15  36  1   
 29  15  37  1   
 30  16  19  ar  
 31  16  20  ar  
 32  17  21  2   
 33  17  22  1   
 34  18  22  1   
 35  18  38  1   
 36  18  39  1   
 37  19  23  ar  
 38  19  40  1   
 39  20  24  ar  
 40  20  41  1   
 41  22  42  1   
 42  22  43  1   
 43  23  25  1   
 44  23  26  ar  
 45  24  26  ar  
 46  24  44  1   
 47  25  27  1   
 48  26  45  1   
 49  27  46  1   
 50  27  47  1   
 51  27  48  1   
@<TRIPOS>SUBSTRUCTURE
  1 ****  13 GROUP 4 **** **** 0

# MOE 2024.06 (io_trps.svl 2023.06)
