@<TRIPOS>MOLECULE
NONAME
53 55 1 0 0 
SMALL
USER_CHARGES


@<TRIPOS>ATOM
  1 N      -11.1890     2.5200     0.5160 N.pl3 1 <1>  -0.7030 
  2 C      -10.2800     3.4710     0.2720 C.cat 1 <1>   1.0690 
  3 C      -12.4140     3.0210     0.1030 C.ar  1 <1>   0.3030 
  4 N      -10.8330     4.5460    -0.2670 N.pl3 1 <1>  -0.6330 
  5 N       -8.9560     3.6140     0.4470 N.pl3 1 <1>  -0.5710 
  6 C      -12.1960     4.2990    -0.3920 C.ar  1 <1>   0.3030 
  7 C      -13.6930     2.4760     0.1180 C.ar  1 <1>  -0.1160 
  8 C       -9.8240     5.4650    -0.4420 C.2   1 <1>   0.2230 
  9 C       -8.6630     4.9180    -0.0080 C.2   1 <1>   0.1580 
 10 C       -8.0980     2.5910     1.1080 C.3   1 <1>   0.1610 
 11 C      -13.2440     5.0650    -0.8840 C.ar  1 <1>  -0.1160 
 12 C      -14.7380     3.2370    -0.3720 C.ar  1 <1>  -0.1570 
 13 C       -7.2990     5.6550    -0.0540 C.3   1 <1>   0.1310 
 14 C       -7.2740     1.8080     0.0750 C.3   1 <1>  -0.1670 
 15 C      -14.5150     4.5230    -0.8700 C.ar  1 <1>  -0.1570 
 16 C       -6.6410     5.4300    -1.4230 C.3   1 <1>  -0.2460 
 17 C       -6.3140     5.2400     1.0520 C.3   1 <1>  -0.2460 
 18 C       -7.5200     7.1720     0.1080 C.3   1 <1>  -0.2460 
 19 C       -6.2770     0.8720     0.7610 C.3   1 <1>   0.3370 
 20 N       -5.4620     0.1800    -0.2670 N.4   1 <1>  -0.9080 
 21 C       -4.4350    -0.7090     0.2920 C.3   1 <1>   0.4180 
 22 C       -3.4850    -1.0660    -0.8410 C.3   1 <1>  -0.2460 
 23 C       -5.1040    -1.9600     0.8540 C.3   1 <1>  -0.2460 
 24 H      -11.0320     1.6150     0.9520 H     1 <1>   0.4450 
 25 H      -13.8630     1.4850     0.5020 H     1 <1>   0.1430 
 26 H      -10.0160     6.4380    -0.8660 H     1 <1>   0.1430 
 27 H       -8.7230     1.9030     1.6540 H     1 <1>   0.0730 
 28 H       -7.4630     3.0650     1.8340 H     1 <1>   0.0730 
 29 H      -13.0640     6.0550    -1.2650 H     1 <1>   0.1430 
 30 H      -15.7410     2.8400    -0.3730 H     1 <1>   0.1430 
 31 H       -6.7280     2.4970    -0.5380 H     1 <1>   0.0730 
 32 H       -7.9400     1.2330    -0.5450 H     1 <1>   0.0730 
 33 H      -15.3500     5.0940    -1.2460 H     1 <1>   0.1430 
 34 H       -5.7070     5.9640    -1.4840 H     1 <1>   0.0730 
 35 H       -7.2770     5.7880    -2.2140 H     1 <1>   0.0730 
 36 H       -6.4420     4.3920    -1.6010 H     1 <1>   0.0730 
 37 H       -5.9240     4.2570     0.8830 H     1 <1>   0.0730 
 38 H       -6.7880     5.2840     2.0170 H     1 <1>   0.0730 
 39 H       -5.4690     5.9060     1.0710 H     1 <1>   0.0730 
 40 H       -8.0890     7.5830    -0.7060 H     1 <1>   0.0730 
 41 H       -6.5780     7.6940     0.1260 H     1 <1>   0.0730 
 42 H       -8.0310     7.3850     1.0310 H     1 <1>   0.0730 
 43 H       -6.8060     0.1470     1.3590 H     1 <1>   0.0730 
 44 H       -5.6300     1.4420     1.4100 H     1 <1>   0.0730 
 45 H       -4.9810     0.8670    -0.8590 H     1 <1>   0.4450 
 46 H       -6.0520    -0.3850    -0.8880 H     1 <1>   0.4450 
 47 H       -3.8870    -0.2020     1.0710 H     1 <1>   0.0730 
 48 H       -3.9980    -1.5760    -1.6380 H     1 <1>   0.0730 
 49 H       -2.7150    -1.7210    -0.4710 H     1 <1>   0.0730 
 50 H       -3.0030    -0.1860    -1.2280 H     1 <1>   0.0730 
 51 H       -5.6770    -2.4700     0.1000 H     1 <1>   0.0730 
 52 H       -5.7360    -1.7240     1.6900 H     1 <1>   0.0730 
 53 H       -4.3480    -2.6390     1.2080 H     1 <1>   0.0730 
@<TRIPOS>BOND
  1   1   2  ar  
  2   1   3  1   
  3   1  24  1   
  4   2   4  ar  
  5   2   5  ar  
  6   3   6  ar  
  7   3   7  ar  
  8   4   6  1   
  9   4   8  1   
 10   5   9  1   
 11   5  10  1   
 12   6  11  ar  
 13   7  12  ar  
 14   7  25  1   
 15   8   9  2   
 16   8  26  1   
 17   9  13  1   
 18  10  14  1   
 19  10  27  1   
 20  10  28  1   
 21  11  15  ar  
 22  11  29  1   
 23  12  15  ar  
 24  12  30  1   
 25  13  16  1   
 26  13  17  1   
 27  13  18  1   
 28  14  19  1   
 29  14  31  1   
 30  14  32  1   
 31  15  33  1   
 32  16  34  1   
 33  16  35  1   
 34  16  36  1   
 35  17  37  1   
 36  17  38  1   
 37  17  39  1   
 38  18  40  1   
 39  18  41  1   
 40  18  42  1   
 41  19  20  1   
 42  19  43  1   
 43  19  44  1   
 44  20  21  1   
 45  20  45  1   
 46  20  46  1   
 47  21  22  1   
 48  21  23  1   
 49  21  47  1   
 50  22  48  1   
 51  22  49  1   
 52  22  50  1   
 53  23  51  1   
 54  23  52  1   
 55  23  53  1   
@<TRIPOS>SUBSTRUCTURE
  1 ****   5 GROUP 4 **** **** 0

# MOE 2024.06 (io_trps.svl 2023.06)
