@<TRIPOS>MOLECULE
NONAME
40 41 1 0 0 
SMALL
USER_CHARGES


@<TRIPOS>ATOM
  1 BR       1.3950    -0.4170     2.0500 Br    1 <1>  -0.1110 
  2 C        0.4870    -1.9250     1.2560 C.ar  1 <1>   0.1110 
  3 C        1.0510    -2.5770     0.1680 C.ar  1 <1>   0.0830 
  4 C       -0.7180    -2.3070     1.8100 C.ar  1 <1>  -0.1500 
  5 O        2.2400    -2.1230    -0.3070 O.3   1 <1>  -0.3630 
  6 C        0.3630    -3.6570    -0.3770 C.ar  1 <1>  -0.1500 
  7 C       -1.3990    -3.3820     1.2590 C.ar  1 <1>  -0.1430 
  8 C        2.9240    -2.7710    -1.3570 C.3   1 <1>   0.0400 
  9 C       -0.8570    -4.0590     0.1660 C.ar  1 <1>   0.0830 
 10 C       -2.7290    -3.8150     1.8470 C.3   1 <1>   0.4870 
 11 O       -1.5770    -5.1010    -0.3350 O.3   1 <1>  -0.3630 
 12 N       -3.7730    -3.6840     0.7990 N.4   1 <1>  -0.9590 
 13 C       -1.0000    -6.0170    -1.2470 C.3   1 <1>   0.0400 
 14 C       -3.9670    -2.2640     0.3760 C.3   1 <1>   0.3430 
 15 C       -5.0380    -4.3680     1.1850 C.3   1 <1>   0.3430 
 16 C       -4.9350    -2.2060    -0.8020 C.3   1 <1>  -0.1600 
 17 C       -6.0200    -4.3340     0.0160 C.3   1 <1>  -0.1600 
 18 C       -6.2470    -2.8950    -0.4390 C.3   1 <1>   0.2000 
 19 O       -7.0590    -2.9070    -1.5450 O.3   1 <1>  -0.6800 
 20 H       -1.0970    -1.7620     2.6570 H     1 <1>   0.1500 
 21 H        0.7770    -4.1730    -1.2200 H     1 <1>   0.1500 
 22 H        3.8480    -2.2460    -1.5260 H     1 <1>   0.0800 
 23 H        2.3190    -2.7340    -2.2460 H     1 <1>   0.0800 
 24 H        3.1310    -3.7860    -1.0680 H     1 <1>   0.0800 
 25 H       -2.9760    -3.2100     2.7040 H     1 <1>   0.0800 
 26 H       -2.6500    -4.8440     2.1610 H     1 <1>   0.0800 
 27 H       -3.3600    -4.1890    -0.0050 H     1 <1>   0.4500 
 28 H       -0.8020    -5.5130    -2.1770 H     1 <1>   0.0800 
 29 H       -1.6990    -6.8180    -1.4120 H     1 <1>   0.0800 
 30 H       -0.0920    -6.4110    -0.8240 H     1 <1>   0.0800 
 31 H       -3.0240    -1.8310     0.0830 H     1 <1>   0.0800 
 32 H       -4.3640    -1.6890     1.1970 H     1 <1>   0.0800 
 33 H       -5.4770    -3.8720     2.0360 H     1 <1>   0.0800 
 34 H       -4.8380    -5.3930     1.4540 H     1 <1>   0.0800 
 35 H       -4.4810    -2.6750    -1.6570 H     1 <1>   0.0800 
 36 H       -5.1290    -1.1750    -1.0440 H     1 <1>   0.0800 
 37 H       -6.9560    -4.7590     0.3330 H     1 <1>   0.0800 
 38 H       -5.6320    -4.9310    -0.7900 H     1 <1>   0.0800 
 39 H       -6.7620    -2.3380     0.3280 H     1 <1>   0.0800 
 40 H       -6.6550    -3.3900    -2.2920 H     1 <1>   0.4000 
@<TRIPOS>BOND
  1   1   2  1   
  2   2   3  ar  
  3   2   4  ar  
  4   3   5  1   
  5   3   6  ar  
  6   4   7  ar  
  7   4  20  1   
  8   5   8  1   
  9   6   9  ar  
 10   6  21  1   
 11   7   9  ar  
 12   7  10  1   
 13   8  22  1   
 14   8  23  1   
 15   8  24  1   
 16   9  11  1   
 17  10  12  1   
 18  10  25  1   
 19  10  26  1   
 20  11  13  1   
 21  12  14  1   
 22  12  15  1   
 23  12  27  1   
 24  13  28  1   
 25  13  29  1   
 26  13  30  1   
 27  14  16  1   
 28  14  31  1   
 29  14  32  1   
 30  15  17  1   
 31  15  33  1   
 32  15  34  1   
 33  16  18  1   
 34  16  35  1   
 35  16  36  1   
 36  17  18  1   
 37  17  37  1   
 38  17  38  1   
 39  18  19  1   
 40  18  39  1   
 41  19  40  1   
@<TRIPOS>SUBSTRUCTURE
  1 ****   7 GROUP 4 **** **** 0

# MOE 2024.06 (io_trps.svl 2023.06)
