@<TRIPOS>MOLECULE
NONAME
41 43 1 0 0 
SMALL
USER_CHARGES


@<TRIPOS>ATOM
  1 S        0.1240     0.4940     1.5380 S.o2  1 <1>   1.4470 
  2 O        0.6450     1.7970     1.8910 O.2   1 <1>  -0.6500 
  3 O       -0.0300    -0.5090     2.5700 O.2   1 <1>  -0.6500 
  4 N        1.1590    -0.1640     0.3670 N.am  1 <1>  -0.8490 
  5 C       -1.4360     0.7090     0.6370 C.ar  1 <1>  -0.0090 
  6 C        0.8020    -1.5470     0.0350 C.3   1 <1>   0.1960 
  7 C        2.5610    -0.0710     0.7860 C.3   1 <1>   0.1960 
  8 C       -2.6360     0.2210     1.1450 C.ar  1 <1>  -0.1500 
  9 C       -1.4680     1.3700    -0.5870 C.ar  1 <1>  -0.1500 
 10 C        1.6560    -2.0480    -1.1340 C.3   1 <1>  -0.1600 
 11 C        3.4870    -0.5290    -0.3470 C.3   1 <1>  -0.1600 
 12 C       -3.8270     0.3840     0.4580 C.ar  1 <1>  -0.1500 
 13 C       -2.6520     1.5390    -1.2820 C.ar  1 <1>  -0.1500 
 14 C        3.1510    -1.9510    -0.8110 C.3   1 <1>  -0.1600 
 15 C       -3.8380     1.0530    -0.7600 C.ar  1 <1>   0.0820 
 16 O       -4.9780     1.2380    -1.4710 O.3   1 <1>  -0.1650 
 17 C       -6.1680     1.4660    -0.8610 C.ar  1 <1>   0.0820 
 18 C       -6.2740     2.2980     0.2480 C.ar  1 <1>  -0.1500 
 19 C       -7.3000     0.8580    -1.3800 C.ar  1 <1>  -0.1500 
 20 C       -7.5070     2.5030     0.8420 C.ar  1 <1>  -0.1500 
 21 C       -8.5320     1.0650    -0.7850 C.ar  1 <1>  -0.1500 
 22 C       -8.6350     1.8850     0.3270 C.ar  1 <1>  -0.1500 
 23 H       -0.2360    -1.6000    -0.2450 H     1 <1>   0.0800 
 24 H        0.9520    -2.1830     0.8930 H     1 <1>   0.0800 
 25 H        2.7220    -0.6750     1.6640 H     1 <1>   0.0800 
 26 H        2.8020     0.9500     1.0330 H     1 <1>   0.0800 
 27 H       -2.6380    -0.2960     2.0900 H     1 <1>   0.1500 
 28 H       -0.5480     1.7550    -0.9970 H     1 <1>   0.1500 
 29 H        1.4310    -1.4580    -2.0060 H     1 <1>   0.0800 
 30 H        1.3990    -3.0700    -1.3530 H     1 <1>   0.0800 
 31 H        4.5080    -0.4880    -0.0110 H     1 <1>   0.0800 
 32 H        3.3860     0.1560    -1.1710 H     1 <1>   0.0800 
 33 H       -4.7400    -0.0110     0.8660 H     1 <1>   0.1500 
 34 H       -2.6610     2.0510    -2.2280 H     1 <1>   0.1500 
 35 H        3.7350    -2.2030    -1.6800 H     1 <1>   0.0800 
 36 H        3.3950    -2.6490    -0.0280 H     1 <1>   0.0800 
 37 H       -5.4010     2.7860     0.6420 H     1 <1>   0.1500 
 38 H       -7.2120     0.2240    -2.2440 H     1 <1>   0.1500 
 39 H       -7.5910     3.1440     1.7020 H     1 <1>   0.1500 
 40 H       -9.4100     0.5890    -1.1860 H     1 <1>   0.1500 
 41 H       -9.5940     2.0450     0.7890 H     1 <1>   0.1500 
@<TRIPOS>BOND
  1   1   2  2   
  2   1   3  2   
  3   1   4  am  
  4   1   5  1   
  5   4   6  1   
  6   4   7  1   
  7   5   8  ar  
  8   5   9  ar  
  9   6  10  1   
 10   6  23  1   
 11   6  24  1   
 12   7  11  1   
 13   7  25  1   
 14   7  26  1   
 15   8  12  ar  
 16   8  27  1   
 17   9  13  ar  
 18   9  28  1   
 19  10  14  1   
 20  10  29  1   
 21  10  30  1   
 22  11  14  1   
 23  11  31  1   
 24  11  32  1   
 25  12  15  ar  
 26  12  33  1   
 27  13  15  ar  
 28  13  34  1   
 29  14  35  1   
 30  14  36  1   
 31  15  16  1   
 32  16  17  1   
 33  17  18  ar  
 34  17  19  ar  
 35  18  20  ar  
 36  18  37  1   
 37  19  21  ar  
 38  19  38  1   
 39  20  22  ar  
 40  20  39  1   
 41  21  22  ar  
 42  21  40  1   
 43  22  41  1   
@<TRIPOS>SUBSTRUCTURE
  1 ****   5 GROUP 4 **** **** 0

# MOE 2024.06 (io_trps.svl 2023.06)
