@<TRIPOS>MOLECULE
NONAME
28 29 1 0 0 
SMALL
USER_CHARGES


@<TRIPOS>ATOM
  1 F       -1.3110     0.5090     0.4260 F     1 <1>  -0.1900 
  2 C       -0.8590     1.7320     0.3430 C.ar  1 <1>   0.1900 
  3 C       -1.4510     2.6230    -0.5410 C.ar  1 <1>  -0.1440 
  4 C        0.2130     2.0720     1.1520 C.ar  1 <1>  -0.1500 
  5 C       -0.8850     3.8890    -0.5930 C.ar  1 <1>   0.1900 
  6 C       -2.6310     2.2250    -1.4260 C.3   1 <1>   0.2540 
  7 C        0.7380     3.3530     1.0810 C.ar  1 <1>  -0.1500 
  8 F       -1.3630     4.7770    -1.4250 F     1 <1>  -0.1900 
  9 C        0.1870     4.2690     0.1990 C.ar  1 <1>  -0.1500 
 10 N       -3.9520     2.4740    -0.8150 N.3   1 <1>  -0.8100 
 11 C       -4.2030     1.6850     0.4050 C.3   1 <1>   0.1100 
 12 C       -4.2300     3.8990    -0.5560 C.3   1 <1>   0.1100 
 13 C       -5.6280     1.9360     0.9320 C.3   1 <1>   0.1200 
 14 C       -5.6530     4.0830     0.0000 C.3   1 <1>   0.1200 
 15 O       -5.8410     3.3030     1.1480 O.3   1 <1>  -0.5600 
 16 H        0.6280     1.3420     1.8240 H     1 <1>   0.1500 
 17 H       -2.5580     1.1790    -1.6710 H     1 <1>   0.0800 
 18 H       -2.5770     2.7630    -2.3570 H     1 <1>   0.0800 
 19 H        1.5700     3.6340     1.7050 H     1 <1>   0.1500 
 20 H        0.5810     5.2670     0.1220 H     1 <1>   0.1500 
 21 H       -3.5010     1.9530     1.1750 H     1 <1>   0.0800 
 22 H       -4.0850     0.6370     0.1870 H     1 <1>   0.0800 
 23 H       -4.1310     4.4580    -1.4700 H     1 <1>   0.0800 
 24 H       -3.5290     4.2920     0.1610 H     1 <1>   0.0800 
 25 H       -5.7730     1.4280     1.8680 H     1 <1>   0.0800 
 26 H       -6.3570     1.5810     0.2250 H     1 <1>   0.0800 
 27 H       -6.3840     3.7940    -0.7350 H     1 <1>   0.0800 
 28 H       -5.8180     5.1100     0.2710 H     1 <1>   0.0800 
@<TRIPOS>BOND
  1   1   2  1   
  2   2   3  ar  
  3   2   4  ar  
  4   3   5  ar  
  5   3   6  1   
  6   4   7  ar  
  7   4  16  1   
  8   5   8  1   
  9   5   9  ar  
 10   6  10  1   
 11   6  17  1   
 12   6  18  1   
 13   7   9  ar  
 14   7  19  1   
 15   9  20  1   
 16  10  11  1   
 17  10  12  1   
 18  11  13  1   
 19  11  21  1   
 20  11  22  1   
 21  12  14  1   
 22  12  23  1   
 23  12  24  1   
 24  13  15  1   
 25  13  25  1   
 26  13  26  1   
 27  14  15  1   
 28  14  27  1   
 29  14  28  1   
@<TRIPOS>SUBSTRUCTURE
  1 ****   3 GROUP 4 **** **** 0

# MOE 2024.06 (io_trps.svl 2023.06)
