@<TRIPOS>MOLECULE
NONAME
57 61 1 0 0 
SMALL
USER_CHARGES


@<TRIPOS>ATOM
  1 O       -0.9620     1.1870    -0.7640 O.2   1 <1>  -0.5700 
  2 C       -1.6000     2.2120    -0.6590 C.2   1 <1>   0.5690 
  3 N       -2.9650     2.1690    -0.8880 N.am  1 <1>  -0.6600 
  4 C       -0.8080     3.4980    -0.2670 C.3   1 <1>   0.0610 
  5 C       -3.6320     0.8720    -1.2520 C.3   1 <1>   0.1400 
  6 C       -3.9850     3.2620    -0.7470 C.3   1 <1>   0.1400 
  7 C       -0.9350     4.6050    -1.3510 C.3   1 <1>  -0.1600 
  8 C        0.7160     3.1890    -0.1470 C.3   1 <1>  -0.1600 
  9 C       -1.2460     4.0400     1.1210 C.3   1 <1>  -0.1600 
 10 C       -4.7100     0.4890    -0.2250 C.3   1 <1>   0.2090 
 11 C       -5.0690     2.8890     0.2790 C.3   1 <1>   0.2090 
 12 C       -0.1570     5.8760    -0.9580 C.3   1 <1>   0.0000 
 13 C        1.5430     4.4330     0.2400 C.3   1 <1>   0.0000 
 14 C       -0.4610     5.3090     1.4950 C.3   1 <1>  -0.0800 
 15 N       -5.7110     1.5840    -0.0610 N.pl3 1 <1>  -0.8380 
 16 C        1.3360     5.5190    -0.8310 C.3   1 <1>  -0.1600 
 17 C       -0.6700     6.3800     0.4080 C.3   1 <1>  -0.1600 
 18 C       -0.3470     6.9620    -2.0250 C.3   1 <1>  -0.2400 
 19 C        1.0340     4.9650     1.5920 C.3   1 <1>  -0.1600 
 20 C        3.0290     4.0690     0.3440 C.3   1 <1>  -0.2400 
 21 C       -6.8920     1.2560     0.5780 C.ar  1 <1>   0.4100 
 22 N       -7.0800     1.7380     1.8020 N.ar  1 <1>  -0.6200 
 23 C       -7.8180     0.4420    -0.0700 C.ar  1 <1>  -0.1500 
 24 C       -8.2130     1.3950     2.3910 C.ar  1 <1>   0.1600 
 25 C       -8.9920     0.0920     0.5540 C.ar  1 <1>  -0.1500 
 26 C       -9.1870     0.5900     1.8260 C.ar  1 <1>  -0.1500 
 27 H       -2.9200     0.0700    -1.3180 H     1 <1>   0.0800 
 28 H       -4.0920     0.9740    -2.2190 H     1 <1>   0.0800 
 29 H       -4.4580     3.4200    -1.7000 H     1 <1>   0.0800 
 30 H       -3.5490     4.1900    -0.4510 H     1 <1>   0.0800 
 31 H       -1.9560     4.8720    -1.5240 H     1 <1>   0.0800 
 32 H       -0.5540     4.2240    -2.2820 H     1 <1>   0.0800 
 33 H        1.0760     2.8010    -1.0850 H     1 <1>   0.0800 
 34 H        0.8670     2.4210     0.5910 H     1 <1>   0.0800 
 35 H       -1.0760     3.2810     1.8650 H     1 <1>   0.0800 
 36 H       -2.2900     4.2690     1.1500 H     1 <1>   0.0800 
 37 H       -4.2410     0.2900     0.7240 H     1 <1>   0.0800 
 38 H       -5.2040    -0.4110    -0.5470 H     1 <1>   0.0800 
 39 H       -5.8220     3.6580     0.3010 H     1 <1>   0.0800 
 40 H       -4.6290     2.8270     1.2590 H     1 <1>   0.0800 
 41 H       -0.8070     5.6820     2.4440 H     1 <1>   0.0800 
 42 H        1.7060     5.1670    -1.7780 H     1 <1>   0.0800 
 43 H        1.8990     6.3980    -0.5680 H     1 <1>   0.0800 
 44 H       -1.7150     6.6260     0.3400 H     1 <1>   0.0800 
 45 H       -0.1430     7.2760     0.6860 H     1 <1>   0.0800 
 46 H        0.0050     6.6150    -2.9800 H     1 <1>   0.0800 
 47 H        0.2020     7.8480    -1.7620 H     1 <1>   0.0800 
 48 H       -1.3870     7.2220    -2.1190 H     1 <1>   0.0800 
 49 H        1.5880     5.8430     1.8740 H     1 <1>   0.0800 
 50 H        1.1840     4.2250     2.3590 H     1 <1>   0.0800 
 51 H        3.3910     3.6960    -0.5980 H     1 <1>   0.0800 
 52 H        3.1790     3.3090     1.0900 H     1 <1>   0.0800 
 53 H        3.6100     4.9320     0.6140 H     1 <1>   0.0800 
 54 H       -7.5990     0.1010    -1.0630 H     1 <1>   0.1500 
 55 H       -8.3760     1.7780     3.3830 H     1 <1>   0.1500 
 56 H       -9.7250    -0.5340     0.0750 H     1 <1>   0.1500 
 57 H      -10.0820     0.3570     2.3730 H     1 <1>   0.1500 
@<TRIPOS>BOND
  1   1   2  2   
  2   2   3  am  
  3   2   4  1   
  4   3   5  1   
  5   3   6  1   
  6   4   7  1   
  7   4   8  1   
  8   4   9  1   
  9   5  10  1   
 10   5  27  1   
 11   5  28  1   
 12   6  11  1   
 13   6  29  1   
 14   6  30  1   
 15   7  12  1   
 16   7  31  1   
 17   7  32  1   
 18   8  13  1   
 19   8  33  1   
 20   8  34  1   
 21   9  14  1   
 22   9  35  1   
 23   9  36  1   
 24  10  15  1   
 25  10  37  1   
 26  10  38  1   
 27  11  15  1   
 28  11  39  1   
 29  11  40  1   
 30  12  16  1   
 31  12  17  1   
 32  12  18  1   
 33  13  16  1   
 34  13  19  1   
 35  13  20  1   
 36  14  17  1   
 37  14  19  1   
 38  14  41  1   
 39  15  21  1   
 40  16  42  1   
 41  16  43  1   
 42  17  44  1   
 43  17  45  1   
 44  18  46  1   
 45  18  47  1   
 46  18  48  1   
 47  19  49  1   
 48  19  50  1   
 49  20  51  1   
 50  20  52  1   
 51  20  53  1   
 52  21  22  ar  
 53  21  23  ar  
 54  22  24  ar  
 55  23  25  ar  
 56  23  54  1   
 57  24  26  ar  
 58  24  55  1   
 59  25  26  ar  
 60  25  56  1   
 61  26  57  1   
@<TRIPOS>SUBSTRUCTURE
  1 ****   3 GROUP 4 **** **** 0

# MOE 2024.06 (io_trps.svl 2023.06)
