@<TRIPOS>MOLECULE
NONAME
31 31 1 0 0 
SMALL
USER_CHARGES


@<TRIPOS>ATOM
  1 O       -0.1380    -0.0220    -0.8670 O.2   1 <1>  -0.5700 
  2 C       -0.0500     1.0550    -0.3270 C.2   1 <1>   0.5690 
  3 N        1.1090     1.5800     0.1710 N.am  1 <1>  -0.5470 
  4 C       -1.3140     1.8980    -0.1820 C.3   1 <1>   0.1810 
  5 C        2.4350     1.1220     0.2270 C.ar  1 <1>   0.1170 
  6 O       -1.0520     3.1230     0.4670 O.3   1 <1>  -0.5600 
  7 C        2.8500    -0.1040    -0.2810 C.ar  1 <1>  -0.1500 
  8 C        3.3850     1.9400     0.8220 C.ar  1 <1>  -0.1500 
  9 C       -2.1760     3.9290     0.6220 C.3   1 <1>   0.0400 
 10 C        4.1730    -0.5040    -0.1990 C.ar  1 <1>   0.0830 
 11 C        4.7110     1.5580     0.9150 C.ar  1 <1>   0.0830 
 12 O        4.4740    -1.7190    -0.7250 O.3   1 <1>  -0.3630 
 13 C        5.1120     0.3290     0.4020 C.ar  1 <1>  -0.1500 
 14 O        5.5530     2.4360     1.5170 O.3   1 <1>  -0.3630 
 15 C        5.7870    -2.2320    -0.6990 C.3   1 <1>   0.0400 
 16 C        6.9270     2.1540     1.6670 C.3   1 <1>   0.0400 
 17 H        0.9440     2.5030     0.5840 H     1 <1>   0.3700 
 18 H       -2.0370     1.3500     0.3940 H     1 <1>   0.0800 
 19 H       -1.7110     2.1030    -1.1600 H     1 <1>   0.0800 
 20 H        2.1480    -0.7660    -0.7500 H     1 <1>   0.1500 
 21 H        3.0970     2.8930     1.2250 H     1 <1>   0.1500 
 22 H       -1.8750     4.8320     1.1240 H     1 <1>   0.0800 
 23 H       -2.9070     3.4100     1.2190 H     1 <1>   0.0800 
 24 H       -2.5790     4.1700    -0.3470 H     1 <1>   0.0800 
 25 H        6.1350     0.0250     0.4690 H     1 <1>   0.1500 
 26 H        5.7760    -3.1980    -1.1700 H     1 <1>   0.0800 
 27 H        6.1040    -2.3280     0.3240 H     1 <1>   0.0800 
 28 H        6.4320    -1.5670    -1.2450 H     1 <1>   0.0800 
 29 H        7.3850     2.9880     2.1680 H     1 <1>   0.0800 
 30 H        7.3650     2.0260     0.6940 H     1 <1>   0.0800 
 31 H        7.0370     1.2650     2.2620 H     1 <1>   0.0800 
@<TRIPOS>BOND
  1   1   2  2   
  2   2   3  am  
  3   2   4  1   
  4   3   5  1   
  5   3  17  1   
  6   4   6  1   
  7   4  18  1   
  8   4  19  1   
  9   5   7  ar  
 10   5   8  ar  
 11   6   9  1   
 12   7  10  ar  
 13   7  20  1   
 14   8  11  ar  
 15   8  21  1   
 16   9  22  1   
 17   9  23  1   
 18   9  24  1   
 19  10  12  1   
 20  10  13  ar  
 21  11  13  ar  
 22  11  14  1   
 23  12  15  1   
 24  13  25  1   
 25  14  16  1   
 26  15  26  1   
 27  15  27  1   
 28  15  28  1   
 29  16  29  1   
 30  16  30  1   
 31  16  31  1   
@<TRIPOS>SUBSTRUCTURE
  1 ****   5 GROUP 4 **** **** 0

# MOE 2024.06 (io_trps.svl 2023.06)
