@<TRIPOS>MOLECULE
NONAME
39 39 1 0 0 
SMALL
USER_CHARGES


@<TRIPOS>ATOM
  1 S        0.0710     0.4220     0.4270 S.o2  1 <1>   1.3330 
  2 O       -1.2710     0.8330     0.7620 O.2   1 <1>  -0.6500 
  3 O        1.2160     1.0340     1.0560 O.2   1 <1>  -0.6500 
  4 N        0.1530    -1.2950     0.6740 N.am  1 <1>  -0.6930 
  5 C        0.2550     0.5320    -1.3390 C.3   1 <1>  -0.1350 
  6 C        1.3260    -2.0200     0.5250 C.ar  1 <1>   0.1990 
  7 C       -1.1170    -1.9980     0.9800 C.3   1 <1>   0.1160 
  8 C        1.4070    -3.0570    -0.3980 C.ar  1 <1>  -0.1500 
  9 C        2.4530    -1.7420     1.2900 C.ar  1 <1>  -0.1500 
 10 C        2.5760    -3.7760    -0.5580 C.ar  1 <1>  -0.1500 
 11 C        3.6200    -2.4620     1.1300 C.ar  1 <1>  -0.1500 
 12 C        3.7200    -3.4950     0.1930 C.ar  1 <1>   0.0860 
 13 C        4.9440    -4.2500    -0.0010 C.2   1 <1>   0.5440 
 14 O        4.9130    -5.3680    -0.4790 O.2   1 <1>  -0.5700 
 15 N        6.1580    -3.7150     0.3340 N.am  1 <1>  -0.7300 
 16 C        7.4740    -4.3730     0.1610 C.3   1 <1>   0.1400 
 17 C        8.4060    -3.4980    -0.6920 C.3   1 <1>  -0.0800 
 18 C        9.7370    -4.2250    -0.9240 C.3   1 <1>  -0.2400 
 19 C        8.6760    -2.1280    -0.0480 C.3   1 <1>  -0.2400 
 20 H        0.2080     1.5570    -1.6490 H     1 <1>   0.0800 
 21 H       -0.5280    -0.0120    -1.8280 H     1 <1>   0.0800 
 22 H        1.2010     0.1250    -1.6380 H     1 <1>   0.0800 
 23 H       -1.5650    -1.5640     1.8580 H     1 <1>   0.0800 
 24 H       -0.9350    -3.0420     1.1660 H     1 <1>   0.0800 
 25 H       -1.8000    -1.8960     0.1550 H     1 <1>   0.0800 
 26 H        0.5480    -3.2970    -0.9960 H     1 <1>   0.1500 
 27 H        2.4050    -0.9560     2.0230 H     1 <1>   0.1500 
 28 H        2.6160    -4.5750    -1.2790 H     1 <1>   0.1500 
 29 H        4.4650    -2.2210     1.7500 H     1 <1>   0.1500 
 30 H        6.2050    -2.7440     0.6380 H     1 <1>   0.3700 
 31 H        7.3420    -5.3310    -0.3150 H     1 <1>   0.0800 
 32 H        7.9100    -4.5420     1.1310 H     1 <1>   0.0800 
 33 H        7.9390    -3.3490    -1.6510 H     1 <1>   0.0800 
 34 H       10.2440    -4.3990     0.0090 H     1 <1>   0.0800 
 35 H       10.3770    -3.6390    -1.5600 H     1 <1>   0.0800 
 36 H        9.5650    -5.1730    -1.4040 H     1 <1>   0.0800 
 37 H        9.0940    -2.2470     0.9360 H     1 <1>   0.0800 
 38 H        7.7700    -1.5550     0.0270 H     1 <1>   0.0800 
 39 H        9.3700    -1.5670    -0.6490 H     1 <1>   0.0800 
@<TRIPOS>BOND
  1   1   2  2   
  2   1   3  2   
  3   1   4  am  
  4   1   5  1   
  5   4   6  1   
  6   4   7  1   
  7   5  20  1   
  8   5  21  1   
  9   5  22  1   
 10   6   8  ar  
 11   6   9  ar  
 12   7  23  1   
 13   7  24  1   
 14   7  25  1   
 15   8  10  ar  
 16   8  26  1   
 17   9  11  ar  
 18   9  27  1   
 19  10  12  ar  
 20  10  28  1   
 21  11  12  ar  
 22  11  29  1   
 23  12  13  1   
 24  13  14  2   
 25  13  15  am  
 26  15  16  1   
 27  15  30  1   
 28  16  17  1   
 29  16  31  1   
 30  16  32  1   
 31  17  18  1   
 32  17  19  1   
 33  17  33  1   
 34  18  34  1   
 35  18  35  1   
 36  18  36  1   
 37  19  37  1   
 38  19  38  1   
 39  19  39  1   
@<TRIPOS>SUBSTRUCTURE
  1 ****  11 GROUP 4 **** **** 0

# MOE 2024.06 (io_trps.svl 2023.06)
