@<TRIPOS>MOLECULE
NONAME
55 58 1 0 0 
SMALL
USER_CHARGES


@<TRIPOS>ATOM
  1 O        0.7800    -0.4070     1.6030 O.2   1 <1>  -0.5700 
  2 C        1.4940    -1.2410     1.1030 C.2   1 <1>   0.4950 
  3 C        2.4670    -1.0040     0.0860 C.2   1 <1>  -0.1240 
  4 C        1.3540    -2.6410     1.6740 C.3   1 <1>  -0.0990 
  5 C        3.3310    -1.9700    -0.3450 C.2   1 <1>  -0.0380 
  6 C        2.5970     0.3760    -0.5590 C.3   1 <1>   0.5020 
  7 C        1.8010    -3.7390     0.6930 C.3   1 <1>   0.0000 
  8 N        4.3860    -1.8080    -1.2280 N.pl3 1 <1>  -0.6000 
  9 C        3.2120    -3.4010     0.1720 C.3   1 <1>  -0.0220 
 10 N        3.9280     0.9210    -0.1910 N.am  1 <1>  -0.4770 
 11 C        1.4530     1.4120    -0.5990 C.ar  1 <1>  -0.1430 
 12 C        1.8280    -5.0930     1.4180 C.3   1 <1>  -0.2400 
 13 C        0.8070    -3.8410    -0.4810 C.3   1 <1>  -0.2400 
 14 C        5.0890    -0.6610    -1.6750 C.ar  1 <1>   0.1000 
 15 C        4.9060     0.6420    -1.1680 C.ar  1 <1>   0.1170 
 16 C        4.2510     1.4150     1.0560 C.2   1 <1>   0.5690 
 17 C        1.6800     2.7800    -0.4600 C.ar  1 <1>  -0.1500 
 18 C        0.1520     0.9920    -0.8580 C.ar  1 <1>  -0.1500 
 19 C        6.0350    -0.8590    -2.6730 C.ar  1 <1>  -0.1500 
 20 C        5.6840     1.6800    -1.6670 C.ar  1 <1>  -0.1500 
 21 O        5.3410     1.8800     1.2940 O.2   1 <1>  -0.5700 
 22 C        3.2810     1.4000     2.2190 C.3   1 <1>  -0.1790 
 23 C        0.6370     3.6860    -0.5380 C.ar  1 <1>  -0.1500 
 24 C       -0.8950     1.8950    -0.9370 C.ar  1 <1>  -0.1500 
 25 C        6.7970     0.1860    -3.1630 C.ar  1 <1>  -0.1500 
 26 C        6.6240     1.4600    -2.6560 C.ar  1 <1>  -0.1500 
 27 C       -0.6560     3.2540    -0.7710 C.ar  1 <1>   0.0820 
 28 O       -1.6220     4.2060    -0.8270 O.3   1 <1>  -0.3620 
 29 C       -2.9810     3.8580    -0.9730 C.3   1 <1>   0.0400 
 30 H        0.3290    -2.8010     1.9590 H     1 <1>   0.0800 
 31 H        1.9490    -2.6840     2.5670 H     1 <1>   0.0800 
 32 H        2.6610     0.1420    -1.6080 H     1 <1>   0.0800 
 33 H        4.8490    -2.6750    -1.5170 H     1 <1>   0.4000 
 34 H        3.9330    -3.5280     0.9610 H     1 <1>   0.0800 
 35 H        3.4650    -4.0950    -0.6110 H     1 <1>   0.0800 
 36 H        2.5090    -5.0690     2.2510 H     1 <1>   0.0800 
 37 H        2.1410    -5.8760     0.7490 H     1 <1>   0.0800 
 38 H        0.8490    -5.3410     1.7910 H     1 <1>   0.0800 
 39 H        0.7570    -2.9240    -1.0400 H     1 <1>   0.0800 
 40 H       -0.1810    -4.0660    -0.1190 H     1 <1>   0.0800 
 41 H        1.1010    -4.6250    -1.1560 H     1 <1>   0.0800 
 42 H        2.6700     3.1650    -0.2950 H     1 <1>   0.1500 
 43 H       -0.0610    -0.0530    -0.9940 H     1 <1>   0.1500 
 44 H        6.1860    -1.8430    -3.0770 H     1 <1>   0.1500 
 45 H        5.5520     2.6700    -1.2690 H     1 <1>   0.1500 
 46 H        3.2150     0.4060     2.6180 H     1 <1>   0.0800 
 47 H        2.3060     1.7400     1.9340 H     1 <1>   0.0800 
 48 H        3.6430     2.0480     2.9950 H     1 <1>   0.0800 
 49 H        0.8220     4.7380    -0.4200 H     1 <1>   0.1500 
 50 H       -1.8820     1.5210    -1.1260 H     1 <1>   0.1500 
 51 H        7.5260     0.0100    -3.9350 H     1 <1>   0.1500 
 52 H        7.2170     2.2780    -3.0270 H     1 <1>   0.1500 
 53 H       -3.5600     4.7640    -0.9540 H     1 <1>   0.0800 
 54 H       -3.2670     3.2230    -0.1540 H     1 <1>   0.0800 
 55 H       -3.1140     3.3580    -1.9160 H     1 <1>   0.0800 
@<TRIPOS>BOND
  1   1   2  2   
  2   2   3  1   
  3   2   4  1   
  4   3   5  2   
  5   3   6  1   
  6   4   7  1   
  7   4  30  1   
  8   4  31  1   
  9   5   8  1   
 10   5   9  1   
 11   6  10  1   
 12   6  11  1   
 13   6  32  1   
 14   7   9  1   
 15   7  12  1   
 16   7  13  1   
 17   8  14  1   
 18   8  33  1   
 19   9  34  1   
 20   9  35  1   
 21  10  15  1   
 22  10  16  am  
 23  11  17  ar  
 24  11  18  ar  
 25  12  36  1   
 26  12  37  1   
 27  12  38  1   
 28  13  39  1   
 29  13  40  1   
 30  13  41  1   
 31  14  15  ar  
 32  14  19  ar  
 33  15  20  ar  
 34  16  21  2   
 35  16  22  1   
 36  17  23  ar  
 37  17  42  1   
 38  18  24  ar  
 39  18  43  1   
 40  19  25  ar  
 41  19  44  1   
 42  20  26  ar  
 43  20  45  1   
 44  22  46  1   
 45  22  47  1   
 46  22  48  1   
 47  23  27  ar  
 48  23  49  1   
 49  24  27  ar  
 50  24  50  1   
 51  25  26  ar  
 52  25  51  1   
 53  26  52  1   
 54  27  28  1   
 55  28  29  1   
 56  29  53  1   
 57  29  54  1   
 58  29  55  1   
@<TRIPOS>SUBSTRUCTURE
  1 ****   6 GROUP 4 **** **** 0

# MOE 2024.06 (io_trps.svl 2023.06)
