@<TRIPOS>MOLECULE
NONAME
50 51 1 0 0 
SMALL
USER_CHARGES


@<TRIPOS>ATOM
  1 O       -5.3810     1.4570     0.6290 O.3   1 <1>  -0.3630 
  2 C       -6.6310     1.8990     0.9240 C.ar  1 <1>   0.0830 
  3 C       -5.1310     0.2860    -0.1190 C.3   1 <1>   0.2000 
  4 C       -7.8040     1.2590     0.5340 C.ar  1 <1>  -0.1500 
  5 C       -6.7110     3.0660     1.6660 C.ar  1 <1>  -0.1500 
  6 C       -3.7180    -0.1840     0.2550 C.3   1 <1>  -0.1600 
  7 C       -5.2650     0.6270    -1.6080 C.3   1 <1>  -0.2400 
  8 C       -9.0380     1.7820     0.8820 C.ar  1 <1>   0.0830 
  9 C       -7.9410     3.5940     2.0190 C.ar  1 <1>  -0.1500 
 10 C       -3.3420    -1.5390    -0.3640 C.3   1 <1>  -0.2400 
 11 O      -10.1300     1.0960     0.4590 O.3   1 <1>  -0.3630 
 12 C       -9.1050     2.9550     1.6310 C.ar  1 <1>  -0.1500 
 13 C      -11.4350     1.5680     0.7110 C.3   1 <1>   0.1200 
 14 C      -12.4250     0.5680     0.1070 C.3   1 <1>   0.1100 
 15 N      -13.8280     0.9960     0.3030 N.3   1 <1>  -0.8100 
 16 C      -14.7440    -0.1580     0.1950 C.3   1 <1>   0.1100 
 17 C      -14.2180     2.0780    -0.6290 C.3   1 <1>   0.1100 
 18 C      -16.2110     0.2570     0.4280 C.3   1 <1>   0.3430 
 19 C      -15.6810     2.5160    -0.4090 C.3   1 <1>   0.3430 
 20 N      -16.6350     1.3560    -0.5070 N.4   1 <1>  -0.9590 
 21 C      -18.0400     1.7840    -0.2390 C.3   1 <1>   0.2630 
 22 H       -5.8370    -0.4690     0.1780 H     1 <1>   0.0800 
 23 H       -7.7890     0.3570    -0.0430 H     1 <1>   0.1500 
 24 H       -5.8030     3.5570     1.9650 H     1 <1>   0.1500 
 25 H       -3.6660    -0.2770     1.3260 H     1 <1>   0.0800 
 26 H       -3.0010     0.5580    -0.0510 H     1 <1>   0.0800 
 27 H       -4.5180     1.3470    -1.8920 H     1 <1>   0.0800 
 28 H       -6.2380     1.0320    -1.8170 H     1 <1>   0.0800 
 29 H       -5.1380    -0.2550    -2.2070 H     1 <1>   0.0800 
 30 H       -7.9880     4.5000     2.5970 H     1 <1>   0.1500 
 31 H       -4.0650    -2.2890    -0.0960 H     1 <1>   0.0800 
 32 H       -2.3780    -1.8490    -0.0010 H     1 <1>   0.0800 
 33 H       -3.2890    -1.4710    -1.4360 H     1 <1>   0.0800 
 34 H      -10.0450     3.3840     1.9210 H     1 <1>   0.1500 
 35 H      -11.5290     2.5350     0.2530 H     1 <1>   0.0800 
 36 H      -11.5730     1.6320     1.7750 H     1 <1>   0.0800 
 37 H      -12.2660    -0.3750     0.6020 H     1 <1>   0.0800 
 38 H      -12.2180     0.4410    -0.9420 H     1 <1>   0.0800 
 39 H      -14.4750    -0.8920     0.9360 H     1 <1>   0.0800 
 40 H      -14.6460    -0.6180    -0.7750 H     1 <1>   0.0800 
 41 H      -14.0890     1.7520    -1.6470 H     1 <1>   0.0800 
 42 H      -13.5830     2.9330    -0.4740 H     1 <1>   0.0800 
 43 H      -16.3090     0.5900     1.4480 H     1 <1>   0.0800 
 44 H      -16.8470    -0.6030     0.2970 H     1 <1>   0.0800 
 45 H      -15.9390     3.2670    -1.1370 H     1 <1>   0.0800 
 46 H      -15.7550     2.9630     0.5690 H     1 <1>   0.0800 
 47 H      -16.5690     0.9860    -1.4650 H     1 <1>   0.4500 
 48 H      -18.1280     2.1750     0.7620 H     1 <1>   0.0800 
 49 H      -18.7120     0.9480    -0.3430 H     1 <1>   0.0800 
 50 H      -18.3380     2.5510    -0.9360 H     1 <1>   0.0800 
@<TRIPOS>BOND
  1   1   2  1   
  2   1   3  1   
  3   2   4  ar  
  4   2   5  ar  
  5   3   6  1   
  6   3   7  1   
  7   3  22  1   
  8   4   8  ar  
  9   4  23  1   
 10   5   9  ar  
 11   5  24  1   
 12   6  10  1   
 13   6  25  1   
 14   6  26  1   
 15   7  27  1   
 16   7  28  1   
 17   7  29  1   
 18   8  11  1   
 19   8  12  ar  
 20   9  12  ar  
 21   9  30  1   
 22  10  31  1   
 23  10  32  1   
 24  10  33  1   
 25  11  13  1   
 26  12  34  1   
 27  13  14  1   
 28  13  35  1   
 29  13  36  1   
 30  14  15  1   
 31  14  37  1   
 32  14  38  1   
 33  15  16  1   
 34  15  17  1   
 35  16  18  1   
 36  16  39  1   
 37  16  40  1   
 38  17  19  1   
 39  17  41  1   
 40  17  42  1   
 41  18  20  1   
 42  18  43  1   
 43  18  44  1   
 44  19  20  1   
 45  19  45  1   
 46  19  46  1   
 47  20  21  1   
 48  20  47  1   
 49  21  48  1   
 50  21  49  1   
 51  21  50  1   
@<TRIPOS>SUBSTRUCTURE
  1 ****  11 GROUP 4 **** **** 0

# MOE 2024.06 (io_trps.svl 2023.06)
