@<TRIPOS>MOLECULE
NONAME
40 40 1 0 0 
SMALL
USER_CHARGES


@<TRIPOS>ATOM
  1 CL       0.7690    -0.8080    -0.8370 Cl    1 <1>  -0.1770 
  2 C       -0.4650     0.3670    -0.4160 C.ar  1 <1>   0.1770 
  3 C       -0.1950     1.6700     0.0360 C.ar  1 <1>   0.0830 
  4 C       -1.7690    -0.0810    -0.5580 C.ar  1 <1>  -0.1500 
  5 O        1.0220     2.2540     0.2260 O.3   1 <1>  -0.3630 
  6 C       -1.2700     2.4950     0.3370 C.ar  1 <1>  -0.1500 
  7 C       -2.8300     0.7560    -0.2540 C.ar  1 <1>  -0.1500 
  8 C        2.2520     1.6290    -0.0380 C.3   1 <1>   0.1200 
  9 C       -2.5650     2.0370     0.1910 C.ar  1 <1>   0.1770 
 10 C        3.3630     2.6310     0.2800 C.3   1 <1>  -0.1600 
 11 CL      -3.8970     3.0960     0.5760 Cl    1 <1>  -0.1770 
 12 C        4.7510     2.0280     0.0220 C.3   1 <1>  -0.1600 
 13 C        5.8500     3.0440     0.3430 C.3   1 <1>   0.3430 
 14 N        7.1940     2.5030    -0.0090 N.4   1 <1>  -0.9590 
 15 C        7.6170     1.4070     0.9070 C.3   1 <1>   0.3430 
 16 C        8.1890     3.6090    -0.0480 C.3   1 <1>   0.3430 
 17 C        7.7520     0.1260     0.0960 C.3   1 <1>  -0.2400 
 18 C        9.4370     3.1600    -0.8000 C.3   1 <1>  -0.2400 
 19 H       -1.9520    -1.0820    -0.9060 H     1 <1>   0.1500 
 20 H       -1.0960     3.4970     0.6850 H     1 <1>   0.1500 
 21 H       -3.8480     0.4240    -0.3590 H     1 <1>   0.1500 
 22 H        2.2750     1.3520    -1.0780 H     1 <1>   0.0800 
 23 H        2.3320     0.7600     0.5920 H     1 <1>   0.0800 
 24 H        3.2770     2.9220     1.3130 H     1 <1>   0.0800 
 25 H        3.2240     3.5040    -0.3370 H     1 <1>   0.0800 
 26 H        4.8180     1.7390    -1.0130 H     1 <1>   0.0800 
 27 H        4.8630     1.1520     0.6380 H     1 <1>   0.0800 
 28 H        5.8170     3.3020     1.3900 H     1 <1>   0.0800 
 29 H        5.6630     3.9400    -0.2270 H     1 <1>   0.0800 
 30 H        7.1370     2.1090    -0.9570 H     1 <1>   0.4500 
 31 H        6.8890     1.2680     1.6910 H     1 <1>   0.0800 
 32 H        8.5630     1.6450     1.3670 H     1 <1>   0.0800 
 33 H        8.4470     3.9150     0.9540 H     1 <1>   0.0800 
 34 H        7.7660     4.4590    -0.5600 H     1 <1>   0.0800 
 35 H        6.8140    -0.1530    -0.3490 H     1 <1>   0.0800 
 36 H        8.0590    -0.6730     0.7480 H     1 <1>   0.0800 
 37 H        8.5000     0.2320    -0.6690 H     1 <1>   0.0800 
 38 H        9.9480     2.3700    -0.2800 H     1 <1>   0.0800 
 39 H       10.1170     3.9900    -0.8780 H     1 <1>   0.0800 
 40 H        9.1900     2.8400    -1.7960 H     1 <1>   0.0800 
@<TRIPOS>BOND
  1   1   2  1   
  2   2   3  ar  
  3   2   4  ar  
  4   3   5  1   
  5   3   6  ar  
  6   4   7  ar  
  7   4  19  1   
  8   5   8  1   
  9   6   9  ar  
 10   6  20  1   
 11   7   9  ar  
 12   7  21  1   
 13   8  10  1   
 14   8  22  1   
 15   8  23  1   
 16   9  11  1   
 17  10  12  1   
 18  10  24  1   
 19  10  25  1   
 20  12  13  1   
 21  12  26  1   
 22  12  27  1   
 23  13  14  1   
 24  13  28  1   
 25  13  29  1   
 26  14  15  1   
 27  14  16  1   
 28  14  30  1   
 29  15  17  1   
 30  15  31  1   
 31  15  32  1   
 32  16  18  1   
 33  16  33  1   
 34  16  34  1   
 35  17  35  1   
 36  17  36  1   
 37  17  37  1   
 38  18  38  1   
 39  18  39  1   
 40  18  40  1   
@<TRIPOS>SUBSTRUCTURE
  1 ****   8 GROUP 4 **** **** 0

# MOE 2024.06 (io_trps.svl 2023.06)
