@<TRIPOS>MOLECULE
NONAME
47 49 1 0 0 
SMALL
USER_CHARGES


@<TRIPOS>ATOM
  1 O       -0.9650    -0.6510     1.2500 O.2   1 <1>  -0.5700 
  2 C       -0.7270    -1.6160     0.5690 C.2   1 <1>   0.6590 
  3 O        0.4910    -2.1400     0.5030 O.3   1 <1>  -0.4300 
  4 C       -1.7860    -2.3160    -0.2830 C.3   1 <1>  -0.0190 
  5 C        1.5650    -1.5980     1.2360 C.3   1 <1>   0.1200 
  6 C       -3.1030    -1.5240    -0.3870 C.3   1 <1>  -0.1600 
  7 C       -2.0910    -3.7270     0.2460 C.3   1 <1>  -0.1600 
  8 C        2.8070    -2.4340     0.9450 C.3   1 <1>  -0.2400 
  9 C       -4.1510    -2.2760    -1.2100 C.3   1 <1>   0.1100 
 10 C       -3.1590    -4.4200    -0.6030 C.3   1 <1>   0.1100 
 11 N       -4.3850    -3.6110    -0.6350 N.3   1 <1>  -0.8100 
 12 C       -5.4740    -4.3520    -1.3260 C.3   1 <1>   0.2900 
 13 C       -6.8590    -3.7130    -1.2300 C.2   1 <1>   0.2980 
 14 O       -7.1540    -2.7340    -2.0460 O.3   1 <1>  -0.0190 
 15 N       -7.7960    -4.0640    -0.4460 N.2   1 <1>  -0.5650 
 16 N       -8.3750    -2.4260    -1.7460 N.2   1 <1>  -0.4100 
 17 C       -8.7590    -3.2050    -0.7960 C.2   1 <1>   0.4620 
 18 C      -10.0670    -3.1890    -0.1620 C.ar  1 <1>   0.0540 
 19 C      -10.3810    -4.0380     0.9010 C.ar  1 <1>  -0.1500 
 20 C      -11.0710    -2.3180    -0.5920 C.ar  1 <1>  -0.1500 
 21 C      -11.6270    -4.0220     1.5000 C.ar  1 <1>  -0.1500 
 22 C      -12.3190    -2.2980     0.0040 C.ar  1 <1>  -0.1500 
 23 C      -12.6070    -3.1520     1.0540 C.ar  1 <1>  -0.1440 
 24 C      -13.9750    -3.1310     1.7110 C.3   1 <1>  -0.0970 
 25 H       -1.3760    -2.4080    -1.2730 H     1 <1>   0.0800 
 26 H        1.3130    -1.6290     2.2830 H     1 <1>   0.0800 
 27 H        1.7050    -0.5750     0.9290 H     1 <1>   0.0800 
 28 H       -2.9150    -0.5650    -0.8380 H     1 <1>   0.0800 
 29 H       -3.5020    -1.3480     0.5970 H     1 <1>   0.0800 
 30 H       -2.4390    -3.6680     1.2630 H     1 <1>   0.0800 
 31 H       -1.1940    -4.3210     0.2390 H     1 <1>   0.0800 
 32 H        2.6470    -3.4530     1.2480 H     1 <1>   0.0800 
 33 H        3.6440    -2.0410     1.4930 H     1 <1>   0.0800 
 34 H        3.0390    -2.4010    -0.1050 H     1 <1>   0.0800 
 35 H       -3.8240    -2.3660    -2.2330 H     1 <1>   0.0800 
 36 H       -5.0600    -1.7010    -1.1900 H     1 <1>   0.0800 
 37 H       -3.3730    -5.3830    -0.1700 H     1 <1>   0.0800 
 38 H       -2.7910    -4.5700    -1.6050 H     1 <1>   0.0800 
 39 H       -5.5510    -5.3310    -0.8860 H     1 <1>   0.0800 
 40 H       -5.2220    -4.4780    -2.3640 H     1 <1>   0.0800 
 41 H       -9.6350    -4.7220     1.2660 H     1 <1>   0.1500 
 42 H      -10.8700    -1.6450    -1.4070 H     1 <1>   0.1500 
 43 H      -11.8300    -4.6910     2.3180 H     1 <1>   0.1500 
 44 H      -13.0670    -1.6120    -0.3540 H     1 <1>   0.1500 
 45 H      -14.2240    -4.1050     2.0920 H     1 <1>   0.0800 
 46 H      -14.7290    -2.8430     1.0010 H     1 <1>   0.0800 
 47 H      -13.9760    -2.4290     2.5250 H     1 <1>   0.0800 
@<TRIPOS>BOND
  1   1   2  2   
  2   2   3  1   
  3   2   4  1   
  4   3   5  1   
  5   4   6  1   
  6   4   7  1   
  7   4  25  1   
  8   5   8  1   
  9   5  26  1   
 10   5  27  1   
 11   6   9  1   
 12   6  28  1   
 13   6  29  1   
 14   7  10  1   
 15   7  30  1   
 16   7  31  1   
 17   8  32  1   
 18   8  33  1   
 19   8  34  1   
 20   9  11  1   
 21   9  35  1   
 22   9  36  1   
 23  10  11  1   
 24  10  37  1   
 25  10  38  1   
 26  11  12  1   
 27  12  13  1   
 28  12  39  1   
 29  12  40  1   
 30  13  14  1   
 31  13  15  2   
 32  14  16  1   
 33  15  17  1   
 34  16  17  2   
 35  17  18  1   
 36  18  19  ar  
 37  18  20  ar  
 38  19  21  ar  
 39  19  41  1   
 40  20  22  ar  
 41  20  42  1   
 42  21  23  ar  
 43  21  43  1   
 44  22  23  ar  
 45  22  44  1   
 46  23  24  1   
 47  24  45  1   
 48  24  46  1   
 49  24  47  1   
@<TRIPOS>SUBSTRUCTURE
  1 ****  13 GROUP 4 **** **** 0

# MOE 2024.06 (io_trps.svl 2023.06)
