@<TRIPOS>MOLECULE
NONAME
39 40 1 0 0 
SMALL
USER_CHARGES


@<TRIPOS>ATOM
  1 F       -0.1730    -2.1270    -1.1060 F     1 <1>  -0.1900 
  2 C        0.8490    -2.6920    -0.5210 C.ar  1 <1>   0.1900 
  3 C        1.6190    -3.5880    -1.2370 C.ar  1 <1>  -0.1500 
  4 C        1.1240    -2.3750     0.7960 C.ar  1 <1>  -0.1500 
  5 C        2.6980    -4.1820    -0.6080 C.ar  1 <1>  -0.1500 
  6 C        2.2080    -2.9780     1.4100 C.ar  1 <1>  -0.1500 
  7 C        3.0150    -3.8860     0.7220 C.ar  1 <1>   0.0280 
  8 C        4.1260    -4.5170     1.3730 C.2   1 <1>  -0.1780 
  9 C        5.3880    -4.7190     0.9070 C.2   1 <1>   0.1230 
 10 N        5.8480    -4.1290    -0.2870 N.am  1 <1>  -0.5390 
 11 C        6.3200    -5.5830     1.6120 C.2   1 <1>   0.6160 
 12 C        5.7310    -2.8630    -0.7600 C.2   1 <1>   0.5690 
 13 O        6.6760    -5.2870     2.7430 O.2   1 <1>  -0.5700 
 14 N        6.8000    -6.7560     1.0630 N.am  1 <1>  -0.6600 
 15 O        5.3340    -1.9270    -0.1080 O.2   1 <1>  -0.5700 
 16 C        6.1590    -2.6310    -2.1860 C.3   1 <1>  -0.1790 
 17 C        6.1490    -7.5470    -0.0540 C.3   1 <1>   0.1140 
 18 C        7.8760    -7.5470     1.6960 C.3   1 <1>   0.1400 
 19 C        5.9080    -6.8590    -1.4170 C.2   1 <1>   0.9060 
 20 C        7.0370    -8.7890    -0.1910 C.3   1 <1>  -0.1600 
 21 C        7.6770    -8.9670     1.1810 C.3   1 <1>  -0.1600 
 22 O        4.8100    -6.9930    -1.9670 O.co2 1 <1>  -0.9000 
 23 O        6.7790    -6.1250    -1.9120 O.co2 1 <1>  -0.9000 
 24 H        1.3830    -3.8180    -2.2590 H     1 <1>   0.1500 
 25 H        0.5060    -1.6720     1.3210 H     1 <1>   0.1500 
 26 H        3.3080    -4.8910    -1.1480 H     1 <1>   0.1500 
 27 H        2.4480    -2.7410     2.4300 H     1 <1>   0.1500 
 28 H        3.8920    -4.8960     2.3510 H     1 <1>   0.1500 
 29 H        6.3420    -4.7790    -0.9310 H     1 <1>   0.3700 
 30 H        5.8590    -3.4660    -2.7940 H     1 <1>   0.0800 
 31 H        7.2260    -2.5330    -2.2260 H     1 <1>   0.0800 
 32 H        5.7010    -1.7360    -2.5630 H     1 <1>   0.0800 
 33 H        5.1850    -7.8610     0.3000 H     1 <1>   0.0800 
 34 H        8.8250    -7.1560     1.3710 H     1 <1>   0.0800 
 35 H        7.8150    -7.5040     2.7710 H     1 <1>   0.0800 
 36 H        6.4680    -9.6460    -0.5030 H     1 <1>   0.0800 
 37 H        7.7980    -8.5910    -0.9270 H     1 <1>   0.0800 
 38 H        8.6060    -9.5070     1.1330 H     1 <1>   0.0800 
 39 H        6.9990    -9.4850     1.8370 H     1 <1>   0.0800 
@<TRIPOS>BOND
  1   1   2  1   
  2   2   3  ar  
  3   2   4  ar  
  4   3   5  ar  
  5   3  24  1   
  6   4   6  ar  
  7   4  25  1   
  8   5   7  ar  
  9   5  26  1   
 10   6   7  ar  
 11   6  27  1   
 12   7   8  1   
 13   8   9  2   
 14   8  28  1   
 15   9  10  1   
 16   9  11  1   
 17  10  12  am  
 18  10  29  1   
 19  11  13  2   
 20  11  14  am  
 21  12  15  2   
 22  12  16  1   
 23  14  17  1   
 24  14  18  1   
 25  16  30  1   
 26  16  31  1   
 27  16  32  1   
 28  17  19  1   
 29  17  20  1   
 30  17  33  1   
 31  18  21  1   
 32  18  34  1   
 33  18  35  1   
 34  19  22  ar  
 35  19  23  ar  
 36  20  21  1   
 37  20  36  1   
 38  20  37  1   
 39  21  38  1   
 40  21  39  1   
@<TRIPOS>SUBSTRUCTURE
  1 ****   9 GROUP 4 **** **** 0

# MOE 2024.06 (io_trps.svl 2023.06)
