@<TRIPOS>MOLECULE
NONAME
42 44 1 0 0 
SMALL
USER_CHARGES


@<TRIPOS>ATOM
  1 S        0.5230     0.5770    -0.9680 S.3   1 <1>  -0.3320 
  2 C       -1.0630     1.3430    -0.6070 C.ar  1 <1>   0.4120 
  3 C        1.7800     1.4360     0.1010 C.3   1 <1>   0.1310 
  4 N       -1.9920     0.4530    -0.3110 N.ar  1 <1>  -0.6200 
  5 C       -1.2390     2.7230    -0.6660 C.ar  1 <1>   0.0730 
  6 C        2.7240     0.4270     0.7260 C.2   1 <1>   0.6590 
  7 C       -3.1850     0.9460    -0.0360 C.ar  1 <1>   0.2780 
  8 C       -0.1740     3.5980    -1.0410 C.1   1 <1>   0.4840 
  9 C       -2.5010     3.2290    -0.3630 C.ar  1 <1>   0.0000 
 10 O        2.7400     0.2370     1.9160 O.2   1 <1>  -0.5700 
 11 O        3.5390    -0.2110    -0.1030 O.3   1 <1>  -0.4300 
 12 C       -3.4750     2.2970    -0.0430 C.ar  1 <1>  -0.1500 
 13 C       -4.2680    -0.0640     0.3090 C.3   1 <1>  -0.0680 
 14 N        0.7040     4.2790    -1.2970 N.1   1 <1>  -0.5570 
 15 C       -2.8170     4.6370    -0.3790 C.ar  1 <1>   0.0000 
 16 C        4.4470    -1.1820     0.3600 C.3   1 <1>   0.1200 
 17 C       -4.8100    -0.9660    -0.7570 C.3   1 <1>  -0.2000 
 18 C       -5.6880     0.0870    -0.1550 C.3   1 <1>  -0.2000 
 19 C       -3.5360     5.1870    -1.4400 C.ar  1 <1>  -0.1500 
 20 C       -2.4120     5.4730     0.6630 C.ar  1 <1>  -0.1500 
 21 C        5.2160    -1.7200    -0.8420 C.3   1 <1>  -0.2400 
 22 C       -3.8440     6.5350    -1.4680 C.ar  1 <1>  -0.1500 
 23 C       -2.7120     6.8240     0.6480 C.ar  1 <1>  -0.1500 
 24 C       -3.4250     7.3320    -0.4200 C.ar  1 <1>   0.1900 
 25 F       -3.7130     8.6040    -0.4400 F     1 <1>  -0.1900 
 26 H        1.2510     1.9660     0.8710 H     1 <1>   0.0800 
 27 H        2.3250     2.1200    -0.5220 H     1 <1>   0.0800 
 28 H       -4.4660     2.6320     0.2030 H     1 <1>   0.1500 
 29 H       -4.0980    -0.5120     1.2730 H     1 <1>   0.1000 
 30 H        3.8880    -1.9660     0.8430 H     1 <1>   0.0800 
 31 H        5.1110    -0.7200     1.0700 H     1 <1>   0.0800 
 32 H       -4.9780    -2.0000    -0.5100 H     1 <1>   0.1000 
 33 H       -4.4440    -0.8380    -1.7620 H     1 <1>   0.1000 
 34 H       -5.9690     0.9170    -0.7800 H     1 <1>   0.1000 
 35 H       -6.4810    -0.2200     0.5040 H     1 <1>   0.1000 
 36 H       -3.8550     4.5530    -2.2490 H     1 <1>   0.1500 
 37 H       -1.8580     5.0640     1.4900 H     1 <1>   0.1500 
 38 H        4.5370    -2.1670    -1.5460 H     1 <1>   0.0800 
 39 H        5.9170    -2.4690    -0.5190 H     1 <1>   0.0800 
 40 H        5.7600    -0.9260    -1.3210 H     1 <1>   0.0800 
 41 H       -4.3970     6.9670    -2.2830 H     1 <1>   0.1500 
 42 H       -2.4020     7.4760     1.4450 H     1 <1>   0.1500 
@<TRIPOS>BOND
  1   1   2  1   
  2   1   3  1   
  3   2   4  ar  
  4   2   5  ar  
  5   3   6  1   
  6   3  26  1   
  7   3  27  1   
  8   4   7  ar  
  9   5   8  1   
 10   5   9  ar  
 11   6  10  2   
 12   6  11  1   
 13   7  12  ar  
 14   7  13  1   
 15   8  14  3   
 16   9  12  ar  
 17   9  15  1   
 18  11  16  1   
 19  12  28  1   
 20  13  17  1   
 21  13  18  1   
 22  13  29  1   
 23  15  19  ar  
 24  15  20  ar  
 25  16  21  1   
 26  16  30  1   
 27  16  31  1   
 28  17  18  1   
 29  17  32  1   
 30  17  33  1   
 31  18  34  1   
 32  18  35  1   
 33  19  22  ar  
 34  19  36  1   
 35  20  23  ar  
 36  20  37  1   
 37  21  38  1   
 38  21  39  1   
 39  21  40  1   
 40  22  24  ar  
 41  22  41  1   
 42  23  24  ar  
 43  23  42  1   
 44  24  25  1   
@<TRIPOS>SUBSTRUCTURE
  1 ****   5 GROUP 4 **** **** 0

# MOE 2024.06 (io_trps.svl 2023.06)
