@<TRIPOS>MOLECULE
NONAME
51 53 1 0 0 
SMALL
USER_CHARGES


@<TRIPOS>ATOM
  1 O        9.9010    -4.5420     0.4310 O.3   1 <1>  -0.5600 
  2 C        9.3890    -4.4130    -0.8680 C.3   1 <1>   0.1200 
  3 C       10.3890    -5.8230     0.7280 C.3   1 <1>   0.1200 
  4 C        8.2120    -5.3920    -1.0920 C.3   1 <1>   0.3430 
  5 C        9.2930    -6.8960     0.5200 C.3   1 <1>   0.3430 
  6 N        7.9850    -6.2630     0.1200 N.4   1 <1>  -0.9590 
  7 C        6.8800    -7.2550     0.0010 C.3   1 <1>   0.3430 
  8 C        5.5120    -6.5540    -0.0070 C.3   1 <1>  -0.1600 
  9 C        4.3650    -7.5720     0.0120 C.3   1 <1>   0.3430 
 10 N        3.0610    -6.8610     0.0320 N.4   1 <1>  -0.9060 
 11 C        1.8840    -7.7600     0.0600 C.3   1 <1>   0.4860 
 12 C        0.6750    -6.8570     0.0630 C.ar  1 <1>  -0.1440 
 13 C        0.1000    -6.4520    -1.1330 C.ar  1 <1>  -0.1500 
 14 C        0.1330    -6.4120     1.2600 C.ar  1 <1>  -0.1500 
 15 C       -0.9940    -5.6060    -1.1270 C.ar  1 <1>  -0.1500 
 16 C       -0.9600    -5.5650     1.2550 C.ar  1 <1>  -0.1500 
 17 C       -1.5410    -5.1450     0.0650 C.ar  1 <1>   0.0000 
 18 C       -2.6830    -4.2590     0.0660 C.ar  1 <1>   0.0000 
 19 C       -3.8680    -4.6180     0.7040 C.ar  1 <1>  -0.1500 
 20 C       -2.6330    -3.0210    -0.5700 C.ar  1 <1>  -0.1500 
 21 C       -4.9620    -3.7730     0.7090 C.ar  1 <1>  -0.1500 
 22 C       -3.7240    -2.1720    -0.5690 C.ar  1 <1>  -0.1500 
 23 C       -4.8920    -2.5470     0.0710 C.ar  1 <1>  -0.1500 
 24 H       10.1830    -4.5970    -1.5730 H     1 <1>   0.0800 
 25 H        9.0600    -3.3960    -0.9930 H     1 <1>   0.0800 
 26 H       10.7160    -5.8190     1.7530 H     1 <1>   0.0800 
 27 H       11.2440    -6.0220     0.1040 H     1 <1>   0.0800 
 28 H        8.4260    -6.0010    -1.9550 H     1 <1>   0.0800 
 29 H        7.3270    -4.8180    -1.3110 H     1 <1>   0.0800 
 30 H        9.1760    -7.4530     1.4350 H     1 <1>   0.0800 
 31 H        9.6200    -7.5860    -0.2410 H     1 <1>   0.0800 
 32 H        7.8010    -5.5930     0.8860 H     1 <1>   0.4500 
 33 H        6.9240    -7.9290     0.8420 H     1 <1>   0.0800 
 34 H        7.0090    -7.8360    -0.8990 H     1 <1>   0.0800 
 35 H        5.4280    -5.9480    -0.8920 H     1 <1>   0.0800 
 36 H        5.4390    -5.9280     0.8660 H     1 <1>   0.0800 
 37 H        4.4480    -8.1980     0.8880 H     1 <1>   0.0800 
 38 H        4.4210    -8.2030    -0.8620 H     1 <1>   0.0800 
 39 H        2.9380    -6.2500    -0.7860 H     1 <1>   0.4500 
 40 H        2.9700    -6.2400     0.8480 H     1 <1>   0.4500 
 41 H        1.8890    -8.3730     0.9480 H     1 <1>   0.0800 
 42 H        1.8660    -8.3980    -0.8090 H     1 <1>   0.0800 
 43 H        0.4820    -6.7890    -2.0830 H     1 <1>   0.1500 
 44 H        0.5430    -6.7160     2.2090 H     1 <1>   0.1500 
 45 H       -1.4430    -5.2980    -2.0560 H     1 <1>   0.1500 
 46 H       -1.3770    -5.2190     2.1860 H     1 <1>   0.1500 
 47 H       -3.9320    -5.5710     1.1970 H     1 <1>   0.1500 
 48 H       -1.7280    -2.7210    -1.0660 H     1 <1>   0.1500 
 49 H       -5.8700    -4.0670     1.2070 H     1 <1>   0.1500 
 50 H       -3.6670    -1.2190    -1.0650 H     1 <1>   0.1500 
 51 H       -5.7420    -1.8870     0.0740 H     1 <1>   0.1500 
@<TRIPOS>BOND
  1   1   2  1   
  2   1   3  1   
  3   2   4  1   
  4   2  24  1   
  5   2  25  1   
  6   3   5  1   
  7   3  26  1   
  8   3  27  1   
  9   4   6  1   
 10   4  28  1   
 11   4  29  1   
 12   5   6  1   
 13   5  30  1   
 14   5  31  1   
 15   6   7  1   
 16   6  32  1   
 17   7   8  1   
 18   7  33  1   
 19   7  34  1   
 20   8   9  1   
 21   8  35  1   
 22   8  36  1   
 23   9  10  1   
 24   9  37  1   
 25   9  38  1   
 26  10  11  1   
 27  10  39  1   
 28  10  40  1   
 29  11  12  1   
 30  11  41  1   
 31  11  42  1   
 32  12  13  ar  
 33  12  14  ar  
 34  13  15  ar  
 35  13  43  1   
 36  14  16  ar  
 37  14  44  1   
 38  15  17  ar  
 39  15  45  1   
 40  16  17  ar  
 41  16  46  1   
 42  17  18  1   
 43  18  19  ar  
 44  18  20  ar  
 45  19  21  ar  
 46  19  47  1   
 47  20  22  ar  
 48  20  48  1   
 49  21  23  ar  
 50  21  49  1   
 51  22  23  ar  
 52  22  50  1   
 53  23  51  1   
@<TRIPOS>SUBSTRUCTURE
  1 ****  10 GROUP 4 **** **** 0

# MOE 2024.06 (io_trps.svl 2023.06)
