@<TRIPOS>MOLECULE
NONAME
57 59 1 0 0 
SMALL
USER_CHARGES


@<TRIPOS>ATOM
  1 O       -1.7770    -1.1700    -2.1880 O.3   1 <1>  -0.3630 
  2 C       -2.6650    -1.3860    -1.1780 C.ar  1 <1>   0.0820 
  3 C       -0.6330    -0.3630    -2.0260 C.3   1 <1>   0.0400 
  4 C       -3.7450    -2.2390    -1.4100 C.ar  1 <1>  -0.1440 
  5 C       -2.5220    -0.7800     0.0640 C.ar  1 <1>  -0.1500 
  6 C       -4.6910    -2.4580    -0.4060 C.ar  1 <1>  -0.1430 
  7 C       -3.8790    -2.9290    -2.7720 C.3   1 <1>  -0.0960 
  8 C       -3.4490    -1.0100     1.0580 C.ar  1 <1>  -0.1500 
  9 C       -4.5380    -1.8390     0.8370 C.ar  1 <1>  -0.1440 
 10 C       -5.8800    -3.3820    -0.6830 C.3   1 <1>  -0.0970 
 11 C       -5.5170    -2.0230     1.9960 C.3   1 <1>   0.2530 
 12 N       -6.7760    -1.2800     1.7660 N.3   1 <1>  -0.8100 
 13 C       -7.7400    -1.4660     2.8720 C.3   1 <1>   0.1100 
 14 C       -6.5510     0.1630     1.4920 C.3   1 <1>   0.1100 
 15 C       -9.0960    -0.7730     2.5850 C.3   1 <1>   0.3430 
 16 C       -7.8720     0.9450     1.2980 C.3   1 <1>   0.3430 
 17 N       -9.0500     0.0190     1.3100 N.4   1 <1>  -0.9590 
 18 C      -10.3200     0.6670     0.9260 C.3   1 <1>   0.4810 
 19 C      -11.3090    -0.4250     0.6010 C.2   1 <1>  -0.2880 
 20 C      -11.6680    -0.7870    -0.6430 C.2   1 <1>  -0.1780 
 21 C      -12.6050    -1.8200    -1.0300 C.ar  1 <1>   0.0280 
 22 C      -12.6180    -2.2910    -2.3410 C.ar  1 <1>  -0.1500 
 23 C      -13.5190    -2.3760    -0.1360 C.ar  1 <1>  -0.1500 
 24 C      -13.4980    -3.2800    -2.7430 C.ar  1 <1>  -0.1500 
 25 C      -14.4000    -3.3660    -0.5310 C.ar  1 <1>  -0.1500 
 26 C      -14.3910    -3.8210    -1.8370 C.ar  1 <1>  -0.1500 
 27 H       -0.0900    -0.3660    -2.9540 H     1 <1>   0.0800 
 28 H       -0.0220    -0.7770    -1.2440 H     1 <1>   0.0800 
 29 H       -0.9430     0.6390    -1.7880 H     1 <1>   0.0800 
 30 H       -1.6980    -0.1280     0.2770 H     1 <1>   0.1500 
 31 H       -4.6080    -2.4130    -3.3690 H     1 <1>   0.0800 
 32 H       -4.1790    -3.9530    -2.6550 H     1 <1>   0.0800 
 33 H       -2.9500    -2.9410    -3.3120 H     1 <1>   0.0800 
 34 H       -3.3120    -0.5340     2.0120 H     1 <1>   0.1500 
 35 H       -5.5520    -4.4050    -0.6690 H     1 <1>   0.0800 
 36 H       -6.3050    -3.1660    -1.6460 H     1 <1>   0.0800 
 37 H       -6.6700    -3.2740     0.0340 H     1 <1>   0.0800 
 38 H       -5.0610    -1.6870     2.9130 H     1 <1>   0.0800 
 39 H       -5.7300    -3.0720     2.1100 H     1 <1>   0.0800 
 40 H       -7.9150    -2.5180     3.0220 H     1 <1>   0.0800 
 41 H       -7.3270    -1.0730     3.7860 H     1 <1>   0.0800 
 42 H       -5.9870     0.6080     2.2940 H     1 <1>   0.0800 
 43 H       -5.9690     0.2690     0.5920 H     1 <1>   0.0800 
 44 H       -9.3490    -0.1330     3.4130 H     1 <1>   0.0800 
 45 H       -9.8580    -1.5320     2.5120 H     1 <1>   0.0800 
 46 H       -7.8250     1.4740     0.3610 H     1 <1>   0.0800 
 47 H       -7.9690     1.6740     2.0850 H     1 <1>   0.0800 
 48 H       -8.8210    -0.6880     0.5940 H     1 <1>   0.4500 
 49 H      -10.6910     1.2950     1.7200 H     1 <1>   0.0800 
 50 H      -10.1650     1.2740     0.0490 H     1 <1>   0.0800 
 51 H      -11.7120    -0.8990     1.4780 H     1 <1>   0.1500 
 52 H      -11.2330    -0.2840    -1.4900 H     1 <1>   0.1500 
 53 H      -11.9310    -1.8840    -3.0610 H     1 <1>   0.1500 
 54 H      -13.5550    -2.0340     0.8810 H     1 <1>   0.1500 
 55 H      -13.4890    -3.6300    -3.7610 H     1 <1>   0.1500 
 56 H      -15.0980    -3.7820     0.1750 H     1 <1>   0.1500 
 57 H      -15.0770    -4.5900    -2.1470 H     1 <1>   0.1500 
@<TRIPOS>BOND
  1   1   2  1   
  2   1   3  1   
  3   2   4  ar  
  4   2   5  ar  
  5   3  27  1   
  6   3  28  1   
  7   3  29  1   
  8   4   6  ar  
  9   4   7  1   
 10   5   8  ar  
 11   5  30  1   
 12   6   9  ar  
 13   6  10  1   
 14   7  31  1   
 15   7  32  1   
 16   7  33  1   
 17   8   9  ar  
 18   8  34  1   
 19   9  11  1   
 20  10  35  1   
 21  10  36  1   
 22  10  37  1   
 23  11  12  1   
 24  11  38  1   
 25  11  39  1   
 26  12  13  1   
 27  12  14  1   
 28  13  15  1   
 29  13  40  1   
 30  13  41  1   
 31  14  16  1   
 32  14  42  1   
 33  14  43  1   
 34  15  17  1   
 35  15  44  1   
 36  15  45  1   
 37  16  17  1   
 38  16  46  1   
 39  16  47  1   
 40  17  18  1   
 41  17  48  1   
 42  18  19  1   
 43  18  49  1   
 44  18  50  1   
 45  19  20  2   
 46  19  51  1   
 47  20  21  1   
 48  20  52  1   
 49  21  22  ar  
 50  21  23  ar  
 51  22  24  ar  
 52  22  53  1   
 53  23  25  ar  
 54  23  54  1   
 55  24  26  ar  
 56  24  55  1   
 57  25  26  ar  
 58  25  56  1   
 59  26  57  1   
@<TRIPOS>SUBSTRUCTURE
  1 ****  12 GROUP 4 **** **** 0

# MOE 2024.06 (io_trps.svl 2023.06)
