@<TRIPOS>MOLECULE
NONAME
45 46 1 0 0 
SMALL
USER_CHARGES


@<TRIPOS>ATOM
  1 S       -0.5250    -0.0550     0.4370 S.3   1 <1>  -0.2860 
  2 C        1.1730     0.3370     0.8680 C.2   1 <1>   0.2420 
  3 C       -1.2890    -0.4160     2.0940 C.3   1 <1>   0.1310 
  4 N        1.6130     0.3600     2.0750 N.2   1 <1>  -0.3380 
  5 N        2.0970     0.6370    -0.0440 N.pl3 1 <1>   0.0480 
  6 C       -2.7730    -0.7280     1.9760 C.2   1 <1>   0.5690 
  7 N        2.9030     0.6950     1.9830 N.2   1 <1>  -0.3380 
  8 C        3.1720     0.8600     0.7280 C.2   1 <1>   0.0060 
  9 C        1.9390     0.6980    -1.5110 C.3   1 <1>   0.0160 
 10 O       -3.2820    -1.3730     2.8600 O.2   1 <1>  -0.5700 
 11 N       -3.4570    -0.2560     0.8900 N.am  1 <1>  -0.5470 
 12 C        4.5480     1.2550     0.2100 C.3   1 <1>   0.0200 
 13 C       -4.8000    -0.3280     0.4740 C.ar  1 <1>   0.1170 
 14 C        4.5960     2.6970    -0.3350 C.3   1 <1>  -0.0800 
 15 C       -5.1370     0.2390    -0.7610 C.ar  1 <1>   0.0830 
 16 C       -5.8000    -0.9310     1.2280 C.ar  1 <1>  -0.1500 
 17 C        5.9840     3.0020    -0.9100 C.3   1 <1>  -0.2400 
 18 C        4.2510     3.7240     0.7530 C.3   1 <1>  -0.2400 
 19 O       -4.1280     0.8260    -1.4750 O.3   1 <1>  -0.3630 
 20 C       -6.4520     0.1920    -1.2150 C.ar  1 <1>  -0.1500 
 21 C       -7.1060    -0.9740     0.7720 C.ar  1 <1>  -0.1500 
 22 C       -4.3730     1.4310    -2.7270 C.3   1 <1>   0.0400 
 23 C       -7.4320    -0.4130    -0.4480 C.ar  1 <1>  -0.1500 
 24 H       -1.1370     0.4490     2.7120 H     1 <1>   0.0800 
 25 H       -0.7620    -1.2550     2.5100 H     1 <1>   0.0800 
 26 H        1.4940     1.6390    -1.7800 H     1 <1>   0.0800 
 27 H        1.3020    -0.1050    -1.8370 H     1 <1>   0.0800 
 28 H        2.8970     0.6020    -1.9880 H     1 <1>   0.0800 
 29 H       -2.8780     0.2280     0.1980 H     1 <1>   0.3700 
 30 H        4.8430     0.5620    -0.5580 H     1 <1>   0.0800 
 31 H        5.2560     1.1580     1.0150 H     1 <1>   0.0800 
 32 H        3.8770     2.7950    -1.1300 H     1 <1>   0.0800 
 33 H       -5.5710    -1.3720     2.1800 H     1 <1>   0.1500 
 34 H        6.7370     2.9280    -0.1440 H     1 <1>   0.0800 
 35 H        6.0090     3.9990    -1.3160 H     1 <1>   0.0800 
 36 H        6.2270     2.3120    -1.6990 H     1 <1>   0.0800 
 37 H        4.9380     3.6470     1.5780 H     1 <1>   0.0800 
 38 H        3.2560     3.5610     1.1280 H     1 <1>   0.0800 
 39 H        4.3010     4.7220     0.3570 H     1 <1>   0.0800 
 40 H       -6.7370     0.6180    -2.1570 H     1 <1>   0.1500 
 41 H       -7.8660    -1.4460     1.3710 H     1 <1>   0.1500 
 42 H       -3.4430     1.8250    -3.0960 H     1 <1>   0.0800 
 43 H       -5.0810     2.2300    -2.5960 H     1 <1>   0.0800 
 44 H       -4.7490     0.6870    -3.4070 H     1 <1>   0.0800 
 45 H       -8.4480    -0.4490    -0.8010 H     1 <1>   0.1500 
@<TRIPOS>BOND
  1   1   2  1   
  2   1   3  1   
  3   2   4  2   
  4   2   5  1   
  5   3   6  1   
  6   3  24  1   
  7   3  25  1   
  8   4   7  1   
  9   5   8  1   
 10   5   9  1   
 11   6  10  2   
 12   6  11  am  
 13   7   8  2   
 14   8  12  1   
 15   9  26  1   
 16   9  27  1   
 17   9  28  1   
 18  11  13  1   
 19  11  29  1   
 20  12  14  1   
 21  12  30  1   
 22  12  31  1   
 23  13  15  ar  
 24  13  16  ar  
 25  14  17  1   
 26  14  18  1   
 27  14  32  1   
 28  15  19  1   
 29  15  20  ar  
 30  16  21  ar  
 31  16  33  1   
 32  17  34  1   
 33  17  35  1   
 34  17  36  1   
 35  18  37  1   
 36  18  38  1   
 37  18  39  1   
 38  19  22  1   
 39  20  23  ar  
 40  20  40  1   
 41  21  23  ar  
 42  21  41  1   
 43  22  42  1   
 44  22  43  1   
 45  22  44  1   
 46  23  45  1   
@<TRIPOS>SUBSTRUCTURE
  1 ****   1 GROUP 4 **** **** 0

# MOE 2024.06 (io_trps.svl 2023.06)
