@<TRIPOS>MOLECULE
NONAME
44 46 1 0 0 
SMALL
USER_CHARGES


@<TRIPOS>ATOM
  1 N       -0.6190     4.1360     0.8490 N.4   1 <1>  -0.9590 
  2 C        0.4260     4.2150    -0.1950 C.3   1 <1>   0.4230 
  3 C       -1.2930     2.8470     0.5830 C.3   1 <1>   0.4230 
  4 C       -1.5740     5.2980     0.7840 C.3   1 <1>   0.2630 
  5 C        1.5400     3.2380     0.2220 C.3   1 <1>  -0.1600 
  6 C       -0.3010     3.7360    -1.4580 C.3   1 <1>  -0.1600 
  7 C       -0.3380     1.7440     1.0740 C.3   1 <1>  -0.1600 
  8 C       -1.4350     2.8320    -0.9450 C.3   1 <1>  -0.1600 
  9 C        1.0100     1.7950     0.3360 C.3   1 <1>   0.4230 
 10 N        1.9880     0.9120     1.0220 N.4   1 <1>  -0.9060 
 11 C        3.2460     0.6890     0.2450 C.3   1 <1>   0.3430 
 12 C        4.1790    -0.2770     0.9730 C.3   1 <1>  -0.0170 
 13 C        5.4360    -0.4260     0.1410 C.ar  1 <1>  -0.1430 
 14 C        6.5280     0.4000     0.3680 C.ar  1 <1>  -0.1500 
 15 C        5.5000    -1.3790    -0.8650 C.ar  1 <1>  -0.1500 
 16 C        7.6660     0.2790    -0.4090 C.ar  1 <1>  -0.1500 
 17 C        6.6390    -1.4980    -1.6420 C.ar  1 <1>  -0.1500 
 18 C        7.7210    -0.6680    -1.4160 C.ar  1 <1>  -0.1500 
 19 H       -0.2000     4.1430     1.7880 H     1 <1>   0.4500 
 20 H        0.8120     5.2180    -0.3050 H     1 <1>   0.0800 
 21 H       -2.2500     2.7810     1.0800 H     1 <1>   0.0800 
 22 H       -2.0510     5.3470    -0.1820 H     1 <1>   0.0800 
 23 H       -1.0500     6.2250     0.9530 H     1 <1>   0.0800 
 24 H       -2.3390     5.1970     1.5370 H     1 <1>   0.0800 
 25 H        1.9570     3.5700     1.1560 H     1 <1>   0.0800 
 26 H        2.3160     3.2800    -0.5220 H     1 <1>   0.0800 
 27 H        0.3580     3.2260    -2.1400 H     1 <1>   0.0800 
 28 H       -0.7120     4.5840    -1.9790 H     1 <1>   0.0800 
 29 H       -0.8030     0.7900     0.9000 H     1 <1>   0.0800 
 30 H       -0.2020     1.8570     2.1350 H     1 <1>   0.0800 
 31 H       -2.3910     3.2460    -1.2210 H     1 <1>   0.0800 
 32 H       -1.3860     1.8360    -1.3500 H     1 <1>   0.0800 
 33 H        0.8480     1.4210    -0.6650 H     1 <1>   0.0800 
 34 H        1.5560    -0.0080     1.1870 H     1 <1>   0.4500 
 35 H        2.2310     1.2850     1.9480 H     1 <1>   0.4500 
 36 H        3.7650     1.6230     0.0980 H     1 <1>   0.0800 
 37 H        3.0160     0.2810    -0.7270 H     1 <1>   0.0800 
 38 H        3.7150    -1.2410     1.0890 H     1 <1>   0.0800 
 39 H        4.4390     0.1030     1.9450 H     1 <1>   0.0800 
 40 H        6.5120     1.1400     1.1490 H     1 <1>   0.1500 
 41 H        4.6730    -2.0410    -1.0560 H     1 <1>   0.1500 
 42 H        8.5140     0.9190    -0.2310 H     1 <1>   0.1500 
 43 H        6.6870    -2.2390    -2.4220 H     1 <1>   0.1500 
 44 H        8.6080    -0.7610    -2.0200 H     1 <1>   0.1500 
@<TRIPOS>BOND
  1   1   2  1   
  2   1   3  1   
  3   1   4  1   
  4   1  19  1   
  5   2   5  1   
  6   2   6  1   
  7   2  20  1   
  8   3   7  1   
  9   3   8  1   
 10   3  21  1   
 11   4  22  1   
 12   4  23  1   
 13   4  24  1   
 14   5   9  1   
 15   5  25  1   
 16   5  26  1   
 17   6   8  1   
 18   6  27  1   
 19   6  28  1   
 20   7   9  1   
 21   7  29  1   
 22   7  30  1   
 23   8  31  1   
 24   8  32  1   
 25   9  10  1   
 26   9  33  1   
 27  10  11  1   
 28  10  34  1   
 29  10  35  1   
 30  11  12  1   
 31  11  36  1   
 32  11  37  1   
 33  12  13  1   
 34  12  38  1   
 35  12  39  1   
 36  13  14  ar  
 37  13  15  ar  
 38  14  16  ar  
 39  14  40  1   
 40  15  17  ar  
 41  15  41  1   
 42  16  18  ar  
 43  16  42  1   
 44  17  18  ar  
 45  17  43  1   
 46  18  44  1   
@<TRIPOS>SUBSTRUCTURE
  1 ****  11 GROUP 4 **** **** 0

# MOE 2024.06 (io_trps.svl 2023.06)
