@<TRIPOS>MOLECULE
NONAME
39 41 1 0 0 
SMALL
USER_CHARGES


@<TRIPOS>ATOM
  1 BR      -0.7010     2.4210     1.7250 Br    1 <1>  -0.1110 
  2 C       -2.2560     1.4640     1.1130 C.ar  1 <1>   0.1110 
  3 C       -2.9400     1.9040    -0.0410 C.ar  1 <1>   0.0000 
  4 C       -2.6380     0.3740     1.8340 C.ar  1 <1>  -0.1500 
  5 C       -4.0730     1.1580    -0.4560 C.ar  1 <1>   0.0000 
  6 C       -2.5450     3.0350    -0.7910 C.ar  1 <1>  -0.1500 
  7 C       -3.7660    -0.3360     1.4230 C.ar  1 <1>  -0.1500 
  8 C       -4.4960     0.0360     0.3170 C.ar  1 <1>  -0.0090 
  9 C       -4.7240     1.5810    -1.6410 C.ar  1 <1>  -0.1500 
 10 C       -3.2150     3.4160    -1.9180 C.ar  1 <1>  -0.1500 
 11 S       -5.9760    -0.9300    -0.1200 S.o2  1 <1>   1.4470 
 12 C       -4.3160     2.6750    -2.3490 C.ar  1 <1>  -0.1500 
 13 O       -6.3250    -1.8250     0.9640 O.2   1 <1>  -0.6500 
 14 O       -5.7440    -1.5140    -1.4240 O.2   1 <1>  -0.6500 
 15 N       -7.2600     0.1810    -0.2680 N.am  1 <1>  -0.8490 
 16 C       -7.8900     0.5710     1.0110 C.3   1 <1>   0.2760 
 17 C       -8.2640    -0.3480    -1.2080 C.3   1 <1>   0.1960 
 18 C       -8.9960     1.6140     0.7640 C.3   1 <1>  -0.1600 
 19 C       -6.8840     1.1950     1.9840 C.3   1 <1>  -0.2400 
 20 C       -9.3560     0.6790    -1.5070 C.3   1 <1>  -0.1600 
 21 C      -10.0530     1.1220    -0.2240 C.3   1 <1>  -0.1600 
 22 H       -2.0890     0.0620     2.7050 H     1 <1>   0.1500 
 23 H       -1.6960     3.6110    -0.4720 H     1 <1>   0.1500 
 24 H       -4.0620    -1.1940     2.0050 H     1 <1>   0.1500 
 25 H       -5.5690     1.0340    -2.0140 H     1 <1>   0.1500 
 26 H       -2.9070     4.2780    -2.4840 H     1 <1>   0.1500 
 27 H       -4.8310     2.9780    -3.2450 H     1 <1>   0.1500 
 28 H       -8.3320    -0.2980     1.4720 H     1 <1>   0.0800 
 29 H       -8.7030    -1.2460    -0.8030 H     1 <1>   0.0800 
 30 H       -7.7970    -0.6000    -2.1460 H     1 <1>   0.0800 
 31 H       -8.5470     2.5170     0.3860 H     1 <1>   0.0800 
 32 H       -9.4780     1.8540     1.6950 H     1 <1>   0.0800 
 33 H       -6.3070     1.9610     1.4960 H     1 <1>   0.0800 
 34 H       -6.2360     0.4500     2.4020 H     1 <1>   0.0800 
 35 H       -7.4030     1.6430     2.8120 H     1 <1>   0.0800 
 36 H      -10.0760     0.2490    -2.1800 H     1 <1>   0.0800 
 37 H       -8.9110     1.5280    -1.9980 H     1 <1>   0.0800 
 38 H      -10.7560     1.9090    -0.4360 H     1 <1>   0.0800 
 39 H      -10.5910     0.2930     0.2030 H     1 <1>   0.0800 
@<TRIPOS>BOND
  1   1   2  1   
  2   2   3  ar  
  3   2   4  ar  
  4   3   5  ar  
  5   3   6  ar  
  6   4   7  ar  
  7   4  22  1   
  8   5   8  ar  
  9   5   9  ar  
 10   6  10  ar  
 11   6  23  1   
 12   7   8  ar  
 13   7  24  1   
 14   8  11  1   
 15   9  12  ar  
 16   9  25  1   
 17  10  12  ar  
 18  10  26  1   
 19  11  13  2   
 20  11  14  2   
 21  11  15  am  
 22  12  27  1   
 23  15  16  1   
 24  15  17  1   
 25  16  18  1   
 26  16  19  1   
 27  16  28  1   
 28  17  20  1   
 29  17  29  1   
 30  17  30  1   
 31  18  21  1   
 32  18  31  1   
 33  18  32  1   
 34  19  33  1   
 35  19  34  1   
 36  19  35  1   
 37  20  21  1   
 38  20  36  1   
 39  20  37  1   
 40  21  38  1   
 41  21  39  1   
@<TRIPOS>SUBSTRUCTURE
  1 ****   8 GROUP 4 **** **** 0

# MOE 2024.06 (io_trps.svl 2023.06)
