@<TRIPOS>MOLECULE
NONAME
35 35 1 0 0 
SMALL
USER_CHARGES


@<TRIPOS>ATOM
  1 O       -0.1600    -0.4200    -1.1380 O.2   1 <1>  -0.5700 
  2 C       -0.3120    -1.4600    -0.5270 C.2   1 <1>   0.7800 
  3 O        0.7370    -2.2370    -0.2570 O.3   1 <1>  -0.4300 
  4 N       -1.5170    -1.9330    -0.0660 N.am  1 <1>  -0.3680 
  5 C        2.0310    -1.8670    -0.6750 C.3   1 <1>   0.1200 
  6 N       -2.7810    -1.3750    -0.1830 N.2   1 <1>  -0.5120 
  7 C        3.0050    -2.9500    -0.2190 C.3   1 <1>  -0.2400 
  8 C       -3.8070    -1.9490     0.3230 C.2   1 <1>   0.3030 
  9 C       -5.1320    -1.3880     0.2220 C.ar  1 <1>   0.0860 
 10 C       -3.6910    -3.2540     1.1050 C.3   1 <1>  -0.1790 
 11 C       -6.1980    -2.0250    -0.4310 C.ar  1 <1>  -0.1430 
 12 C       -5.3810    -0.1470     0.8080 C.ar  1 <1>  -0.1500 
 13 C       -7.4550    -1.4440    -0.4460 C.ar  1 <1>  -0.1500 
 14 C       -6.0070    -3.3510    -1.1590 C.3   1 <1>  -0.0970 
 15 C       -6.6360     0.4290     0.7850 C.ar  1 <1>  -0.1500 
 16 C       -7.6850    -0.2200     0.1600 C.ar  1 <1>  -0.1430 
 17 C       -9.0700     0.4000     0.1340 C.3   1 <1>  -0.0970 
 18 H       -1.4240    -2.8200     0.4260 H     1 <1>   0.3700 
 19 H        2.0300    -1.7740    -1.7480 H     1 <1>   0.0800 
 20 H        2.2740    -0.9160    -0.2310 H     1 <1>   0.0800 
 21 H        2.7440    -3.8940    -0.6630 H     1 <1>   0.0800 
 22 H        2.9880    -3.0360     0.8530 H     1 <1>   0.0800 
 23 H        4.0020    -2.6910    -0.5260 H     1 <1>   0.0800 
 24 H       -4.6340    -3.5090     1.5520 H     1 <1>   0.0800 
 25 H       -2.9710    -3.1490     1.8960 H     1 <1>   0.0800 
 26 H       -3.3920    -4.0510     0.4490 H     1 <1>   0.0800 
 27 H       -4.5680     0.3690     1.2880 H     1 <1>   0.1500 
 28 H       -8.2700    -1.9430    -0.9390 H     1 <1>   0.1500 
 29 H       -6.7870    -3.5010    -1.8840 H     1 <1>   0.0800 
 30 H       -6.0320    -4.1660    -0.4590 H     1 <1>   0.0800 
 31 H       -5.0680    -3.3600    -1.6830 H     1 <1>   0.0800 
 32 H       -6.7910     1.3850     1.2530 H     1 <1>   0.1500 
 33 H       -9.0080     1.4690     0.2340 H     1 <1>   0.0800 
 34 H       -9.6590     0.0100     0.9440 H     1 <1>   0.0800 
 35 H       -9.5630     0.1760    -0.7950 H     1 <1>   0.0800 
@<TRIPOS>BOND
  1   1   2  2   
  2   2   3  1   
  3   2   4  am  
  4   3   5  1   
  5   4   6  1   
  6   4  18  1   
  7   5   7  1   
  8   5  19  1   
  9   5  20  1   
 10   6   8  2   
 11   7  21  1   
 12   7  22  1   
 13   7  23  1   
 14   8   9  1   
 15   8  10  1   
 16   9  11  ar  
 17   9  12  ar  
 18  10  24  1   
 19  10  25  1   
 20  10  26  1   
 21  11  13  ar  
 22  11  14  1   
 23  12  15  ar  
 24  12  27  1   
 25  13  16  ar  
 26  13  28  1   
 27  14  29  1   
 28  14  30  1   
 29  14  31  1   
 30  15  16  ar  
 31  15  32  1   
 32  16  17  1   
 33  17  33  1   
 34  17  34  1   
 35  17  35  1   
@<TRIPOS>SUBSTRUCTURE
  1 ****   8 GROUP 4 **** **** 0

# MOE 2024.06 (io_trps.svl 2023.06)
