@<TRIPOS>MOLECULE
NONAME
30 32 1 0 0 
SMALL
USER_CHARGES


@<TRIPOS>ATOM
  1 S       -1.0070     0.1260     0.5830 S.3   1 <1>  -0.0800 
  2 C       -0.1870    -1.4280     0.3760 C.2   1 <1>  -0.0050 
  3 C       -2.5460    -0.6420     0.9220 C.2   1 <1>  -0.1100 
  4 C       -1.0970    -2.4180     0.5690 C.2   1 <1>  -0.1500 
  5 C        1.2090    -1.5140     0.0580 C.2   1 <1>  -0.1050 
  6 C       -2.4190    -1.9800     0.8750 C.2   1 <1>  -0.1500 
  7 C        2.1590    -0.5650    -0.1430 C.2   1 <1>  -0.0380 
  8 N        1.9750     0.8160    -0.0820 N.pl3 1 <1>  -0.8380 
  9 C        3.6100    -0.9540    -0.4820 C.3   1 <1>   0.3380 
 10 C        2.8180     1.4500     0.9740 C.3   1 <1>   0.2090 
 11 C        2.2750     1.4670    -1.3930 C.3   1 <1>   0.2090 
 12 O        4.1190    -1.6950     0.5680 O.3   1 <1>  -0.6800 
 13 C        4.4350     0.3490    -0.6500 C.3   1 <1>  -0.0800 
 14 C        4.3090     1.2010     0.6400 C.3   1 <1>  -0.1600 
 15 C        3.7470     1.1670    -1.7710 C.3   1 <1>  -0.1600 
 16 H       -3.3860    -0.0020     1.1220 H     1 <1>   0.1500 
 17 H       -0.8710    -3.4660     0.5040 H     1 <1>   0.1500 
 18 H        1.5340    -2.5350    -0.0300 H     1 <1>   0.1500 
 19 H       -3.2120    -2.6860     1.0460 H     1 <1>   0.1500 
 20 H        3.6530    -1.5570    -1.3720 H     1 <1>   0.0800 
 21 H        2.6080     2.5050     1.0220 H     1 <1>   0.0800 
 22 H        2.5690     1.0150     1.9270 H     1 <1>   0.0800 
 23 H        1.6070     1.0740    -2.1410 H     1 <1>   0.0800 
 24 H        2.1090     2.5280    -1.3170 H     1 <1>   0.0800 
 25 H        3.7460    -1.3170     1.3860 H     1 <1>   0.4000 
 26 H        5.4590     0.1310    -0.8980 H     1 <1>   0.0800 
 27 H        4.8060     2.1450     0.5090 H     1 <1>   0.0800 
 28 H        4.7840     0.7070     1.4680 H     1 <1>   0.0800 
 29 H        3.7690     0.6170    -2.6950 H     1 <1>   0.0800 
 30 H        4.2700     2.0920    -1.9350 H     1 <1>   0.0800 
@<TRIPOS>BOND
  1   1   2  1   
  2   1   3  1   
  3   2   4  2   
  4   2   5  1   
  5   3   6  2   
  6   3  16  1   
  7   4   6  1   
  8   4  17  1   
  9   5   7  2   
 10   5  18  1   
 11   6  19  1   
 12   7   8  1   
 13   7   9  1   
 14   8  10  1   
 15   8  11  1   
 16   9  12  1   
 17   9  13  1   
 18   9  20  1   
 19  10  14  1   
 20  10  21  1   
 21  10  22  1   
 22  11  15  1   
 23  11  23  1   
 24  11  24  1   
 25  12  25  1   
 26  13  14  1   
 27  13  15  1   
 28  13  26  1   
 29  14  27  1   
 30  14  28  1   
 31  15  29  1   
 32  15  30  1   
@<TRIPOS>SUBSTRUCTURE
  1 ****   7 GROUP 4 **** **** 0

# MOE 2024.06 (io_trps.svl 2023.06)
