@<TRIPOS>MOLECULE
NONAME
30 31 1 0 0 
SMALL
USER_CHARGES


@<TRIPOS>ATOM
  1 I       -0.0100    -0.3970     0.9910 I     1 <1>  -0.0810 
  2 C        0.0100     1.6970     0.5020 C.ar  1 <1>   0.0810 
  3 C        1.2240     2.3760     0.5230 C.ar  1 <1>   0.0830 
  4 C       -1.1860     2.3230     0.1790 C.ar  1 <1>   0.0830 
  5 O        2.3570     1.7190     0.8560 O.3   1 <1>  -0.2330 
  6 C        1.2730     3.7410     0.2050 C.ar  1 <1>   0.0280 
  7 O       -2.3400     1.6060     0.1740 O.3   1 <1>  -0.3630 
  8 C       -1.1410     3.6810    -0.1300 C.ar  1 <1>  -0.1500 
  9 C        3.5530     2.3010     0.9170 C.2   1 <1>   0.7060 
 10 C        2.5520     4.4080     0.2300 C.2   1 <1>  -0.1670 
 11 C        0.0590     4.3660    -0.1140 C.ar  1 <1>  -0.1500 
 12 C       -3.5860     2.1840    -0.1460 C.3   1 <1>   0.0400 
 13 O        4.4920     1.5990     1.2400 O.2   1 <1>  -0.5700 
 14 C        3.6570     3.7020     0.5990 C.2   1 <1>  -0.1240 
 15 C        2.5810     5.8830    -0.1780 C.3   1 <1>  -0.1020 
 16 C        5.0620     4.3070     0.7040 C.3   1 <1>  -0.0220 
 17 C        5.8080     4.1860    -0.6280 C.3   1 <1>  -0.2400 
 18 H       -2.0340     4.2190    -0.3840 H     1 <1>   0.1500 
 19 H        0.0390     5.4120    -0.3550 H     1 <1>   0.1500 
 20 H       -4.3360     1.4170    -0.0800 H     1 <1>   0.0800 
 21 H       -3.5450     2.5690    -1.1500 H     1 <1>   0.0800 
 22 H       -3.8010     2.9660     0.5610 H     1 <1>   0.0800 
 23 H        2.0480     6.4740     0.5460 H     1 <1>   0.0800 
 24 H        2.1160     6.0060    -1.1390 H     1 <1>   0.0800 
 25 H        3.5730     6.2790    -0.2660 H     1 <1>   0.0800 
 26 H        5.6270     3.8040     1.4710 H     1 <1>   0.0800 
 27 H        5.0170     5.3370     1.0050 H     1 <1>   0.0800 
 28 H        5.9150     3.1490    -0.8980 H     1 <1>   0.0800 
 29 H        6.7890     4.6190    -0.5430 H     1 <1>   0.0800 
 30 H        5.2710     4.6930    -1.4090 H     1 <1>   0.0800 
@<TRIPOS>BOND
  1   1   2  1   
  2   2   3  ar  
  3   2   4  ar  
  4   3   5  1   
  5   3   6  ar  
  6   4   7  1   
  7   4   8  ar  
  8   5   9  1   
  9   6  10  1   
 10   6  11  ar  
 11   7  12  1   
 12   8  11  ar  
 13   8  18  1   
 14   9  13  2   
 15   9  14  1   
 16  10  14  2   
 17  10  15  1   
 18  11  19  1   
 19  12  20  1   
 20  12  21  1   
 21  12  22  1   
 22  14  16  1   
 23  15  23  1   
 24  15  24  1   
 25  15  25  1   
 26  16  17  1   
 27  16  26  1   
 28  16  27  1   
 29  17  28  1   
 30  17  29  1   
 31  17  30  1   
@<TRIPOS>SUBSTRUCTURE
  1 ****   3 GROUP 4 **** **** 0

# MOE 2024.06 (io_trps.svl 2023.06)
