@<TRIPOS>MOLECULE
NONAME
38 40 1 0 0 
SMALL
USER_CHARGES


@<TRIPOS>ATOM
  1 O       -1.6670     0.5090     2.8150 O.2   1 <1>  -0.5700 
  2 C       -2.3050     0.9650     1.8800 C.2   1 <1>   0.6160 
  3 N       -3.2500     0.1700     1.2940 N.am  1 <1>  -0.5390 
  4 C       -2.1170     2.2800     1.3690 C.2   1 <1>  -0.1360 
  5 C       -3.9990     0.6260     0.2450 C.2   1 <1>   0.2090 
  6 C       -2.8460     2.7570     0.3150 C.2   1 <1>  -0.1380 
  7 N       -4.9510    -0.0430    -0.4410 N.pl3 1 <1>  -0.4890 
  8 C       -3.8140     1.8980    -0.2710 C.2   1 <1>   0.0140 
  9 C       -2.6540     4.1580    -0.2420 C.3   1 <1>  -0.1020 
 10 N       -5.3850     0.8380    -1.4830 N.am  1 <1>  -0.4100 
 11 C       -5.1990    -1.5080    -0.5340 C.3   1 <1>   0.2890 
 12 C       -4.7230     2.0130    -1.3500 C.2   1 <1>   0.6160 
 13 C       -5.6920    -2.0330     0.8250 C.3   1 <1>  -0.1600 
 14 C       -3.9480    -2.2010    -1.0950 C.3   1 <1>  -0.1600 
 15 O       -4.9840     3.0020    -2.0410 O.2   1 <1>  -0.5700 
 16 C       -6.3560    -3.4150     0.7150 C.3   1 <1>  -0.1600 
 17 C       -4.0600    -3.7290    -1.2370 C.3   1 <1>  -0.1600 
 18 C       -5.3870    -4.6050     0.8090 C.3   1 <1>  -0.1600 
 19 C       -4.0230    -4.4470     0.1200 C.3   1 <1>  -0.1600 
 20 H       -3.3700    -0.7620     1.6810 H     1 <1>   0.3700 
 21 H       -1.3680     2.8700     1.8620 H     1 <1>   0.1500 
 22 H       -3.5740     4.7120    -0.1670 H     1 <1>   0.0800 
 23 H       -2.3710     4.1050    -1.2790 H     1 <1>   0.0800 
 24 H       -1.8890     4.6870     0.2970 H     1 <1>   0.0800 
 25 H       -6.3760     0.9130    -1.7280 H     1 <1>   0.3700 
 26 H       -5.9950    -1.6470    -1.2450 H     1 <1>   0.0800 
 27 H       -6.4350    -1.3450     1.1880 H     1 <1>   0.0800 
 28 H       -4.8930    -2.0650     1.5410 H     1 <1>   0.0800 
 29 H       -3.0970    -1.9710    -0.4820 H     1 <1>   0.0800 
 30 H       -3.7610    -1.7890    -2.0710 H     1 <1>   0.0800 
 31 H       -6.9090    -3.4770    -0.2070 H     1 <1>   0.0800 
 32 H       -7.0740    -3.5160     1.5110 H     1 <1>   0.0800 
 33 H       -3.2100    -4.0620    -1.8090 H     1 <1>   0.0800 
 34 H       -4.9420    -4.0020    -1.7910 H     1 <1>   0.0800 
 35 H       -5.8840    -5.4670     0.3960 H     1 <1>   0.0800 
 36 H       -5.2070    -4.8210     1.8480 H     1 <1>   0.0800 
 37 H       -3.3440    -3.9340     0.7800 H     1 <1>   0.0800 
 38 H       -3.6170    -5.4340    -0.0270 H     1 <1>   0.0800 
@<TRIPOS>BOND
  1   1   2  2   
  2   2   3  am  
  3   2   4  1   
  4   3   5  1   
  5   3  20  1   
  6   4   6  2   
  7   4  21  1   
  8   5   7  1   
  9   5   8  2   
 10   6   8  1   
 11   6   9  1   
 12   7  10  1   
 13   7  11  1   
 14   8  12  1   
 15   9  22  1   
 16   9  23  1   
 17   9  24  1   
 18  10  12  am  
 19  10  25  1   
 20  11  13  1   
 21  11  14  1   
 22  11  26  1   
 23  12  15  2   
 24  13  16  1   
 25  13  27  1   
 26  13  28  1   
 27  14  17  1   
 28  14  29  1   
 29  14  30  1   
 30  16  18  1   
 31  16  31  1   
 32  16  32  1   
 33  17  19  1   
 34  17  33  1   
 35  17  34  1   
 36  18  19  1   
 37  18  35  1   
 38  18  36  1   
 39  19  37  1   
 40  19  38  1   
@<TRIPOS>SUBSTRUCTURE
  1 ****   5 GROUP 4 **** **** 0

# MOE 2024.06 (io_trps.svl 2023.06)
