@<TRIPOS>MOLECULE
NONAME
48 49 1 0 0 
SMALL
USER_CHARGES


@<TRIPOS>ATOM
  1 S       -0.8810     0.2050     0.9540 S.o2  1 <1>   1.5760 
  2 O        0.5180     0.4850     0.7360 O.2   1 <1>  -0.6500 
  3 O       -1.5490     0.6400     2.1590 O.2   1 <1>  -0.6500 
  4 N       -1.1880    -1.4860     0.7810 N.am  1 <1>  -0.6930 
  5 N       -1.7530     0.7900    -0.3750 N.am  1 <1>  -0.8490 
  6 C       -0.2300    -2.3690     0.2930 C.ar  1 <1>   0.1990 
  7 C       -2.3290    -2.0120     1.5950 C.3   1 <1>   0.2570 
  8 C       -1.0620     0.5490    -1.6460 C.3   1 <1>   0.1160 
  9 C       -2.0580     2.2150    -0.2360 C.3   1 <1>   0.1160 
 10 C       -0.4900    -3.1420    -0.8340 C.ar  1 <1>  -0.1500 
 11 C        1.0050    -2.5070     0.9170 C.ar  1 <1>  -0.1500 
 12 C       -3.0650    -3.2260     1.0160 C.2   1 <1>   0.5690 
 13 C        0.4540    -4.0250    -1.3260 C.ar  1 <1>  -0.1500 
 14 C        1.9540    -3.3860     0.4290 C.ar  1 <1>  -0.1500 
 15 O       -2.8780    -4.2980     1.5500 O.2   1 <1>  -0.5700 
 16 N       -3.9380    -3.0990    -0.0400 N.am  1 <1>  -0.6600 
 17 C        1.6800    -4.1470    -0.6940 C.ar  1 <1>  -0.1500 
 18 C       -4.1950    -1.8380    -0.7840 C.3   1 <1>   0.1400 
 19 C       -4.7410    -4.2550    -0.5100 C.3   1 <1>   0.1400 
 20 C       -5.4560    -1.1330    -0.2750 C.3   1 <1>  -0.1600 
 21 C       -6.0280    -4.4100     0.3100 C.3   1 <1>  -0.1600 
 22 C       -6.7380    -1.9880    -0.3030 C.3   1 <1>  -0.1600 
 23 C       -6.7290    -3.1100     0.7490 C.3   1 <1>  -0.1600 
 24 H       -3.0600    -1.2370     1.7340 H     1 <1>   0.0800 
 25 H       -1.9560    -2.2770     2.5680 H     1 <1>   0.0800 
 26 H       -0.8630    -0.5010    -1.7670 H     1 <1>   0.0800 
 27 H       -0.1250     1.0810    -1.6760 H     1 <1>   0.0800 
 28 H       -1.6760     0.8740    -2.4690 H     1 <1>   0.0800 
 29 H       -2.6420     2.3810     0.6540 H     1 <1>   0.0800 
 30 H       -2.6280     2.5580    -1.0820 H     1 <1>   0.0800 
 31 H       -1.1480     2.7890    -0.1650 H     1 <1>   0.0800 
 32 H       -1.4410    -3.0520    -1.3240 H     1 <1>   0.1500 
 33 H        1.2220    -1.9180     1.7900 H     1 <1>   0.1500 
 34 H        0.2360    -4.6180    -2.1960 H     1 <1>   0.1500 
 35 H        2.9060    -3.4790     0.9230 H     1 <1>   0.1500 
 36 H        2.4170    -4.8340    -1.0740 H     1 <1>   0.1500 
 37 H       -4.3060    -2.0590    -1.8320 H     1 <1>   0.0800 
 38 H       -3.3560    -1.1750    -0.6940 H     1 <1>   0.0800 
 39 H       -4.1560    -5.1570    -0.4350 H     1 <1>   0.0800 
 40 H       -4.9910    -4.1200    -1.5480 H     1 <1>   0.0800 
 41 H       -5.6140    -0.2660    -0.8920 H     1 <1>   0.0800 
 42 H       -5.2800    -0.7740     0.7230 H     1 <1>   0.0800 
 43 H       -5.7950    -4.9820     1.1920 H     1 <1>   0.0800 
 44 H       -6.7140    -5.0000    -0.2690 H     1 <1>   0.0800 
 45 H       -6.9040    -2.3940    -1.2860 H     1 <1>   0.0800 
 46 H       -7.5660    -1.3370    -0.0830 H     1 <1>   0.0800 
 47 H       -6.2610    -2.7460     1.6480 H     1 <1>   0.0800 
 48 H       -7.7460    -3.3540     1.0060 H     1 <1>   0.0800 
@<TRIPOS>BOND
  1   1   2  2   
  2   1   3  2   
  3   1   4  am  
  4   1   5  am  
  5   4   6  1   
  6   4   7  1   
  7   5   8  1   
  8   5   9  1   
  9   6  10  ar  
 10   6  11  ar  
 11   7  12  1   
 12   7  24  1   
 13   7  25  1   
 14   8  26  1   
 15   8  27  1   
 16   8  28  1   
 17   9  29  1   
 18   9  30  1   
 19   9  31  1   
 20  10  13  ar  
 21  10  32  1   
 22  11  14  ar  
 23  11  33  1   
 24  12  15  2   
 25  12  16  am  
 26  13  17  ar  
 27  13  34  1   
 28  14  17  ar  
 29  14  35  1   
 30  16  18  1   
 31  16  19  1   
 32  17  36  1   
 33  18  20  1   
 34  18  37  1   
 35  18  38  1   
 36  19  21  1   
 37  19  39  1   
 38  19  40  1   
 39  20  22  1   
 40  20  41  1   
 41  20  42  1   
 42  21  23  1   
 43  21  43  1   
 44  21  44  1   
 45  22  23  1   
 46  22  45  1   
 47  22  46  1   
 48  23  47  1   
 49  23  48  1   
@<TRIPOS>SUBSTRUCTURE
  1 ****   4 GROUP 4 **** **** 0

# MOE 2024.06 (io_trps.svl 2023.06)
