@<TRIPOS>MOLECULE
NONAME
53 55 1 0 0 
SMALL
USER_CHARGES


@<TRIPOS>ATOM
  1 BR       2.7030     2.4180    -2.5140 Br    1 <1>  -0.1110 
  2 C        1.4460     2.8050    -1.1010 C.ar  1 <1>   0.1110 
  3 C        1.7390     2.4180     0.1980 C.ar  1 <1>   0.0820 
  4 C        0.2860     3.4760    -1.4340 C.ar  1 <1>  -0.1500 
  5 O        2.9040     1.7690     0.4450 O.3   1 <1>  -0.3630 
  6 C        0.8130     2.7210     1.1880 C.ar  1 <1>  -0.1500 
  7 C       -0.6430     3.7880    -0.4440 C.ar  1 <1>  -0.1430 
  8 C        3.5230     1.8800     1.7180 C.3   1 <1>   0.1810 
  9 C       -0.3530     3.3960     0.8630 C.ar  1 <1>  -0.1500 
 10 C       -1.9600     4.5380    -0.7380 C.3   1 <1>   0.1440 
 11 C        4.9540     1.3470     1.6980 C.2   1 <1>   0.5690 
 12 C       -3.1530     3.6580    -0.3380 C.3   1 <1>  -0.2400 
 13 C       -1.9970     5.8460     0.0660 C.3   1 <1>  -0.2400 
 14 C       -2.1290     4.9020    -2.2230 C.3   1 <1>  -0.2400 
 15 O        5.2300     0.5000     2.5180 O.2   1 <1>  -0.5700 
 16 N        5.9000     1.8240     0.8200 N.am  1 <1>  -0.6600 
 17 C        5.6690     2.8860    -0.2160 C.3   1 <1>   0.1400 
 18 C        7.2870     1.2600     0.7810 C.3   1 <1>   0.1400 
 19 C        6.7560     3.9750    -0.1690 C.3   1 <1>   0.2090 
 20 C        8.3510     2.3690     0.8400 C.3   1 <1>   0.2090 
 21 N        8.1290     3.3880    -0.2260 N.pl3 1 <1>  -0.8380 
 22 C        9.1810     4.2470    -0.4740 C.ar  1 <1>   0.4100 
 23 N        9.0940     5.4780     0.0190 N.ar  1 <1>  -0.6200 
 24 C       10.2750     3.7930    -1.2060 C.ar  1 <1>  -0.1500 
 25 C       10.1250     6.2700    -0.2250 C.ar  1 <1>   0.1600 
 26 C       11.3400     4.6280    -1.4520 C.ar  1 <1>  -0.1500 
 27 C       11.2520     5.9060    -0.9390 C.ar  1 <1>  -0.1500 
 28 H        0.1410     3.7390    -2.4640 H     1 <1>   0.1500 
 29 H        0.9770     2.4340     2.2090 H     1 <1>   0.1500 
 30 H        2.9450     1.3100     2.4210 H     1 <1>   0.0800 
 31 H        3.5330     2.9140     2.0060 H     1 <1>   0.0800 
 32 H       -1.0480     3.6140     1.6540 H     1 <1>   0.1500 
 33 H       -3.1440     3.4440     0.7150 H     1 <1>   0.0800 
 34 H       -3.1180     2.7250    -0.8720 H     1 <1>   0.0800 
 35 H       -4.0820     4.1490    -0.5690 H     1 <1>   0.0800 
 36 H       -1.1470     6.4560    -0.1830 H     1 <1>   0.0800 
 37 H       -1.9770     5.6540     1.1230 H     1 <1>   0.0800 
 38 H       -2.8910     6.4020    -0.1540 H     1 <1>   0.0800 
 39 H       -1.3300     5.5430    -2.5500 H     1 <1>   0.0800 
 40 H       -3.0570     5.4220    -2.3820 H     1 <1>   0.0800 
 41 H       -2.1390     4.0150    -2.8310 H     1 <1>   0.0800 
 42 H        4.7150     3.3590    -0.0820 H     1 <1>   0.0800 
 43 H        5.6760     2.4300    -1.1900 H     1 <1>   0.0800 
 44 H        7.4110     0.7050    -0.1310 H     1 <1>   0.0800 
 45 H        7.4430     0.5830     1.6020 H     1 <1>   0.0800 
 46 H        6.6500     4.5440     0.7390 H     1 <1>   0.0800 
 47 H        6.6230     4.6480    -0.9980 H     1 <1>   0.0800 
 48 H        9.3270     1.9320     0.7260 H     1 <1>   0.0800 
 49 H        8.3110     2.8490     1.8030 H     1 <1>   0.0800 
 50 H       10.2640     2.7870    -1.5760 H     1 <1>   0.1500 
 51 H       10.0670     7.2700     0.1690 H     1 <1>   0.1500 
 52 H       12.1970     4.3030    -2.0150 H     1 <1>   0.1500 
 53 H       12.0480     6.6120    -1.0930 H     1 <1>   0.1500 
@<TRIPOS>BOND
  1   1   2  1   
  2   2   3  ar  
  3   2   4  ar  
  4   3   5  1   
  5   3   6  ar  
  6   4   7  ar  
  7   4  28  1   
  8   5   8  1   
  9   6   9  ar  
 10   6  29  1   
 11   7   9  ar  
 12   7  10  1   
 13   8  11  1   
 14   8  30  1   
 15   8  31  1   
 16   9  32  1   
 17  10  12  1   
 18  10  13  1   
 19  10  14  1   
 20  11  15  2   
 21  11  16  am  
 22  12  33  1   
 23  12  34  1   
 24  12  35  1   
 25  13  36  1   
 26  13  37  1   
 27  13  38  1   
 28  14  39  1   
 29  14  40  1   
 30  14  41  1   
 31  16  17  1   
 32  16  18  1   
 33  17  19  1   
 34  17  42  1   
 35  17  43  1   
 36  18  20  1   
 37  18  44  1   
 38  18  45  1   
 39  19  21  1   
 40  19  46  1   
 41  19  47  1   
 42  20  21  1   
 43  20  48  1   
 44  20  49  1   
 45  21  22  1   
 46  22  23  ar  
 47  22  24  ar  
 48  23  25  ar  
 49  24  26  ar  
 50  24  50  1   
 51  25  27  ar  
 52  25  51  1   
 53  26  27  ar  
 54  26  52  1   
 55  27  53  1   
@<TRIPOS>SUBSTRUCTURE
  1 ****  17 GROUP 4 **** **** 0

# MOE 2024.06 (io_trps.svl 2023.06)
