@<TRIPOS>MOLECULE
NONAME
53 55 1 0 0 
SMALL
USER_CHARGES


@<TRIPOS>ATOM
  1 O       -0.6770     0.4190    -0.2080 O.2   1 <1>  -0.5700 
  2 C       -1.1670     1.5180    -0.1620 C.2   1 <1>   0.4230 
  3 C       -0.3940     2.7380    -0.3030 C.ar  1 <1>   0.0860 
  4 C       -2.6710     1.5780     0.0580 C.3   1 <1>  -0.0990 
  5 C       -0.9420     4.0170    -0.1510 C.ar  1 <1>  -0.1500 
  6 C        0.9690     2.6700    -0.6050 C.ar  1 <1>  -0.1500 
  7 C       -3.2680     0.1690    -0.0150 C.3   1 <1>   0.3430 
  8 C       -0.1730     5.1570    -0.2970 C.ar  1 <1>  -0.1500 
  9 C        1.7430     3.8060    -0.7510 C.ar  1 <1>  -0.1500 
 10 N       -4.7480     0.1810     0.1610 N.4   1 <1>  -0.9590 
 11 C        1.1720     5.0550    -0.5970 C.ar  1 <1>  -0.1500 
 12 C       -5.2180     0.5330     1.5440 C.3   1 <1>   0.3430 
 13 C       -5.3730    -1.1120    -0.2710 C.3   1 <1>   0.3430 
 14 C       -6.7650     0.5750     1.6180 C.3   1 <1>   0.1100 
 15 C       -6.9180    -1.0400    -0.1910 C.3   1 <1>   0.1100 
 16 N       -7.4070     0.2680     0.3130 N.3   1 <1>  -0.8100 
 17 C       -8.8790     0.2500     0.4130 C.3   1 <1>   0.1100 
 18 C       -9.4510     1.6730     0.4300 C.3   1 <1>  -0.0990 
 19 C      -10.9750     1.6680     0.4300 C.2   1 <1>   0.4230 
 20 O      -11.5240     0.6940     0.8800 O.2   1 <1>  -0.5700 
 21 C      -11.7060     2.8040    -0.0980 C.ar  1 <1>   0.0860 
 22 C      -13.0540     2.6710    -0.4400 C.ar  1 <1>  -0.1500 
 23 C      -11.1280     4.0650    -0.2870 C.ar  1 <1>  -0.1500 
 24 C      -13.7840     3.7260    -0.9550 C.ar  1 <1>  -0.1500 
 25 C      -11.8530     5.1250    -0.8010 C.ar  1 <1>  -0.1500 
 26 C      -13.1830     4.9570    -1.1390 C.ar  1 <1>  -0.1500 
 27 H       -3.1100     2.1900    -0.7080 H     1 <1>   0.0800 
 28 H       -2.8520     2.0100     1.0240 H     1 <1>   0.0800 
 29 H       -1.9810     4.1460     0.0860 H     1 <1>   0.1500 
 30 H        1.4340     1.7050    -0.7270 H     1 <1>   0.1500 
 31 H       -2.8110    -0.4530     0.7380 H     1 <1>   0.0800 
 32 H       -3.0210    -0.2530    -0.9770 H     1 <1>   0.0800 
 33 H       -0.6170     6.1310    -0.1760 H     1 <1>   0.1500 
 34 H        2.7910     3.7190    -0.9840 H     1 <1>   0.1500 
 35 H       -5.1950     0.8800    -0.4530 H     1 <1>   0.4500 
 36 H        1.7720     5.9410    -0.7110 H     1 <1>   0.1500 
 37 H       -4.8330     1.4970     1.8310 H     1 <1>   0.0800 
 38 H       -4.8500    -0.1900     2.2530 H     1 <1>   0.0800 
 39 H       -5.0240    -1.9170     0.3550 H     1 <1>   0.0800 
 40 H       -5.0870    -1.3390    -1.2850 H     1 <1>   0.0800 
 41 H       -7.0630     1.5550     1.9470 H     1 <1>   0.0800 
 42 H       -7.0990    -0.1280     2.3640 H     1 <1>   0.0800 
 43 H       -7.2730    -1.8340     0.4440 H     1 <1>   0.0800 
 44 H       -7.3210    -1.2140    -1.1750 H     1 <1>   0.0800 
 45 H       -9.1920    -0.2900     1.2920 H     1 <1>   0.0800 
 46 H       -9.2920    -0.2570    -0.4450 H     1 <1>   0.0800 
 47 H       -9.0980     2.1860    -0.4450 H     1 <1>   0.0800 
 48 H       -9.1230     2.1950     1.3080 H     1 <1>   0.0800 
 49 H      -13.5360     1.7180    -0.2990 H     1 <1>   0.1500 
 50 H      -10.1010     4.2360    -0.0260 H     1 <1>   0.1500 
 51 H      -14.8210     3.5900    -1.2110 H     1 <1>   0.1500 
 52 H      -11.3840     6.0840    -0.9390 H     1 <1>   0.1500 
 53 H      -13.7480     5.7810    -1.5400 H     1 <1>   0.1500 
@<TRIPOS>BOND
  1   1   2  2   
  2   2   3  1   
  3   2   4  1   
  4   3   5  ar  
  5   3   6  ar  
  6   4   7  1   
  7   4  27  1   
  8   4  28  1   
  9   5   8  ar  
 10   5  29  1   
 11   6   9  ar  
 12   6  30  1   
 13   7  10  1   
 14   7  31  1   
 15   7  32  1   
 16   8  11  ar  
 17   8  33  1   
 18   9  11  ar  
 19   9  34  1   
 20  10  12  1   
 21  10  13  1   
 22  10  35  1   
 23  11  36  1   
 24  12  14  1   
 25  12  37  1   
 26  12  38  1   
 27  13  15  1   
 28  13  39  1   
 29  13  40  1   
 30  14  16  1   
 31  14  41  1   
 32  14  42  1   
 33  15  16  1   
 34  15  43  1   
 35  15  44  1   
 36  16  17  1   
 37  17  18  1   
 38  17  45  1   
 39  17  46  1   
 40  18  19  1   
 41  18  47  1   
 42  18  48  1   
 43  19  20  2   
 44  19  21  1   
 45  21  22  ar  
 46  21  23  ar  
 47  22  24  ar  
 48  22  49  1   
 49  23  25  ar  
 50  23  50  1   
 51  24  26  ar  
 52  24  51  1   
 53  25  26  ar  
 54  25  52  1   
 55  26  53  1   
@<TRIPOS>SUBSTRUCTURE
  1 ****  16 GROUP 4 **** **** 0

# MOE 2024.06 (io_trps.svl 2023.06)
