@<TRIPOS>MOLECULE
NONAME
47 48 1 0 0 
SMALL
USER_CHARGES


@<TRIPOS>ATOM
  1 O       -0.1800     2.5010     2.5160 O.2   1 <1>  -0.5700 
  2 C        0.1730     2.2930     1.3740 C.2   1 <1>   0.6340 
  3 O       -0.5540     1.4850     0.6010 O.3   1 <1>  -0.4300 
  4 C        1.3590     2.8720     0.7940 C.ar  1 <1>   0.0860 
  5 C       -1.6630     0.7770     1.1020 C.3   1 <1>   0.1200 
  6 C        2.3940     2.0560     0.3310 C.ar  1 <1>   0.0000 
  7 C        1.5040     4.2540     0.6750 C.ar  1 <1>   0.1660 
  8 C       -2.1490    -0.1640     0.0060 C.3   1 <1>  -0.2400 
  9 C        3.5090     2.6800    -0.2350 C.ar  1 <1>   0.0860 
 10 C        2.3120     0.6170     0.4360 C.ar  1 <1>   0.0000 
 11 N        2.5540     4.8520     0.1460 N.ar  1 <1>  -0.6200 
 12 C        0.4170     5.2000     1.1620 C.3   1 <1>  -0.0970 
 13 C        3.5240     4.0730    -0.2960 C.ar  1 <1>   0.1670 
 14 C        4.6090     1.8980    -0.7430 C.2   1 <1>   0.6340 
 15 C        2.1370    -0.1750    -0.6940 C.ar  1 <1>  -0.1500 
 16 C        2.4090    -0.0160     1.6730 C.ar  1 <1>  -0.1500 
 17 C        4.7070     4.8200    -0.8940 C.3   1 <1>  -0.0960 
 18 O        4.9750     1.9390    -1.8990 O.2   1 <1>  -0.5700 
 19 O        5.2330     1.0880     0.1120 O.3   1 <1>  -0.4300 
 20 C        2.0580    -1.5560    -0.6060 C.ar  1 <1>   0.1000 
 21 C        2.3340    -1.3930     1.7750 C.ar  1 <1>  -0.1500 
 22 C        6.2130     0.1710    -0.3160 C.3   1 <1>   0.1200 
 23 N        1.8790    -2.3220    -1.7420 N.pl3 1 <1>  -0.9000 
 24 C        2.1600    -2.1600     0.6390 C.ar  1 <1>  -0.1500 
 25 C        6.6000    -0.6920     0.8800 C.3   1 <1>  -0.2400 
 26 H       -2.4250     1.4860     1.3790 H     1 <1>   0.0800 
 27 H       -1.3490     0.2230     1.9710 H     1 <1>   0.0800 
 28 H       -2.4490     0.3980    -0.8600 H     1 <1>   0.0800 
 29 H       -2.9940    -0.7280     0.3590 H     1 <1>   0.0800 
 30 H       -1.3660    -0.8510    -0.2620 H     1 <1>   0.0800 
 31 H        0.4130     5.2250     2.2360 H     1 <1>   0.0800 
 32 H       -0.5490     4.8820     0.8130 H     1 <1>   0.0800 
 33 H        0.5930     6.1970     0.7980 H     1 <1>   0.0800 
 34 H        2.0640     0.2900    -1.6590 H     1 <1>   0.1500 
 35 H        2.5470     0.5750     2.5630 H     1 <1>   0.1500 
 36 H        4.6850     4.7340    -1.9650 H     1 <1>   0.0800 
 37 H        5.6360     4.4210    -0.5280 H     1 <1>   0.0800 
 38 H        4.6650     5.8630    -0.6350 H     1 <1>   0.0800 
 39 H        2.4120    -1.8660     2.7380 H     1 <1>   0.1500 
 40 H        7.0570     0.7240    -0.6930 H     1 <1>   0.0800 
 41 H        5.7920    -0.4330    -1.1030 H     1 <1>   0.0800 
 42 H        1.4570    -3.2440    -1.6080 H     1 <1>   0.4000 
 43 H        1.5010    -1.8400    -2.5620 H     1 <1>   0.4000 
 44 H        2.1080    -3.2300     0.7140 H     1 <1>   0.1500 
 45 H        7.0040    -0.0780     1.6650 H     1 <1>   0.0800 
 46 H        7.3440    -1.4080     0.5840 H     1 <1>   0.0800 
 47 H        5.7380    -1.2220     1.2430 H     1 <1>   0.0800 
@<TRIPOS>BOND
  1   1   2  2   
  2   2   3  1   
  3   2   4  1   
  4   3   5  1   
  5   4   6  ar  
  6   4   7  ar  
  7   5   8  1   
  8   5  26  1   
  9   5  27  1   
 10   6   9  ar  
 11   6  10  1   
 12   7  11  ar  
 13   7  12  1   
 14   8  28  1   
 15   8  29  1   
 16   8  30  1   
 17   9  13  ar  
 18   9  14  1   
 19  10  15  ar  
 20  10  16  ar  
 21  11  13  ar  
 22  12  31  1   
 23  12  32  1   
 24  12  33  1   
 25  13  17  1   
 26  14  18  2   
 27  14  19  1   
 28  15  20  ar  
 29  15  34  1   
 30  16  21  ar  
 31  16  35  1   
 32  17  36  1   
 33  17  37  1   
 34  17  38  1   
 35  19  22  1   
 36  20  23  1   
 37  20  24  ar  
 38  21  24  ar  
 39  21  39  1   
 40  22  25  1   
 41  22  40  1   
 42  22  41  1   
 43  23  42  1   
 44  23  43  1   
 45  24  44  1   
 46  25  45  1   
 47  25  46  1   
 48  25  47  1   
@<TRIPOS>SUBSTRUCTURE
  1 ****   6 GROUP 4 **** **** 0

# MOE 2024.06 (io_trps.svl 2023.06)
