@<TRIPOS>MOLECULE
NONAME
40 41 1 0 0 
SMALL
USER_CHARGES


@<TRIPOS>ATOM
  1 S       -0.2420     0.1170     0.8410 S.o2  1 <1>   1.3330 
  2 O       -1.3440     1.0400     0.9990 O.2   1 <1>  -0.6500 
  3 O        0.1660    -0.6930     1.9680 O.2   1 <1>  -0.6500 
  4 N        1.1110     0.9850     0.2910 N.am  1 <1>  -0.8490 
  5 C       -0.6270    -0.9570    -0.5520 C.3   1 <1>  -0.0550 
  6 C        2.3630     0.5280     0.9040 C.3   1 <1>   0.1960 
  7 C        0.9390     2.4380     0.3890 C.3   1 <1>   0.1960 
  8 C        0.4920    -1.9320    -0.9660 C.3   1 <1>  -0.2400 
  9 C        3.5640     1.1950     0.2320 C.3   1 <1>  -0.1600 
 10 C        2.1060     3.1650    -0.2840 C.3   1 <1>  -0.1600 
 11 C        3.4590     2.7270     0.2990 C.3   1 <1>  -0.0190 
 12 C        4.6250     3.4090    -0.4180 C.2   1 <1>   0.5690 
 13 O        4.8320     3.1440    -1.5760 O.2   1 <1>  -0.5700 
 14 N        5.3740     4.3060     0.2970 N.am  1 <1>  -0.5470 
 15 C        6.4970     5.0650    -0.0700 C.ar  1 <1>   0.1170 
 16 C        6.7920     6.2090     0.6630 C.ar  1 <1>  -0.1500 
 17 C        7.3420     4.7190    -1.1250 C.ar  1 <1>  -0.1500 
 18 C        7.8970     6.9630     0.3260 C.ar  1 <1>   0.1900 
 19 C        8.4470     5.4890    -1.4510 C.ar  1 <1>  -0.1500 
 20 F        8.1610     8.0350     1.0230 F     1 <1>  -0.1900 
 21 C        8.7350     6.6290    -0.7200 C.ar  1 <1>  -0.1500 
 22 H       -0.8750    -0.3450    -1.3970 H     1 <1>   0.0800 
 23 H       -1.5010    -1.5290    -0.3050 H     1 <1>   0.0800 
 24 H        2.4520    -0.5410     0.7940 H     1 <1>   0.0800 
 25 H        2.3540     0.7530     1.9590 H     1 <1>   0.0800 
 26 H        0.8620     2.7260     1.4250 H     1 <1>   0.0800 
 27 H        0.0280     2.7300    -0.1090 H     1 <1>   0.0800 
 28 H        1.3590    -1.3860    -1.2940 H     1 <1>   0.0800 
 29 H        0.1560    -2.5590    -1.7720 H     1 <1>   0.0800 
 30 H        0.7670    -2.5560    -0.1330 H     1 <1>   0.0800 
 31 H        3.6080     0.8740    -0.7950 H     1 <1>   0.0800 
 32 H        4.4690     0.8700     0.7150 H     1 <1>   0.0800 
 33 H        1.9820     4.2260    -0.1630 H     1 <1>   0.0800 
 34 H        2.0810     2.9530    -1.3400 H     1 <1>   0.0800 
 35 H        3.4820     3.0130     1.3360 H     1 <1>   0.0800 
 36 H        5.0390     4.4870     1.2400 H     1 <1>   0.3700 
 37 H        6.1740     6.5180     1.4840 H     1 <1>   0.1500 
 38 H        7.1420     3.8350    -1.7040 H     1 <1>   0.1500 
 39 H        9.0810     5.2000    -2.2730 H     1 <1>   0.1500 
 40 H        9.5860     7.2440    -0.9520 H     1 <1>   0.1500 
@<TRIPOS>BOND
  1   1   2  2   
  2   1   3  2   
  3   1   4  am  
  4   1   5  1   
  5   4   6  1   
  6   4   7  1   
  7   5   8  1   
  8   5  22  1   
  9   5  23  1   
 10   6   9  1   
 11   6  24  1   
 12   6  25  1   
 13   7  10  1   
 14   7  26  1   
 15   7  27  1   
 16   8  28  1   
 17   8  29  1   
 18   8  30  1   
 19   9  11  1   
 20   9  31  1   
 21   9  32  1   
 22  10  11  1   
 23  10  33  1   
 24  10  34  1   
 25  11  12  1   
 26  11  35  1   
 27  12  13  2   
 28  12  14  am  
 29  14  15  1   
 30  14  36  1   
 31  15  16  ar  
 32  15  17  ar  
 33  16  18  ar  
 34  16  37  1   
 35  17  19  ar  
 36  17  38  1   
 37  18  20  1   
 38  18  21  ar  
 39  19  21  ar  
 40  19  39  1   
 41  21  40  1   
@<TRIPOS>SUBSTRUCTURE
  1 ****  11 GROUP 4 **** **** 0

# MOE 2024.06 (io_trps.svl 2023.06)
