@<TRIPOS>MOLECULE
NONAME
46 47 1 0 0 
SMALL
USER_CHARGES


@<TRIPOS>ATOM
  1 S        0.4510    -1.7690    -0.1680 S.o2  1 <1>   1.4470 
  2 O        1.0230    -2.8950     0.5280 O.2   1 <1>  -0.6500 
  3 O        0.6580    -1.6140    -1.5910 O.2   1 <1>  -0.6500 
  4 N        1.1030    -0.4150     0.5690 N.am  1 <1>  -0.9140 
  5 C       -1.3160    -1.6260     0.2130 C.ar  1 <1>  -0.0090 
  6 C        2.4210    -0.0520     0.0260 C.3   1 <1>   0.3370 
  7 C       -2.0470    -0.5190    -0.2030 C.ar  1 <1>  -0.1500 
  8 C       -1.9850    -2.6140     0.9280 C.ar  1 <1>  -0.1500 
  9 C        3.5150    -1.0610     0.4680 C.2   1 <1>   0.5690 
 10 C        2.7680     1.3920     0.4770 C.3   1 <1>  -0.0800 
 11 C       -3.3960    -0.3980     0.0830 C.ar  1 <1>  -0.1500 
 12 C       -3.3340    -2.5020     1.2190 C.ar  1 <1>  -0.1500 
 13 O        3.7030    -1.1380     1.6640 O.2   1 <1>  -0.5700 
 14 N        4.2320    -1.8420    -0.4160 N.am  1 <1>  -0.6600 
 15 C        1.6950     2.4140     0.0520 C.3   1 <1>  -0.2400 
 16 C        4.1260     1.8520    -0.0840 C.3   1 <1>  -0.2400 
 17 C       -4.0410    -1.3920     0.7960 C.ar  1 <1>  -0.1500 
 18 C        5.2680    -2.7910     0.0850 C.3   1 <1>   0.1400 
 19 C        3.9860    -1.9740    -1.8840 C.3   1 <1>   0.1400 
 20 C        4.8280    -4.2300    -0.2030 C.3   1 <1>  -0.1600 
 21 C        3.5480    -3.4070    -2.2090 C.3   1 <1>  -0.1600 
 22 C        4.5570    -4.4440    -1.6980 C.3   1 <1>  -0.1600 
 23 H        1.3150    -0.7360     1.5160 H     1 <1>   0.4200 
 24 H        2.3570    -0.0110    -1.0420 H     1 <1>   0.0800 
 25 H       -1.5490     0.2590    -0.7580 H     1 <1>   0.1500 
 26 H       -1.4440    -3.4840     1.2630 H     1 <1>   0.1500 
 27 H        2.8370     1.4010     1.5530 H     1 <1>   0.0800 
 28 H       -3.9420     0.4690    -0.2490 H     1 <1>   0.1500 
 29 H       -3.8320    -3.2780     1.7740 H     1 <1>   0.1500 
 30 H        1.5700     2.4110    -1.0160 H     1 <1>   0.0800 
 31 H        1.9770     3.4050     0.3630 H     1 <1>   0.0800 
 32 H        0.7480     2.1840     0.5080 H     1 <1>   0.0800 
 33 H        4.1220     1.8300    -1.1590 H     1 <1>   0.0800 
 34 H        4.9220     1.2200     0.2710 H     1 <1>   0.0800 
 35 H        4.3410     2.8560     0.2370 H     1 <1>   0.0800 
 36 H       -5.0910    -1.3010     1.0200 H     1 <1>   0.1500 
 37 H        5.4240    -2.6710     1.1440 H     1 <1>   0.0800 
 38 H        6.2010    -2.5870    -0.4100 H     1 <1>   0.0800 
 39 H        4.8990    -1.7510    -2.4090 H     1 <1>   0.0800 
 40 H        3.2340    -1.2960    -2.2360 H     1 <1>   0.0800 
 41 H        3.9340    -4.4350     0.3630 H     1 <1>   0.0800 
 42 H        5.5910    -4.9100     0.1290 H     1 <1>   0.0800 
 43 H        3.4290    -3.5100    -3.2730 H     1 <1>   0.0800 
 44 H        2.5880    -3.5890    -1.7570 H     1 <1>   0.0800 
 45 H        4.1720    -5.4360    -1.8590 H     1 <1>   0.0800 
 46 H        5.4780    -4.3480    -2.2470 H     1 <1>   0.0800 
@<TRIPOS>BOND
  1   1   2  2   
  2   1   3  2   
  3   1   4  am  
  4   1   5  1   
  5   4   6  1   
  6   4  23  1   
  7   5   7  ar  
  8   5   8  ar  
  9   6   9  1   
 10   6  10  1   
 11   6  24  1   
 12   7  11  ar  
 13   7  25  1   
 14   8  12  ar  
 15   8  26  1   
 16   9  13  2   
 17   9  14  am  
 18  10  15  1   
 19  10  16  1   
 20  10  27  1   
 21  11  17  ar  
 22  11  28  1   
 23  12  17  ar  
 24  12  29  1   
 25  14  18  1   
 26  14  19  1   
 27  15  30  1   
 28  15  31  1   
 29  15  32  1   
 30  16  33  1   
 31  16  34  1   
 32  16  35  1   
 33  17  36  1   
 34  18  20  1   
 35  18  37  1   
 36  18  38  1   
 37  19  21  1   
 38  19  39  1   
 39  19  40  1   
 40  20  22  1   
 41  20  41  1   
 42  20  42  1   
 43  21  22  1   
 44  21  43  1   
 45  21  44  1   
 46  22  45  1   
 47  22  46  1   
@<TRIPOS>SUBSTRUCTURE
  1 ****   1 GROUP 4 **** **** 0

# MOE 2024.06 (io_trps.svl 2023.06)
