@<TRIPOS>MOLECULE
NONAME
52 55 1 0 0 
SMALL
USER_CHARGES


@<TRIPOS>ATOM
  1 S       -0.4070    -0.1230     0.8980 S.3   1 <1>  -0.3320 
  2 C        1.2210    -0.8330     1.0850 C.ar  1 <1>   0.7220 
  3 C       -1.5140    -1.2460     1.8830 C.3   1 <1>   0.1310 
  4 N        1.2920    -1.9610     1.8320 N.ar  1 <1>  -0.3100 
  5 N        2.1900    -0.2020     0.4750 N.ar  1 <1>  -0.5670 
  6 C       -2.9690    -0.8180     1.7540 C.2   1 <1>   0.5690 
  7 N        2.4410    -2.5450     2.0120 N.ar  1 <1>  -0.2560 
  8 C        3.3640    -0.8100     0.6680 C.ar  1 <1>   0.1050 
  9 O       -3.4790    -0.3320     2.7370 O.2   1 <1>  -0.5700 
 10 N       -3.6740    -1.0000     0.5860 N.am  1 <1>  -0.6600 
 11 C        3.4920    -1.9620     1.4230 C.ar  1 <1>   0.2560 
 12 N        4.5950    -0.4360     0.1870 N.pl3 1 <1>   0.0480 
 13 C       -3.1170    -1.5670    -0.6750 C.3   1 <1>   0.1400 
 14 C       -5.1020    -0.5890     0.4780 C.3   1 <1>   0.1400 
 15 C        4.8640    -2.3210     1.4090 C.ar  1 <1>   0.0000 
 16 C        5.5270    -1.3670     0.6400 C.ar  1 <1>  -0.1520 
 17 C        4.8130     0.7680    -0.6640 C.3   1 <1>   0.1760 
 18 C       -3.9510    -2.7760    -1.1110 C.3   1 <1>  -0.1600 
 19 C       -5.9550    -1.7880     0.0510 C.3   1 <1>  -0.1600 
 20 C        5.5690    -3.3750     1.9910 C.ar  1 <1>  -0.1500 
 21 C        6.9080    -1.4690     0.4500 C.ar  1 <1>  -0.1500 
 22 C        5.3360     0.3780    -2.0520 C.3   1 <1>  -0.2400 
 23 C        5.7330     1.7790     0.0310 C.3   1 <1>  -0.2400 
 24 C       -5.4380    -2.4150    -1.2530 C.3   1 <1>  -0.0800 
 25 C        6.9290    -3.4670     1.7970 C.ar  1 <1>  -0.1500 
 26 C        7.5970    -2.5130     1.0270 C.ar  1 <1>  -0.1500 
 27 C       -6.2630    -3.6530    -1.6220 C.3   1 <1>  -0.2400 
 28 H       -1.1980    -1.1810     2.9070 H     1 <1>   0.0800 
 29 H       -1.3790    -2.2490     1.5240 H     1 <1>   0.0800 
 30 H       -2.0940    -1.8690    -0.5550 H     1 <1>   0.0800 
 31 H       -3.1500    -0.8080    -1.4390 H     1 <1>   0.0800 
 32 H       -5.1840     0.1990    -0.2500 H     1 <1>   0.0800 
 33 H       -5.4640    -0.2090     1.4190 H     1 <1>   0.0800 
 34 H        3.8580     1.2460    -0.8030 H     1 <1>   0.0800 
 35 H       -3.8310    -3.5590    -0.3820 H     1 <1>   0.0800 
 36 H       -3.5760    -3.1400    -2.0500 H     1 <1>   0.0800 
 37 H       -6.9720    -1.4640    -0.0780 H     1 <1>   0.0800 
 38 H       -5.9400    -2.5160     0.8430 H     1 <1>   0.0800 
 39 H        5.0390    -4.1020     2.5810 H     1 <1>   0.1500 
 40 H        7.4370    -0.7440    -0.1400 H     1 <1>   0.1500 
 41 H        6.3110    -0.0680    -1.9940 H     1 <1>   0.0800 
 42 H        5.4020     1.2520    -2.6750 H     1 <1>   0.0800 
 43 H        4.6590    -0.3160    -2.5180 H     1 <1>   0.0800 
 44 H        6.7230     1.3860     0.1620 H     1 <1>   0.0800 
 45 H        5.3280     2.0420     0.9930 H     1 <1>   0.0800 
 46 H        5.8010     2.6750    -0.5590 H     1 <1>   0.0800 
 47 H       -5.5400    -1.6900    -2.0450 H     1 <1>   0.0800 
 48 H        7.4870    -4.2750     2.2390 H     1 <1>   0.1500 
 49 H        8.6600    -2.6030     0.8880 H     1 <1>   0.1500 
 50 H       -6.1880    -4.4020    -0.8530 H     1 <1>   0.0800 
 51 H       -5.9120    -4.0740    -2.5470 H     1 <1>   0.0800 
 52 H       -7.2980    -3.3890    -1.7420 H     1 <1>   0.0800 
@<TRIPOS>BOND
  1   1   2  1   
  2   1   3  1   
  3   2   4  ar  
  4   2   5  ar  
  5   3   6  1   
  6   3  28  1   
  7   3  29  1   
  8   4   7  ar  
  9   5   8  ar  
 10   6   9  2   
 11   6  10  am  
 12   7  11  ar  
 13   8  11  ar  
 14   8  12  1   
 15  10  13  1   
 16  10  14  1   
 17  11  15  1   
 18  12  16  1   
 19  12  17  1   
 20  13  18  1   
 21  13  30  1   
 22  13  31  1   
 23  14  19  1   
 24  14  32  1   
 25  14  33  1   
 26  15  16  ar  
 27  15  20  ar  
 28  16  21  ar  
 29  17  22  1   
 30  17  23  1   
 31  17  34  1   
 32  18  24  1   
 33  18  35  1   
 34  18  36  1   
 35  19  24  1   
 36  19  37  1   
 37  19  38  1   
 38  20  25  ar  
 39  20  39  1   
 40  21  26  ar  
 41  21  40  1   
 42  22  41  1   
 43  22  42  1   
 44  22  43  1   
 45  23  44  1   
 46  23  45  1   
 47  23  46  1   
 48  24  27  1   
 49  24  47  1   
 50  25  26  ar  
 51  25  48  1   
 52  26  49  1   
 53  27  50  1   
 54  27  51  1   
 55  27  52  1   
@<TRIPOS>SUBSTRUCTURE
  1 ****   2 GROUP 4 **** **** 0

# MOE 2024.06 (io_trps.svl 2023.06)
