@<TRIPOS>MOLECULE
NONAME
46 48 1 0 0 
SMALL
USER_CHARGES


@<TRIPOS>ATOM
  1 CL      -0.1570    -1.0320    -2.0340 Cl    1 <1>  -0.1770 
  2 C        0.8730    -2.0190    -1.0280 C.ar  1 <1>   0.1770 
  3 C        2.2070    -1.6820    -0.8890 C.ar  1 <1>  -0.1500 
  4 C        0.3360    -3.1200    -0.3890 C.ar  1 <1>  -0.1500 
  5 C        3.0420    -2.4580    -0.0920 C.ar  1 <1>  -0.1440 
  6 C        1.1560    -3.9010     0.4050 C.ar  1 <1>  -0.1500 
  7 C        2.4960    -3.5710     0.5490 C.ar  1 <1>   0.0830 
  8 C        4.5260    -2.1130     0.0810 C.3   1 <1>   0.2070 
  9 O        3.2660    -4.3570     1.3220 O.3   1 <1>  -0.5320 
 10 C        4.8070    -0.6100    -0.0600 C.ar  1 <1>  -0.1430 
 11 C        5.3760    -2.9920    -0.8490 C.3   1 <1>  -0.0990 
 12 C        4.6990     0.1930     1.0680 C.ar  1 <1>  -0.1500 
 13 C        5.1720    -0.0200    -1.2660 C.ar  1 <1>  -0.1500 
 14 C        6.8520    -2.6760    -0.7640 C.2   1 <1>   0.5690 
 15 C        4.9660     1.5490     1.0000 C.ar  1 <1>  -0.1500 
 16 C        5.4390     1.3360    -1.3350 C.ar  1 <1>  -0.1500 
 17 O        7.4930    -2.5060    -1.7760 O.2   1 <1>  -0.5700 
 18 N        7.4820    -2.6090     0.4430 N.am  1 <1>  -0.6600 
 19 C        5.3390     2.1220    -0.2010 C.ar  1 <1>  -0.1500 
 20 C        8.0130    -1.2670     0.8590 C.3   1 <1>   0.1400 
 21 C        8.4170    -3.7240     0.7930 C.3   1 <1>   0.1400 
 22 C        9.4690    -1.0370     0.3830 C.3   1 <1>   0.3430 
 23 C        9.8380    -3.4920     0.2150 C.3   1 <1>   0.3430 
 24 N        9.9470    -2.1670    -0.4770 N.4   1 <1>  -0.9060 
 25 H        2.5680    -0.8140    -1.4080 H     1 <1>   0.1500 
 26 H       -0.7050    -3.3550    -0.5160 H     1 <1>   0.1500 
 27 H        0.7460    -4.7600     0.9060 H     1 <1>   0.1500 
 28 H        4.8010    -2.3740     1.0880 H     1 <1>   0.0800 
 29 H        2.7660    -5.0820     1.7400 H     1 <1>   0.4500 
 30 H        5.0450    -2.8700    -1.8630 H     1 <1>   0.0800 
 31 H        5.2350    -4.0240    -0.5880 H     1 <1>   0.0800 
 32 H        4.3990    -0.2350     2.0090 H     1 <1>   0.1500 
 33 H        5.2490    -0.6020    -2.1670 H     1 <1>   0.1500 
 34 H        4.8740     2.1600     1.8820 H     1 <1>   0.1500 
 35 H        5.7180     1.7820    -2.2740 H     1 <1>   0.1500 
 36 H        5.5410     3.1780    -0.2560 H     1 <1>   0.1500 
 37 H        7.9590    -1.1750     1.9310 H     1 <1>   0.0800 
 38 H        7.3960    -0.4880     0.4450 H     1 <1>   0.0800 
 39 H        8.0270    -4.6540     0.4140 H     1 <1>   0.0800 
 40 H        8.4730    -3.8160     1.8650 H     1 <1>   0.0800 
 41 H       10.1110    -0.9330     1.2430 H     1 <1>   0.0800 
 42 H        9.5110    -0.1120    -0.1690 H     1 <1>   0.0800 
 43 H       10.0600    -4.2830    -0.4840 H     1 <1>   0.0800 
 44 H       10.5580    -3.5530     1.0140 H     1 <1>   0.0800 
 45 H       10.8720    -1.9990    -0.8870 H     1 <1>   0.4500 
 46 H        9.2550    -2.2160    -1.2580 H     1 <1>   0.4500 
@<TRIPOS>BOND
  1   1   2  1   
  2   2   3  ar  
  3   2   4  ar  
  4   3   5  ar  
  5   3  25  1   
  6   4   6  ar  
  7   4  26  1   
  8   5   7  ar  
  9   5   8  1   
 10   6   7  ar  
 11   6  27  1   
 12   7   9  1   
 13   8  10  1   
 14   8  11  1   
 15   8  28  1   
 16   9  29  1   
 17  10  12  ar  
 18  10  13  ar  
 19  11  14  1   
 20  11  30  1   
 21  11  31  1   
 22  12  15  ar  
 23  12  32  1   
 24  13  16  ar  
 25  13  33  1   
 26  14  17  2   
 27  14  18  am  
 28  15  19  ar  
 29  15  34  1   
 30  16  19  ar  
 31  16  35  1   
 32  18  20  1   
 33  18  21  1   
 34  19  36  1   
 35  20  22  1   
 36  20  37  1   
 37  20  38  1   
 38  21  23  1   
 39  21  39  1   
 40  21  40  1   
 41  22  24  1   
 42  22  41  1   
 43  22  42  1   
 44  23  24  1   
 45  23  43  1   
 46  23  44  1   
 47  24  45  1   
 48  24  46  1   
@<TRIPOS>SUBSTRUCTURE
  1 ****   8 GROUP 4 **** **** 0

# MOE 2024.06 (io_trps.svl 2023.06)
