@<TRIPOS>MOLECULE
NONAME
46 47 1 0 0 
SMALL
USER_CHARGES


@<TRIPOS>ATOM
  1 CL      -0.3560     0.4630    -0.6790 Cl    1 <1>  -0.1770 
  2 C        1.2670     1.0890    -0.4890 C.ar  1 <1>   0.1770 
  3 C        1.4730     2.4140    -0.1210 C.ar  1 <1>  -0.1440 
  4 C        2.3200     0.2220    -0.7170 C.ar  1 <1>  -0.1500 
  5 C        2.7880     2.8480     0.0130 C.ar  1 <1>  -0.1500 
  6 C        0.2620     3.3200     0.1160 C.3   1 <1>  -0.0160 
  7 C        3.6210     0.6700    -0.5790 C.ar  1 <1>  -0.1500 
  8 C        3.8570     1.9920    -0.2120 C.ar  1 <1>   0.0830 
  9 C        0.5870     4.7630     0.5200 C.3   1 <1>  -0.2400 
 10 O        5.0970     2.5200    -0.0530 O.3   1 <1>  -0.3620 
 11 C        6.2560     1.7480    -0.2460 C.3   1 <1>   0.1200 
 12 C        7.4600     2.6560     0.0160 C.3   1 <1>  -0.1600 
 13 C        8.7930     1.9130    -0.1610 C.3   1 <1>  -0.1600 
 14 C        9.9670     2.8590     0.1020 C.3   1 <1>   0.3430 
 15 N       11.2630     2.1770    -0.1610 N.4   1 <1>  -0.9590 
 16 C       11.5890     1.1340     0.8790 C.3   1 <1>   0.3430 
 17 C       12.3800     3.1850    -0.2480 C.3   1 <1>   0.3430 
 18 C       12.9660     0.4820     0.6290 C.3   1 <1>   0.1100 
 19 C       13.7480     2.5090    -0.4890 C.3   1 <1>   0.1100 
 20 N       14.0280     1.4950     0.5380 N.3   1 <1>  -0.9000 
 21 H        2.1160    -0.7950    -1.0000 H     1 <1>   0.1500 
 22 H        3.0170     3.8580     0.2950 H     1 <1>   0.1500 
 23 H       -0.3460     2.8810     0.8890 H     1 <1>   0.0800 
 24 H       -0.3270     3.3440    -0.7840 H     1 <1>   0.0800 
 25 H        4.4240    -0.0170    -0.7610 H     1 <1>   0.1500 
 26 H        1.1420     4.7800     1.4410 H     1 <1>   0.0800 
 27 H       -0.3250     5.3150     0.6630 H     1 <1>   0.0800 
 28 H        1.1600     5.2490    -0.2500 H     1 <1>   0.0800 
 29 H        6.2570     1.3870    -1.2610 H     1 <1>   0.0800 
 30 H        6.2330     0.9240     0.4460 H     1 <1>   0.0800 
 31 H        7.3870     3.0350     1.0220 H     1 <1>   0.0800 
 32 H        7.4130     3.4870    -0.6670 H     1 <1>   0.0800 
 33 H        8.8500     1.5360    -1.1680 H     1 <1>   0.0800 
 34 H        8.8180     1.0860     0.5270 H     1 <1>   0.0800 
 35 H        9.9350     3.2110     1.1220 H     1 <1>   0.0800 
 36 H        9.8720     3.7140    -0.5480 H     1 <1>   0.0800 
 37 H       11.2100     1.7040    -1.0710 H     1 <1>   0.4500 
 38 H       10.8340     0.3660     0.8830 H     1 <1>   0.0800 
 39 H       11.6050     1.5900     1.8560 H     1 <1>   0.0800 
 40 H       12.4380     3.7410     0.6730 H     1 <1>   0.0800 
 41 H       12.1860     3.8830    -1.0460 H     1 <1>   0.0800 
 42 H       12.9350    -0.1000    -0.2770 H     1 <1>   0.0800 
 43 H       13.1910    -0.1870     1.4430 H     1 <1>   0.0800 
 44 H       14.5210     3.2590    -0.4580 H     1 <1>   0.0800 
 45 H       13.7660     2.0580    -1.4660 H     1 <1>   0.0800 
 46 H       14.9350     1.0390     0.3440 H     1 <1>   0.3600 
@<TRIPOS>BOND
  1   1   2  1   
  2   2   3  ar  
  3   2   4  ar  
  4   3   5  ar  
  5   3   6  1   
  6   4   7  ar  
  7   4  21  1   
  8   5   8  ar  
  9   5  22  1   
 10   6   9  1   
 11   6  23  1   
 12   6  24  1   
 13   7   8  ar  
 14   7  25  1   
 15   8  10  1   
 16   9  26  1   
 17   9  27  1   
 18   9  28  1   
 19  10  11  1   
 20  11  12  1   
 21  11  29  1   
 22  11  30  1   
 23  12  13  1   
 24  12  31  1   
 25  12  32  1   
 26  13  14  1   
 27  13  33  1   
 28  13  34  1   
 29  14  15  1   
 30  14  35  1   
 31  14  36  1   
 32  15  16  1   
 33  15  17  1   
 34  15  37  1   
 35  16  18  1   
 36  16  38  1   
 37  16  39  1   
 38  17  19  1   
 39  17  40  1   
 40  17  41  1   
 41  18  20  1   
 42  18  42  1   
 43  18  43  1   
 44  19  20  1   
 45  19  44  1   
 46  19  45  1   
 47  20  46  1   
@<TRIPOS>SUBSTRUCTURE
  1 ****  11 GROUP 4 **** **** 0

# MOE 2024.06 (io_trps.svl 2023.06)
