@<TRIPOS>MOLECULE
NONAME
32 32 1 0 0 
SMALL
USER_CHARGES


@<TRIPOS>ATOM
  1 S        0.0800     0.0300     0.1800 S.3   1 <1>  -0.4600 
  2 C       -1.3820     0.5280     1.1330 C.3   1 <1>   0.2140 
  3 C        1.4550     0.8890     1.0360 C.3   1 <1>   0.1310 
  4 C       -2.6050    -0.1330     0.5210 C.ar  1 <1>  -0.1440 
  5 C        2.8100     0.5950     0.4010 C.2   1 <1>   0.5690 
  6 C       -3.5170     0.6140    -0.2090 C.ar  1 <1>  -0.1500 
  7 C       -2.8220    -1.4910     0.6950 C.ar  1 <1>  -0.1500 
  8 O        3.7910     1.0940     0.8960 O.2   1 <1>  -0.5700 
  9 N        2.8800    -0.2110    -0.6920 N.am  1 <1>  -0.7300 
 10 C       -4.6390     0.0150    -0.7560 C.ar  1 <1>  -0.1430 
 11 C       -3.9410    -2.1010     0.1520 C.ar  1 <1>  -0.1430 
 12 C        4.1140    -0.5900    -1.4220 C.3   1 <1>   0.0600 
 13 C       -4.8470    -1.3410    -0.5700 C.ar  1 <1>  -0.1500 
 14 C       -5.6350     0.8390    -1.5520 C.3   1 <1>  -0.0970 
 15 C       -4.1730    -3.5880     0.3460 C.3   1 <1>  -0.0970 
 16 H       -1.4470     1.6000     1.0900 H     1 <1>   0.0800 
 17 H       -1.2350     0.2050     2.1480 H     1 <1>   0.0800 
 18 H        1.4530     0.5600     2.0580 H     1 <1>   0.0800 
 19 H        1.2530     1.9430     0.9900 H     1 <1>   0.0800 
 20 H       -3.3530     1.6670    -0.3540 H     1 <1>   0.1500 
 21 H       -2.1130    -2.0750     1.2530 H     1 <1>   0.1500 
 22 H        1.9940    -0.5930    -1.0460 H     1 <1>   0.3700 
 23 H        4.9750    -0.1330    -0.9620 H     1 <1>   0.0800 
 24 H        4.0480    -0.2600    -2.4430 H     1 <1>   0.0800 
 25 H        4.2350    -1.6590    -1.3990 H     1 <1>   0.0800 
 26 H       -5.7190    -1.8100    -0.9900 H     1 <1>   0.1500 
 27 H       -5.1380     1.6500    -2.0520 H     1 <1>   0.0800 
 28 H       -6.3830     1.2410    -0.8920 H     1 <1>   0.0800 
 29 H       -6.1180     0.2300    -2.2950 H     1 <1>   0.0800 
 30 H       -3.2390    -4.1000     0.4840 H     1 <1>   0.0800 
 31 H       -4.6640    -4.0050    -0.5150 H     1 <1>   0.0800 
 32 H       -4.7900    -3.7480     1.2110 H     1 <1>   0.0800 
@<TRIPOS>BOND
  1   1   2  1   
  2   1   3  1   
  3   2   4  1   
  4   2  16  1   
  5   2  17  1   
  6   3   5  1   
  7   3  18  1   
  8   3  19  1   
  9   4   6  ar  
 10   4   7  ar  
 11   5   8  2   
 12   5   9  am  
 13   6  10  ar  
 14   6  20  1   
 15   7  11  ar  
 16   7  21  1   
 17   9  12  1   
 18   9  22  1   
 19  10  13  ar  
 20  10  14  1   
 21  11  13  ar  
 22  11  15  1   
 23  12  23  1   
 24  12  24  1   
 25  12  25  1   
 26  13  26  1   
 27  14  27  1   
 28  14  28  1   
 29  14  29  1   
 30  15  30  1   
 31  15  31  1   
 32  15  32  1   
@<TRIPOS>SUBSTRUCTURE
  1 ****   1 GROUP 4 **** **** 0

# MOE 2024.06 (io_trps.svl 2023.06)
