@<TRIPOS>MOLECULE
NONAME
40 40 1 0 0 
SMALL
USER_CHARGES


@<TRIPOS>ATOM
  1 O        0.4120    -1.3390    -2.1690 O.2   1 <1>  -0.5700 
  2 C        0.6510    -1.9090    -1.1200 C.2   1 <1>   0.5440 
  3 N        1.5450    -1.3340    -0.2380 N.am  1 <1>  -0.6600 
  4 C       -0.0500    -3.1430    -0.8450 C.ar  1 <1>   0.0860 
  5 C        2.5690    -2.1040     0.5320 C.3   1 <1>   0.2200 
  6 C        1.6540     0.1550    -0.2140 C.3   1 <1>   0.2200 
  7 C       -0.9750    -3.2560     0.2010 C.ar  1 <1>   0.0820 
  8 C        0.1570    -4.2670    -1.6450 C.ar  1 <1>  -0.1500 
  9 C        3.3200    -3.0780    -0.3760 C.3   1 <1>  -0.2400 
 10 C        1.9560    -2.8130     1.7390 C.3   1 <1>  -0.2400 
 11 C        2.9190     0.6100    -0.9430 C.3   1 <1>  -0.2400 
 12 C        1.5940     0.6940     1.2170 C.3   1 <1>  -0.2400 
 13 O       -1.2660    -2.2050     1.0010 O.3   1 <1>  -0.2330 
 14 C       -1.6120    -4.4590     0.4660 C.ar  1 <1>  -0.1500 
 15 C       -0.4890    -5.4630    -1.3920 C.ar  1 <1>  -0.1500 
 16 C       -1.9240    -1.1120     0.6150 C.2   1 <1>   0.6590 
 17 C       -1.3700    -5.5630    -0.3300 C.ar  1 <1>  -0.1500 
 18 O       -1.9050    -0.1200     1.2920 O.2   1 <1>  -0.5700 
 19 C       -2.7500    -1.1550    -0.6550 C.3   1 <1>  -0.1790 
 20 H        3.3010    -1.4130     0.9110 H     1 <1>   0.0800 
 21 H        0.8070     0.5680    -0.7390 H     1 <1>   0.0800 
 22 H        0.8370    -4.1900    -2.4760 H     1 <1>   0.1500 
 23 H        2.6920    -3.8910    -0.6850 H     1 <1>   0.0800 
 24 H        4.1580    -3.4900     0.1540 H     1 <1>   0.0800 
 25 H        3.6890    -2.5610    -1.2440 H     1 <1>   0.0800 
 26 H        1.3780    -3.6660     1.4400 H     1 <1>   0.0800 
 27 H        1.3360    -2.1340     2.2950 H     1 <1>   0.0800 
 28 H        2.7410    -3.1600     2.3860 H     1 <1>   0.0800 
 29 H        3.8070     0.2970    -0.4280 H     1 <1>   0.0800 
 30 H        2.9280     1.6830    -1.0120 H     1 <1>   0.0800 
 31 H        2.9220     0.2100    -1.9410 H     1 <1>   0.0800 
 32 H        2.4670     0.4280     1.7810 H     1 <1>   0.0800 
 33 H        0.7180     0.3180     1.7130 H     1 <1>   0.0800 
 34 H        1.5270     1.7660     1.1920 H     1 <1>   0.0800 
 35 H       -2.2970    -4.5280     1.2920 H     1 <1>   0.1500 
 36 H       -0.3060    -6.3180    -2.0210 H     1 <1>   0.1500 
 37 H       -1.8670    -6.4970    -0.1270 H     1 <1>   0.1500 
 38 H       -2.1110    -1.1490    -1.5170 H     1 <1>   0.0800 
 39 H       -3.3840    -0.2900    -0.6970 H     1 <1>   0.0800 
 40 H       -3.3630    -2.0360    -0.6680 H     1 <1>   0.0800 
@<TRIPOS>BOND
  1   1   2  2   
  2   2   3  am  
  3   2   4  1   
  4   3   5  1   
  5   3   6  1   
  6   4   7  ar  
  7   4   8  ar  
  8   5   9  1   
  9   5  10  1   
 10   5  20  1   
 11   6  11  1   
 12   6  12  1   
 13   6  21  1   
 14   7  13  1   
 15   7  14  ar  
 16   8  15  ar  
 17   8  22  1   
 18   9  23  1   
 19   9  24  1   
 20   9  25  1   
 21  10  26  1   
 22  10  27  1   
 23  10  28  1   
 24  11  29  1   
 25  11  30  1   
 26  11  31  1   
 27  12  32  1   
 28  12  33  1   
 29  12  34  1   
 30  13  16  1   
 31  14  17  ar  
 32  14  35  1   
 33  15  17  ar  
 34  15  36  1   
 35  16  18  2   
 36  16  19  1   
 37  17  37  1   
 38  19  38  1   
 39  19  39  1   
 40  19  40  1   
@<TRIPOS>SUBSTRUCTURE
  1 ****   2 GROUP 4 **** **** 0

# MOE 2024.06 (io_trps.svl 2023.06)
