@<TRIPOS>MOLECULE
NONAME
35 36 1 0 0 
SMALL
USER_CHARGES


@<TRIPOS>ATOM
  1 O       -0.0160     0.4570    -0.2910 O.2   1 <1>  -0.5700 
  2 C        0.0270     1.6410    -0.0100 C.2   1 <1>   0.5440 
  3 N       -1.1420     2.3800    -0.0370 N.am  1 <1>  -0.6600 
  4 C        1.3050     2.2380     0.3350 C.ar  1 <1>   0.0860 
  5 C       -2.4510     1.6600    -0.0660 C.3   1 <1>   0.1400 
  6 C       -1.1100     3.8670    -0.1800 C.3   1 <1>   0.1400 
  7 C        2.4170     2.0720    -0.4890 C.ar  1 <1>  -0.1500 
  8 C        1.4700     2.9920     1.4970 C.ar  1 <1>  -0.1500 
  9 C       -3.5840     2.4040     0.6500 C.3   1 <1>  -0.1600 
 10 C       -2.1300     4.4100    -1.1880 C.3   1 <1>  -0.1600 
 11 C        3.6400     2.6460    -0.1860 C.ar  1 <1>  -0.1430 
 12 C        2.6850     3.5710     1.8110 C.ar  1 <1>  -0.1500 
 13 C       -4.3110     3.4070    -0.2580 C.3   1 <1>  -0.1600 
 14 C       -3.5080     4.6740    -0.5650 C.3   1 <1>  -0.1600 
 15 C        3.7690     3.4000     0.9680 C.ar  1 <1>  -0.1500 
 16 C        4.8350     2.4540    -1.1030 C.3   1 <1>  -0.0970 
 17 H       -2.3250     0.7070     0.4220 H     1 <1>   0.0800 
 18 H       -2.7200     1.4590    -1.0890 H     1 <1>   0.0800 
 19 H       -0.1330     4.1630    -0.5210 H     1 <1>   0.0800 
 20 H       -1.2670     4.3190     0.7840 H     1 <1>   0.0800 
 21 H        2.3030     1.4780    -1.3800 H     1 <1>   0.1500 
 22 H        0.6310     3.1180     2.1580 H     1 <1>   0.1500 
 23 H       -3.2200     2.8750     1.5460 H     1 <1>   0.0800 
 24 H       -4.3060     1.6660     0.9510 H     1 <1>   0.0800 
 25 H       -2.2020     3.7570    -2.0410 H     1 <1>   0.0800 
 26 H       -1.7550     5.3540    -1.5430 H     1 <1>   0.0800 
 27 H        2.7910     4.1510     2.7110 H     1 <1>   0.1500 
 28 H       -5.2280     3.7000     0.2230 H     1 <1>   0.0800 
 29 H       -4.5780     2.9220    -1.1820 H     1 <1>   0.0800 
 30 H       -4.0820     5.2750    -1.2500 H     1 <1>   0.0800 
 31 H       -3.3900     5.2490     0.3380 H     1 <1>   0.0800 
 32 H        4.7140     3.8530     1.2150 H     1 <1>   0.1500 
 33 H        4.6450     1.6760    -1.8200 H     1 <1>   0.0800 
 34 H        5.7010     2.1810    -0.5270 H     1 <1>   0.0800 
 35 H        5.0400     3.3680    -1.6300 H     1 <1>   0.0800 
@<TRIPOS>BOND
  1   1   2  2   
  2   2   3  am  
  3   2   4  1   
  4   3   5  1   
  5   3   6  1   
  6   4   7  ar  
  7   4   8  ar  
  8   5   9  1   
  9   5  17  1   
 10   5  18  1   
 11   6  10  1   
 12   6  19  1   
 13   6  20  1   
 14   7  11  ar  
 15   7  21  1   
 16   8  12  ar  
 17   8  22  1   
 18   9  13  1   
 19   9  23  1   
 20   9  24  1   
 21  10  14  1   
 22  10  25  1   
 23  10  26  1   
 24  11  15  ar  
 25  11  16  1   
 26  12  15  ar  
 27  12  27  1   
 28  13  14  1   
 29  13  28  1   
 30  13  29  1   
 31  14  30  1   
 32  14  31  1   
 33  15  32  1   
 34  16  33  1   
 35  16  34  1   
 36  16  35  1   
@<TRIPOS>SUBSTRUCTURE
  1 ****   2 GROUP 4 **** **** 0

# MOE 2024.06 (io_trps.svl 2023.06)
