@<TRIPOS>MOLECULE
NONAME
35 35 1 0 0 
SMALL
USER_CHARGES


@<TRIPOS>ATOM
  1 CL       1.5560     0.3690     0.7340 Cl    1 <1>  -0.1770 
  2 C       -0.1060     0.8690     0.5240 C.ar  1 <1>   0.1770 
  3 C       -0.4090     2.0840    -0.0770 C.ar  1 <1>  -0.1440 
  4 C       -1.1010     0.0200     0.9750 C.ar  1 <1>  -0.1500 
  5 C       -1.7430     2.4400    -0.2150 C.ar  1 <1>  -0.1500 
  6 C        0.6820     3.0150    -0.5780 C.3   1 <1>   0.2140 
  7 C       -2.4280     0.3850     0.8270 C.ar  1 <1>  -0.1500 
  8 C       -2.7460     1.5950     0.2330 C.ar  1 <1>  -0.1500 
  9 S        1.2410     4.0250     0.8250 S.3   1 <1>  -0.4600 
 10 C        2.6750     4.9410     0.1500 C.3   1 <1>   0.1310 
 11 C        3.7860     4.0040    -0.3080 C.2   1 <1>   0.5690 
 12 O        4.4810     4.3580    -1.2290 O.2   1 <1>  -0.5700 
 13 N        3.9400     2.8090     0.3270 N.am  1 <1>  -0.7300 
 14 C        4.9040     1.7290     0.0450 C.3   1 <1>   0.2200 
 15 C        6.3400     2.2460     0.2300 C.3   1 <1>  -0.1600 
 16 C        4.6340     1.1630    -1.3500 C.3   1 <1>  -0.2400 
 17 C        7.3910     1.1270     0.2170 C.3   1 <1>  -0.2400 
 18 H       -0.8360    -0.9140     1.4360 H     1 <1>   0.1500 
 19 H       -2.0080     3.3790    -0.6690 H     1 <1>   0.1500 
 20 H        0.3140     3.6880    -1.3320 H     1 <1>   0.0800 
 21 H        1.5270     2.4710    -0.9610 H     1 <1>   0.0800 
 22 H       -3.2100    -0.2680     1.1750 H     1 <1>   0.1500 
 23 H       -3.7770     1.8820     0.1210 H     1 <1>   0.1500 
 24 H        3.0350     5.5860     0.9280 H     1 <1>   0.0800 
 25 H        2.3210     5.5300    -0.6750 H     1 <1>   0.0800 
 26 H        3.2420     2.5730     1.0410 H     1 <1>   0.3700 
 27 H        4.7320     0.9470     0.7660 H     1 <1>   0.0800 
 28 H        6.4020     2.7570     1.1750 H     1 <1>   0.0800 
 29 H        6.5740     2.9530    -0.5460 H     1 <1>   0.0800 
 30 H        4.8690     1.8910    -2.1060 H     1 <1>   0.0800 
 31 H        3.6030     0.8760    -1.4410 H     1 <1>   0.0800 
 32 H        5.2380     0.2920    -1.5200 H     1 <1>   0.0800 
 33 H        7.1680     0.3900     0.9690 H     1 <1>   0.0800 
 34 H        8.3630     1.5400     0.4220 H     1 <1>   0.0800 
 35 H        7.4270     0.6460    -0.7440 H     1 <1>   0.0800 
@<TRIPOS>BOND
  1   1   2  1   
  2   2   3  ar  
  3   2   4  ar  
  4   3   5  ar  
  5   3   6  1   
  6   4   7  ar  
  7   4  18  1   
  8   5   8  ar  
  9   5  19  1   
 10   6   9  1   
 11   6  20  1   
 12   6  21  1   
 13   7   8  ar  
 14   7  22  1   
 15   8  23  1   
 16   9  10  1   
 17  10  11  1   
 18  10  24  1   
 19  10  25  1   
 20  11  12  2   
 21  11  13  am  
 22  13  14  1   
 23  13  26  1   
 24  14  15  1   
 25  14  16  1   
 26  14  27  1   
 27  15  17  1   
 28  15  28  1   
 29  15  29  1   
 30  16  30  1   
 31  16  31  1   
 32  16  32  1   
 33  17  33  1   
 34  17  34  1   
 35  17  35  1   
@<TRIPOS>SUBSTRUCTURE
  1 ****   6 GROUP 4 **** **** 0

# MOE 2024.06 (io_trps.svl 2023.06)
