@<TRIPOS>MOLECULE
NONAME
54 57 1 0 0 
SMALL
USER_CHARGES


@<TRIPOS>ATOM
  1 O        1.1300    -0.6600    -1.3640 O.2   1 <1>  -0.5700 
  2 C        2.0690    -1.2940    -0.9240 C.2   1 <1>   0.7150 
  3 N        3.2590    -0.6180    -0.8760 N.am  1 <1>  -0.5470 
  4 C        1.8800    -2.6650    -0.4880 C.2   1 <1>   0.0550 
  5 C        4.5390    -1.0710    -0.5440 C.ar  1 <1>   0.1170 
  6 O        2.8300    -3.3230     0.1930 O.3   1 <1>  -0.2800 
  7 C        0.8100    -3.4860    -0.6520 C.2   1 <1>  -0.1500 
  8 C        5.1160    -2.1340    -1.2240 C.ar  1 <1>  -0.1500 
  9 C        5.2460    -0.4620     0.4820 C.ar  1 <1>  -0.1500 
 10 C        2.3980    -4.5540     0.4430 C.ar  1 <1>   0.1400 
 11 C        1.1220    -4.7220    -0.0590 C.ar  1 <1>   0.0000 
 12 C        6.3550    -2.6270    -0.8590 C.ar  1 <1>  -0.1430 
 13 C        6.4910    -0.9320     0.8650 C.ar  1 <1>  -0.1430 
 14 C        3.0750    -5.5720     1.0990 C.ar  1 <1>  -0.1500 
 15 C        0.4800    -5.9510     0.1060 C.ar  1 <1>  -0.1500 
 16 C        7.0260    -2.0420     0.2130 C.ar  1 <1>   0.0830 
 17 C        6.9280    -3.8040    -1.6320 C.3   1 <1>  -0.0970 
 18 C        7.2350    -0.2280     1.9910 C.3   1 <1>  -0.0970 
 19 C        2.4350    -6.7850     1.2560 C.ar  1 <1>  -0.1500 
 20 C        1.1400    -6.9710     0.7610 C.ar  1 <1>  -0.1500 
 21 O        8.2060    -2.5620     0.6320 O.3   1 <1>  -0.3620 
 22 C        8.1210    -3.4330     1.7550 C.3   1 <1>   0.1810 
 23 C        7.9160    -4.8900     1.3450 C.2   1 <1>   0.5690 
 24 O        6.8620    -5.4090     1.6410 O.2   1 <1>  -0.5700 
 25 N        8.9010    -5.5990     0.6980 N.am  1 <1>  -0.6600 
 26 C       10.2440    -5.0630     0.3140 C.3   1 <1>   0.1400 
 27 C        8.7100    -7.0320     0.3200 C.3   1 <1>   0.1400 
 28 C       10.6010    -5.4410    -1.1350 C.3   1 <1>   0.1200 
 29 C        9.1420    -7.2760    -1.1350 C.3   1 <1>   0.1200 
 30 O       10.4460    -6.8150    -1.3450 O.3   1 <1>  -0.5600 
 31 H        3.1580     0.3690    -1.0980 H     1 <1>   0.3700 
 32 H       -0.1180    -3.2610    -1.1450 H     1 <1>   0.1500 
 33 H        4.5760    -2.5870    -2.0360 H     1 <1>   0.1500 
 34 H        4.8070     0.3770     0.9890 H     1 <1>   0.1500 
 35 H        4.0730    -5.4000     1.4660 H     1 <1>   0.1500 
 36 H       -0.5150    -6.0860    -0.2790 H     1 <1>   0.1500 
 37 H        6.5670    -3.8030    -2.6440 H     1 <1>   0.0800 
 38 H        6.6330    -4.7250    -1.1630 H     1 <1>   0.0800 
 39 H        7.9990    -3.7490    -1.6590 H     1 <1>   0.0800 
 40 H        6.8890     0.7840     2.0990 H     1 <1>   0.0800 
 41 H        8.2890    -0.1990     1.7810 H     1 <1>   0.0800 
 42 H        7.0750    -0.7470     2.9180 H     1 <1>   0.0800 
 43 H        2.9340    -7.5940     1.7620 H     1 <1>   0.1500 
 44 H        0.6600    -7.9250     0.8970 H     1 <1>   0.1500 
 45 H        7.3060    -3.1200     2.3810 H     1 <1>   0.0800 
 46 H        9.0350    -3.3430     2.3090 H     1 <1>   0.0800 
 47 H       10.9870    -5.4770     0.9720 H     1 <1>   0.0800 
 48 H       10.2770    -3.9930     0.4080 H     1 <1>   0.0800 
 49 H        7.6790    -7.3210     0.4320 H     1 <1>   0.0800 
 50 H        9.2990    -7.6520     0.9720 H     1 <1>   0.0800 
 51 H       11.6270    -5.1920    -1.3400 H     1 <1>   0.0800 
 52 H        9.9750    -4.9130    -1.8330 H     1 <1>   0.0800 
 53 H        8.4800    -6.7710    -1.8160 H     1 <1>   0.0800 
 54 H        9.1260    -8.3290    -1.3540 H     1 <1>   0.0800 
@<TRIPOS>BOND
  1   1   2  2   
  2   2   3  am  
  3   2   4  1   
  4   3   5  1   
  5   3  31  1   
  6   4   6  1   
  7   4   7  2   
  8   5   8  ar  
  9   5   9  ar  
 10   6  10  1   
 11   7  11  1   
 12   7  32  1   
 13   8  12  ar  
 14   8  33  1   
 15   9  13  ar  
 16   9  34  1   
 17  10  11  ar  
 18  10  14  ar  
 19  11  15  ar  
 20  12  16  ar  
 21  12  17  1   
 22  13  16  ar  
 23  13  18  1   
 24  14  19  ar  
 25  14  35  1   
 26  15  20  ar  
 27  15  36  1   
 28  16  21  1   
 29  17  37  1   
 30  17  38  1   
 31  17  39  1   
 32  18  40  1   
 33  18  41  1   
 34  18  42  1   
 35  19  20  ar  
 36  19  43  1   
 37  20  44  1   
 38  21  22  1   
 39  22  23  1   
 40  22  45  1   
 41  22  46  1   
 42  23  24  2   
 43  23  25  am  
 44  25  26  1   
 45  25  27  1   
 46  26  28  1   
 47  26  47  1   
 48  26  48  1   
 49  27  29  1   
 50  27  49  1   
 51  27  50  1   
 52  28  30  1   
 53  28  51  1   
 54  28  52  1   
 55  29  30  1   
 56  29  53  1   
 57  29  54  1   
@<TRIPOS>SUBSTRUCTURE
  1 ****  12 GROUP 4 **** **** 0

# MOE 2024.06 (io_trps.svl 2023.06)
