@<TRIPOS>MOLECULE
NONAME
25 26 1 0 0 
SMALL
USER_CHARGES


@<TRIPOS>ATOM
  1 N       -0.7180    -0.0610     1.4830 N.1   1 <1>  -0.5570 
  2 C       -1.6770    -0.4810     1.0370 C.1   1 <1>   0.3570 
  3 C       -2.8730    -1.1430     0.4390 C.3   1 <1>   0.2200 
  4 C       -4.1090    -0.2590     0.3400 C.2   1 <1>   0.0060 
  5 N       -4.1450     0.9910     0.6490 N.2   1 <1>  -0.3380 
  6 N       -5.3060    -0.6890    -0.0870 N.pl3 1 <1>   0.0480 
  7 N       -5.3880     1.4150     0.4340 N.2   1 <1>  -0.3380 
  8 C       -6.0610     0.4080     0.0010 C.2   1 <1>   0.0070 
  9 C       -5.7270    -2.0290    -0.5530 C.3   1 <1>   0.0960 
 10 C       -7.5340     0.4650    -0.3580 C.3   1 <1>   0.0200 
 11 C       -6.8490    -2.6060     0.3210 C.3   1 <1>  -0.1600 
 12 C       -8.3710    -0.5130     0.4790 C.3   1 <1>  -0.1600 
 13 C       -8.2310    -1.9850     0.0550 C.3   1 <1>  -0.1600 
 14 H       -3.1040    -2.0010     1.0420 H     1 <1>   0.0800 
 15 H       -2.6050    -1.4800    -0.5440 H     1 <1>   0.0800 
 16 H       -4.8820    -2.6910    -0.5230 H     1 <1>   0.0800 
 17 H       -6.0540    -1.9530    -1.5750 H     1 <1>   0.0800 
 18 H       -7.6620     0.2710    -1.4070 H     1 <1>   0.0800 
 19 H       -7.8840     1.4660    -0.1690 H     1 <1>   0.0800 
 20 H       -6.5920    -2.5090     1.3630 H     1 <1>   0.0800 
 21 H       -6.9220    -3.6590     0.1090 H     1 <1>   0.0800 
 22 H       -9.4060    -0.2350     0.3750 H     1 <1>   0.0800 
 23 H       -8.1150    -0.4030     1.5190 H     1 <1>   0.0800 
 24 H       -8.9600    -2.5550     0.6060 H     1 <1>   0.0800 
 25 H       -8.4800    -2.0850    -0.9880 H     1 <1>   0.0800 
@<TRIPOS>BOND
  1   1   2  3   
  2   2   3  1   
  3   3   4  1   
  4   3  14  1   
  5   3  15  1   
  6   4   5  2   
  7   4   6  1   
  8   5   7  1   
  9   6   8  1   
 10   6   9  1   
 11   7   8  2   
 12   8  10  1   
 13   9  11  1   
 14   9  16  1   
 15   9  17  1   
 16  10  12  1   
 17  10  18  1   
 18  10  19  1   
 19  11  13  1   
 20  11  20  1   
 21  11  21  1   
 22  12  13  1   
 23  12  22  1   
 24  12  23  1   
 25  13  24  1   
 26  13  25  1   
@<TRIPOS>SUBSTRUCTURE
  1 ****   6 GROUP 4 **** **** 0

# MOE 2024.06 (io_trps.svl 2023.06)
