@<TRIPOS>MOLECULE
NONAME
30 30 1 0 0 
SMALL
USER_CHARGES


@<TRIPOS>ATOM
  1 CL       0.0480    -1.2410    -2.1020 Cl    1 <1>  -0.1770 
  2 C       -1.3790    -1.6030    -1.1530 C.ar  1 <1>   0.1770 
  3 C       -2.4770    -0.7650    -1.2700 C.ar  1 <1>   0.1770 
  4 C       -1.4010    -2.7040    -0.3070 C.ar  1 <1>  -0.0090 
  5 CL      -2.4040     0.6160    -2.3510 Cl    1 <1>  -0.1770 
  6 C       -3.6360    -1.0030    -0.5420 C.ar  1 <1>   0.0830 
  7 S        0.0240    -3.8020    -0.1400 S.o2  1 <1>   1.4470 
  8 C       -2.5680    -2.9340     0.4180 C.ar  1 <1>  -0.1500 
  9 O       -4.6820    -0.1500    -0.6940 O.3   1 <1>  -0.3630 
 10 C       -3.6710    -2.1030     0.3090 C.ar  1 <1>  -0.1500 
 11 O        0.4710    -4.2770    -1.4290 O.2   1 <1>  -0.6500 
 12 O       -0.2310    -4.7590     0.9110 O.2   1 <1>  -0.6500 
 13 N        1.2190    -2.8380     0.5300 N.am  1 <1>  -0.9140 
 14 C       -5.8960    -0.3190     0.0060 C.3   1 <1>   0.0400 
 15 C        2.4990    -2.9200    -0.1500 C.3   1 <1>   0.1960 
 16 C        3.5100    -2.0610     0.6070 C.3   1 <1>  -0.1600 
 17 C        4.8860    -2.0930    -0.0680 C.3   1 <1>  -0.2400 
 18 H       -2.6160    -3.7810     1.0840 H     1 <1>   0.1500 
 19 H       -4.5450    -2.3300     0.8930 H     1 <1>   0.1500 
 20 H        1.3380    -3.2360     1.4610 H     1 <1>   0.4200 
 21 H       -6.5590     0.4760    -0.2830 H     1 <1>   0.0800 
 22 H       -5.7020    -0.2640     1.0620 H     1 <1>   0.0800 
 23 H       -6.3260    -1.2670    -0.2620 H     1 <1>   0.0800 
 24 H        2.3990    -2.5570    -1.1610 H     1 <1>   0.0800 
 25 H        2.8350    -3.9450    -0.1860 H     1 <1>   0.0800 
 26 H        3.6070    -2.4210     1.6170 H     1 <1>   0.0800 
 27 H        3.1570    -1.0450     0.6360 H     1 <1>   0.0800 
 28 H        5.2710    -3.0980    -0.0980 H     1 <1>   0.0800 
 29 H        5.5790    -1.4780     0.4800 H     1 <1>   0.0800 
 30 H        4.8200    -1.7170    -1.0750 H     1 <1>   0.0800 
@<TRIPOS>BOND
  1   1   2  1   
  2   2   3  ar  
  3   2   4  ar  
  4   3   5  1   
  5   3   6  ar  
  6   4   7  1   
  7   4   8  ar  
  8   6   9  1   
  9   6  10  ar  
 10   7  11  2   
 11   7  12  2   
 12   7  13  am  
 13   8  10  ar  
 14   8  18  1   
 15   9  14  1   
 16  10  19  1   
 17  13  15  1   
 18  13  20  1   
 19  14  21  1   
 20  14  22  1   
 21  14  23  1   
 22  15  16  1   
 23  15  24  1   
 24  15  25  1   
 25  16  17  1   
 26  16  26  1   
 27  16  27  1   
 28  17  28  1   
 29  17  29  1   
 30  17  30  1   
@<TRIPOS>SUBSTRUCTURE
  1 ****   4 GROUP 4 **** **** 0

# MOE 2024.06 (io_trps.svl 2023.06)
