@<TRIPOS>MOLECULE
NONAME
53 55 1 0 0 
SMALL
USER_CHARGES


@<TRIPOS>ATOM
  1 S        0.2500    -0.3020     0.4600 S.o2  1 <1>   1.4470 
  2 O        0.8900    -0.2660     1.7580 O.2   1 <1>  -0.6500 
  3 O        0.0110     0.9330    -0.2530 O.2   1 <1>  -0.6500 
  4 N        1.2260    -1.2640    -0.5380 N.am  1 <1>  -0.8490 
  5 C       -1.2970    -1.2460     0.5490 C.ar  1 <1>  -0.0090 
  6 C        2.3930    -0.5060    -1.0300 C.3   1 <1>   0.1960 
  7 C        1.6810    -2.4930     0.1390 C.3   1 <1>   0.1960 
  8 C       -1.7560    -1.7750     1.7500 C.ar  1 <1>  -0.1500 
  9 C       -2.0570    -1.4750    -0.5930 C.ar  1 <1>  -0.1500 
 10 C        3.2410    -1.3400    -2.0040 C.3   1 <1>   0.1400 
 11 C        2.5110    -3.3910    -0.7970 C.3   1 <1>   0.1400 
 12 C       -2.9290    -2.5060     1.8090 C.ar  1 <1>  -0.1500 
 13 C       -3.2330    -2.2040    -0.5450 C.ar  1 <1>  -0.1500 
 14 N        3.6570    -2.6310    -1.3770 N.am  1 <1>  -0.6600 
 15 C       -3.6770    -2.7270     0.6650 C.ar  1 <1>   0.0830 
 16 C        4.9530    -2.8320    -0.9900 C.2   1 <1>   0.6900 
 17 O       -4.8120    -3.4520     0.8060 O.3   1 <1>  -0.3630 
 18 O        5.7380    -1.9040    -0.9400 O.2   1 <1>  -0.5700 
 19 N        5.3530    -4.0850    -0.6740 N.am  1 <1>  -0.7300 
 20 C       -5.6690    -3.6970    -0.2870 C.3   1 <1>   0.0400 
 21 C        6.7130    -4.4590    -0.2580 C.3   1 <1>   0.2200 
 22 C        7.4230    -5.1430    -1.4310 C.3   1 <1>  -0.1600 
 23 C        6.6210    -5.3890     0.9560 C.3   1 <1>  -0.1600 
 24 C        8.8130    -5.6500    -1.0190 C.3   1 <1>  -0.1600 
 25 C        8.0100    -5.8950     1.3730 C.3   1 <1>  -0.1600 
 26 C        8.7270    -6.5790     0.2010 C.3   1 <1>  -0.1600 
 27 H        3.0090    -0.1950    -0.2020 H     1 <1>   0.0800 
 28 H        2.0610     0.3790    -1.5450 H     1 <1>   0.0800 
 29 H        0.8290    -3.0510     0.4860 H     1 <1>   0.0800 
 30 H        2.2830    -2.2400     0.9970 H     1 <1>   0.0800 
 31 H       -1.1910    -1.6100     2.6530 H     1 <1>   0.1500 
 32 H       -1.7190    -1.0720    -1.5330 H     1 <1>   0.1500 
 33 H        4.1040    -0.7710    -2.3040 H     1 <1>   0.0800 
 34 H        2.6640    -1.5480    -2.8870 H     1 <1>   0.0800 
 35 H        1.8840    -3.7490    -1.5940 H     1 <1>   0.0800 
 36 H        2.8620    -4.2410    -0.2390 H     1 <1>   0.0800 
 37 H       -3.2760    -2.9080     2.7440 H     1 <1>   0.1500 
 38 H       -3.7880    -2.3530    -1.4530 H     1 <1>   0.1500 
 39 H        4.7670    -4.8490    -0.9930 H     1 <1>   0.3700 
 40 H       -6.5050    -4.2740     0.0670 H     1 <1>   0.0800 
 41 H       -5.1320    -4.2540    -1.0350 H     1 <1>   0.0800 
 42 H       -6.0150    -2.7570    -0.6780 H     1 <1>   0.0800 
 43 H        7.2640    -3.5740     0.0200 H     1 <1>   0.0800 
 44 H        7.5270    -4.4400    -2.2390 H     1 <1>   0.0800 
 45 H        6.8340    -5.9760    -1.7740 H     1 <1>   0.0800 
 46 H        5.9990    -6.2340     0.7170 H     1 <1>   0.0800 
 47 H        6.1750    -4.8560     1.7770 H     1 <1>   0.0800 
 48 H        9.4410    -4.8080    -0.7810 H     1 <1>   0.0800 
 49 H        9.2650    -6.1760    -1.8420 H     1 <1>   0.0800 
 50 H        7.9110    -6.5880     2.1910 H     1 <1>   0.0800 
 51 H        8.6020    -5.0630     1.7160 H     1 <1>   0.0800 
 52 H        9.7190    -6.8670     0.5040 H     1 <1>   0.0800 
 53 H        8.1930    -7.4740    -0.0700 H     1 <1>   0.0800 
@<TRIPOS>BOND
  1   1   2  2   
  2   1   3  2   
  3   1   4  am  
  4   1   5  1   
  5   4   6  1   
  6   4   7  1   
  7   5   8  ar  
  8   5   9  ar  
  9   6  10  1   
 10   6  27  1   
 11   6  28  1   
 12   7  11  1   
 13   7  29  1   
 14   7  30  1   
 15   8  12  ar  
 16   8  31  1   
 17   9  13  ar  
 18   9  32  1   
 19  10  14  1   
 20  10  33  1   
 21  10  34  1   
 22  11  14  1   
 23  11  35  1   
 24  11  36  1   
 25  12  15  ar  
 26  12  37  1   
 27  13  15  ar  
 28  13  38  1   
 29  14  16  am  
 30  15  17  1   
 31  16  18  2   
 32  16  19  am  
 33  17  20  1   
 34  19  21  1   
 35  19  39  1   
 36  20  40  1   
 37  20  41  1   
 38  20  42  1   
 39  21  22  1   
 40  21  23  1   
 41  21  43  1   
 42  22  24  1   
 43  22  44  1   
 44  22  45  1   
 45  23  25  1   
 46  23  46  1   
 47  23  47  1   
 48  24  26  1   
 49  24  48  1   
 50  24  49  1   
 51  25  26  1   
 52  25  50  1   
 53  25  51  1   
 54  26  52  1   
 55  26  53  1   
@<TRIPOS>SUBSTRUCTURE
  1 ****   7 GROUP 4 **** **** 0

# MOE 2024.06 (io_trps.svl 2023.06)
