@<TRIPOS>MOLECULE
NONAME
48 50 1 0 0 
SMALL
USER_CHARGES


@<TRIPOS>ATOM
  1 O       -1.9480    -1.2930     1.5290 O.2   1 <1>  -0.5700 
  2 C       -2.1970    -0.4630     0.6900 C.2   1 <1>   0.5690 
  3 N       -2.9840    -0.7540    -0.3990 N.am  1 <1>  -0.6600 
  4 C       -1.6290     0.9220     0.8920 C.3   1 <1>  -0.1790 
  5 C       -3.4200    -2.1500    -0.6610 C.3   1 <1>   0.1400 
  6 C       -3.5360     0.2500    -1.3430 C.3   1 <1>   0.1400 
  7 C       -4.9380    -2.2130    -0.4980 C.3   1 <1>  -0.1600 
  8 C       -5.0590     0.2370    -1.2010 C.3   1 <1>  -0.1600 
  9 C       -5.6100    -1.1810    -1.4100 C.3   1 <1>   0.4230 
 10 N       -7.0830    -1.2240    -1.2510 N.4   1 <1>  -0.9060 
 11 C       -7.6400    -0.8190     0.0480 C.3   1 <1>   0.7100 
 12 C       -8.7260    -1.8360     0.3820 C.ar  1 <1>  -0.1440 
 13 C       -8.0980     0.6330    -0.0640 C.ar  1 <1>  -0.1440 
 14 C      -10.0860    -1.5700     0.2580 C.ar  1 <1>  -0.1500 
 15 C       -8.3320    -3.0950     0.8250 C.ar  1 <1>  -0.1500 
 16 C       -8.8340     1.1110    -1.1470 C.ar  1 <1>  -0.1500 
 17 C       -7.7490     1.5170     0.9500 C.ar  1 <1>  -0.1500 
 18 C      -11.0240    -2.5440     0.5500 C.ar  1 <1>  -0.1500 
 19 C       -9.2710    -4.0680     1.1170 C.ar  1 <1>  -0.1500 
 20 C       -9.1960     2.4440    -1.2160 C.ar  1 <1>  -0.1500 
 21 C       -8.1140     2.8490     0.8790 C.ar  1 <1>  -0.1500 
 22 C      -10.6180    -3.7940     0.9760 C.ar  1 <1>  -0.1500 
 23 C       -8.8350     3.3140    -0.2040 C.ar  1 <1>  -0.1500 
 24 H       -1.0820     1.2260     0.0200 H     1 <1>   0.0800 
 25 H       -0.9570     0.9170     1.7300 H     1 <1>   0.0800 
 26 H       -2.4210     1.6190     1.0920 H     1 <1>   0.0800 
 27 H       -2.9470    -2.8360     0.0230 H     1 <1>   0.0800 
 28 H       -3.1290    -2.4310    -1.6600 H     1 <1>   0.0800 
 29 H       -3.2430    -0.0080    -2.3470 H     1 <1>   0.0800 
 30 H       -3.1590     1.2360    -1.1330 H     1 <1>   0.0800 
 31 H       -5.1550    -2.0280     0.5390 H     1 <1>   0.0800 
 32 H       -5.2650    -3.2050    -0.7500 H     1 <1>   0.0800 
 33 H       -5.4800     0.9110    -1.9260 H     1 <1>   0.0800 
 34 H       -5.2900     0.6040    -0.2170 H     1 <1>   0.0800 
 35 H       -5.3760    -1.4620    -2.4260 H     1 <1>   0.0800 
 36 H       -7.4430    -2.1690    -1.4180 H     1 <1>   0.4500 
 37 H       -7.5210    -0.6060    -1.9360 H     1 <1>   0.4500 
 38 H       -6.8790    -0.8820     0.8080 H     1 <1>   0.0800 
 39 H      -10.4540    -0.6090    -0.0560 H     1 <1>   0.1500 
 40 H       -7.2930    -3.3430     0.9600 H     1 <1>   0.1500 
 41 H       -9.1550     0.4660    -1.9470 H     1 <1>   0.1500 
 42 H       -7.1920     1.1840     1.8100 H     1 <1>   0.1500 
 43 H      -12.0750    -2.3300     0.4510 H     1 <1>   0.1500 
 44 H       -8.9600    -5.0410     1.4600 H     1 <1>   0.1500 
 45 H       -9.7670     2.8120    -2.0530 H     1 <1>   0.1500 
 46 H       -7.8410     3.5290     1.6700 H     1 <1>   0.1500 
 47 H      -11.3510    -4.5510     1.2040 H     1 <1>   0.1500 
 48 H       -9.1200     4.3520    -0.2570 H     1 <1>   0.1500 
@<TRIPOS>BOND
  1   1   2  2   
  2   2   3  am  
  3   2   4  1   
  4   3   5  1   
  5   3   6  1   
  6   4  24  1   
  7   4  25  1   
  8   4  26  1   
  9   5   7  1   
 10   5  27  1   
 11   5  28  1   
 12   6   8  1   
 13   6  29  1   
 14   6  30  1   
 15   7   9  1   
 16   7  31  1   
 17   7  32  1   
 18   8   9  1   
 19   8  33  1   
 20   8  34  1   
 21   9  10  1   
 22   9  35  1   
 23  10  11  1   
 24  10  36  1   
 25  10  37  1   
 26  11  12  1   
 27  11  13  1   
 28  11  38  1   
 29  12  14  ar  
 30  12  15  ar  
 31  13  16  ar  
 32  13  17  ar  
 33  14  18  ar  
 34  14  39  1   
 35  15  19  ar  
 36  15  40  1   
 37  16  20  ar  
 38  16  41  1   
 39  17  21  ar  
 40  17  42  1   
 41  18  22  ar  
 42  18  43  1   
 43  19  22  ar  
 44  19  44  1   
 45  20  23  ar  
 46  20  45  1   
 47  21  23  ar  
 48  21  46  1   
 49  22  47  1   
 50  23  48  1   
@<TRIPOS>SUBSTRUCTURE
  1 ****  11 GROUP 4 **** **** 0

# MOE 2024.06 (io_trps.svl 2023.06)
