@<TRIPOS>MOLECULE
NONAME
50 51 1 0 0 
SMALL
USER_CHARGES


@<TRIPOS>ATOM
  1 S       -2.3320    -0.2530     0.7180 S.o2  1 <1>   1.3330 
  2 O       -0.9670     0.1670     0.9100 O.2   1 <1>  -0.6500 
  3 O       -3.4100     0.5190     1.2930 O.2   1 <1>  -0.6500 
  4 N       -2.4810    -1.8850     1.2830 N.am  1 <1>  -0.6930 
  5 C       -2.6410    -0.4360    -1.0270 C.3   1 <1>  -0.1350 
  6 C       -1.5320    -2.8340     0.9120 C.ar  1 <1>   0.1990 
  7 C       -3.7740    -2.3810     1.8560 C.3   1 <1>   0.3370 
  8 C       -1.8570    -3.8690     0.0410 C.ar  1 <1>  -0.1500 
  9 C       -0.2370    -2.7680     1.4020 C.ar  1 <1>  -0.1500 
 10 C       -5.0010    -2.2040     0.9330 C.2   1 <1>   0.5690 
 11 C       -3.9620    -1.8380     3.2800 C.3   1 <1>  -0.2400 
 12 C       -0.9210    -4.8180    -0.3340 C.ar  1 <1>  -0.1440 
 13 C        0.7060    -3.7080     1.0340 C.ar  1 <1>  -0.1500 
 14 O       -5.3360    -3.1490     0.2570 O.2   1 <1>  -0.5700 
 15 N       -5.6480    -0.9970     0.8830 N.am  1 <1>  -0.5470 
 16 C        0.3750    -4.7380     0.1670 C.ar  1 <1>  -0.1430 
 17 C       -1.3360    -5.9290    -1.2890 C.3   1 <1>  -0.0970 
 18 C       -6.7620    -0.5740     0.1460 C.ar  1 <1>   0.1170 
 19 C        1.4410    -5.7540    -0.2150 C.3   1 <1>  -0.0970 
 20 C       -6.8950     0.7780    -0.1350 C.ar  1 <1>  -0.1500 
 21 C       -7.7480    -1.4460    -0.3060 C.ar  1 <1>  -0.1500 
 22 C       -7.9760     1.2590    -0.8540 C.ar  1 <1>   0.0820 
 23 C       -8.8320    -0.9770    -1.0260 C.ar  1 <1>  -0.1500 
 24 O       -8.0120     2.5970    -1.0790 O.3   1 <1>  -0.3630 
 25 C       -8.9510     0.3730    -1.3030 C.ar  1 <1>  -0.1500 
 26 C       -9.0880     3.1940    -1.7690 C.3   1 <1>   0.0400 
 27 H       -2.5820     0.5180    -1.5120 H     1 <1>   0.0800 
 28 H       -3.6160    -0.8480    -1.1970 H     1 <1>   0.0800 
 29 H       -1.9090    -1.0880    -1.4640 H     1 <1>   0.0800 
 30 H       -3.6720    -3.4460     1.9760 H     1 <1>   0.0800 
 31 H       -2.8560    -3.9260    -0.3500 H     1 <1>   0.1500 
 32 H        0.0320    -1.9720     2.0740 H     1 <1>   0.1500 
 33 H       -4.1180    -0.7760     3.2920 H     1 <1>   0.0800 
 34 H       -3.0970    -2.0710     3.8750 H     1 <1>   0.0800 
 35 H       -4.8190    -2.3060     3.7310 H     1 <1>   0.0800 
 36 H        1.7040    -3.6290     1.4290 H     1 <1>   0.1500 
 37 H       -5.1330    -0.2310     1.3410 H     1 <1>   0.3700 
 38 H       -2.3720    -5.8380    -1.5610 H     1 <1>   0.0800 
 39 H       -1.1940    -6.8870    -0.8230 H     1 <1>   0.0800 
 40 H       -0.7460    -5.8840    -2.1860 H     1 <1>   0.0800 
 41 H        1.5940    -5.7470    -1.2790 H     1 <1>   0.0800 
 42 H        1.1370    -6.7390     0.0900 H     1 <1>   0.0800 
 43 H        2.3780    -5.5280     0.2610 H     1 <1>   0.0800 
 44 H       -6.1510     1.4740     0.2050 H     1 <1>   0.1500 
 45 H       -7.6730    -2.4970    -0.0940 H     1 <1>   0.1500 
 46 H       -9.5840    -1.6660    -1.3690 H     1 <1>   0.1500 
 47 H       -9.8010     0.7120    -1.8640 H     1 <1>   0.1500 
 48 H       -8.9100     4.2540    -1.8140 H     1 <1>   0.0800 
 49 H       -9.9990     3.0000    -1.2320 H     1 <1>   0.0800 
 50 H       -9.1330     2.7890    -2.7650 H     1 <1>   0.0800 
@<TRIPOS>BOND
  1   1   2  2   
  2   1   3  2   
  3   1   4  am  
  4   1   5  1   
  5   4   6  1   
  6   4   7  1   
  7   5  27  1   
  8   5  28  1   
  9   5  29  1   
 10   6   8  ar  
 11   6   9  ar  
 12   7  10  1   
 13   7  11  1   
 14   7  30  1   
 15   8  12  ar  
 16   8  31  1   
 17   9  13  ar  
 18   9  32  1   
 19  10  14  2   
 20  10  15  am  
 21  11  33  1   
 22  11  34  1   
 23  11  35  1   
 24  12  16  ar  
 25  12  17  1   
 26  13  16  ar  
 27  13  36  1   
 28  15  18  1   
 29  15  37  1   
 30  16  19  1   
 31  17  38  1   
 32  17  39  1   
 33  17  40  1   
 34  18  20  ar  
 35  18  21  ar  
 36  19  41  1   
 37  19  42  1   
 38  19  43  1   
 39  20  22  ar  
 40  20  44  1   
 41  21  23  ar  
 42  21  45  1   
 43  22  24  1   
 44  22  25  ar  
 45  23  25  ar  
 46  23  46  1   
 47  24  26  1   
 48  25  47  1   
 49  26  48  1   
 50  26  49  1   
 51  26  50  1   
@<TRIPOS>SUBSTRUCTURE
  1 ****  10 GROUP 4 **** **** 0

# MOE 2024.06 (io_trps.svl 2023.06)
