@<TRIPOS>MOLECULE
NONAME
27 27 1 0 0 
SMALL
USER_CHARGES


@<TRIPOS>ATOM
  1 BR       2.3370    -1.6870     2.6420 Br    1 <1>  -0.1110 
  2 C        1.1480    -2.4780     1.3410 C.ar  1 <1>   0.1110 
  3 C        1.6240    -2.7380     0.0580 C.ar  1 <1>   0.1170 
  4 C       -0.1440    -2.7610     1.7400 C.ar  1 <1>  -0.1500 
  5 N        2.9510    -2.4170    -0.2790 N.am  1 <1>  -0.5470 
  6 C        0.7270    -3.3090    -0.8410 C.ar  1 <1>  -0.1500 
  7 C       -1.0130    -3.3310     0.8250 C.ar  1 <1>  -0.1500 
  8 C        3.7630    -2.7590    -1.3210 C.2   1 <1>   0.5690 
  9 C       -0.5740    -3.6030    -0.4610 C.ar  1 <1>  -0.1500 
 10 O        3.4300    -3.4630    -2.2440 O.2   1 <1>  -0.5700 
 11 C        5.1870    -2.1970    -1.2820 C.3   1 <1>   0.1710 
 12 N        5.6240    -1.7440     0.0760 N.3   1 <1>  -0.8100 
 13 C        5.9470    -2.8880     0.9430 C.3   1 <1>   0.0300 
 14 C        6.7780    -0.8450    -0.0210 C.3   1 <1>   0.0300 
 15 H       -0.4620    -2.5420     2.7430 H     1 <1>   0.1500 
 16 H        3.4730    -1.8780     0.4240 H     1 <1>   0.3700 
 17 H        1.0390    -3.5270    -1.8460 H     1 <1>   0.1500 
 18 H       -2.0240    -3.5630     1.1110 H     1 <1>   0.1500 
 19 H       -1.2480    -4.0460    -1.1740 H     1 <1>   0.1500 
 20 H        5.2060    -1.3610    -1.9580 H     1 <1>   0.0800 
 21 H        5.8660    -2.9410    -1.6600 H     1 <1>   0.0800 
 22 H        5.0970    -3.5420     1.0380 H     1 <1>   0.0800 
 23 H        6.2120    -2.5380     1.9260 H     1 <1>   0.0800 
 24 H        6.7720    -3.4490     0.5370 H     1 <1>   0.0800 
 25 H        6.5230     0.0190    -0.6120 H     1 <1>   0.0800 
 26 H        7.6140    -1.3480    -0.4770 H     1 <1>   0.0800 
 27 H        7.0640    -0.5080     0.9610 H     1 <1>   0.0800 
@<TRIPOS>BOND
  1   1   2  1   
  2   2   3  ar  
  3   2   4  ar  
  4   3   5  1   
  5   3   6  ar  
  6   4   7  ar  
  7   4  15  1   
  8   5   8  am  
  9   5  16  1   
 10   6   9  ar  
 11   6  17  1   
 12   7   9  ar  
 13   7  18  1   
 14   8  10  2   
 15   8  11  1   
 16   9  19  1   
 17  11  12  1   
 18  11  20  1   
 19  11  21  1   
 20  12  13  1   
 21  12  14  1   
 22  13  22  1   
 23  13  23  1   
 24  13  24  1   
 25  14  25  1   
 26  14  26  1   
 27  14  27  1   
@<TRIPOS>SUBSTRUCTURE
  1 ****   5 GROUP 4 **** **** 0

# MOE 2024.06 (io_trps.svl 2023.06)
