@<TRIPOS>MOLECULE
NONAME
45 46 1 0 0 
SMALL
USER_CHARGES


@<TRIPOS>ATOM
  1 O       -8.9220     5.0440     1.2760 O.3   1 <1>  -0.3630 
  2 C       -7.7570     5.3990     0.6680 C.ar  1 <1>   0.0830 
  3 C       -9.8500     4.2410     0.5880 C.3   1 <1>   0.1200 
  4 C       -6.9290     4.5150    -0.0440 C.ar  1 <1>   0.0830 
  5 C       -7.3990     6.7310     0.7970 C.ar  1 <1>  -0.1500 
  6 C       -9.8770     2.8740     1.2770 C.3   1 <1>   0.3430 
  7 O       -7.2610     3.1890    -0.1270 O.3   1 <1>  -0.3630 
  8 C       -5.7710     5.0170    -0.6380 C.ar  1 <1>  -0.1500 
  9 C       -6.2430     7.2100     0.2090 C.ar  1 <1>  -0.1500 
 10 N      -10.3690     1.7830     0.3750 N.4   1 <1>  -0.9590 
 11 C       -6.3050     2.2370    -0.5480 C.3   1 <1>   0.1200 
 12 C       -5.4330     6.3530    -0.5110 C.ar  1 <1>  -0.1500 
 13 C      -11.7620     2.0120    -0.1150 C.3   1 <1>   0.3430 
 14 C      -10.2360     0.4610     1.0530 C.3   1 <1>   0.3430 
 15 C       -6.8980     0.8400    -0.3650 C.3   1 <1>  -0.1600 
 16 C      -12.1380     0.9230    -1.1210 C.3   1 <1>  -0.1600 
 17 C      -10.5820    -0.6610     0.0730 C.3   1 <1>  -0.1600 
 18 C       -5.9040    -0.2440    -0.7930 C.3   1 <1>  -0.2400 
 19 C      -11.9840    -0.4820    -0.5240 C.3   1 <1>  -0.1600 
 20 H       -9.5540     4.1710    -0.4440 H     1 <1>   0.0800 
 21 H      -10.8070     4.7240     0.6570 H     1 <1>   0.0800 
 22 H       -8.0310     7.3950     1.3580 H     1 <1>   0.1500 
 23 H      -10.4930     2.9340     2.1580 H     1 <1>   0.0800 
 24 H       -8.8700     2.6420     1.5830 H     1 <1>   0.0800 
 25 H       -5.1100     4.3910    -1.2070 H     1 <1>   0.1500 
 26 H       -5.9750     8.2480     0.3130 H     1 <1>   0.1500 
 27 H       -9.7440     1.7680    -0.4430 H     1 <1>   0.4500 
 28 H       -5.4180     2.3540     0.0520 H     1 <1>   0.0800 
 29 H       -6.0770     2.4160    -1.5850 H     1 <1>   0.0800 
 30 H       -4.5350     6.7280    -0.9730 H     1 <1>   0.1500 
 31 H      -11.8370     2.9760    -0.5910 H     1 <1>   0.0800 
 32 H      -12.4490     1.9870     0.7160 H     1 <1>   0.0800 
 33 H      -10.9040     0.4170     1.8990 H     1 <1>   0.0800 
 34 H       -9.2280     0.3280     1.4110 H     1 <1>   0.0800 
 35 H       -7.7860     0.7510    -0.9630 H     1 <1>   0.0800 
 36 H       -7.1430     0.6960     0.6730 H     1 <1>   0.0800 
 37 H      -11.5210     1.0190    -1.9980 H     1 <1>   0.0800 
 38 H      -13.1590     1.0670    -1.4300 H     1 <1>   0.0800 
 39 H      -10.5340    -1.6050     0.5880 H     1 <1>   0.0800 
 40 H       -9.8490    -0.6890    -0.7140 H     1 <1>   0.0800 
 41 H       -5.6430    -0.1310    -1.8310 H     1 <1>   0.0800 
 42 H       -6.3370    -1.2200    -0.6560 H     1 <1>   0.0800 
 43 H       -5.0050    -0.1870    -0.2040 H     1 <1>   0.0800 
 44 H      -12.1560    -1.2250    -1.2860 H     1 <1>   0.0800 
 45 H      -12.7230    -0.6280     0.2460 H     1 <1>   0.0800 
@<TRIPOS>BOND
  1   1   2  1   
  2   1   3  1   
  3   2   4  ar  
  4   2   5  ar  
  5   3   6  1   
  6   3  20  1   
  7   3  21  1   
  8   4   7  1   
  9   4   8  ar  
 10   5   9  ar  
 11   5  22  1   
 12   6  10  1   
 13   6  23  1   
 14   6  24  1   
 15   7  11  1   
 16   8  12  ar  
 17   8  25  1   
 18   9  12  ar  
 19   9  26  1   
 20  10  13  1   
 21  10  14  1   
 22  10  27  1   
 23  11  15  1   
 24  11  28  1   
 25  11  29  1   
 26  12  30  1   
 27  13  16  1   
 28  13  31  1   
 29  13  32  1   
 30  14  17  1   
 31  14  33  1   
 32  14  34  1   
 33  15  18  1   
 34  15  35  1   
 35  15  36  1   
 36  16  19  1   
 37  16  37  1   
 38  16  38  1   
 39  17  19  1   
 40  17  39  1   
 41  17  40  1   
 42  18  41  1   
 43  18  42  1   
 44  18  43  1   
 45  19  44  1   
 46  19  45  1   
@<TRIPOS>SUBSTRUCTURE
  1 ****   7 GROUP 4 **** **** 0

# MOE 2024.06 (io_trps.svl 2023.06)
