@<TRIPOS>MOLECULE
NONAME
33 34 1 0 0 
SMALL
USER_CHARGES


@<TRIPOS>ATOM
  1 CL      -0.5480     0.0640     0.9140 Cl    1 <1>  -0.1770 
  2 C       -1.3500     1.4600     0.2310 C.ar  1 <1>   0.1770 
  3 C       -0.8920     2.7370     0.5250 C.ar  1 <1>  -0.1440 
  4 C       -2.4350     1.2510    -0.5950 C.ar  1 <1>  -0.1500 
  5 C       -1.5530     3.8190    -0.0370 C.ar  1 <1>  -0.1500 
  6 C        0.3060     2.9560     1.4370 C.3   1 <1>  -0.0960 
  7 C       -3.1040     2.3350    -1.1490 C.ar  1 <1>   0.1990 
  8 C       -2.6440     3.6160    -0.8650 C.ar  1 <1>  -0.1500 
  9 N       -4.2070     2.1740    -1.9700 N.am  1 <1>  -0.7570 
 10 S       -5.6000     1.2430    -1.6420 S.o2  1 <1>   1.5760 
 11 O       -6.3950     1.3380    -2.8400 O.2   1 <1>  -0.6500 
 12 O       -5.2230    -0.0210    -1.0590 O.2   1 <1>  -0.6500 
 13 N       -6.2910     2.2340    -0.4660 N.am  1 <1>  -0.8490 
 14 C       -5.7860     1.9450     0.8880 C.3   1 <1>   0.1960 
 15 C       -7.7590     2.1290    -0.4650 C.3   1 <1>   0.1960 
 16 C       -6.4510     2.8570     1.9340 C.3   1 <1>   0.1200 
 17 C       -8.3810     3.0290     0.6190 C.3   1 <1>   0.1200 
 18 O       -7.8440     2.7320     1.8770 O.3   1 <1>  -0.5600 
 19 H       -2.7510     0.2470    -0.8080 H     1 <1>   0.1500 
 20 H       -1.2210     4.8230     0.1660 H     1 <1>   0.1500 
 21 H        0.1140     2.5300     2.4060 H     1 <1>   0.0800 
 22 H        0.5140     4.0040     1.5600 H     1 <1>   0.0800 
 23 H        1.1770     2.4830     1.0180 H     1 <1>   0.0800 
 24 H       -3.1480     4.4640    -1.2930 H     1 <1>   0.1500 
 25 H       -4.5040     2.9680    -2.5220 H     1 <1>   0.4200 
 26 H       -4.7220     2.0970     0.9240 H     1 <1>   0.0800 
 27 H       -5.9830     0.9190     1.1510 H     1 <1>   0.0800 
 28 H       -8.0570     1.1080    -0.2910 H     1 <1>   0.0800 
 29 H       -8.1450     2.4300    -1.4240 H     1 <1>   0.0800 
 30 H       -6.1880     3.8860     1.7600 H     1 <1>   0.0800 
 31 H       -6.1370     2.5800     2.9240 H     1 <1>   0.0800 
 32 H       -9.4430     2.8720     0.6700 H     1 <1>   0.0800 
 33 H       -8.1930     4.0660     0.4000 H     1 <1>   0.0800 
@<TRIPOS>BOND
  1   1   2  1   
  2   2   3  ar  
  3   2   4  ar  
  4   3   5  ar  
  5   3   6  1   
  6   4   7  ar  
  7   4  19  1   
  8   5   8  ar  
  9   5  20  1   
 10   6  21  1   
 11   6  22  1   
 12   6  23  1   
 13   7   8  ar  
 14   7   9  1   
 15   8  24  1   
 16   9  10  am  
 17   9  25  1   
 18  10  11  2   
 19  10  12  2   
 20  10  13  am  
 21  13  14  1   
 22  13  15  1   
 23  14  16  1   
 24  14  26  1   
 25  14  27  1   
 26  15  17  1   
 27  15  28  1   
 28  15  29  1   
 29  16  18  1   
 30  16  30  1   
 31  16  31  1   
 32  17  18  1   
 33  17  32  1   
 34  17  33  1   
@<TRIPOS>SUBSTRUCTURE
  1 ****   7 GROUP 4 **** **** 0

# MOE 2024.06 (io_trps.svl 2023.06)
