@<TRIPOS>MOLECULE
NONAME
33 33 1 0 0 
SMALL
USER_CHARGES


@<TRIPOS>ATOM
  1 O        0.4200     0.1340     0.0040 O.2   1 <1>  -0.5700 
  2 C        1.2480     1.0080    -0.0010 C.2   1 <1>   0.5690 
  3 N        0.9700     2.3430    -0.0040 N.am  1 <1>  -0.5470 
  4 C        2.7040     0.6150    -0.0040 C.3   1 <1>  -0.1790 
  5 C       -0.2280     3.0830    -0.0030 C.ar  1 <1>   0.1170 
  6 C       -0.1310     4.4790    -0.0070 C.ar  1 <1>   0.0830 
  7 C       -1.4900     2.5010     0.0020 C.ar  1 <1>  -0.1500 
  8 O        1.1300     5.0150    -0.0110 O.3   1 <1>  -0.3620 
  9 C       -1.2830     5.2600    -0.0060 C.ar  1 <1>  -0.1500 
 10 C       -2.6370     3.2750     0.0030 C.ar  1 <1>   0.0830 
 11 C        1.3300     6.4100    -0.0150 C.3   1 <1>   0.1200 
 12 C       -2.5310     4.6620    -0.0010 C.ar  1 <1>  -0.1500 
 13 O       -3.8230     2.6100     0.0070 O.3   1 <1>  -0.3630 
 14 C        2.8330     6.6700    -0.0190 C.3   1 <1>  -0.2400 
 15 C       -5.0490     3.3020     0.0080 C.3   1 <1>   0.1200 
 16 C       -6.1720     2.2690     0.0130 C.3   1 <1>  -0.2400 
 17 H        1.7820     2.9610    -0.0070 H     1 <1>   0.3700 
 18 H        3.1870     1.0050     0.8720 H     1 <1>   0.0800 
 19 H        3.1820     0.9990    -0.8840 H     1 <1>   0.0800 
 20 H        2.7890    -0.4560     0.0000 H     1 <1>   0.0800 
 21 H       -1.6000     1.4330     0.0050 H     1 <1>   0.1500 
 22 H       -1.2350     6.3320    -0.0090 H     1 <1>   0.1500 
 23 H        0.8750     6.8230     0.8700 H     1 <1>   0.0800 
 24 H        0.8710     6.8190    -0.8990 H     1 <1>   0.0800 
 25 H       -3.4020     5.2890    -0.0010 H     1 <1>   0.1500 
 26 H        3.2850     6.2460     0.8600 H     1 <1>   0.0800 
 27 H        3.0170     7.7290    -0.0220 H     1 <1>   0.0800 
 28 H        3.2800     6.2420    -0.8980 H     1 <1>   0.0800 
 29 H       -5.0980     3.9110    -0.8780 H     1 <1>   0.0800 
 30 H       -5.0940     3.9160     0.8910 H     1 <1>   0.0800 
 31 H       -6.1060     1.6490    -0.8630 H     1 <1>   0.0800 
 32 H       -7.1250     2.7650     0.0140 H     1 <1>   0.0800 
 33 H       -6.1020     1.6540     0.8930 H     1 <1>   0.0800 
@<TRIPOS>BOND
  1   1   2  2   
  2   2   3  am  
  3   2   4  1   
  4   3   5  1   
  5   3  17  1   
  6   4  18  1   
  7   4  19  1   
  8   4  20  1   
  9   5   6  ar  
 10   5   7  ar  
 11   6   8  1   
 12   6   9  ar  
 13   7  10  ar  
 14   7  21  1   
 15   8  11  1   
 16   9  12  ar  
 17   9  22  1   
 18  10  12  ar  
 19  10  13  1   
 20  11  14  1   
 21  11  23  1   
 22  11  24  1   
 23  12  25  1   
 24  13  15  1   
 25  14  26  1   
 26  14  27  1   
 27  14  28  1   
 28  15  16  1   
 29  15  29  1   
 30  15  30  1   
 31  16  31  1   
 32  16  32  1   
 33  16  33  1   
@<TRIPOS>SUBSTRUCTURE
  1 ****   5 GROUP 4 **** **** 0

# MOE 2024.06 (io_trps.svl 2023.06)
