@<TRIPOS>MOLECULE
NONAME
29 30 1 0 0 
SMALL
USER_CHARGES


@<TRIPOS>ATOM
  1 S       -1.5930    -2.2580     0.4990 S.3   1 <1>  -0.4600 
  2 C       -0.6940    -2.9280    -0.9440 C.3   1 <1>   0.2500 
  3 C       -3.3210    -2.7100     0.1700 C.3   1 <1>   0.0700 
  4 C        0.7960    -2.6740    -0.7950 C.2   1 <1>   0.0060 
  5 C       -3.5230    -4.1780     0.5450 C.3   1 <1>   0.1200 
  6 N        1.3080    -1.8990     0.1940 N.pl3 1 <1>   0.0330 
  7 N        1.6880    -3.1650    -1.5840 N.2   1 <1>  -0.5650 
  8 O       -4.8350    -4.5340     0.2820 O.3   1 <1>  -0.6800 
  9 C        2.6510    -1.8980     0.0160 C.ar  1 <1>  -0.1520 
 10 C        2.8700    -2.6910    -1.0950 C.ar  1 <1>   0.2270 
 11 C        3.7090    -1.2960     0.6990 C.ar  1 <1>  -0.1500 
 12 C        4.1700    -2.8990    -1.5500 C.ar  1 <1>  -0.1500 
 13 C        4.9950    -1.5040     0.2450 C.ar  1 <1>  -0.1440 
 14 C        5.2200    -2.3080    -0.8820 C.ar  1 <1>  -0.1500 
 15 C        6.1830    -0.8750     0.9480 C.3   1 <1>  -0.0970 
 16 H       -1.0760    -2.4370    -1.8210 H     1 <1>   0.0800 
 17 H       -0.8920    -3.9830    -0.9960 H     1 <1>   0.0800 
 18 H       -3.5090    -2.5380    -0.8750 H     1 <1>   0.0800 
 19 H       -3.9310    -2.0650     0.7760 H     1 <1>   0.0800 
 20 H       -3.3250    -4.3440     1.5900 H     1 <1>   0.0800 
 21 H       -2.8870    -4.8140    -0.0470 H     1 <1>   0.0800 
 22 H        0.7680    -1.4320     0.9280 H     1 <1>   0.2700 
 23 H       -5.4480    -4.1070     0.9120 H     1 <1>   0.4000 
 24 H        3.5090    -0.6850     1.5610 H     1 <1>   0.1500 
 25 H        4.3190    -3.5170    -2.4150 H     1 <1>   0.1500 
 26 H        6.2270    -2.4620    -1.2260 H     1 <1>   0.1500 
 27 H        5.8650    -0.2890     1.7910 H     1 <1>   0.0800 
 28 H        6.7140    -0.2350     0.2670 H     1 <1>   0.0800 
 29 H        6.8500    -1.6430     1.2970 H     1 <1>   0.0800 
@<TRIPOS>BOND
  1   1   2  1   
  2   1   3  1   
  3   2   4  1   
  4   2  16  1   
  5   2  17  1   
  6   3   5  1   
  7   3  18  1   
  8   3  19  1   
  9   4   6  1   
 10   4   7  2   
 11   5   8  1   
 12   5  20  1   
 13   5  21  1   
 14   6   9  1   
 15   6  22  1   
 16   7  10  1   
 17   8  23  1   
 18   9  10  ar  
 19   9  11  ar  
 20  10  12  ar  
 21  11  13  ar  
 22  11  24  1   
 23  12  14  ar  
 24  12  25  1   
 25  13  14  ar  
 26  13  15  1   
 27  14  26  1   
 28  15  27  1   
 29  15  28  1   
 30  15  29  1   
@<TRIPOS>SUBSTRUCTURE
  1 ****   6 GROUP 4 **** **** 0

# MOE 2024.06 (io_trps.svl 2023.06)
