@<TRIPOS>MOLECULE
NONAME
28 28 1 0 0 
SMALL
USER_CHARGES


@<TRIPOS>ATOM
  1 BR      -0.4920    -0.2230     0.0120 Br    1 <1>  -0.1110 
  2 C       -0.2830     1.6950     0.0090 C.ar  1 <1>   0.1110 
  3 C       -1.4150     2.5060     0.0080 C.ar  1 <1>   0.0830 
  4 C        1.0000     2.2050     0.0080 C.ar  1 <1>  -0.1500 
  5 O       -2.6330     1.9020     0.0090 O.3   1 <1>  -0.3630 
  6 C       -1.2370     3.8890     0.0060 C.ar  1 <1>  -0.1500 
  7 C        1.1450     3.5790     0.0060 C.ar  1 <1>   0.1770 
  8 C       -3.8320     2.6350     0.0080 C.3   1 <1>   0.1200 
  9 C        0.0450     4.4210     0.0050 C.ar  1 <1>  -0.1500 
 10 CL       2.7480     4.2690     0.0050 Cl    1 <1>  -0.1770 
 11 C       -4.9720     1.6120     0.0090 C.3   1 <1>   0.3430 
 12 N       -6.3160     2.2670     0.0090 N.4   1 <1>  -0.9060 
 13 C       -7.4120     1.2730     0.0100 C.3   1 <1>   0.3430 
 14 C       -8.7330     2.0260     0.0090 C.3   1 <1>  -0.2400 
 15 H        1.8590     1.5590     0.0090 H     1 <1>   0.1500 
 16 H       -2.0690     4.5680     0.0050 H     1 <1>   0.1500 
 17 H       -3.8520     3.2400    -0.8810 H     1 <1>   0.0800 
 18 H       -3.8520     3.2430     0.8950 H     1 <1>   0.0800 
 19 H        0.1990     5.4860     0.0040 H     1 <1>   0.1500 
 20 H       -4.8730     0.9900     0.8850 H     1 <1>   0.0800 
 21 H       -4.8740     0.9880    -0.8640 H     1 <1>   0.0800 
 22 H       -6.4200     2.8670    -0.8200 H     1 <1>   0.4500 
 23 H       -6.4200     2.8690     0.8350 H     1 <1>   0.4500 
 24 H       -7.3480     0.6470     0.8870 H     1 <1>   0.0800 
 25 H       -7.3480     0.6450    -0.8660 H     1 <1>   0.0800 
 26 H       -8.8310     2.6370     0.8880 H     1 <1>   0.0800 
 27 H       -9.5430     1.3170     0.0100 H     1 <1>   0.0800 
 28 H       -8.8310     2.6350    -0.8720 H     1 <1>   0.0800 
@<TRIPOS>BOND
  1   1   2  1   
  2   2   3  ar  
  3   2   4  ar  
  4   3   5  1   
  5   3   6  ar  
  6   4   7  ar  
  7   4  15  1   
  8   5   8  1   
  9   6   9  ar  
 10   6  16  1   
 11   7   9  ar  
 12   7  10  1   
 13   8  11  1   
 14   8  17  1   
 15   8  18  1   
 16   9  19  1   
 17  11  12  1   
 18  11  20  1   
 19  11  21  1   
 20  12  13  1   
 21  12  22  1   
 22  12  23  1   
 23  13  14  1   
 24  13  24  1   
 25  13  25  1   
 26  14  26  1   
 27  14  27  1   
 28  14  28  1   
@<TRIPOS>SUBSTRUCTURE
  1 ****   5 GROUP 4 **** **** 0

# MOE 2024.06 (io_trps.svl 2023.06)
