@<TRIPOS>MOLECULE
NONAME
49 51 1 0 0 
SMALL
USER_CHARGES


@<TRIPOS>ATOM
  1 O        0.4880    -1.2310     1.9830 O.2   1 <1>  -0.5700 
  2 C       -0.1320    -1.7510     1.0710 C.2   1 <1>   0.5440 
  3 N       -1.2130    -1.0770     0.5420 N.am  1 <1>  -0.6600 
  4 C        0.3090    -3.0220     0.5420 C.ar  1 <1>   0.0860 
  5 C       -1.7800     0.1440     1.1900 C.3   1 <1>   0.1400 
  6 C       -1.8370    -1.3860    -0.7810 C.3   1 <1>   0.1400 
  7 C        1.5940    -3.1510    -0.0020 C.ar  1 <1>   0.1170 
  8 C       -0.5330    -4.1350     0.5390 C.ar  1 <1>  -0.1500 
  9 C       -3.3170     0.1060     1.1680 C.3   1 <1>   0.1200 
 10 C       -3.3700    -1.3460    -0.6760 C.3   1 <1>   0.1200 
 11 N        2.4780    -2.0690     0.0510 N.am  1 <1>  -0.5470 
 12 C        1.9800    -4.3610    -0.5680 C.ar  1 <1>  -0.1500 
 13 C       -0.1340    -5.3350    -0.0160 C.ar  1 <1>  -0.1500 
 14 O       -3.7920    -0.1300    -0.1280 O.3   1 <1>  -0.5600 
 15 C        3.3000    -1.5500    -0.9200 C.2   1 <1>   0.5440 
 16 C        1.1270    -5.4460    -0.5780 C.ar  1 <1>  -0.1500 
 17 O        3.3560    -2.0880    -2.0100 O.2   1 <1>  -0.5700 
 18 C        4.0310    -0.3410    -0.6420 C.ar  1 <1>   0.0860 
 19 C        5.1810    -0.4110     0.1580 C.ar  1 <1>   0.0820 
 20 C        3.6550     0.9170    -1.1490 C.ar  1 <1>   0.0820 
 21 O        5.5090    -1.6200     0.6800 O.3   1 <1>  -0.3630 
 22 C        5.9490     0.7240     0.4020 C.ar  1 <1>  -0.1500 
 23 O        2.5430     1.1620    -1.8850 O.3   1 <1>  -0.3620 
 24 C        4.4410     2.0310    -0.9060 C.ar  1 <1>  -0.1500 
 25 C        6.6740    -1.8380     1.4430 C.3   1 <1>   0.0400 
 26 C        5.5830     1.9420    -0.1350 C.ar  1 <1>  -0.1500 
 27 C        1.3060     0.5290    -1.6330 C.3   1 <1>   0.0400 
 28 H       -1.4380     1.0160     0.6620 H     1 <1>   0.0800 
 29 H       -1.4440     0.2190     2.2090 H     1 <1>   0.0800 
 30 H       -1.5280    -2.3490    -1.1440 H     1 <1>   0.0800 
 31 H       -1.5210    -0.6500    -1.4980 H     1 <1>   0.0800 
 32 H       -1.5120    -4.0480     0.9770 H     1 <1>   0.1500 
 33 H       -3.7150     1.0490     1.4980 H     1 <1>   0.0800 
 34 H       -3.6840    -0.6700     1.8170 H     1 <1>   0.0800 
 35 H       -3.7310    -2.1490    -0.0570 H     1 <1>   0.0800 
 36 H       -3.8120    -1.4360    -1.6530 H     1 <1>   0.0800 
 37 H        2.3830    -1.4900     0.8930 H     1 <1>   0.3700 
 38 H        2.9630    -4.4460    -1.0000 H     1 <1>   0.1500 
 39 H       -0.7960    -6.1840    -0.0140 H     1 <1>   0.1500 
 40 H        1.4430    -6.3760    -1.0190 H     1 <1>   0.1500 
 41 H        6.8350     0.6820     1.0060 H     1 <1>   0.1500 
 42 H        4.1450     2.9780    -1.3230 H     1 <1>   0.1500 
 43 H        6.7080    -2.8790     1.7090 H     1 <1>   0.0800 
 44 H        6.6270    -1.2360     2.3340 H     1 <1>   0.0800 
 45 H        7.5340    -1.5840     0.8480 H     1 <1>   0.0800 
 46 H        6.1810     2.8180     0.0460 H     1 <1>   0.1500 
 47 H        0.5270     1.1490    -2.0370 H     1 <1>   0.0800 
 48 H        1.1710     0.4200    -0.5710 H     1 <1>   0.0800 
 49 H        1.2930    -0.4270    -2.1260 H     1 <1>   0.0800 
@<TRIPOS>BOND
  1   1   2  2   
  2   2   3  am  
  3   2   4  1   
  4   3   5  1   
  5   3   6  1   
  6   4   7  ar  
  7   4   8  ar  
  8   5   9  1   
  9   5  28  1   
 10   5  29  1   
 11   6  10  1   
 12   6  30  1   
 13   6  31  1   
 14   7  11  1   
 15   7  12  ar  
 16   8  13  ar  
 17   8  32  1   
 18   9  14  1   
 19   9  33  1   
 20   9  34  1   
 21  10  14  1   
 22  10  35  1   
 23  10  36  1   
 24  11  15  am  
 25  11  37  1   
 26  12  16  ar  
 27  12  38  1   
 28  13  16  ar  
 29  13  39  1   
 30  15  17  2   
 31  15  18  1   
 32  16  40  1   
 33  18  19  ar  
 34  18  20  ar  
 35  19  21  1   
 36  19  22  ar  
 37  20  23  1   
 38  20  24  ar  
 39  21  25  1   
 40  22  26  ar  
 41  22  41  1   
 42  23  27  1   
 43  24  26  ar  
 44  24  42  1   
 45  25  43  1   
 46  25  44  1   
 47  25  45  1   
 48  26  46  1   
 49  27  47  1   
 50  27  48  1   
 51  27  49  1   
@<TRIPOS>SUBSTRUCTURE
  1 ****  11 GROUP 4 **** **** 0

# MOE 2024.06 (io_trps.svl 2023.06)
