@<TRIPOS>MOLECULE
NONAME
39 40 1 0 0 
SMALL
USER_CHARGES


@<TRIPOS>ATOM
  1 F       -0.6670    -2.1230    -1.5060 F     1 <1>  -0.1900 
  2 C       -1.8370    -2.1440    -0.9260 C.ar  1 <1>   0.1900 
  3 C       -1.9720    -1.5650     0.3210 C.ar  1 <1>  -0.1500 
  4 C       -2.8950    -2.7430    -1.5810 C.ar  1 <1>  -0.1500 
  5 C       -3.2150    -1.5900     0.9320 C.ar  1 <1>  -0.1500 
  6 C       -4.1320    -2.7600    -0.9590 C.ar  1 <1>  -0.1500 
  7 C       -4.2980    -2.1860     0.2960 C.ar  1 <1>  -0.1430 
  8 C       -5.6660    -2.2190     0.9690 C.3   1 <1>   0.2540 
  9 N       -6.7190    -1.6700     0.0880 N.3   1 <1>  -0.8100 
 10 C       -8.0840    -1.8660     0.6770 C.3   1 <1>   0.2510 
 11 C       -6.4600    -0.2510    -0.2170 C.3   1 <1>   0.1100 
 12 C       -8.4100    -3.3140     1.1090 C.2   1 <1>   0.6590 
 13 C       -9.1500    -1.3540    -0.3110 C.3   1 <1>  -0.1600 
 14 C       -7.4860     0.2780    -1.2220 C.3   1 <1>  -0.1600 
 15 O       -8.5040    -3.6100     2.2750 O.2   1 <1>  -0.5700 
 16 O       -8.5710    -4.2180     0.1470 O.3   1 <1>  -0.4300 
 17 C       -8.9150     0.1090    -0.7020 C.3   1 <1>  -0.1600 
 18 C       -8.8400    -5.5680     0.4380 C.3   1 <1>   0.1200 
 19 C       -8.9540    -6.3220    -0.8830 C.3   1 <1>  -0.2400 
 20 H       -1.1240    -1.1090     0.7980 H     1 <1>   0.1500 
 21 H       -2.7540    -3.1810    -2.5520 H     1 <1>   0.1500 
 22 H       -3.3350    -1.1430     1.9040 H     1 <1>   0.1500 
 23 H       -4.9770    -3.2140    -1.4500 H     1 <1>   0.1500 
 24 H       -5.6410    -1.6660     1.8930 H     1 <1>   0.0800 
 25 H       -5.8790    -3.2470     1.2030 H     1 <1>   0.0800 
 26 H       -8.1480    -1.2660     1.5680 H     1 <1>   0.0800 
 27 H       -5.4790    -0.1390    -0.6470 H     1 <1>   0.0800 
 28 H       -6.5000     0.3320     0.6880 H     1 <1>   0.0800 
 29 H      -10.1250    -1.4530     0.1320 H     1 <1>   0.0800 
 30 H       -9.1270    -1.9680    -1.1960 H     1 <1>   0.0800 
 31 H       -7.3670    -0.2580    -2.1480 H     1 <1>   0.0800 
 32 H       -7.2910     1.3170    -1.4170 H     1 <1>   0.0800 
 33 H       -9.0620     0.7410     0.1580 H     1 <1>   0.0800 
 34 H       -9.6190     0.4040    -1.4610 H     1 <1>   0.0800 
 35 H       -9.7600    -5.6200     0.9960 H     1 <1>   0.0800 
 36 H       -8.0320    -5.9550     1.0360 H     1 <1>   0.0800 
 37 H       -9.7570    -5.9180    -1.4720 H     1 <1>   0.0800 
 38 H       -9.1560    -7.3600    -0.6920 H     1 <1>   0.0800 
 39 H       -8.0320    -6.2470    -1.4310 H     1 <1>   0.0800 
@<TRIPOS>BOND
  1   1   2  1   
  2   2   3  ar  
  3   2   4  ar  
  4   3   5  ar  
  5   3  20  1   
  6   4   6  ar  
  7   4  21  1   
  8   5   7  ar  
  9   5  22  1   
 10   6   7  ar  
 11   6  23  1   
 12   7   8  1   
 13   8   9  1   
 14   8  24  1   
 15   8  25  1   
 16   9  10  1   
 17   9  11  1   
 18  10  12  1   
 19  10  13  1   
 20  10  26  1   
 21  11  14  1   
 22  11  27  1   
 23  11  28  1   
 24  12  15  2   
 25  12  16  1   
 26  13  17  1   
 27  13  29  1   
 28  13  30  1   
 29  14  17  1   
 30  14  31  1   
 31  14  32  1   
 32  16  18  1   
 33  17  33  1   
 34  17  34  1   
 35  18  19  1   
 36  18  35  1   
 37  18  36  1   
 38  19  37  1   
 39  19  38  1   
 40  19  39  1   
@<TRIPOS>SUBSTRUCTURE
  1 ****   9 GROUP 4 **** **** 0

# MOE 2024.06 (io_trps.svl 2023.06)
