@<TRIPOS>MOLECULE
NONAME
52 56 1 0 0 
SMALL
USER_CHARGES


@<TRIPOS>ATOM
  1 O       -1.6960     1.9030    -0.7230 O.3   1 <1>  -0.3630 
  2 C       -2.9280     1.5030    -1.0550 C.ar  1 <1>   0.0820 
  3 C       -1.2750     2.8090    -1.7410 C.3   1 <1>   0.4000 
  4 C       -3.3210     2.1040    -2.2150 C.ar  1 <1>   0.0820 
  5 C       -3.7510     0.6240    -0.3810 C.ar  1 <1>  -0.1500 
  6 O       -2.3540     2.9080    -2.6670 O.3   1 <1>  -0.3630 
  7 C       -4.5610     1.8580    -2.7680 C.ar  1 <1>  -0.1500 
  8 C       -5.0110     0.3650    -0.9120 C.ar  1 <1>  -0.1440 
  9 C       -5.4060     0.9800    -2.1010 C.ar  1 <1>  -0.1500 
 10 C       -5.9670    -0.5730    -0.1940 C.3   1 <1>   0.2540 
 11 N       -7.1020     0.1930     0.3550 N.3   1 <1>  -0.8100 
 12 C       -8.1580    -0.6890     0.9030 C.3   1 <1>   0.1100 
 13 C       -6.6740     1.1930     1.3690 C.3   1 <1>   0.1100 
 14 C       -9.3750     0.1170     1.4220 C.3   1 <1>   0.3430 
 15 C       -7.8640     2.0060     1.9330 C.3   1 <1>   0.3430 
 16 N       -9.1430     1.5940     1.2760 N.4   1 <1>  -0.9590 
 17 C      -10.3140     2.4420     1.6110 C.3   1 <1>   0.4860 
 18 C      -11.4770     2.0190     0.7360 C.ar  1 <1>  -0.1440 
 19 C      -11.4980     2.3100    -0.6030 C.ar  1 <1>  -0.1500 
 20 C      -12.5440     1.3060     1.3040 C.ar  1 <1>  -0.1500 
 21 C      -12.5600     1.8950    -1.4310 C.ar  1 <1>   0.0000 
 22 C      -13.5880     0.8940     0.5230 C.ar  1 <1>  -0.1500 
 23 C      -13.6240     1.1690    -0.8570 C.ar  1 <1>   0.0000 
 24 C      -12.5980     2.1750    -2.8120 C.ar  1 <1>  -0.1500 
 25 C      -14.6830     0.7480    -1.6870 C.ar  1 <1>  -0.1500 
 26 C      -13.6380     1.7540    -3.5940 C.ar  1 <1>  -0.1500 
 27 C      -14.6920     1.0320    -3.0250 C.ar  1 <1>  -0.1500 
 28 H       -0.4070     2.4140    -2.2390 H     1 <1>   0.0800 
 29 H       -1.0810     3.7740    -1.3080 H     1 <1>   0.0800 
 30 H       -3.4060     0.1660     0.5280 H     1 <1>   0.1500 
 31 H       -4.8510     2.3390    -3.6850 H     1 <1>   0.1500 
 32 H       -6.3810     0.7750    -2.5070 H     1 <1>   0.1500 
 33 H       -5.4540    -1.0980     0.5950 H     1 <1>   0.0800 
 34 H       -6.3290    -1.3010    -0.9000 H     1 <1>   0.0800 
 35 H       -7.7590    -1.2870     1.7050 H     1 <1>   0.0800 
 36 H       -8.4960    -1.3640     0.1330 H     1 <1>   0.0800 
 37 H       -5.9780     1.8850     0.9250 H     1 <1>   0.0800 
 38 H       -6.1620     0.7010     2.1790 H     1 <1>   0.0800 
 39 H       -9.5550    -0.1320     2.4550 H     1 <1>   0.0800 
 40 H      -10.2470    -0.1740     0.8580 H     1 <1>   0.0800 
 41 H       -7.6790     3.0540     1.7610 H     1 <1>   0.0800 
 42 H       -7.9270     1.8520     2.9980 H     1 <1>   0.0800 
 43 H       -8.9470     1.6900     0.2680 H     1 <1>   0.4500 
 44 H      -10.0850     3.4780     1.4230 H     1 <1>   0.0800 
 45 H      -10.5730     2.3290     2.6510 H     1 <1>   0.0800 
 46 H      -10.7020     2.8650    -1.0670 H     1 <1>   0.1500 
 47 H      -12.5470     1.0830     2.3580 H     1 <1>   0.1500 
 48 H      -14.4100     0.3490     0.9530 H     1 <1>   0.1500 
 49 H      -11.7890     2.7320    -3.2500 H     1 <1>   0.1500 
 50 H      -15.4920     0.1940    -1.2460 H     1 <1>   0.1500 
 51 H      -13.6620     1.9700    -4.6480 H     1 <1>   0.1500 
 52 H      -15.5040     0.7080    -3.6540 H     1 <1>   0.1500 
@<TRIPOS>BOND
  1   1   2  1   
  2   1   3  1   
  3   2   4  ar  
  4   2   5  ar  
  5   3   6  1   
  6   3  28  1   
  7   3  29  1   
  8   4   6  1   
  9   4   7  ar  
 10   5   8  ar  
 11   5  30  1   
 12   7   9  ar  
 13   7  31  1   
 14   8   9  ar  
 15   8  10  1   
 16   9  32  1   
 17  10  11  1   
 18  10  33  1   
 19  10  34  1   
 20  11  12  1   
 21  11  13  1   
 22  12  14  1   
 23  12  35  1   
 24  12  36  1   
 25  13  15  1   
 26  13  37  1   
 27  13  38  1   
 28  14  16  1   
 29  14  39  1   
 30  14  40  1   
 31  15  16  1   
 32  15  41  1   
 33  15  42  1   
 34  16  17  1   
 35  16  43  1   
 36  17  18  1   
 37  17  44  1   
 38  17  45  1   
 39  18  19  ar  
 40  18  20  ar  
 41  19  21  ar  
 42  19  46  1   
 43  20  22  ar  
 44  20  47  1   
 45  21  23  ar  
 46  21  24  ar  
 47  22  23  ar  
 48  22  48  1   
 49  23  25  ar  
 50  24  26  ar  
 51  24  49  1   
 52  25  27  ar  
 53  25  50  1   
 54  26  27  ar  
 55  26  51  1   
 56  27  52  1   
@<TRIPOS>SUBSTRUCTURE
  1 ****  11 GROUP 4 **** **** 0

# MOE 2024.06 (io_trps.svl 2023.06)
