@<TRIPOS>MOLECULE
NONAME
49 50 1 0 0 
SMALL
USER_CHARGES


@<TRIPOS>ATOM
  1 O       -0.4360    -0.3520     0.6560 O.3   1 <1>  -0.3630 
  2 C       -1.5960    -0.7520     0.0720 C.ar  1 <1>   0.0830 
  3 C        0.7290    -0.6280    -0.0910 C.3   1 <1>   0.0400 
  4 C       -2.1840    -1.9800     0.4100 C.ar  1 <1>   0.0830 
  5 C       -2.1980     0.0450    -0.9110 C.ar  1 <1>   0.0830 
  6 O       -1.7630    -2.8380     1.3810 O.3   1 <1>  -0.3630 
  7 C       -3.3020    -2.4150    -0.2820 C.ar  1 <1>  -0.1500 
  8 O       -1.7620     1.2770    -1.2880 O.3   1 <1>  -0.3630 
  9 C       -3.3180    -0.4130    -1.5840 C.ar  1 <1>  -0.1500 
 10 C       -1.0140    -2.3990     2.4950 C.3   1 <1>   0.0400 
 11 C       -3.8800    -1.6410    -1.2740 C.ar  1 <1>  -0.1430 
 12 C       -1.3440     2.2060    -0.3090 C.3   1 <1>   0.0400 
 13 C       -5.1220    -2.1240    -1.9930 C.3   1 <1>   0.4860 
 14 N       -6.2620    -2.0290    -1.0260 N.4   1 <1>  -0.9590 
 15 C       -7.4410    -2.8370    -1.5070 C.3   1 <1>   0.3430 
 16 C       -6.5350    -0.5830    -0.7430 C.3   1 <1>   0.3430 
 17 C       -8.3150    -3.4260    -0.3600 C.3   1 <1>   0.3430 
 18 C       -7.8490    -0.3220    -0.0020 C.3   1 <1>  -0.1600 
 19 N       -9.0310    -2.4360     0.5320 N.4   1 <1>  -0.9590 
 20 C       -8.2000    -1.3270     1.0940 C.3   1 <1>   0.3430 
 21 C       -9.7050    -3.1700     1.6570 C.3   1 <1>   0.2630 
 22 H        1.5790    -0.2760     0.4650 H     1 <1>   0.0800 
 23 H        0.8010    -1.6910    -0.2440 H     1 <1>   0.0800 
 24 H        0.6700    -0.1170    -1.0360 H     1 <1>   0.0800 
 25 H       -3.6970    -3.3810    -0.0200 H     1 <1>   0.1500 
 26 H       -3.7310     0.2170    -2.3530 H     1 <1>   0.1500 
 27 H       -1.4240    -1.4730     2.8560 H     1 <1>   0.0800 
 28 H       -1.0760    -3.1520     3.2590 H     1 <1>   0.0800 
 29 H        0.0110    -2.2710     2.1980 H     1 <1>   0.0800 
 30 H       -1.4550     3.1950    -0.7150 H     1 <1>   0.0800 
 31 H       -0.3110     2.0290    -0.0730 H     1 <1>   0.0800 
 32 H       -1.9550     2.0980     0.5700 H     1 <1>   0.0800 
 33 H       -4.9700    -3.1450    -2.3050 H     1 <1>   0.0800 
 34 H       -5.3080    -1.5210    -2.8680 H     1 <1>   0.0800 
 35 H       -5.8710    -2.4440    -0.1680 H     1 <1>   0.4500 
 36 H       -7.0760    -3.6700    -2.0860 H     1 <1>   0.0800 
 37 H       -8.0550    -2.2410    -2.1630 H     1 <1>   0.0800 
 38 H       -6.5500    -0.0270    -1.6680 H     1 <1>   0.0800 
 39 H       -5.7210    -0.1880    -0.1530 H     1 <1>   0.0800 
 40 H       -7.6850    -4.0550     0.2470 H     1 <1>   0.0800 
 41 H       -9.0530    -4.0720    -0.8090 H     1 <1>   0.0800 
 42 H       -8.6590    -0.2230    -0.7040 H     1 <1>   0.0800 
 43 H       -7.7450     0.6430     0.4640 H     1 <1>   0.0800 
 44 H       -9.7940    -1.9950    -0.0100 H     1 <1>   0.4500 
 45 H       -8.7750    -0.8120     1.8490 H     1 <1>   0.0800 
 46 H       -7.3100    -1.7110     1.5660 H     1 <1>   0.0800 
 47 H       -8.9760    -3.6490     2.2900 H     1 <1>   0.0800 
 48 H      -10.3730    -3.9240     1.2710 H     1 <1>   0.0800 
 49 H      -10.2830    -2.4860     2.2600 H     1 <1>   0.0800 
@<TRIPOS>BOND
  1   1   2  1   
  2   1   3  1   
  3   2   4  ar  
  4   2   5  ar  
  5   3  22  1   
  6   3  23  1   
  7   3  24  1   
  8   4   6  1   
  9   4   7  ar  
 10   5   8  1   
 11   5   9  ar  
 12   6  10  1   
 13   7  11  ar  
 14   7  25  1   
 15   8  12  1   
 16   9  11  ar  
 17   9  26  1   
 18  10  27  1   
 19  10  28  1   
 20  10  29  1   
 21  11  13  1   
 22  12  30  1   
 23  12  31  1   
 24  12  32  1   
 25  13  14  1   
 26  13  33  1   
 27  13  34  1   
 28  14  15  1   
 29  14  16  1   
 30  14  35  1   
 31  15  17  1   
 32  15  36  1   
 33  15  37  1   
 34  16  18  1   
 35  16  38  1   
 36  16  39  1   
 37  17  19  1   
 38  17  40  1   
 39  17  41  1   
 40  18  20  1   
 41  18  42  1   
 42  18  43  1   
 43  19  20  1   
 44  19  21  1   
 45  19  44  1   
 46  20  45  1   
 47  20  46  1   
 48  21  47  1   
 49  21  48  1   
 50  21  49  1   
@<TRIPOS>SUBSTRUCTURE
  1 ****  11 GROUP 4 **** **** 0

# MOE 2024.06 (io_trps.svl 2023.06)
