@<TRIPOS>MOLECULE
NONAME
55 58 1 0 0 
SMALL
USER_CHARGES


@<TRIPOS>ATOM
  1 O        0.8990     1.0200     1.2600 O.2   1 <1>  -0.5700 
  2 C        0.7580     1.9100     0.4420 C.2   1 <1>   0.5440 
  3 N       -0.4940     2.4560     0.2720 N.am  1 <1>  -0.6600 
  4 C        1.8660     2.2790    -0.4080 C.ar  1 <1>   0.0860 
  5 C       -0.6580     3.8540    -0.2790 C.3   1 <1>   0.2810 
  6 C       -1.6160     1.4810     0.1110 C.3   1 <1>   0.1400 
  7 C        2.2940     3.6050    -0.5660 C.ar  1 <1>   0.1170 
  8 C        2.5330     1.2780    -1.1170 C.ar  1 <1>  -0.1500 
  9 C        0.3650     4.8600     0.3200 C.2   1 <1>   0.5690 
 10 C       -2.1040     4.3690    -0.0840 C.3   1 <1>  -0.1600 
 11 C       -2.9890     2.1010     0.3610 C.3   1 <1>  -0.1600 
 12 N        1.7220     4.6550     0.1700 N.am  1 <1>  -0.4770 
 13 C        3.3290     3.8850    -1.4580 C.ar  1 <1>  -0.1500 
 14 C        3.5670     1.5680    -1.9840 C.ar  1 <1>  -0.1500 
 15 O       -0.0330     5.8510     0.8990 O.2   1 <1>  -0.5700 
 16 C       -3.1790     3.3590    -0.4820 C.3   1 <1>  -0.1600 
 17 C        2.6720     5.5350     0.9360 C.3   1 <1>   0.2010 
 18 C        3.9620     2.8810    -2.1610 C.ar  1 <1>  -0.1500 
 19 C        2.9120     6.8890     0.2710 C.2   1 <1>   0.5690 
 20 O        4.0060     7.1160    -0.1880 O.2   1 <1>  -0.5700 
 21 N        1.8690     7.7710     0.2250 N.am  1 <1>  -0.5470 
 22 C        1.7370     9.0630    -0.3060 C.ar  1 <1>   0.1170 
 23 C        0.4560     9.5800    -0.4570 C.ar  1 <1>  -0.1500 
 24 C        2.8170     9.8560    -0.6810 C.ar  1 <1>  -0.1500 
 25 C        0.2570    10.8490    -0.9690 C.ar  1 <1>  -0.1500 
 26 C        2.6190    11.1250    -1.1930 C.ar  1 <1>  -0.1500 
 27 C        1.3380    11.6390    -1.3380 C.ar  1 <1>   0.1170 
 28 N        1.1580    12.9240    -1.8600 N.am  1 <1>  -0.5470 
 29 C        0.4770    13.9880    -1.3640 C.2   1 <1>   0.5690 
 30 O        0.4180    15.0100    -1.9950 O.2   1 <1>  -0.5700 
 31 C       -0.1980    13.9220    -0.0140 C.3   1 <1>  -0.1790 
 32 H       -0.4750     3.8050    -1.3380 H     1 <1>   0.0800 
 33 H       -1.4800     0.6550     0.7900 H     1 <1>   0.0800 
 34 H       -1.5840     1.0880    -0.8910 H     1 <1>   0.0800 
 35 H        2.2260     0.2550    -0.9780 H     1 <1>   0.1500 
 36 H       -2.2340     5.2710    -0.6550 H     1 <1>   0.0800 
 37 H       -2.2470     4.6250     0.9530 H     1 <1>   0.0800 
 38 H       -3.0840     2.3340     1.4080 H     1 <1>   0.0800 
 39 H       -3.7500     1.3810     0.1160 H     1 <1>   0.0800 
 40 H        3.6500     4.9010    -1.6080 H     1 <1>   0.1500 
 41 H        4.0640     0.7770    -2.5220 H     1 <1>   0.1500 
 42 H       -3.1010     3.1230    -1.5290 H     1 <1>   0.0800 
 43 H       -4.1550     3.7750    -0.2990 H     1 <1>   0.0800 
 44 H        3.6170     5.0340     1.0440 H     1 <1>   0.0800 
 45 H        2.2850     5.7000     1.9260 H     1 <1>   0.0800 
 46 H        4.7630     3.1170    -2.8410 H     1 <1>   0.1500 
 47 H        0.9890     7.3680     0.5790 H     1 <1>   0.3700 
 48 H       -0.3930     8.9830    -0.1750 H     1 <1>   0.1500 
 49 H        3.8200     9.4880    -0.5730 H     1 <1>   0.1500 
 50 H       -0.7420    11.2250    -1.0910 H     1 <1>   0.1500 
 51 H        3.4670    11.7230    -1.4760 H     1 <1>   0.1500 
 52 H        1.6470    13.1380    -2.7290 H     1 <1>   0.3700 
 53 H        0.4080    13.3710     0.6800 H     1 <1>   0.0800 
 54 H       -1.1560    13.4490    -0.1120 H     1 <1>   0.0800 
 55 H       -0.3390    14.9170     0.3650 H     1 <1>   0.0800 
@<TRIPOS>BOND
  1   1   2  2   
  2   2   3  am  
  3   2   4  1   
  4   3   5  1   
  5   3   6  1   
  6   4   7  ar  
  7   4   8  ar  
  8   5   9  1   
  9   5  10  1   
 10   5  32  1   
 11   6  11  1   
 12   6  33  1   
 13   6  34  1   
 14   7  12  1   
 15   7  13  ar  
 16   8  14  ar  
 17   8  35  1   
 18   9  12  am  
 19   9  15  2   
 20  10  16  1   
 21  10  36  1   
 22  10  37  1   
 23  11  16  1   
 24  11  38  1   
 25  11  39  1   
 26  12  17  1   
 27  13  18  ar  
 28  13  40  1   
 29  14  18  ar  
 30  14  41  1   
 31  16  42  1   
 32  16  43  1   
 33  17  19  1   
 34  17  44  1   
 35  17  45  1   
 36  18  46  1   
 37  19  20  2   
 38  19  21  am  
 39  21  22  1   
 40  21  47  1   
 41  22  23  ar  
 42  22  24  ar  
 43  23  25  ar  
 44  23  48  1   
 45  24  26  ar  
 46  24  49  1   
 47  25  27  ar  
 48  25  50  1   
 49  26  27  ar  
 50  26  51  1   
 51  27  28  1   
 52  28  29  am  
 53  28  52  1   
 54  29  30  2   
 55  29  31  1   
 56  31  53  1   
 57  31  54  1   
 58  31  55  1   
@<TRIPOS>SUBSTRUCTURE
  1 ****  21 GROUP 4 **** **** 0

# MOE 2024.06 (io_trps.svl 2023.06)
