@<TRIPOS>MOLECULE
NONAME
37 37 1 0 0 
SMALL
USER_CHARGES


@<TRIPOS>ATOM
  1 O        1.4510     3.3090    -1.3340 O.2   1 <1>  -0.5700 
  2 C        0.9070     3.0090    -0.2860 C.2   1 <1>   0.5440 
  3 N        1.6960     2.5050     0.7050 N.am  1 <1>  -0.7300 
  4 C       -0.5260     3.1970    -0.1130 C.ar  1 <1>   0.0860 
  5 C        3.1510     2.2720     0.6350 C.3   1 <1>   0.2200 
  6 C       -1.3000     2.5590     0.8780 C.ar  1 <1>   0.0830 
  7 C       -1.1980     4.0660    -0.9800 C.ar  1 <1>  -0.1500 
  8 C        3.4290     1.0140    -0.2050 C.3   1 <1>   0.1200 
  9 C        3.6610     2.1600     2.0720 C.3   1 <1>  -0.2400 
 10 O       -0.6950     1.6940     1.7360 O.3   1 <1>  -0.3630 
 11 C       -2.6680     2.8090     0.9700 C.ar  1 <1>  -0.1500 
 12 C       -2.5530     4.3080    -0.8870 C.ar  1 <1>  -0.1500 
 13 O        4.7900     0.6960    -0.1700 O.3   1 <1>  -0.5600 
 14 C       -1.4020     0.9550     2.7100 C.3   1 <1>   0.0400 
 15 C       -3.2990     3.6760     0.0990 C.ar  1 <1>   0.0830 
 16 C        5.1320    -0.3830    -0.9770 C.3   1 <1>   0.0400 
 17 O       -4.6300     3.8530     0.2670 O.3   1 <1>  -0.3620 
 18 C       -5.3750     4.7100    -0.5700 C.3   1 <1>   0.0400 
 19 H        1.2180     2.1330     1.5310 H     1 <1>   0.3700 
 20 H        3.6120     3.1170     0.1500 H     1 <1>   0.0800 
 21 H       -0.6340     4.5660    -1.7500 H     1 <1>   0.1500 
 22 H        3.1450     1.1970    -1.2270 H     1 <1>   0.0800 
 23 H        2.8770     0.1790     0.1880 H     1 <1>   0.0800 
 24 H        3.2330     1.3030     2.5600 H     1 <1>   0.0800 
 25 H        3.4200     3.0510     2.6220 H     1 <1>   0.0800 
 26 H        4.7310     2.0470     2.0670 H     1 <1>   0.0800 
 27 H       -3.2800     2.3420     1.7150 H     1 <1>   0.1500 
 28 H       -3.0080     4.9870    -1.5830 H     1 <1>   0.1500 
 29 H       -0.7010     0.3260     3.2290 H     1 <1>   0.0800 
 30 H       -2.1430     0.3470     2.2190 H     1 <1>   0.0800 
 31 H       -1.8610     1.6370     3.4030 H     1 <1>   0.0800 
 32 H        6.1890    -0.5530    -0.8790 H     1 <1>   0.0800 
 33 H        4.8950    -0.1490    -2.0010 H     1 <1>   0.0800 
 34 H        4.5910    -1.2550    -0.6520 H     1 <1>   0.0800 
 35 H       -6.4000     4.6850    -0.2460 H     1 <1>   0.0800 
 36 H       -5.3040     4.3570    -1.5840 H     1 <1>   0.0800 
 37 H       -4.9880     5.7090    -0.4810 H     1 <1>   0.0800 
@<TRIPOS>BOND
  1   1   2  2   
  2   2   3  am  
  3   2   4  1   
  4   3   5  1   
  5   3  19  1   
  6   4   6  ar  
  7   4   7  ar  
  8   5   8  1   
  9   5   9  1   
 10   5  20  1   
 11   6  10  1   
 12   6  11  ar  
 13   7  12  ar  
 14   7  21  1   
 15   8  13  1   
 16   8  22  1   
 17   8  23  1   
 18   9  24  1   
 19   9  25  1   
 20   9  26  1   
 21  10  14  1   
 22  11  15  ar  
 23  11  27  1   
 24  12  15  ar  
 25  12  28  1   
 26  13  16  1   
 27  14  29  1   
 28  14  30  1   
 29  14  31  1   
 30  15  17  1   
 31  16  32  1   
 32  16  33  1   
 33  16  34  1   
 34  17  18  1   
 35  18  35  1   
 36  18  36  1   
 37  18  37  1   
@<TRIPOS>SUBSTRUCTURE
  1 ****   4 GROUP 4 **** **** 0

# MOE 2024.06 (io_trps.svl 2023.06)
