@<TRIPOS>MOLECULE
NONAME
47 48 1 0 0 
SMALL
USER_CHARGES


@<TRIPOS>ATOM
  1 O       -3.3410     3.9510    -1.9350 O.2   1 <1>  -0.5700 
  2 C       -3.2690     3.8050    -0.7430 C.2   1 <1>   0.6590 
  3 O       -2.2130     4.1740    -0.0360 O.3   1 <1>  -0.4300 
  4 C       -4.4130     3.1700     0.0420 C.3   1 <1>  -0.0190 
  5 C       -1.0920     4.7700    -0.6480 C.3   1 <1>   0.1200 
  6 C       -4.5920     1.6920    -0.3520 C.3   1 <1>  -0.1600 
  7 C       -5.7290     3.9430    -0.1700 C.3   1 <1>  -0.1600 
  8 C       -0.0630     5.0680     0.4380 C.3   1 <1>  -0.2400 
  9 C       -5.8080     1.0600     0.3240 C.3   1 <1>   0.3430 
 10 C       -6.9150     3.2550     0.5010 C.3   1 <1>   0.3430 
 11 N       -7.0280     1.8530    -0.0030 N.4   1 <1>  -0.9590 
 12 C       -8.2490     1.1560     0.5270 C.3   1 <1>   0.3430 
 13 C       -9.5560     1.7370    -0.0220 C.3   1 <1>   0.1200 
 14 O      -10.6060     0.9910     0.5390 O.3   1 <1>  -0.3630 
 15 C      -11.9020     1.2720     0.2530 C.ar  1 <1>   0.0820 
 16 C      -12.8610     0.5050     0.8930 C.ar  1 <1>  -0.1500 
 17 C      -12.3040     2.2710    -0.6300 C.ar  1 <1>  -0.1500 
 18 C      -14.2070     0.7270     0.6600 C.ar  1 <1>  -0.1500 
 19 C      -13.6520     2.4890    -0.8590 C.ar  1 <1>  -0.1500 
 20 C      -14.6090     1.7200    -0.2180 C.ar  1 <1>  -0.1440 
 21 C      -16.0850     1.9640    -0.4720 C.3   1 <1>  -0.0970 
 22 H       -4.1560     3.2160     1.0870 H     1 <1>   0.0800 
 23 H       -1.4090     5.6750    -1.1390 H     1 <1>   0.0800 
 24 H       -0.6950     4.0840    -1.3790 H     1 <1>   0.0800 
 25 H       -3.7100     1.1410    -0.0740 H     1 <1>   0.0800 
 26 H       -4.6970     1.6060    -1.4210 H     1 <1>   0.0800 
 27 H       -5.9310     4.0470    -1.2230 H     1 <1>   0.0800 
 28 H       -5.6250     4.9370     0.2330 H     1 <1>   0.0800 
 29 H       -0.4730     5.7460     1.1640 H     1 <1>   0.0800 
 30 H        0.8050     5.5240    -0.0030 H     1 <1>   0.0800 
 31 H        0.2400     4.1580     0.9240 H     1 <1>   0.0800 
 32 H       -5.6590     1.0390     1.3920 H     1 <1>   0.0800 
 33 H       -5.9210     0.0450    -0.0220 H     1 <1>   0.0800 
 34 H       -7.8150     3.8070     0.2810 H     1 <1>   0.0800 
 35 H       -6.7750     3.2500     1.5710 H     1 <1>   0.0800 
 36 H       -7.0920     1.8910    -1.0300 H     1 <1>   0.4500 
 37 H       -8.2640     1.2200     1.6030 H     1 <1>   0.0800 
 38 H       -8.2110     0.1140     0.2520 H     1 <1>   0.0800 
 39 H       -9.6060     1.6320    -1.0910 H     1 <1>   0.0800 
 40 H       -9.6870     2.7620     0.2750 H     1 <1>   0.0800 
 41 H      -12.5540    -0.2670     1.5740 H     1 <1>   0.1500 
 42 H      -11.5980     2.8880    -1.1490 H     1 <1>   0.1500 
 43 H      -14.9400     0.1230     1.1660 H     1 <1>   0.1500 
 44 H      -13.9570     3.2640    -1.5420 H     1 <1>   0.1500 
 45 H      -16.6430     1.0510    -0.3610 H     1 <1>   0.0800 
 46 H      -16.2400     2.3350    -1.4690 H     1 <1>   0.0800 
 47 H      -16.4600     2.6870     0.2300 H     1 <1>   0.0800 
@<TRIPOS>BOND
  1   1   2  2   
  2   2   3  1   
  3   2   4  1   
  4   3   5  1   
  5   4   6  1   
  6   4   7  1   
  7   4  22  1   
  8   5   8  1   
  9   5  23  1   
 10   5  24  1   
 11   6   9  1   
 12   6  25  1   
 13   6  26  1   
 14   7  10  1   
 15   7  27  1   
 16   7  28  1   
 17   8  29  1   
 18   8  30  1   
 19   8  31  1   
 20   9  11  1   
 21   9  32  1   
 22   9  33  1   
 23  10  11  1   
 24  10  34  1   
 25  10  35  1   
 26  11  12  1   
 27  11  36  1   
 28  12  13  1   
 29  12  37  1   
 30  12  38  1   
 31  13  14  1   
 32  13  39  1   
 33  13  40  1   
 34  14  15  1   
 35  15  16  ar  
 36  15  17  ar  
 37  16  18  ar  
 38  16  41  1   
 39  17  19  ar  
 40  17  42  1   
 41  18  20  ar  
 42  18  43  1   
 43  19  20  ar  
 44  19  44  1   
 45  20  21  1   
 46  21  45  1   
 47  21  46  1   
 48  21  47  1   
@<TRIPOS>SUBSTRUCTURE
  1 ****  11 GROUP 4 **** **** 0

# MOE 2024.06 (io_trps.svl 2023.06)
