@<TRIPOS>MOLECULE
NONAME
37 38 1 0 0 
SMALL
USER_CHARGES


@<TRIPOS>ATOM
  1 CL       4.6950    -1.9760     1.3660 Cl    1 <1>  -0.1770 
  2 C        4.8630    -0.2980     0.9300 C.ar  1 <1>   0.1770 
  3 C        5.0470     0.6460     1.9220 C.ar  1 <1>  -0.1500 
  4 C        4.8270     0.0610    -0.4040 C.ar  1 <1>  -0.1500 
  5 C        5.2180     1.9750     1.5700 C.ar  1 <1>  -0.1500 
  6 C        4.9980     1.3910    -0.7510 C.ar  1 <1>  -0.1500 
  7 C        5.2050     2.3490     0.2330 C.ar  1 <1>  -0.1430 
  8 C        5.4610     3.7980    -0.1710 C.3   1 <1>   0.0440 
  9 C        6.8740     3.8790    -0.7020 C.2   1 <1>   0.6590 
 10 O        7.1160     3.9930    -1.8740 O.2   1 <1>  -0.5700 
 11 O        7.8290     3.6200     0.1830 O.3   1 <1>  -0.4300 
 12 C        9.1250     3.2240    -0.2280 C.3   1 <1>   0.2000 
 13 C        9.0140     1.8560    -0.9400 C.3   1 <1>   0.3430 
 14 C        9.9920     3.0790     1.0350 C.3   1 <1>  -0.1600 
 15 N        8.2840     0.8450    -0.0790 N.4   1 <1>  -0.9590 
 16 C        9.9300     1.6600     1.6450 C.3   1 <1>  -0.1600 
 17 C        8.5900     0.9560     1.3890 C.3   1 <1>   0.3430 
 18 C        8.4830    -0.5460    -0.5820 C.3   1 <1>   0.2630 
 19 H        5.0490     0.3420     2.9550 H     1 <1>   0.1500 
 20 H        4.6570    -0.6900    -1.1550 H     1 <1>   0.1500 
 21 H        5.3600     2.7130     2.3430 H     1 <1>   0.1500 
 22 H        4.9660     1.6760    -1.7910 H     1 <1>   0.1500 
 23 H        5.3540     4.4620     0.6670 H     1 <1>   0.0800 
 24 H        4.7700     4.1000    -0.9370 H     1 <1>   0.0800 
 25 H        9.5220     3.9820    -0.8820 H     1 <1>   0.0800 
 26 H       10.0100     1.5030    -1.1470 H     1 <1>   0.0800 
 27 H        8.5060     1.9810    -1.8820 H     1 <1>   0.0800 
 28 H        9.6860     3.8150     1.7600 H     1 <1>   0.0800 
 29 H       11.0170     3.2930     0.7830 H     1 <1>   0.0800 
 30 H        7.2760     1.0670    -0.1600 H     1 <1>   0.4500 
 31 H       10.0980     1.7250     2.7060 H     1 <1>   0.0800 
 32 H       10.7200     1.0520     1.2390 H     1 <1>   0.0800 
 33 H        8.5930    -0.0220     1.8450 H     1 <1>   0.0800 
 34 H        7.8140     1.5350     1.8630 H     1 <1>   0.0800 
 35 H        9.5190    -0.8310    -0.4950 H     1 <1>   0.0800 
 36 H        8.1900    -0.6140    -1.6170 H     1 <1>   0.0800 
 37 H        7.8840    -1.2370    -0.0110 H     1 <1>   0.0800 
@<TRIPOS>BOND
  1   1   2  1   
  2   2   3  ar  
  3   2   4  ar  
  4   3   5  ar  
  5   3  19  1   
  6   4   6  ar  
  7   4  20  1   
  8   5   7  ar  
  9   5  21  1   
 10   6   7  ar  
 11   6  22  1   
 12   7   8  1   
 13   8   9  1   
 14   8  23  1   
 15   8  24  1   
 16   9  10  2   
 17   9  11  1   
 18  11  12  1   
 19  12  13  1   
 20  12  14  1   
 21  12  25  1   
 22  13  15  1   
 23  13  26  1   
 24  13  27  1   
 25  14  16  1   
 26  14  28  1   
 27  14  29  1   
 28  15  17  1   
 29  15  18  1   
 30  15  30  1   
 31  16  17  1   
 32  16  31  1   
 33  16  32  1   
 34  17  33  1   
 35  17  34  1   
 36  18  35  1   
 37  18  36  1   
 38  18  37  1   
@<TRIPOS>SUBSTRUCTURE
  1 ****  15 GROUP 4 **** **** 0

# MOE 2024.06 (io_trps.svl 2023.06)
