@<TRIPOS>MOLECULE
NONAME
37 39 1 0 0 
SMALL
USER_CHARGES


@<TRIPOS>ATOM
  1 O        0.4800     0.6070    -0.1850 O.2   1 <1>  -0.5700 
  2 C        0.3300     1.7730     0.1350 C.2   1 <1>   0.5440 
  3 N        1.3530     2.6350    -0.1280 N.am  1 <1>  -0.7300 
  4 C       -0.9090     2.2180     0.7620 C.ar  1 <1>   0.0860 
  5 C        2.6760     2.2920    -0.6770 C.3   1 <1>   0.2200 
  6 C       -1.0540     3.4260     1.4760 C.ar  1 <1>   0.0830 
  7 C       -2.0410     1.4040     0.6550 C.ar  1 <1>  -0.1500 
  8 C        3.7870     2.3050     0.3960 C.3   1 <1>  -0.0800 
  9 C        3.1490     3.3630    -1.6730 C.3   1 <1>  -0.1600 
 10 O        0.0210     4.2460     1.6190 O.3   1 <1>  -0.3620 
 11 C       -2.2870     3.7690     2.0330 C.ar  1 <1>  -0.1500 
 12 C       -3.2570     1.7490     1.2120 C.ar  1 <1>  -0.1500 
 13 C        5.0160     2.5470    -0.4680 C.3   1 <1>  -0.1600 
 14 C        3.7600     3.6130     1.2130 C.3   1 <1>  -0.1600 
 15 C        4.4860     3.8360    -1.0750 C.3   1 <1>  -0.0800 
 16 C        0.0000     5.4270     2.3910 C.3   1 <1>   0.0400 
 17 C       -3.3810     2.9370     1.9030 C.ar  1 <1>  -0.1500 
 18 C        4.1910     4.6710     0.1820 C.3   1 <1>  -0.1600 
 19 H        1.2790     3.5720     0.2760 H     1 <1>   0.3700 
 20 H        2.6410     1.3290    -1.1600 H     1 <1>   0.0800 
 21 H       -1.9640     0.4730     0.1200 H     1 <1>   0.1500 
 22 H        3.8210     1.4060     0.9870 H     1 <1>   0.0800 
 23 H        2.4460     4.1690    -1.7840 H     1 <1>   0.0800 
 24 H        3.3180     2.9060    -2.6310 H     1 <1>   0.0800 
 25 H       -2.4200     4.6840     2.5760 H     1 <1>   0.1500 
 26 H       -4.1050     1.0930     1.1070 H     1 <1>   0.1500 
 27 H        5.1710     1.7720    -1.2000 H     1 <1>   0.0800 
 28 H        5.9130     2.6940     0.1100 H     1 <1>   0.0800 
 29 H        4.4850     3.5590     2.0070 H     1 <1>   0.0800 
 30 H        2.7990     3.8220     1.6450 H     1 <1>   0.0800 
 31 H        5.1400     4.3180    -1.7830 H     1 <1>   0.0800 
 32 H        0.9850     5.8590     2.3690 H     1 <1>   0.0800 
 33 H       -0.2650     5.1790     3.4040 H     1 <1>   0.0800 
 34 H       -0.7080     6.1140     1.9630 H     1 <1>   0.0800 
 35 H       -4.3280     3.2110     2.3370 H     1 <1>   0.1500 
 36 H        5.0810     5.1750     0.5160 H     1 <1>   0.0800 
 37 H        3.4180     5.3990     0.0050 H     1 <1>   0.0800 
@<TRIPOS>BOND
  1   1   2  2   
  2   2   3  am  
  3   2   4  1   
  4   3   5  1   
  5   3  19  1   
  6   4   6  ar  
  7   4   7  ar  
  8   5   8  1   
  9   5   9  1   
 10   5  20  1   
 11   6  10  1   
 12   6  11  ar  
 13   7  12  ar  
 14   7  21  1   
 15   8  13  1   
 16   8  14  1   
 17   8  22  1   
 18   9  15  1   
 19   9  23  1   
 20   9  24  1   
 21  10  16  1   
 22  11  17  ar  
 23  11  25  1   
 24  12  17  ar  
 25  12  26  1   
 26  13  15  1   
 27  13  27  1   
 28  13  28  1   
 29  14  18  1   
 30  14  29  1   
 31  14  30  1   
 32  15  18  1   
 33  15  31  1   
 34  16  32  1   
 35  16  33  1   
 36  16  34  1   
 37  17  35  1   
 38  18  36  1   
 39  18  37  1   
@<TRIPOS>SUBSTRUCTURE
  1 ****   3 GROUP 4 **** **** 0

# MOE 2024.06 (io_trps.svl 2023.06)
