@<TRIPOS>MOLECULE
NONAME
41 45 1 0 0 
SMALL
USER_CHARGES


@<TRIPOS>ATOM
  1 O        0.3520     1.3960    -1.6950 O.2   1 <1>  -0.5700 
  2 C        0.3760     2.0930    -0.7140 C.2   1 <1>   0.5690 
  3 N        1.4540     2.3890     0.1080 N.am  1 <1>  -0.2370 
  4 C       -0.8280     2.7860    -0.1450 C.3   1 <1>  -0.0190 
  5 C        2.7030     1.7230     0.1020 C.ar  1 <1>   0.1170 
  6 C        1.1030     3.4490     0.9330 C.2   1 <1>   0.5690 
  7 C       -2.2410     3.1460    -0.6740 C.3   1 <1>   0.1530 
  8 C       -0.1490     4.0600     0.3730 C.3   1 <1>  -0.0190 
  9 C        2.7790     0.3510    -0.1200 C.ar  1 <1>  -0.1500 
 10 C        3.8890     2.4220     0.3120 C.ar  1 <1>  -0.1500 
 11 O        1.6800     3.8670     1.9030 O.2   1 <1>  -0.5700 
 12 C       -2.9640     3.3350     0.6680 C.2   1 <1>  -0.2880 
 13 C       -2.2310     4.5590    -1.3380 C.3   1 <1>  -0.1950 
 14 C       -1.2290     5.0340     0.9290 C.3   1 <1>   0.1530 
 15 C        3.9990    -0.3010    -0.1310 C.ar  1 <1>  -0.1500 
 16 C        5.1120     1.7750     0.3020 C.ar  1 <1>  -0.1500 
 17 C       -2.4240     4.2500     1.4890 C.2   1 <1>  -0.2880 
 18 C       -1.7710     5.6620    -0.3960 C.3   1 <1>  -0.1950 
 19 C       -3.1630     5.6760    -0.9730 C.3   1 <1>  -0.2000 
 20 C        5.1720     0.4040     0.0840 C.ar  1 <1>   0.0830 
 21 O        6.3360    -0.3010     0.0480 O.3   1 <1>  -0.2330 
 22 C        7.4810    -0.0460     0.6770 C.2   1 <1>   0.6590 
 23 O        7.6420     0.8580     1.4540 O.2   1 <1>  -0.5700 
 24 C        8.6100    -0.9930     0.3550 C.3   1 <1>  -0.1790 
 25 H       -1.0200     2.1400     0.6990 H     1 <1>   0.0800 
 26 H       -2.6880     2.3750    -1.2790 H     1 <1>   0.0800 
 27 H        0.2750     4.5810    -0.4720 H     1 <1>   0.0800 
 28 H        1.8820    -0.2170    -0.2910 H     1 <1>   0.1500 
 29 H        3.8640     3.4830     0.4890 H     1 <1>   0.1500 
 30 H       -3.8250     2.7150     0.8550 H     1 <1>   0.1500 
 31 H       -1.8140     4.5510    -2.3310 H     1 <1>   0.1000 
 32 H       -0.8380     5.7750     1.6060 H     1 <1>   0.0800 
 33 H        4.0420    -1.3610    -0.3070 H     1 <1>   0.1500 
 34 H        6.0070     2.3490     0.4610 H     1 <1>   0.1500 
 35 H       -2.7590     4.5150     2.4780 H     1 <1>   0.1500 
 36 H       -1.1120     6.4210    -0.7830 H     1 <1>   0.1000 
 37 H       -4.0060     5.5050    -0.3250 H     1 <1>   0.1000 
 38 H       -3.3940     6.4090    -1.7270 H     1 <1>   0.1000 
 39 H        8.3300    -1.9920     0.6290 H     1 <1>   0.0800 
 40 H        9.4890    -0.7090     0.9030 H     1 <1>   0.0800 
 41 H        8.8210    -0.9560    -0.6970 H     1 <1>   0.0800 
@<TRIPOS>BOND
  1   1   2  2   
  2   2   3  am  
  3   2   4  1   
  4   3   5  1   
  5   3   6  am  
  6   4   7  1   
  7   4   8  1   
  8   4  25  1   
  9   5   9  ar  
 10   5  10  ar  
 11   6   8  1   
 12   6  11  2   
 13   7  12  1   
 14   7  13  1   
 15   7  26  1   
 16   8  14  1   
 17   8  27  1   
 18   9  15  ar  
 19   9  28  1   
 20  10  16  ar  
 21  10  29  1   
 22  12  17  2   
 23  12  30  1   
 24  13  18  1   
 25  13  19  1   
 26  13  31  1   
 27  14  17  1   
 28  14  18  1   
 29  14  32  1   
 30  15  20  ar  
 31  15  33  1   
 32  16  20  ar  
 33  16  34  1   
 34  17  35  1   
 35  18  19  1   
 36  18  36  1   
 37  19  37  1   
 38  19  38  1   
 39  20  21  1   
 40  21  22  1   
 41  22  23  2   
 42  22  24  1   
 43  24  39  1   
 44  24  40  1   
 45  24  41  1   
@<TRIPOS>SUBSTRUCTURE
  1 ****   3 GROUP 4 **** **** 0

# MOE 2024.06 (io_trps.svl 2023.06)
