@<TRIPOS>MOLECULE
NONAME
49 51 1 0 0 
SMALL
USER_CHARGES


@<TRIPOS>ATOM
  1 O       -1.3750     3.2070     2.3080 O.2   1 <1>  -0.5700 
  2 C       -1.3050     3.5310     1.1340 C.2   1 <1>   0.7150 
  3 N       -2.4900     3.7560     0.4600 N.am  1 <1>  -0.6600 
  4 C        0.0050     3.6580     0.5260 C.2   1 <1>   0.0550 
  5 C       -2.6310     4.5410    -0.8010 C.3   1 <1>   0.1400 
  6 C       -3.7830     3.1670     0.9150 C.3   1 <1>   0.1400 
  7 O        0.2100     3.5300    -0.7850 O.3   1 <1>  -0.2800 
  8 C        1.2110     3.8800     1.1210 C.2   1 <1>  -0.1500 
  9 C       -3.2700     3.6710    -1.8970 C.3   1 <1>   0.1100 
 10 C       -4.4200     2.3420    -0.2170 C.3   1 <1>   0.1100 
 11 C        1.4920     3.6710    -1.0340 C.2   1 <1>  -0.0100 
 12 C        2.1720     3.8920     0.1100 C.2   1 <1>  -0.1500 
 13 N       -4.5780     3.1400    -1.4590 N.3   1 <1>  -0.8100 
 14 C       -5.2230     2.3360    -2.5420 C.3   1 <1>   0.1710 
 15 C       -6.7180     2.0850    -2.3260 C.2   1 <1>   0.5690 
 16 O       -7.2500     1.1710    -2.9100 O.2   1 <1>  -0.5700 
 17 N       -7.3580     2.9260    -1.4640 N.am  1 <1>  -0.5470 
 18 C       -8.6650     3.0050    -0.9560 C.ar  1 <1>   0.1170 
 19 C       -8.9010     3.8290     0.1510 C.ar  1 <1>   0.0820 
 20 C       -9.7300     2.3090    -1.5150 C.ar  1 <1>  -0.1500 
 21 O       -7.8280     4.4970     0.6730 O.3   1 <1>  -0.3620 
 22 C      -10.1860     3.9400     0.6740 C.ar  1 <1>  -0.1500 
 23 C      -11.0050     2.4220    -0.9900 C.ar  1 <1>  -0.1500 
 24 C       -7.9960     5.4970     1.6510 C.3   1 <1>   0.1200 
 25 C      -11.2340     3.2370     0.1030 C.ar  1 <1>  -0.1500 
 26 C       -6.6270     6.1010     1.9480 C.3   1 <1>  -0.2400 
 27 H       -1.6860     4.9230    -1.1350 H     1 <1>   0.0800 
 28 H       -3.2710     5.3850    -0.6150 H     1 <1>   0.0800 
 29 H       -4.4530     3.9570     1.2000 H     1 <1>   0.0800 
 30 H       -3.6310     2.5330     1.7720 H     1 <1>   0.0800 
 31 H        1.3990     4.0150     2.1720 H     1 <1>   0.1500 
 32 H       -2.6010     2.8620    -2.1400 H     1 <1>   0.0800 
 33 H       -3.4050     4.2730    -2.7790 H     1 <1>   0.0800 
 34 H       -5.3790     1.9880     0.1190 H     1 <1>   0.0800 
 35 H       -3.8000     1.4820    -0.4100 H     1 <1>   0.0800 
 36 H        1.8430     3.5980    -2.0490 H     1 <1>   0.1500 
 37 H        3.2280     4.0460     0.2470 H     1 <1>   0.1500 
 38 H       -4.7230     1.3890    -2.6440 H     1 <1>   0.0800 
 39 H       -5.1290     2.8600    -3.4760 H     1 <1>   0.0800 
 40 H       -6.7070     3.5840    -1.0180 H     1 <1>   0.3700 
 41 H       -9.5690     1.6740    -2.3670 H     1 <1>   0.1500 
 42 H      -10.3950     4.5610     1.5230 H     1 <1>   0.1500 
 43 H      -11.8170     1.8740    -1.4360 H     1 <1>   0.1500 
 44 H       -8.4110     5.0460     2.5350 H     1 <1>   0.0800 
 45 H       -8.6660     6.2450     1.2610 H     1 <1>   0.0800 
 46 H      -12.2270     3.3230     0.5100 H     1 <1>   0.1500 
 47 H       -5.9750     5.3540     2.3630 H     1 <1>   0.0800 
 48 H       -6.7290     6.8980     2.6620 H     1 <1>   0.0800 
 49 H       -6.1930     6.4990     1.0480 H     1 <1>   0.0800 
@<TRIPOS>BOND
  1   1   2  2   
  2   2   3  am  
  3   2   4  1   
  4   3   5  1   
  5   3   6  1   
  6   4   7  1   
  7   4   8  2   
  8   5   9  1   
  9   5  27  1   
 10   5  28  1   
 11   6  10  1   
 12   6  29  1   
 13   6  30  1   
 14   7  11  1   
 15   8  12  1   
 16   8  31  1   
 17   9  13  1   
 18   9  32  1   
 19   9  33  1   
 20  10  13  1   
 21  10  34  1   
 22  10  35  1   
 23  11  12  2   
 24  11  36  1   
 25  12  37  1   
 26  13  14  1   
 27  14  15  1   
 28  14  38  1   
 29  14  39  1   
 30  15  16  2   
 31  15  17  am  
 32  17  18  1   
 33  17  40  1   
 34  18  19  ar  
 35  18  20  ar  
 36  19  21  1   
 37  19  22  ar  
 38  20  23  ar  
 39  20  41  1   
 40  21  24  1   
 41  22  25  ar  
 42  22  42  1   
 43  23  25  ar  
 44  23  43  1   
 45  24  26  1   
 46  24  44  1   
 47  24  45  1   
 48  25  46  1   
 49  26  47  1   
 50  26  48  1   
 51  26  49  1   
@<TRIPOS>SUBSTRUCTURE
  1 ****  10 GROUP 4 **** **** 0

# MOE 2024.06 (io_trps.svl 2023.06)
