@<TRIPOS>MOLECULE
NONAME
28 30 1 0 0 
SMALL
USER_CHARGES


@<TRIPOS>ATOM
  1 S       -0.2730    -0.1520    -0.1150 S.3   1 <1>  -0.4600 
  2 C       -1.9810    -0.7040    -0.3850 C.3   1 <1>   0.0700 
  3 C       -0.5070     1.4140     0.7790 C.3   1 <1>   0.0700 
  4 C       -2.7840     0.4290    -1.0340 C.3   1 <1>   0.1400 
  5 C       -1.4750     2.3070    -0.0040 C.3   1 <1>   0.1400 
  6 N       -2.8060     1.6400    -0.1580 N.am  1 <1>  -0.6600 
  7 C       -3.9490     2.1620     0.4130 C.2   1 <1>   0.5440 
  8 O       -3.9020     3.2500     0.9520 O.2   1 <1>  -0.5700 
  9 C       -5.2100     1.4490     0.3890 C.ar  1 <1>   0.0860 
 10 C       -6.3000     1.9610    -0.3130 C.ar  1 <1>  -0.1500 
 11 C       -5.3620     0.2340     1.0760 C.ar  1 <1>  -0.1500 
 12 C       -7.5030     1.2740    -0.3470 C.ar  1 <1>   0.2270 
 13 C       -6.5550    -0.4650     1.0560 C.ar  1 <1>  -0.1500 
 14 N       -8.6620     1.6540    -1.0120 N.2   1 <1>  -0.2270 
 15 C       -7.5970     0.0860     0.3340 C.ar  1 <1>   0.0400 
 16 N       -9.6310     0.8610    -0.8970 N.2   1 <1>  -0.2210 
 17 S       -9.2190    -0.4830     0.0730 S.3   1 <1>   0.1810 
 18 H       -2.3900    -0.9790     0.5700 H     1 <1>   0.0800 
 19 H       -1.9360    -1.5670    -1.0260 H     1 <1>   0.0800 
 20 H        0.4600     1.8750     0.8700 H     1 <1>   0.0800 
 21 H       -0.8950     1.1830     1.7550 H     1 <1>   0.0800 
 22 H       -3.7830     0.0880    -1.2370 H     1 <1>   0.0800 
 23 H       -2.3330     0.6860    -1.9770 H     1 <1>   0.0800 
 24 H       -1.0660     2.5170    -0.9760 H     1 <1>   0.0800 
 25 H       -1.5780     3.2450     0.5150 H     1 <1>   0.0800 
 26 H       -6.2130     2.8990    -0.8330 H     1 <1>   0.1500 
 27 H       -4.5250    -0.1510     1.6340 H     1 <1>   0.1500 
 28 H       -6.6780    -1.3970     1.5810 H     1 <1>   0.1500 
@<TRIPOS>BOND
  1   1   2  1   
  2   1   3  1   
  3   2   4  1   
  4   2  18  1   
  5   2  19  1   
  6   3   5  1   
  7   3  20  1   
  8   3  21  1   
  9   4   6  1   
 10   4  22  1   
 11   4  23  1   
 12   5   6  1   
 13   5  24  1   
 14   5  25  1   
 15   6   7  am  
 16   7   8  2   
 17   7   9  1   
 18   9  10  ar  
 19   9  11  ar  
 20  10  12  ar  
 21  10  26  1   
 22  11  13  ar  
 23  11  27  1   
 24  12  14  1   
 25  12  15  ar  
 26  13  15  ar  
 27  13  28  1   
 28  14  16  2   
 29  15  17  1   
 30  16  17  1   
@<TRIPOS>SUBSTRUCTURE
  1 ****   9 GROUP 4 **** **** 0

# MOE 2024.06 (io_trps.svl 2023.06)
