@<TRIPOS>MOLECULE
NONAME
41 41 1 0 0 
SMALL
USER_CHARGES


@<TRIPOS>ATOM
  1 O        1.3140     6.8470     0.2640 O.3   1 <1>  -0.3630 
  2 C        2.5190     6.2360     0.1320 C.ar  1 <1>   0.0830 
  3 C        0.1110     6.1500     0.0290 C.3   1 <1>   0.1200 
  4 C        3.6410     7.0080     0.3850 C.ar  1 <1>  -0.1500 
  5 C        2.6780     4.9030    -0.2370 C.ar  1 <1>  -0.1500 
  6 C       -1.0450     7.1170     0.2620 C.3   1 <1>   0.1200 
  7 C        4.9080     6.4630     0.2730 C.ar  1 <1>  -0.1500 
  8 C        3.9470     4.3620    -0.3480 C.ar  1 <1>  -0.1500 
  9 O       -2.2510     6.4460     0.0330 O.3   1 <1>  -0.5600 
 10 C        5.0680     5.1370    -0.0960 C.ar  1 <1>  -0.1430 
 11 C       -3.3820     7.2290     0.2150 C.3   1 <1>   0.1200 
 12 C        6.4580     4.5380    -0.2170 C.3   1 <1>  -0.0970 
 13 C       -4.5970     6.3430    -0.0730 C.3   1 <1>   0.3430 
 14 N       -5.8820     7.0920     0.0830 N.4   1 <1>  -0.9060 
 15 C       -7.0690     6.2790    -0.2140 C.3   1 <1>   0.4230 
 16 C       -8.2470     7.2310    -0.3620 C.3   1 <1>  -0.2400 
 17 C       -7.3080     5.2960     0.9280 C.3   1 <1>  -0.2400 
 18 H        0.0590     5.3250     0.7170 H     1 <1>   0.0800 
 19 H        0.1150     5.8040    -0.9900 H     1 <1>   0.0800 
 20 H        3.5170     8.0360     0.6700 H     1 <1>   0.1500 
 21 H        1.8340     4.2730    -0.4410 H     1 <1>   0.1500 
 22 H       -0.9720     7.9450    -0.4220 H     1 <1>   0.0800 
 23 H       -1.0290     7.4660     1.2810 H     1 <1>   0.0800 
 24 H        5.7680     7.0770     0.4750 H     1 <1>   0.1500 
 25 H        4.0600     3.3300    -0.6320 H     1 <1>   0.1500 
 26 H       -3.3340     8.0560    -0.4730 H     1 <1>   0.0800 
 27 H       -3.3920     7.5790     1.2330 H     1 <1>   0.0800 
 28 H        7.1680     5.2930    -0.5030 H     1 <1>   0.0800 
 29 H        6.4690     3.7630    -0.9620 H     1 <1>   0.0800 
 30 H        6.7560     4.1190     0.7270 H     1 <1>   0.0800 
 31 H       -4.5780     5.5070     0.6060 H     1 <1>   0.0800 
 32 H       -4.5170     5.9670    -1.0800 H     1 <1>   0.0800 
 33 H       -5.8880     7.9030    -0.5470 H     1 <1>   0.4500 
 34 H       -5.9740     7.4500     1.0400 H     1 <1>   0.4500 
 35 H       -6.9290     5.7390    -1.1390 H     1 <1>   0.0800 
 36 H       -8.4210     7.7860     0.5430 H     1 <1>   0.0800 
 37 H       -9.1390     6.6680    -0.5800 H     1 <1>   0.0800 
 38 H       -8.0890     7.9130    -1.1790 H     1 <1>   0.0800 
 39 H       -7.4310     5.8080     1.8670 H     1 <1>   0.0800 
 40 H       -6.5050     4.5860     1.0080 H     1 <1>   0.0800 
 41 H       -8.2080     4.7380     0.7370 H     1 <1>   0.0800 
@<TRIPOS>BOND
  1   1   2  1   
  2   1   3  1   
  3   2   4  ar  
  4   2   5  ar  
  5   3   6  1   
  6   3  18  1   
  7   3  19  1   
  8   4   7  ar  
  9   4  20  1   
 10   5   8  ar  
 11   5  21  1   
 12   6   9  1   
 13   6  22  1   
 14   6  23  1   
 15   7  10  ar  
 16   7  24  1   
 17   8  10  ar  
 18   8  25  1   
 19   9  11  1   
 20  10  12  1   
 21  11  13  1   
 22  11  26  1   
 23  11  27  1   
 24  12  28  1   
 25  12  29  1   
 26  12  30  1   
 27  13  14  1   
 28  13  31  1   
 29  13  32  1   
 30  14  15  1   
 31  14  33  1   
 32  14  34  1   
 33  15  16  1   
 34  15  17  1   
 35  15  35  1   
 36  16  36  1   
 37  16  37  1   
 38  16  38  1   
 39  17  39  1   
 40  17  40  1   
 41  17  41  1   
@<TRIPOS>SUBSTRUCTURE
  1 ****   3 GROUP 4 **** **** 0

# MOE 2024.06 (io_trps.svl 2023.06)
