@<TRIPOS>MOLECULE
NONAME
45 47 1 0 0 
SMALL
USER_CHARGES


@<TRIPOS>ATOM
  1 S       -0.2960    -0.3530     0.5200 S.o2  1 <1>   1.4470 
  2 O        0.0100     0.9900     0.0770 O.2   1 <1>  -0.6500 
  3 O       -0.8540    -0.5540     1.8410 O.2   1 <1>  -0.6500 
  4 N       -1.4150    -0.9950    -0.5830 N.am  1 <1>  -0.8490 
  5 C        1.1660    -1.4020     0.2860 C.ar  1 <1>  -0.0090 
  6 C       -1.7440    -2.4060    -0.3060 C.3   1 <1>   0.1960 
  7 C       -2.5760    -0.1110    -0.8100 C.3   1 <1>   0.1960 
  8 C        1.8030    -1.4700    -0.9460 C.ar  1 <1>  -0.1500 
  9 C        1.6780    -2.1740     1.3210 C.ar  1 <1>  -0.1500 
 10 C       -2.9890    -2.8290    -1.0780 C.3   1 <1>  -0.1600 
 11 C       -3.8230    -0.6160    -0.0870 C.3   1 <1>  -0.1600 
 12 C        2.9090    -2.2800    -1.1410 C.ar  1 <1>  -0.1500 
 13 C        2.7840    -2.9850     1.1330 C.ar  1 <1>  -0.1500 
 14 C       -4.1890    -2.0170    -0.5930 C.3   1 <1>   0.5600 
 15 C        3.4110    -3.0470    -0.1020 C.ar  1 <1>  -0.1430 
 16 O       -4.8310    -2.7220     0.4130 O.3   1 <1>  -0.5600 
 17 O       -5.1090    -1.9280    -1.6300 O.3   1 <1>  -0.5600 
 18 C        4.6320    -3.9350    -0.3300 C.3   1 <1>   0.0630 
 19 C       -6.1870    -2.4860     0.3210 C.3   1 <1>   0.1200 
 20 C       -6.3890    -2.0810    -1.1260 C.3   1 <1>   0.1200 
 21 C        4.2840    -5.4100    -0.1050 C.3   1 <1>  -0.2400 
 22 C        5.7950    -3.5070     0.5710 C.3   1 <1>  -0.2400 
 23 H       -1.9280    -2.5480     0.7480 H     1 <1>   0.0800 
 24 H       -0.9130    -3.0300    -0.5890 H     1 <1>   0.0800 
 25 H       -2.7790    -0.0820    -1.8680 H     1 <1>   0.0800 
 26 H       -2.3600     0.8980    -0.5010 H     1 <1>   0.0800 
 27 H        1.4250    -0.8790    -1.7640 H     1 <1>   0.1500 
 28 H        1.2070    -2.1400     2.2900 H     1 <1>   0.1500 
 29 H       -3.1780    -3.8770    -0.9370 H     1 <1>   0.0800 
 30 H       -2.8180    -2.6500    -2.1240 H     1 <1>   0.0800 
 31 H       -4.6370     0.0650    -0.2490 H     1 <1>   0.0800 
 32 H       -3.6110    -0.6490     0.9670 H     1 <1>   0.0800 
 33 H        3.3760    -2.3060    -2.1100 H     1 <1>   0.1500 
 34 H        3.1540    -3.5680     1.9580 H     1 <1>   0.1500 
 35 H        4.9540    -3.8270    -1.3520 H     1 <1>   0.0800 
 36 H       -6.4480    -1.6870     0.9930 H     1 <1>   0.0800 
 37 H       -6.7240    -3.3820     0.5770 H     1 <1>   0.0800 
 38 H       -6.8900    -2.8510    -1.6870 H     1 <1>   0.0800 
 39 H       -6.9220    -1.1510    -1.2130 H     1 <1>   0.0800 
 40 H        4.0040    -5.5870     0.9170 H     1 <1>   0.0800 
 41 H        5.1290    -6.0320    -0.3430 H     1 <1>   0.0800 
 42 H        3.4630    -5.6920    -0.7400 H     1 <1>   0.0800 
 43 H        5.5480    -3.6430     1.6080 H     1 <1>   0.0800 
 44 H        6.0210    -2.4680     0.4060 H     1 <1>   0.0800 
 45 H        6.6730    -4.0870     0.3480 H     1 <1>   0.0800 
@<TRIPOS>BOND
  1   1   2  2   
  2   1   3  2   
  3   1   4  am  
  4   1   5  1   
  5   4   6  1   
  6   4   7  1   
  7   5   8  ar  
  8   5   9  ar  
  9   6  10  1   
 10   6  23  1   
 11   6  24  1   
 12   7  11  1   
 13   7  25  1   
 14   7  26  1   
 15   8  12  ar  
 16   8  27  1   
 17   9  13  ar  
 18   9  28  1   
 19  10  14  1   
 20  10  29  1   
 21  10  30  1   
 22  11  14  1   
 23  11  31  1   
 24  11  32  1   
 25  12  15  ar  
 26  12  33  1   
 27  13  15  ar  
 28  13  34  1   
 29  14  16  1   
 30  14  17  1   
 31  15  18  1   
 32  16  19  1   
 33  17  20  1   
 34  18  21  1   
 35  18  22  1   
 36  18  35  1   
 37  19  20  1   
 38  19  36  1   
 39  19  37  1   
 40  20  38  1   
 41  20  39  1   
 42  21  40  1   
 43  21  41  1   
 44  21  42  1   
 45  22  43  1   
 46  22  44  1   
 47  22  45  1   
@<TRIPOS>SUBSTRUCTURE
  1 ****   6 GROUP 4 **** **** 0

# MOE 2024.06 (io_trps.svl 2023.06)
