@<TRIPOS>MOLECULE
NONAME
59 61 1 0 0 
SMALL
USER_CHARGES


@<TRIPOS>ATOM
  1 O        1.3810    -0.2580     1.6220 O.2   1 <1>  -0.5700 
  2 C        1.1760    -1.3180     1.1170 C.2   1 <1>   0.4480 
  3 C        2.1040    -1.9770     0.0910 C.3   1 <1>   0.0420 
  4 C       -0.0710    -2.0950     1.5420 C.3   1 <1>  -0.0990 
  5 C        2.0410    -3.4380     0.4870 C.2   1 <1>   0.4480 
  6 C        3.5570    -1.4240    -0.0510 C.3   1 <1>   0.0630 
  7 C       -0.4970    -3.2360     0.5840 C.3   1 <1>   0.0000 
  8 O        2.9180    -3.9890     1.0810 O.2   1 <1>  -0.5700 
  9 C        0.7180    -4.1290     0.2130 C.3   1 <1>  -0.0990 
 10 C        3.5920     0.1090    -0.1360 C.ar  1 <1>  -0.1440 
 11 C        4.3000    -1.9710    -1.3030 C.3   1 <1>   0.0420 
 12 C       -1.1520    -2.6460    -0.6810 C.3   1 <1>  -0.2400 
 13 C       -1.5640    -4.0960     1.2820 C.3   1 <1>  -0.2400 
 14 C        4.3100     0.8650     0.7890 C.ar  1 <1>   0.0820 
 15 C        2.9110     0.7720    -1.1500 C.ar  1 <1>  -0.1500 
 16 C        4.5360    -3.4670    -1.2970 C.2   1 <1>   0.4480 
 17 C        5.6480    -1.3140    -1.5400 C.2   1 <1>   0.4480 
 18 O        4.9830     0.2550     1.7890 O.3   1 <1>  -0.3630 
 19 C        4.3530     2.2490     0.6890 C.ar  1 <1>  -0.1500 
 20 C        2.9470     2.1530    -1.2430 C.ar  1 <1>  -0.1500 
 21 O        3.8380    -4.1920    -1.9410 O.2   1 <1>  -0.5700 
 22 C        5.6840    -3.9980    -0.4470 C.3   1 <1>  -0.0990 
 23 O        5.8250    -0.5500    -2.4400 O.2   1 <1>  -0.5700 
 24 C        6.7850    -1.7400    -0.6310 C.3   1 <1>  -0.0990 
 25 C        4.5210     0.5130     3.0960 C.3   1 <1>   0.0400 
 26 C        3.6690     2.8930    -0.3250 C.ar  1 <1>  -0.1500 
 27 C        7.0130    -3.2630    -0.7150 C.3   1 <1>   0.0000 
 28 C        7.5500    -3.6430    -2.1060 C.3   1 <1>  -0.2400 
 29 C        8.0500    -3.6810     0.3370 C.3   1 <1>  -0.2400 
 30 H        1.6450    -1.8730    -0.8700 H     1 <1>   0.0800 
 31 H       -0.8810    -1.3990     1.6710 H     1 <1>   0.0800 
 32 H        0.1410    -2.5100     2.5110 H     1 <1>   0.0800 
 33 H        4.0980    -1.7360     0.8230 H     1 <1>   0.0800 
 34 H        0.7090    -5.0330     0.7960 H     1 <1>   0.0800 
 35 H        0.6830    -4.4240    -0.8210 H     1 <1>   0.0800 
 36 H        3.7010    -1.7530    -2.1670 H     1 <1>   0.0800 
 37 H       -0.4920    -2.0010    -1.2270 H     1 <1>   0.0800 
 38 H       -2.0230    -2.0710    -0.4180 H     1 <1>   0.0800 
 39 H       -1.4690    -3.4340    -1.3430 H     1 <1>   0.0800 
 40 H       -1.1750    -4.5320     2.1860 H     1 <1>   0.0800 
 41 H       -1.8900    -4.8950     0.6380 H     1 <1>   0.0800 
 42 H       -2.4230    -3.5020     1.5420 H     1 <1>   0.0800 
 43 H        2.3470     0.2280    -1.8850 H     1 <1>   0.1500 
 44 H        4.9230     2.8190     1.3980 H     1 <1>   0.1500 
 45 H        2.4160     2.6520    -2.0350 H     1 <1>   0.1500 
 46 H        5.7970    -5.0510    -0.6340 H     1 <1>   0.0800 
 47 H        5.4170    -3.8870     0.5870 H     1 <1>   0.0800 
 48 H        6.5490    -1.4500     0.3760 H     1 <1>   0.0800 
 49 H        7.6790    -1.2140    -0.9180 H     1 <1>   0.0800 
 50 H        5.0360    -0.1430     3.7730 H     1 <1>   0.0800 
 51 H        3.4610     0.3250     3.1340 H     1 <1>   0.0800 
 52 H        4.7260     1.5380     3.3480 H     1 <1>   0.0800 
 53 H        3.7010     3.9650    -0.4020 H     1 <1>   0.1500 
 54 H        6.8560    -3.3840    -2.8860 H     1 <1>   0.0800 
 55 H        7.7330    -4.7020    -2.1640 H     1 <1>   0.0800 
 56 H        8.4770    -3.1330    -2.3050 H     1 <1>   0.0800 
 57 H        7.7140    -3.4290     1.3280 H     1 <1>   0.0800 
 58 H        8.9880    -3.1820     0.1630 H     1 <1>   0.0800 
 59 H        8.2210    -4.7430     0.2990 H     1 <1>   0.0800 
@<TRIPOS>BOND
  1   1   2  2   
  2   2   3  1   
  3   2   4  1   
  4   3   5  1   
  5   3   6  1   
  6   3  30  1   
  7   4   7  1   
  8   4  31  1   
  9   4  32  1   
 10   5   8  2   
 11   5   9  1   
 12   6  10  1   
 13   6  11  1   
 14   6  33  1   
 15   7   9  1   
 16   7  12  1   
 17   7  13  1   
 18   9  34  1   
 19   9  35  1   
 20  10  14  ar  
 21  10  15  ar  
 22  11  16  1   
 23  11  17  1   
 24  11  36  1   
 25  12  37  1   
 26  12  38  1   
 27  12  39  1   
 28  13  40  1   
 29  13  41  1   
 30  13  42  1   
 31  14  18  1   
 32  14  19  ar  
 33  15  20  ar  
 34  15  43  1   
 35  16  21  2   
 36  16  22  1   
 37  17  23  2   
 38  17  24  1   
 39  18  25  1   
 40  19  26  ar  
 41  19  44  1   
 42  20  26  ar  
 43  20  45  1   
 44  22  27  1   
 45  22  46  1   
 46  22  47  1   
 47  24  27  1   
 48  24  48  1   
 49  24  49  1   
 50  25  50  1   
 51  25  51  1   
 52  25  52  1   
 53  26  53  1   
 54  27  28  1   
 55  27  29  1   
 56  28  54  1   
 57  28  55  1   
 58  28  56  1   
 59  29  57  1   
 60  29  58  1   
 61  29  59  1   
@<TRIPOS>SUBSTRUCTURE
  1 ****   6 GROUP 4 **** **** 0

# MOE 2024.06 (io_trps.svl 2023.06)
