@<TRIPOS>MOLECULE
NONAME
57 59 1 0 0 
SMALL
USER_CHARGES


@<TRIPOS>ATOM
  1 S        0.1290    -0.2900    -0.6520 S.o2  1 <1>   1.3330 
  2 O       -0.7440     0.7550    -0.1720 O.2   1 <1>  -0.6500 
  3 O        0.8760    -0.1300    -1.8750 O.2   1 <1>  -0.6500 
  4 N        1.2360    -0.6550     0.6360 N.am  1 <1>  -0.6930 
  5 C       -0.8170    -1.7940    -0.7420 C.3   1 <1>  -0.1350 
  6 C        2.2490    -1.5950     0.5140 C.ar  1 <1>   0.1990 
  7 C        1.0190     0.0360     1.9300 C.3   1 <1>   0.1160 
  8 C        3.2220    -1.4930    -0.4730 C.ar  1 <1>  -0.1500 
  9 C        2.3200    -2.6770     1.3830 C.ar  1 <1>  -0.1500 
 10 C        4.2230    -2.4370    -0.5920 C.ar  1 <1>  -0.1500 
 11 C        3.3230    -3.6200     1.2650 C.ar  1 <1>  -0.1500 
 12 C        4.3070    -3.5320     0.2770 C.ar  1 <1>   0.0860 
 13 C        5.3560    -4.5320     0.1770 C.2   1 <1>   0.5440 
 14 O        5.2880    -5.5660     0.8140 O.2   1 <1>  -0.5700 
 15 N        6.4490    -4.2960    -0.6230 N.am  1 <1>  -0.5470 
 16 C        7.5780    -5.0450    -0.9820 C.ar  1 <1>   0.1170 
 17 C        8.7070    -4.3720    -1.4830 C.ar  1 <1>   0.0860 
 18 C        7.6030    -6.4340    -0.8820 C.ar  1 <1>  -0.1500 
 19 C        8.7340    -2.9250    -1.5820 C.2   1 <1>   0.5440 
 20 C        9.8080    -5.1310    -1.8850 C.ar  1 <1>  -0.1500 
 21 C        8.7100    -7.1610    -1.2700 C.ar  1 <1>  -0.1500 
 22 O        7.7780    -2.3000    -2.0020 O.2   1 <1>  -0.5700 
 23 N        9.7960    -2.1730    -1.1850 N.am  1 <1>  -0.7300 
 24 C        9.8180    -6.5070    -1.7780 C.ar  1 <1>  -0.1500 
 25 C       10.7900    -2.5200    -0.1570 C.3   1 <1>   0.2200 
 26 C       10.5090    -1.6910     1.0990 C.3   1 <1>  -0.1600 
 27 C       12.1920    -2.2380    -0.7050 C.3   1 <1>  -0.1600 
 28 C       11.5760    -1.9410     2.1760 C.3   1 <1>  -0.1600 
 29 C       13.2650    -2.4890     0.3650 C.3   1 <1>  -0.1600 
 30 C       12.9860    -1.6700     1.6330 C.3   1 <1>  -0.1600 
 31 H       -1.5700    -1.7070    -1.5000 H     1 <1>   0.0800 
 32 H       -1.2920    -1.9900     0.1980 H     1 <1>   0.0800 
 33 H       -0.1760    -2.6180    -0.9870 H     1 <1>   0.0800 
 34 H        1.0330     1.1020     1.7750 H     1 <1>   0.0800 
 35 H        1.7950    -0.2200     2.6300 H     1 <1>   0.0800 
 36 H        0.0640    -0.2430     2.3390 H     1 <1>   0.0800 
 37 H        3.1960    -0.6580    -1.1520 H     1 <1>   0.1500 
 38 H        1.5790    -2.7810     2.1550 H     1 <1>   0.1500 
 39 H        4.9420    -2.3090    -1.3820 H     1 <1>   0.1500 
 40 H        3.3510    -4.4490     1.9530 H     1 <1>   0.1500 
 41 H        6.4820    -3.3470    -1.0160 H     1 <1>   0.3700 
 42 H        6.7450    -6.9590    -0.5020 H     1 <1>   0.1500 
 43 H       10.6690    -4.6280    -2.2890 H     1 <1>   0.1500 
 44 H        8.7080    -8.2340    -1.1820 H     1 <1>   0.1500 
 45 H        9.6840    -1.1700    -1.3440 H     1 <1>   0.3700 
 46 H       10.6800    -7.0730    -2.0890 H     1 <1>   0.1500 
 47 H       10.7140    -3.5640     0.0960 H     1 <1>   0.0800 
 48 H        9.5410    -1.9520     1.4910 H     1 <1>   0.0800 
 49 H       10.5050    -0.6440     0.8490 H     1 <1>   0.0800 
 50 H       12.2530    -1.2130    -1.0270 H     1 <1>   0.0800 
 51 H       12.3820    -2.8710    -1.5530 H     1 <1>   0.0800 
 52 H       11.5120    -2.9620     2.5110 H     1 <1>   0.0800 
 53 H       11.3880    -1.3050     3.0240 H     1 <1>   0.0800 
 54 H       14.2330    -2.2280    -0.0260 H     1 <1>   0.0800 
 55 H       13.2820    -3.5370     0.6150 H     1 <1>   0.0800 
 56 H       13.7150    -1.9140     2.3870 H     1 <1>   0.0800 
 57 H       13.0850    -0.6220     1.4080 H     1 <1>   0.0800 
@<TRIPOS>BOND
  1   1   2  2   
  2   1   3  2   
  3   1   4  am  
  4   1   5  1   
  5   4   6  1   
  6   4   7  1   
  7   5  31  1   
  8   5  32  1   
  9   5  33  1   
 10   6   8  ar  
 11   6   9  ar  
 12   7  34  1   
 13   7  35  1   
 14   7  36  1   
 15   8  10  ar  
 16   8  37  1   
 17   9  11  ar  
 18   9  38  1   
 19  10  12  ar  
 20  10  39  1   
 21  11  12  ar  
 22  11  40  1   
 23  12  13  1   
 24  13  14  2   
 25  13  15  am  
 26  15  16  1   
 27  15  41  1   
 28  16  17  ar  
 29  16  18  ar  
 30  17  19  1   
 31  17  20  ar  
 32  18  21  ar  
 33  18  42  1   
 34  19  22  2   
 35  19  23  am  
 36  20  24  ar  
 37  20  43  1   
 38  21  24  ar  
 39  21  44  1   
 40  23  25  1   
 41  23  45  1   
 42  24  46  1   
 43  25  26  1   
 44  25  27  1   
 45  25  47  1   
 46  26  28  1   
 47  26  48  1   
 48  26  49  1   
 49  27  29  1   
 50  27  50  1   
 51  27  51  1   
 52  28  30  1   
 53  28  52  1   
 54  28  53  1   
 55  29  30  1   
 56  29  54  1   
 57  29  55  1   
 58  30  56  1   
 59  30  57  1   
@<TRIPOS>SUBSTRUCTURE
  1 ****  15 GROUP 4 **** **** 0

# MOE 2024.06 (io_trps.svl 2023.06)
