@<TRIPOS>MOLECULE
NONAME
24 25 1 0 0 
SMALL
USER_CHARGES


@<TRIPOS>ATOM
  1 O       -0.6090    -1.2660     1.6370 O.2   1 <1>  -0.5700 
  2 C       -0.1600    -2.0210     0.8150 C.2   1 <1>   0.5690 
  3 N       -0.8310    -2.5780    -0.2310 N.am  1 <1>  -0.2370 
  4 C        1.2950    -2.4290     0.8080 C.3   1 <1>  -0.0990 
  5 C       -2.2130    -2.6170    -0.3390 C.ar  1 <1>   0.4270 
  6 C        0.0200    -3.2750    -1.0330 C.2   1 <1>   0.5690 
  7 C        1.4190    -3.2890    -0.4610 C.3   1 <1>  -0.0990 
  8 N       -2.8290    -3.6180     0.2800 N.ar  1 <1>  -0.6200 
  9 C       -2.8790    -1.6370    -1.0680 C.ar  1 <1>  -0.1500 
 10 O       -0.2470    -3.7910    -2.0870 O.2   1 <1>  -0.5700 
 11 C       -4.1450    -3.6480     0.1720 C.ar  1 <1>   0.1660 
 12 C       -4.2500    -1.6770    -1.1750 C.ar  1 <1>  -0.1500 
 13 C       -4.8910    -2.7160    -0.5330 C.ar  1 <1>  -0.1500 
 14 C       -4.8350    -4.7930     0.8810 C.3   1 <1>  -0.0970 
 15 H        1.5190    -2.9960     1.6930 H     1 <1>   0.0800 
 16 H        1.9210    -1.5570     0.7590 H     1 <1>   0.0800 
 17 H        1.7060    -4.2990    -0.2280 H     1 <1>   0.0800 
 18 H        2.1090    -2.8620    -1.1660 H     1 <1>   0.0800 
 19 H       -2.3180    -0.8550    -1.5430 H     1 <1>   0.1500 
 20 H       -4.7970    -0.9350    -1.7310 H     1 <1>   0.1500 
 21 H       -5.9610    -2.7980    -0.5820 H     1 <1>   0.1500 
 22 H       -4.6130    -4.7490     1.9320 H     1 <1>   0.0800 
 23 H       -4.4720    -5.7270     0.4910 H     1 <1>   0.0800 
 24 H       -5.9000    -4.7500     0.7480 H     1 <1>   0.0800 
@<TRIPOS>BOND
  1   1   2  2   
  2   2   3  am  
  3   2   4  1   
  4   3   5  1   
  5   3   6  am  
  6   4   7  1   
  7   4  15  1   
  8   4  16  1   
  9   5   8  ar  
 10   5   9  ar  
 11   6   7  1   
 12   6  10  2   
 13   7  17  1   
 14   7  18  1   
 15   8  11  ar  
 16   9  12  ar  
 17   9  19  1   
 18  11  13  ar  
 19  11  14  1   
 20  12  13  ar  
 21  12  20  1   
 22  13  21  1   
 23  14  22  1   
 24  14  23  1   
 25  14  24  1   
@<TRIPOS>SUBSTRUCTURE
  1 ****   5 GROUP 4 **** **** 0

# MOE 2024.06 (io_trps.svl 2023.06)
