@<TRIPOS>MOLECULE
NONAME
50 52 1 0 0 
SMALL
USER_CHARGES


@<TRIPOS>ATOM
  1 BR       0.1470    -2.1050    -3.6820 Br    1 <1>  -0.1110 
  2 C       -0.2160    -2.6000    -1.8530 C.ar  1 <1>   0.1110 
  3 C        0.7520    -2.4030    -0.8770 C.ar  1 <1>   0.0820 
  4 C       -1.4550    -3.1420    -1.5740 C.ar  1 <1>  -0.1500 
  5 O        1.9420    -1.8610    -1.2450 O.3   1 <1>  -0.3630 
  6 C        0.4430    -2.7750     0.4280 C.ar  1 <1>  -0.1500 
  7 C       -1.7560    -3.4990    -0.2660 C.ar  1 <1>  -0.1430 
  8 C        3.0080    -1.7190    -0.3310 C.3   1 <1>   0.0400 
  9 C       -0.7990    -3.3180     0.7260 C.ar  1 <1>  -0.1500 
 10 C       -3.1180    -4.0770     0.0700 C.3   1 <1>   0.4870 
 11 N       -3.9470    -3.0140     0.6990 N.4   1 <1>  -0.9590 
 12 C       -5.2490    -3.5610     1.2310 C.3   1 <1>   0.3430 
 13 C       -4.1940    -1.8550    -0.2410 C.3   1 <1>   0.3430 
 14 C       -6.1170    -2.4800     1.9100 C.3   1 <1>   0.2090 
 15 C       -5.0470    -0.7380     0.3950 C.3   1 <1>   0.2090 
 16 N       -6.2780    -1.2810     1.0410 N.pl3 1 <1>  -0.8380 
 17 C       -7.4860    -1.1400     0.3590 C.ar  1 <1>   0.1000 
 18 C       -8.4630    -0.2550     0.8140 C.ar  1 <1>  -0.1430 
 19 C       -7.7340    -1.8870    -0.7890 C.ar  1 <1>  -0.1500 
 20 C       -9.6560    -0.1360     0.1230 C.ar  1 <1>  -0.1500 
 21 C       -8.2330     0.5850     2.0630 C.3   1 <1>  -0.0970 
 22 C       -8.9270    -1.7670    -1.4790 C.ar  1 <1>  -0.1430 
 23 C       -9.8890    -0.8860    -1.0160 C.ar  1 <1>  -0.1500 
 24 C       -9.2000    -2.5810    -2.7310 C.3   1 <1>  -0.0970 
 25 H       -2.1550    -3.2750    -2.3800 H     1 <1>   0.1500 
 26 H        1.1590    -2.6500     1.2200 H     1 <1>   0.1500 
 27 H        3.8460    -1.3030    -0.8610 H     1 <1>   0.0800 
 28 H        3.2680    -2.6880     0.0580 H     1 <1>   0.0800 
 29 H        2.7080    -1.0520     0.4570 H     1 <1>   0.0800 
 30 H       -1.0020    -3.6000     1.7450 H     1 <1>   0.1500 
 31 H       -2.9940    -4.9040     0.7500 H     1 <1>   0.0800 
 32 H       -3.5950    -4.4400    -0.8260 H     1 <1>   0.0800 
 33 H       -3.4110    -2.6370     1.4900 H     1 <1>   0.4500 
 34 H       -5.0560    -4.3470     1.9420 H     1 <1>   0.0800 
 35 H       -5.8200    -3.9820     0.4210 H     1 <1>   0.0800 
 36 H       -4.7090    -2.2070    -1.1190 H     1 <1>   0.0800 
 37 H       -3.2560    -1.4320    -0.5600 H     1 <1>   0.0800 
 38 H       -5.6690    -2.1810     2.8410 H     1 <1>   0.0800 
 39 H       -7.0880    -2.8910     2.1330 H     1 <1>   0.0800 
 40 H       -5.3270    -0.0260    -0.3640 H     1 <1>   0.0800 
 41 H       -4.4670    -0.2110     1.1330 H     1 <1>   0.0800 
 42 H       -6.9900    -2.5680    -1.1440 H     1 <1>   0.1500 
 43 H      -10.4170     0.5430     0.4660 H     1 <1>   0.1500 
 44 H       -8.0870    -0.0580     2.9120 H     1 <1>   0.0800 
 45 H       -9.0720     1.2270     2.2590 H     1 <1>   0.0800 
 46 H       -7.3570     1.1940     1.9350 H     1 <1>   0.0800 
 47 H      -10.8230    -0.7800    -1.5390 H     1 <1>   0.1500 
 48 H       -8.3380    -3.1530    -3.0190 H     1 <1>   0.0800 
 49 H       -9.4620    -1.9250    -3.5430 H     1 <1>   0.0800 
 50 H      -10.0190    -3.2560    -2.5550 H     1 <1>   0.0800 
@<TRIPOS>BOND
  1   1   2  1   
  2   2   3  ar  
  3   2   4  ar  
  4   3   5  1   
  5   3   6  ar  
  6   4   7  ar  
  7   4  25  1   
  8   5   8  1   
  9   6   9  ar  
 10   6  26  1   
 11   7   9  ar  
 12   7  10  1   
 13   8  27  1   
 14   8  28  1   
 15   8  29  1   
 16   9  30  1   
 17  10  11  1   
 18  10  31  1   
 19  10  32  1   
 20  11  12  1   
 21  11  13  1   
 22  11  33  1   
 23  12  14  1   
 24  12  34  1   
 25  12  35  1   
 26  13  15  1   
 27  13  36  1   
 28  13  37  1   
 29  14  16  1   
 30  14  38  1   
 31  14  39  1   
 32  15  16  1   
 33  15  40  1   
 34  15  41  1   
 35  16  17  1   
 36  17  18  ar  
 37  17  19  ar  
 38  18  20  ar  
 39  18  21  1   
 40  19  22  ar  
 41  19  42  1   
 42  20  23  ar  
 43  20  43  1   
 44  21  44  1   
 45  21  45  1   
 46  21  46  1   
 47  22  23  ar  
 48  22  24  1   
 49  23  47  1   
 50  24  48  1   
 51  24  49  1   
 52  24  50  1   
@<TRIPOS>SUBSTRUCTURE
  1 ****  13 GROUP 4 **** **** 0

# MOE 2024.06 (io_trps.svl 2023.06)
