@<TRIPOS>MOLECULE
NONAME
35 36 1 0 0 
SMALL
USER_CHARGES


@<TRIPOS>ATOM
  1 S        0.2830    -0.0690     1.2530 S.o2  1 <1>   1.3330 
  2 O        1.5300    -0.2320     1.9590 O.2   1 <1>  -0.6500 
  3 O        0.0640    -0.6890    -0.0300 O.2   1 <1>  -0.6500 
  4 N        0.0600     1.6350     1.0610 N.am  1 <1>  -0.6930 
  5 C       -1.0400    -0.5020     2.3620 C.3   1 <1>  -0.1350 
  6 C       -1.1610     2.1600     0.6510 C.ar  1 <1>   0.1990 
  7 C        1.2880     2.3860     0.6540 C.3   1 <1>   0.2570 
  8 C       -1.7020     1.8630    -0.5950 C.ar  1 <1>  -0.1500 
  9 C       -1.8600     3.0030     1.5080 C.ar  1 <1>  -0.1500 
 10 C        1.8010     2.0460    -0.7470 C.2   1 <1>   0.6590 
 11 C       -2.9240     2.3890    -0.9690 C.ar  1 <1>   0.0820 
 12 C       -3.0810     3.5400     1.1380 C.ar  1 <1>  -0.1500 
 13 O        1.4950     2.7040    -1.7100 O.2   1 <1>  -0.5700 
 14 O        2.6080     0.9960    -0.8410 O.3   1 <1>  -0.4300 
 15 O       -3.4350     2.0620    -2.1840 O.3   1 <1>  -0.3630 
 16 C       -3.6150     3.2390    -0.1030 C.ar  1 <1>   0.0830 
 17 C        3.0640     0.5140    -2.0860 C.3   1 <1>   0.0400 
 18 C       -4.7960     2.3690    -2.4150 C.3   1 <1>   0.1200 
 19 O       -4.8090     3.7880    -0.4540 O.3   1 <1>  -0.3630 
 20 C       -5.1380     3.7460    -1.8300 C.3   1 <1>   0.1200 
 21 H       -0.9940    -1.5470     2.5960 H     1 <1>   0.0800 
 22 H       -1.9890    -0.2930     1.9080 H     1 <1>   0.0800 
 23 H       -0.9590     0.0590     3.2720 H     1 <1>   0.0800 
 24 H        2.0740     2.1930     1.3610 H     1 <1>   0.0800 
 25 H        1.0760     3.4390     0.6800 H     1 <1>   0.0800 
 26 H       -1.1750     1.2220    -1.2770 H     1 <1>   0.1500 
 27 H       -1.4420     3.2360     2.4700 H     1 <1>   0.1500 
 28 H       -3.6210     4.1930     1.7990 H     1 <1>   0.1500 
 29 H        3.6950    -0.3380    -1.9100 H     1 <1>   0.0800 
 30 H        3.6150     1.2930    -2.5830 H     1 <1>   0.0800 
 31 H        2.2100     0.2250    -2.6760 H     1 <1>   0.0800 
 32 H       -5.3950     1.6050    -1.9500 H     1 <1>   0.0800 
 33 H       -4.9630     2.3510    -3.4770 H     1 <1>   0.0800 
 34 H       -6.1880     3.9530    -1.9270 H     1 <1>   0.0800 
 35 H       -4.5780     4.5140    -2.3330 H     1 <1>   0.0800 
@<TRIPOS>BOND
  1   1   2  2   
  2   1   3  2   
  3   1   4  am  
  4   1   5  1   
  5   4   6  1   
  6   4   7  1   
  7   5  21  1   
  8   5  22  1   
  9   5  23  1   
 10   6   8  ar  
 11   6   9  ar  
 12   7  10  1   
 13   7  24  1   
 14   7  25  1   
 15   8  11  ar  
 16   8  26  1   
 17   9  12  ar  
 18   9  27  1   
 19  10  13  2   
 20  10  14  1   
 21  11  15  1   
 22  11  16  ar  
 23  12  16  ar  
 24  12  28  1   
 25  14  17  1   
 26  15  18  1   
 27  16  19  1   
 28  17  29  1   
 29  17  30  1   
 30  17  31  1   
 31  18  20  1   
 32  18  32  1   
 33  18  33  1   
 34  19  20  1   
 35  20  34  1   
 36  20  35  1   
@<TRIPOS>SUBSTRUCTURE
  1 ****   8 GROUP 4 **** **** 0

# MOE 2024.06 (io_trps.svl 2023.06)
