@<TRIPOS>MOLECULE
NONAME
38 39 1 0 0 
SMALL
USER_CHARGES


@<TRIPOS>ATOM
  1 S        0.1070     0.0830    -0.2180 S.3   1 <1>  -0.0800 
  2 C       -1.6440     0.2480    -0.1930 C.ar  1 <1>   0.2970 
  3 C        0.0330    -1.6590     0.1540 C.2   1 <1>  -0.0450 
  4 N       -2.2080     1.4210    -0.4160 N.ar  1 <1>  -0.5670 
  5 C       -2.2460    -0.9790     0.0680 C.ar  1 <1>   0.0000 
  6 C       -1.2750    -2.0330     0.2910 C.2   1 <1>   0.0830 
  7 C        1.2500    -2.3880     0.2760 C.2   1 <1>   0.8050 
  8 C       -3.5250     1.3770    -0.3960 C.ar  1 <1>   0.1670 
  9 C       -3.6420    -0.9950     0.0540 C.ar  1 <1>  -0.1440 
 10 N       -1.6290    -3.3220     0.6380 N.pl3 1 <1>  -0.8830 
 11 O        1.2900    -3.5680     0.5940 O.2   1 <1>  -0.5700 
 12 O        2.4030    -1.7470     0.0390 O.3   1 <1>  -0.4300 
 13 C       -4.2660     0.2200    -0.1750 C.ar  1 <1>  -0.1500 
 14 C       -4.2340     2.6920    -0.6420 C.3   1 <1>  -0.0970 
 15 C       -4.4300    -2.2850     0.2610 C.3   1 <1>   0.2630 
 16 C        3.6590    -2.3800     0.1030 C.3   1 <1>   0.2000 
 17 O       -5.7990    -2.0740     0.0930 O.3   1 <1>  -0.5600 
 18 C        4.6940    -1.2940     0.3830 C.3   1 <1>  -0.2400 
 19 C        3.9240    -3.0700    -1.2350 C.3   1 <1>  -0.2400 
 20 C       -6.5710    -3.2260     0.2080 C.3   1 <1>   0.0400 
 21 H       -2.4520    -3.4980     1.2160 H     1 <1>   0.4000 
 22 H       -0.8630    -3.9930     0.8140 H     1 <1>   0.4000 
 23 H       -5.3390     0.2800    -0.1900 H     1 <1>   0.1500 
 24 H       -3.9560     3.0740    -1.6070 H     1 <1>   0.0800 
 25 H       -3.9400     3.4030     0.1090 H     1 <1>   0.0800 
 26 H       -5.3010     2.5720    -0.6090 H     1 <1>   0.0800 
 27 H       -4.2700    -2.6540     1.2580 H     1 <1>   0.0800 
 28 H       -4.1100    -3.0200    -0.4590 H     1 <1>   0.0800 
 29 H        3.6550    -3.0950     0.9110 H     1 <1>   0.0800 
 30 H        4.6880    -0.5580    -0.4010 H     1 <1>   0.0800 
 31 H        5.6750    -1.7280     0.4410 H     1 <1>   0.0800 
 32 H        4.4790    -0.8160     1.3220 H     1 <1>   0.0800 
 33 H        3.8900    -2.3580    -2.0400 H     1 <1>   0.0800 
 34 H        3.1950    -3.8410    -1.4080 H     1 <1>   0.0800 
 35 H        4.8960    -3.5280    -1.2230 H     1 <1>   0.0800 
 36 H       -7.6010    -2.9520     0.0640 H     1 <1>   0.0800 
 37 H       -6.4420    -3.6450     1.1900 H     1 <1>   0.0800 
 38 H       -6.2750    -3.9300    -0.5500 H     1 <1>   0.0800 
@<TRIPOS>BOND
  1   1   2  1   
  2   1   3  1   
  3   2   4  ar  
  4   2   5  ar  
  5   3   6  2   
  6   3   7  1   
  7   4   8  ar  
  8   5   6  1   
  9   5   9  ar  
 10   6  10  1   
 11   7  11  2   
 12   7  12  1   
 13   8  13  ar  
 14   8  14  1   
 15   9  13  ar  
 16   9  15  1   
 17  10  21  1   
 18  10  22  1   
 19  12  16  1   
 20  13  23  1   
 21  14  24  1   
 22  14  25  1   
 23  14  26  1   
 24  15  17  1   
 25  15  27  1   
 26  15  28  1   
 27  16  18  1   
 28  16  19  1   
 29  16  29  1   
 30  17  20  1   
 31  18  30  1   
 32  18  31  1   
 33  18  32  1   
 34  19  33  1   
 35  19  34  1   
 36  19  35  1   
 37  20  36  1   
 38  20  37  1   
 39  20  38  1   
@<TRIPOS>SUBSTRUCTURE
  1 ****   6 GROUP 4 **** **** 0

# MOE 2024.06 (io_trps.svl 2023.06)
