@<TRIPOS>MOLECULE
NONAME
48 50 1 0 0 
SMALL
USER_CHARGES


@<TRIPOS>ATOM
  1 O       -1.0890    -0.4550     1.2780 O.3   1 <1>  -0.3630 
  2 C       -2.1690    -1.1180     0.7730 C.ar  1 <1>   0.0830 
  3 C       -0.7300    -0.4820     2.6410 C.3   1 <1>   0.0400 
  4 C       -3.1730    -1.7840     1.4980 C.ar  1 <1>   0.0830 
  5 C       -2.2460    -1.1090    -0.6090 C.ar  1 <1>  -0.1500 
  6 O       -3.1930    -1.8500     2.8470 O.3   1 <1>  -0.5330 
  7 C       -4.2140    -2.4080     0.8250 C.ar  1 <1>  -0.1500 
  8 C       -3.2860    -1.7310    -1.2760 C.ar  1 <1>  -0.1500 
  9 C       -4.2820    -2.3780    -0.5610 C.ar  1 <1>  -0.1430 
 10 C       -5.4390    -3.0280    -1.2940 C.3   1 <1>   0.4860 
 11 N       -6.6560    -2.2050    -1.0780 N.4   1 <1>  -0.9590 
 12 C       -7.9210    -2.8090    -1.6020 C.3   1 <1>   0.3430 
 13 C       -6.5250    -0.7720    -1.5090 C.3   1 <1>   0.3430 
 14 C       -9.1480    -1.9760    -1.1560 C.3   1 <1>   0.1100 
 15 C       -7.7770     0.0430    -1.0970 C.3   1 <1>   0.1100 
 16 N       -8.7600    -0.7830    -0.3580 N.3   1 <1>  -0.8100 
 17 C       -9.9320     0.0070     0.0710 C.3   1 <1>   0.2530 
 18 C      -10.8380    -0.8310     0.9600 C.ar  1 <1>  -0.1430 
 19 C      -10.3870    -1.2690     2.1960 C.ar  1 <1>  -0.1500 
 20 C      -12.1180    -1.1700     0.5460 C.ar  1 <1>  -0.1500 
 21 C      -11.2030    -2.0380     3.0080 C.ar  1 <1>  -0.1500 
 22 C      -12.9350    -1.9400     1.3570 C.ar  1 <1>  -0.1500 
 23 C      -12.4770    -2.3740     2.5880 C.ar  1 <1>  -0.1500 
 24 H        0.2030     0.0400     2.7510 H     1 <1>   0.0800 
 25 H       -0.6170    -1.5050     2.9530 H     1 <1>   0.0800 
 26 H       -1.4940     0.0130     3.2120 H     1 <1>   0.0800 
 27 H       -1.4720    -0.6060    -1.1630 H     1 <1>   0.1500 
 28 H       -3.9210    -2.3830     3.2100 H     1 <1>   0.4500 
 29 H       -4.9730    -2.9160     1.3910 H     1 <1>   0.1500 
 30 H       -3.3010    -1.6990    -2.3530 H     1 <1>   0.1500 
 31 H       -5.5910    -4.0240    -0.9110 H     1 <1>   0.0800 
 32 H       -5.2170    -3.0950    -2.3460 H     1 <1>   0.0800 
 33 H       -6.8250    -2.1190    -0.0650 H     1 <1>   0.4500 
 34 H       -8.0340    -3.8150    -1.2330 H     1 <1>   0.0800 
 35 H       -7.8940    -2.8530    -2.6780 H     1 <1>   0.0800 
 36 H       -6.3950    -0.7130    -2.5760 H     1 <1>   0.0800 
 37 H       -5.6580    -0.3270    -1.0480 H     1 <1>   0.0800 
 38 H       -9.7890    -2.6130    -0.5680 H     1 <1>   0.0800 
 39 H       -9.7090    -1.6730    -2.0240 H     1 <1>   0.0800 
 40 H       -8.2350     0.4600    -1.9790 H     1 <1>   0.0800 
 41 H       -7.4630     0.8660    -0.4760 H     1 <1>   0.0800 
 42 H      -10.4760     0.3600    -0.7880 H     1 <1>   0.0800 
 43 H       -9.6010     0.8640     0.6340 H     1 <1>   0.0800 
 44 H       -9.3970    -1.0090     2.5270 H     1 <1>   0.1500 
 45 H      -12.4900    -0.8360    -0.4070 H     1 <1>   0.1500 
 46 H      -10.8480    -2.3720     3.9680 H     1 <1>   0.1500 
 47 H      -13.9280    -2.1990     1.0320 H     1 <1>   0.1500 
 48 H      -13.1130    -2.9710     3.2190 H     1 <1>   0.1500 
@<TRIPOS>BOND
  1   1   2  1   
  2   1   3  1   
  3   2   4  ar  
  4   2   5  ar  
  5   3  24  1   
  6   3  25  1   
  7   3  26  1   
  8   4   6  1   
  9   4   7  ar  
 10   5   8  ar  
 11   5  27  1   
 12   6  28  1   
 13   7   9  ar  
 14   7  29  1   
 15   8   9  ar  
 16   8  30  1   
 17   9  10  1   
 18  10  11  1   
 19  10  31  1   
 20  10  32  1   
 21  11  12  1   
 22  11  13  1   
 23  11  33  1   
 24  12  14  1   
 25  12  34  1   
 26  12  35  1   
 27  13  15  1   
 28  13  36  1   
 29  13  37  1   
 30  14  16  1   
 31  14  38  1   
 32  14  39  1   
 33  15  16  1   
 34  15  40  1   
 35  15  41  1   
 36  16  17  1   
 37  17  18  1   
 38  17  42  1   
 39  17  43  1   
 40  18  19  ar  
 41  18  20  ar  
 42  19  21  ar  
 43  19  44  1   
 44  20  22  ar  
 45  20  45  1   
 46  21  23  ar  
 47  21  46  1   
 48  22  23  ar  
 49  22  47  1   
 50  23  48  1   
@<TRIPOS>SUBSTRUCTURE
  1 ****  11 GROUP 4 **** **** 0

# MOE 2024.06 (io_trps.svl 2023.06)
