@<TRIPOS>MOLECULE
NONAME
46 47 1 0 0 
SMALL
USER_CHARGES


@<TRIPOS>ATOM
  1 N       -0.0040     0.1360     0.2020 N.4   1 <1>  -0.9590 
  2 C       -1.1760    -0.7080    -0.2060 C.3   1 <1>   0.3430 
  3 C       -0.1990     1.5470    -0.2760 C.3   1 <1>   0.3430 
  4 C        1.2800    -0.4950    -0.2770 C.3   1 <1>   0.3430 
  5 C       -2.4510    -0.1700     0.4440 C.3   1 <1>  -0.1600 
  6 C       -1.4490     2.1420     0.3750 C.3   1 <1>  -0.1600 
  7 C        2.5740     0.1660     0.2840 C.3   1 <1>   0.3430 
  8 C       -2.6960     1.3000     0.0830 C.3   1 <1>  -0.1600 
  9 N        3.8480    -0.5040    -0.1650 N.4   1 <1>  -0.9060 
 10 C        5.0710     0.1270     0.3880 C.3   1 <1>   0.4230 
 11 C        5.3720     1.4190    -0.3900 C.3   1 <1>  -0.1600 
 12 C        6.1860    -0.9220     0.3210 C.3   1 <1>  -0.1600 
 13 C        6.3830     2.3040     0.3540 C.3   1 <1>  -0.1600 
 14 C        7.5530    -0.4450     0.8370 C.3   1 <1>  -0.1600 
 15 C        7.8560     2.0010     0.0400 C.3   1 <1>  -0.1600 
 16 C        8.2440     0.5250    -0.1310 C.3   1 <1>  -0.1600 
 17 H       -0.0430     0.1620     1.2330 H     1 <1>   0.4500 
 18 H       -1.0290    -1.7310     0.1040 H     1 <1>   0.0800 
 19 H       -1.2890    -0.6910    -1.2790 H     1 <1>   0.0800 
 20 H       -0.3180     1.5600    -1.3480 H     1 <1>   0.0800 
 21 H        0.6510     2.1570    -0.0190 H     1 <1>   0.0800 
 22 H        1.3040    -0.4530    -1.3540 H     1 <1>   0.0800 
 23 H        1.2780    -1.5320     0.0150 H     1 <1>   0.0800 
 24 H       -2.3880    -0.2810     1.5130 H     1 <1>   0.0800 
 25 H       -3.2900    -0.7580     0.1130 H     1 <1>   0.0800 
 26 H       -1.6020     3.1390    -0.0030 H     1 <1>   0.0800 
 27 H       -1.3020     2.2250     1.4380 H     1 <1>   0.0800 
 28 H        2.5330     0.1410     1.3610 H     1 <1>   0.0800 
 29 H        2.5930     1.1980    -0.0250 H     1 <1>   0.0800 
 30 H       -3.5350     1.6810     0.6430 H     1 <1>   0.0800 
 31 H       -2.9450     1.3760    -0.9630 H     1 <1>   0.0800 
 32 H        3.9600    -0.4970    -1.1890 H     1 <1>   0.4500 
 33 H        3.8790    -1.4900     0.1280 H     1 <1>   0.4500 
 34 H        4.9090     0.3770     1.4250 H     1 <1>   0.0800 
 35 H        4.4750     2.0020    -0.4870 H     1 <1>   0.0800 
 36 H        5.7340     1.2030    -1.3810 H     1 <1>   0.0800 
 37 H        6.3070    -1.2720    -0.6900 H     1 <1>   0.0800 
 38 H        5.8990    -1.7630     0.9290 H     1 <1>   0.0800 
 39 H        6.2260     2.2310     1.4170 H     1 <1>   0.0800 
 40 H        6.2070     3.3340     0.0900 H     1 <1>   0.0800 
 41 H        8.1860    -1.3120     0.9310 H     1 <1>   0.0800 
 42 H        7.4750    -0.0090     1.8190 H     1 <1>   0.0800 
 43 H        8.4550     2.4240     0.8290 H     1 <1>   0.0800 
 44 H        8.1330     2.5200    -0.8630 H     1 <1>   0.0800 
 45 H        8.0640     0.2180    -1.1480 H     1 <1>   0.0800 
 46 H        9.3090     0.4530     0.0190 H     1 <1>   0.0800 
@<TRIPOS>BOND
  1   1   2  1   
  2   1   3  1   
  3   1   4  1   
  4   1  17  1   
  5   2   5  1   
  6   2  18  1   
  7   2  19  1   
  8   3   6  1   
  9   3  20  1   
 10   3  21  1   
 11   4   7  1   
 12   4  22  1   
 13   4  23  1   
 14   5   8  1   
 15   5  24  1   
 16   5  25  1   
 17   6   8  1   
 18   6  26  1   
 19   6  27  1   
 20   7   9  1   
 21   7  28  1   
 22   7  29  1   
 23   8  30  1   
 24   8  31  1   
 25   9  10  1   
 26   9  32  1   
 27   9  33  1   
 28  10  11  1   
 29  10  12  1   
 30  10  34  1   
 31  11  13  1   
 32  11  35  1   
 33  11  36  1   
 34  12  14  1   
 35  12  37  1   
 36  12  38  1   
 37  13  15  1   
 38  13  39  1   
 39  13  40  1   
 40  14  16  1   
 41  14  41  1   
 42  14  42  1   
 43  15  16  1   
 44  15  43  1   
 45  15  44  1   
 46  16  45  1   
 47  16  46  1   
@<TRIPOS>SUBSTRUCTURE
  1 ****   7 GROUP 4 **** **** 0

# MOE 2024.06 (io_trps.svl 2023.06)
