@<TRIPOS>MOLECULE
NONAME
46 46 1 0 0 
SMALL
USER_CHARGES


@<TRIPOS>ATOM
  1 N       -0.2260     0.0450    -0.1260 N.4   1 <1>  -0.9590 
  2 C       -1.3880     0.6430     0.5840 C.3   1 <1>   0.3430 
  3 C       -0.0630    -1.4050     0.1800 C.3   1 <1>   0.3430 
  4 C        1.0140     0.8150     0.2020 C.3   1 <1>   0.3430 
  5 C       -2.6760    -0.0930     0.2100 C.3   1 <1>  -0.1600 
  6 C       -1.3310    -2.1660    -0.2070 C.3   1 <1>  -0.1600 
  7 C        2.1240     0.4990    -0.8030 C.3   1 <1>  -0.1600 
  8 C       -2.5790    -1.6030     0.4910 C.3   1 <1>   0.4230 
  9 C        3.3550     1.3740    -0.5440 C.3   1 <1>  -0.2400 
 10 N       -3.8160    -2.3160     0.0240 N.4   1 <1>  -0.9590 
 11 C       -5.0830    -1.8010     0.6270 C.3   1 <1>   0.4810 
 12 C       -3.7800    -3.7980     0.2290 C.3   1 <1>   0.3430 
 13 C       -6.2480    -2.3140    -0.2010 C.2   1 <1>  -0.2760 
 14 C       -3.6780    -4.4820    -1.1280 C.3   1 <1>  -0.2400 
 15 C       -7.1020    -3.2440     0.2400 C.2   1 <1>  -0.3000 
 16 C       -6.4020    -1.6710    -1.5760 C.3   1 <1>  -0.1020 
 17 H       -0.3650     0.1580    -1.1420 H     1 <1>   0.4500 
 18 H       -1.4810     1.6860     0.3200 H     1 <1>   0.0800 
 19 H       -1.2310     0.5850     1.6510 H     1 <1>   0.0800 
 20 H        0.1370    -1.5350     1.2320 H     1 <1>   0.0800 
 21 H        0.7740    -1.8070    -0.3690 H     1 <1>   0.0800 
 22 H        1.3480     0.5850     1.2010 H     1 <1>   0.0800 
 23 H        0.8070     1.8730     0.1560 H     1 <1>   0.0800 
 24 H       -2.8890     0.0840    -0.8300 H     1 <1>   0.0800 
 25 H       -3.4600     0.3490     0.7960 H     1 <1>   0.0800 
 26 H       -1.1750    -3.1920     0.0720 H     1 <1>   0.0800 
 27 H       -1.4450    -2.1220    -1.2760 H     1 <1>   0.0800 
 28 H        1.7790     0.6900    -1.8050 H     1 <1>   0.0800 
 29 H        2.4250    -0.5310    -0.7280 H     1 <1>   0.0800 
 30 H       -2.4730    -1.7500     1.5550 H     1 <1>   0.0800 
 31 H        3.1130     2.4190    -0.6400 H     1 <1>   0.0800 
 32 H        4.1270     1.1440    -1.2590 H     1 <1>   0.0800 
 33 H        3.7520     1.1990     0.4420 H     1 <1>   0.0800 
 34 H       -3.9380    -2.1790    -0.9860 H     1 <1>   0.4500 
 35 H       -5.1140    -0.7260     0.6260 H     1 <1>   0.0800 
 36 H       -5.1760    -2.1460     1.6450 H     1 <1>   0.0800 
 37 H       -4.6830    -4.1340     0.7160 H     1 <1>   0.0800 
 38 H       -2.9470    -4.0800     0.8530 H     1 <1>   0.0800 
 39 H       -4.5430    -4.2650    -1.7300 H     1 <1>   0.0800 
 40 H       -3.6460    -5.5480    -0.9810 H     1 <1>   0.0800 
 41 H       -2.7870    -4.1970    -1.6560 H     1 <1>   0.0800 
 42 H       -7.9410    -3.6110    -0.3300 H     1 <1>   0.1500 
 43 H       -7.0580    -3.7220     1.2050 H     1 <1>   0.1500 
 44 H       -5.5570    -1.8760    -2.2060 H     1 <1>   0.0800 
 45 H       -6.5210    -0.6050    -1.4820 H     1 <1>   0.0800 
 46 H       -7.2790    -2.0530    -2.0710 H     1 <1>   0.0800 
@<TRIPOS>BOND
  1   1   2  1   
  2   1   3  1   
  3   1   4  1   
  4   1  17  1   
  5   2   5  1   
  6   2  18  1   
  7   2  19  1   
  8   3   6  1   
  9   3  20  1   
 10   3  21  1   
 11   4   7  1   
 12   4  22  1   
 13   4  23  1   
 14   5   8  1   
 15   5  24  1   
 16   5  25  1   
 17   6   8  1   
 18   6  26  1   
 19   6  27  1   
 20   7   9  1   
 21   7  28  1   
 22   7  29  1   
 23   8  10  1   
 24   8  30  1   
 25   9  31  1   
 26   9  32  1   
 27   9  33  1   
 28  10  11  1   
 29  10  12  1   
 30  10  34  1   
 31  11  13  1   
 32  11  35  1   
 33  11  36  1   
 34  12  14  1   
 35  12  37  1   
 36  12  38  1   
 37  13  15  2   
 38  13  16  1   
 39  14  39  1   
 40  14  40  1   
 41  14  41  1   
 42  15  42  1   
 43  15  43  1   
 44  16  44  1   
 45  16  45  1   
 46  16  46  1   
@<TRIPOS>SUBSTRUCTURE
  1 ****   8 GROUP 4 **** **** 0

# MOE 2024.06 (io_trps.svl 2023.06)
