@<TRIPOS>MOLECULE
NONAME
46 48 1 0 0 
SMALL
USER_CHARGES


@<TRIPOS>ATOM
  1 O       -0.4760    -1.2810     0.9770 O.2   1 <1>  -0.5700 
  2 C       -1.1040    -1.9680     0.1930 C.2   1 <1>   0.5440 
  3 N       -0.3710    -2.7470    -0.6730 N.am  1 <1>  -0.6600 
  4 C       -2.5560    -2.0080     0.2220 C.ar  1 <1>   0.0860 
  5 C        0.9770    -2.2660    -1.0960 C.3   1 <1>   0.1400 
  6 C       -0.4510    -4.2290    -0.5380 C.3   1 <1>   0.1400 
  7 C       -3.2620    -1.6810     1.3810 C.ar  1 <1>  -0.1500 
  8 C       -3.3060    -2.3740    -0.8990 C.ar  1 <1>  -0.1500 
  9 C        2.0450    -2.7490    -0.0970 C.3   1 <1>   0.3430 
 10 C        0.6330    -4.7300     0.4430 C.3   1 <1>   0.3430 
 11 C       -4.6420    -1.7280     1.4240 C.ar  1 <1>  -0.1500 
 12 C       -4.6880    -2.4230    -0.8650 C.ar  1 <1>  -0.1500 
 13 N        2.0170    -4.2500     0.0750 N.4   1 <1>  -0.9590 
 14 C       -5.3680    -2.0990     0.3050 C.ar  1 <1>   0.0830 
 15 C        3.0150    -4.6750     1.1030 C.3   1 <1>   0.2630 
 16 O       -6.7130    -2.1140     0.4280 O.3   1 <1>  -0.3630 
 17 C       -7.5620    -2.3840    -0.6670 C.3   1 <1>   0.2630 
 18 C       -9.0090    -2.2270    -0.2250 C.ar  1 <1>  -0.1440 
 19 C       -9.8980    -3.2880    -0.3250 C.ar  1 <1>  -0.1500 
 20 C       -9.4550    -1.0140     0.2760 C.ar  1 <1>  -0.1500 
 21 C      -11.2170    -3.1340     0.0680 C.ar  1 <1>  -0.1500 
 22 C      -10.7730    -0.8580     0.6690 C.ar  1 <1>  -0.1500 
 23 C      -11.6550    -1.9190     0.5640 C.ar  1 <1>  -0.1500 
 24 H        0.9820    -1.1890    -1.1280 H     1 <1>   0.0800 
 25 H        1.1990    -2.6240    -2.0860 H     1 <1>   0.0800 
 26 H       -0.3210    -4.6870    -1.5030 H     1 <1>   0.0800 
 27 H       -1.4220    -4.5120    -0.1670 H     1 <1>   0.0800 
 28 H       -2.7170    -1.3810     2.2610 H     1 <1>   0.1500 
 29 H       -2.7980    -2.6150    -1.8150 H     1 <1>   0.1500 
 30 H        1.8520    -2.2700     0.8500 H     1 <1>   0.0800 
 31 H        3.0170    -2.4330    -0.4360 H     1 <1>   0.0800 
 32 H        0.6130    -5.8070     0.4700 H     1 <1>   0.0800 
 33 H        0.3820    -4.3710     1.4280 H     1 <1>   0.0800 
 34 H       -5.1700    -1.4740     2.3260 H     1 <1>   0.1500 
 35 H       -5.2170    -2.7100    -1.7550 H     1 <1>   0.1500 
 36 H        2.2690    -4.6720    -0.8290 H     1 <1>   0.4500 
 37 H        2.7760    -4.2380     2.0590 H     1 <1>   0.0800 
 38 H        4.0050    -4.3570     0.8180 H     1 <1>   0.0800 
 39 H        3.0160    -5.7480     1.2040 H     1 <1>   0.0800 
 40 H       -7.3700    -3.3870    -1.0030 H     1 <1>   0.0800 
 41 H       -7.3400    -1.6810    -1.4500 H     1 <1>   0.0800 
 42 H       -9.5710    -4.2390    -0.7070 H     1 <1>   0.1500 
 43 H       -8.7710    -0.1870     0.3650 H     1 <1>   0.1500 
 44 H      -11.9010    -3.9600    -0.0110 H     1 <1>   0.1500 
 45 H      -11.1100     0.0860     1.0570 H     1 <1>   0.1500 
 46 H      -12.6800    -1.7990     0.8700 H     1 <1>   0.1500 
@<TRIPOS>BOND
  1   1   2  2   
  2   2   3  am  
  3   2   4  1   
  4   3   5  1   
  5   3   6  1   
  6   4   7  ar  
  7   4   8  ar  
  8   5   9  1   
  9   5  24  1   
 10   5  25  1   
 11   6  10  1   
 12   6  26  1   
 13   6  27  1   
 14   7  11  ar  
 15   7  28  1   
 16   8  12  ar  
 17   8  29  1   
 18   9  13  1   
 19   9  30  1   
 20   9  31  1   
 21  10  13  1   
 22  10  32  1   
 23  10  33  1   
 24  11  14  ar  
 25  11  34  1   
 26  12  14  ar  
 27  12  35  1   
 28  13  15  1   
 29  13  36  1   
 30  14  16  1   
 31  15  37  1   
 32  15  38  1   
 33  15  39  1   
 34  16  17  1   
 35  17  18  1   
 36  17  40  1   
 37  17  41  1   
 38  18  19  ar  
 39  18  20  ar  
 40  19  21  ar  
 41  19  42  1   
 42  20  22  ar  
 43  20  43  1   
 44  21  23  ar  
 45  21  44  1   
 46  22  23  ar  
 47  22  45  1   
 48  23  46  1   
@<TRIPOS>SUBSTRUCTURE
  1 ****  12 GROUP 4 **** **** 0

# MOE 2024.06 (io_trps.svl 2023.06)
