@<TRIPOS>MOLECULE
NONAME
46 48 1 0 0 
SMALL
USER_CHARGES


@<TRIPOS>ATOM
  1 O        0.0220     0.9210     1.7640 O.2   1 <1>  -0.5700 
  2 C       -0.4080     1.8150     1.0730 C.2   1 <1>   0.5690 
  3 N        0.3450     2.7140     0.3660 N.am  1 <1>  -0.2370 
  4 C       -1.9080     2.1350     0.9620 C.3   1 <1>   0.2510 
  5 C        1.7380     2.6280     0.1440 C.ar  1 <1>   0.1170 
  6 C       -0.4630     3.7230    -0.0850 C.2   1 <1>   0.5690 
  7 N       -2.7230     1.2380     0.0880 N.3   1 <1>  -0.8100 
  8 C       -1.8950     3.5400     0.3460 C.3   1 <1>  -0.0990 
  9 C        2.2650     2.7960    -1.1320 C.ar  1 <1>  -0.1500 
 10 C        2.6200     2.3730     1.1880 C.ar  1 <1>  -0.1500 
 11 O       -0.1210     4.6810    -0.7290 O.2   1 <1>  -0.5700 
 12 C       -4.1660     1.4610     0.3140 C.3   1 <1>   0.1100 
 13 C       -2.3920    -0.1920     0.2610 C.3   1 <1>   0.1100 
 14 C        3.6270     2.7110    -1.3570 C.ar  1 <1>  -0.1500 
 15 C        3.9820     2.2860     0.9640 C.ar  1 <1>  -0.1500 
 16 C       -4.9940     0.6680    -0.7000 C.3   1 <1>  -0.1600 
 17 C       -3.1750    -1.0490    -0.7380 C.3   1 <1>  -0.1600 
 18 C        4.5010     2.4540    -0.3120 C.ar  1 <1>  -0.1430 
 19 C       -4.6850    -0.8290    -0.6130 C.3   1 <1>  -0.1600 
 20 C        6.0020     2.3610    -0.5780 C.3   1 <1>   0.0630 
 21 C        6.5330     0.9670    -0.2280 C.3   1 <1>  -0.2400 
 22 C        6.7630     3.4430     0.1950 C.3   1 <1>  -0.2400 
 23 H       -2.3230     2.1540     1.9540 H     1 <1>   0.0800 
 24 H       -2.1360     4.2840     1.0810 H     1 <1>   0.0800 
 25 H       -2.5430     3.6340    -0.5060 H     1 <1>   0.0800 
 26 H        1.6050     3.0000    -1.9560 H     1 <1>   0.1500 
 27 H        2.2410     2.2350     2.1850 H     1 <1>   0.1500 
 28 H       -4.4040     2.5050     0.2080 H     1 <1>   0.0800 
 29 H       -4.4300     1.1550     1.3130 H     1 <1>   0.0800 
 30 H       -2.6120    -0.5030     1.2690 H     1 <1>   0.0800 
 31 H       -1.3440    -0.3570     0.0770 H     1 <1>   0.0800 
 32 H        4.0020     2.8470    -2.3560 H     1 <1>   0.1500 
 33 H        4.6370     2.0850     1.7920 H     1 <1>   0.1500 
 34 H       -4.7710     1.0300    -1.6890 H     1 <1>   0.0800 
 35 H       -6.0410     0.8330    -0.5160 H     1 <1>   0.0800 
 36 H       -2.9450    -2.0870    -0.5740 H     1 <1>   0.0800 
 37 H       -2.8530    -0.7960    -1.7330 H     1 <1>   0.0800 
 38 H       -5.2010    -1.3590    -1.3940 H     1 <1>   0.0800 
 39 H       -5.0250    -1.2110     0.3350 H     1 <1>   0.0800 
 40 H        6.1780     2.5240    -1.6280 H     1 <1>   0.0800 
 41 H        6.4290     0.7690     0.8240 H     1 <1>   0.0800 
 42 H        7.5720     0.8860    -0.4920 H     1 <1>   0.0800 
 43 H        5.9820     0.2200    -0.7720 H     1 <1>   0.0800 
 44 H        6.6630     3.2990     1.2560 H     1 <1>   0.0800 
 45 H        6.3730     4.4130    -0.0570 H     1 <1>   0.0800 
 46 H        7.8070     3.4170    -0.0590 H     1 <1>   0.0800 
@<TRIPOS>BOND
  1   1   2  2   
  2   2   3  am  
  3   2   4  1   
  4   3   5  1   
  5   3   6  am  
  6   4   7  1   
  7   4   8  1   
  8   4  23  1   
  9   5   9  ar  
 10   5  10  ar  
 11   6   8  1   
 12   6  11  2   
 13   7  12  1   
 14   7  13  1   
 15   8  24  1   
 16   8  25  1   
 17   9  14  ar  
 18   9  26  1   
 19  10  15  ar  
 20  10  27  1   
 21  12  16  1   
 22  12  28  1   
 23  12  29  1   
 24  13  17  1   
 25  13  30  1   
 26  13  31  1   
 27  14  18  ar  
 28  14  32  1   
 29  15  18  ar  
 30  15  33  1   
 31  16  19  1   
 32  16  34  1   
 33  16  35  1   
 34  17  19  1   
 35  17  36  1   
 36  17  37  1   
 37  18  20  1   
 38  19  38  1   
 39  19  39  1   
 40  20  21  1   
 41  20  22  1   
 42  20  40  1   
 43  21  41  1   
 44  21  42  1   
 45  21  43  1   
 46  22  44  1   
 47  22  45  1   
 48  22  46  1   
@<TRIPOS>SUBSTRUCTURE
  1 ****   3 GROUP 4 **** **** 0

# MOE 2024.06 (io_trps.svl 2023.06)
