@<TRIPOS>MOLECULE
NONAME
33 34 1 0 0 
SMALL
USER_CHARGES


@<TRIPOS>ATOM
  1 S        0.1890    -0.2830    -1.1080 S.3   1 <1>  -0.4600 
  2 C        1.8870     0.2880    -1.3790 C.3   1 <1>   0.0700 
  3 C        0.4320    -1.9550    -0.4560 C.3   1 <1>   0.0700 
  4 C        2.6890     0.1020    -0.0840 C.3   1 <1>   0.3430 
  5 C        1.3950    -1.8900     0.7380 C.3   1 <1>   0.3430 
  6 N        2.7410    -1.3360     0.3650 N.4   1 <1>  -0.9590 
  7 C        3.7130    -1.5070     1.4810 C.3   1 <1>   0.4860 
  8 C        5.0980    -1.1850     0.9590 C.ar  1 <1>  -0.1430 
  9 C        5.7070    -2.0260     0.0400 C.ar  1 <1>  -0.1500 
 10 C        5.7650    -0.0440     1.3830 C.ar  1 <1>  -0.1500 
 11 C        6.9590    -1.7300    -0.4690 C.ar  1 <1>   0.0830 
 12 C        7.0210     0.2540     0.8810 C.ar  1 <1>  -0.1500 
 13 O        7.4640    -2.6060    -1.3710 O.3   1 <1>  -0.3630 
 14 C        7.6190    -0.5820    -0.0450 C.ar  1 <1>  -0.1500 
 15 C        8.7680    -2.4540    -1.8890 C.3   1 <1>   0.0400 
 16 H        1.8290     1.3260    -1.6540 H     1 <1>   0.0800 
 17 H        2.3030    -0.2780    -2.1940 H     1 <1>   0.0800 
 18 H        0.8170    -2.5680    -1.2520 H     1 <1>   0.0800 
 19 H       -0.5350    -2.3180    -0.1570 H     1 <1>   0.0800 
 20 H        2.2450     0.7090     0.6880 H     1 <1>   0.0800 
 21 H        3.6900     0.4650    -0.2560 H     1 <1>   0.0800 
 22 H        1.5110    -2.8860     1.1340 H     1 <1>   0.0800 
 23 H        0.9500    -1.2780     1.5060 H     1 <1>   0.0800 
 24 H        3.1190    -1.8790    -0.4220 H     1 <1>   0.4500 
 25 H        3.6990    -2.5250     1.8350 H     1 <1>   0.0800 
 26 H        3.4630    -0.8540     2.3010 H     1 <1>   0.0800 
 27 H        5.2320    -2.9290    -0.3000 H     1 <1>   0.1500 
 28 H        5.3250     0.6230     2.1060 H     1 <1>   0.1500 
 29 H        7.5380     1.1390     1.2130 H     1 <1>   0.1500 
 30 H        8.5920    -0.3260    -0.4190 H     1 <1>   0.1500 
 31 H        8.9630    -3.2780    -2.5530 H     1 <1>   0.0800 
 32 H        9.4720    -2.4680    -1.0760 H     1 <1>   0.0800 
 33 H        8.8250    -1.5280    -2.4330 H     1 <1>   0.0800 
@<TRIPOS>BOND
  1   1   2  1   
  2   1   3  1   
  3   2   4  1   
  4   2  16  1   
  5   2  17  1   
  6   3   5  1   
  7   3  18  1   
  8   3  19  1   
  9   4   6  1   
 10   4  20  1   
 11   4  21  1   
 12   5   6  1   
 13   5  22  1   
 14   5  23  1   
 15   6   7  1   
 16   6  24  1   
 17   7   8  1   
 18   7  25  1   
 19   7  26  1   
 20   8   9  ar  
 21   8  10  ar  
 22   9  11  ar  
 23   9  27  1   
 24  10  12  ar  
 25  10  28  1   
 26  11  13  1   
 27  11  14  ar  
 28  12  14  ar  
 29  12  29  1   
 30  13  15  1   
 31  14  30  1   
 32  15  31  1   
 33  15  32  1   
 34  15  33  1   
@<TRIPOS>SUBSTRUCTURE
  1 ****   8 GROUP 4 **** **** 0

# MOE 2024.06 (io_trps.svl 2023.06)
