@<TRIPOS>MOLECULE
NONAME
40 41 1 0 0 
SMALL
USER_CHARGES


@<TRIPOS>ATOM
  1 CL      -2.0180     2.4430    -2.5770 Cl    1 <1>  -0.1770 
  2 C       -2.6250     2.1760    -0.9660 C.ar  1 <1>   0.1770 
  3 C       -3.6340     1.2510    -0.7740 C.ar  1 <1>  -0.1500 
  4 C       -2.0940     2.8910     0.0900 C.ar  1 <1>  -0.1500 
  5 C       -4.1340     1.0380     0.5050 C.ar  1 <1>  -0.1440 
  6 C       -2.5840     2.6730     1.3660 C.ar  1 <1>  -0.1500 
  7 C       -3.5980     1.7500     1.5710 C.ar  1 <1>  -0.1500 
  8 C       -5.2540     0.0400     0.7340 C.3   1 <1>   0.4870 
  9 N       -6.5170     0.5960     0.1720 N.4   1 <1>  -0.9590 
 10 C       -6.9230     1.8570     0.8620 C.3   1 <1>   0.3430 
 11 C       -7.6030    -0.4230     0.1700 C.3   1 <1>   0.3430 
 12 C       -8.1330     2.4610     0.1520 C.3   1 <1>  -0.1600 
 13 C       -8.8230     0.1380    -0.5580 C.3   1 <1>  -0.1600 
 14 C       -9.3050     1.4680     0.0580 C.3   1 <1>  -0.0190 
 15 C      -10.4680     2.0800    -0.7190 C.2   1 <1>   0.6590 
 16 O      -10.6160     1.8870    -1.8970 O.2   1 <1>  -0.5700 
 17 O      -11.2840     2.8470    -0.0120 O.3   1 <1>  -0.4300 
 18 C      -12.3930     3.4830    -0.6070 C.3   1 <1>   0.1200 
 19 C      -13.1110     4.2880     0.4720 C.3   1 <1>  -0.2400 
 20 H       -4.0050     0.7150    -1.6290 H     1 <1>   0.1500 
 21 H       -1.3070     3.6040    -0.0870 H     1 <1>   0.1500 
 22 H       -2.1710     3.2210     2.1970 H     1 <1>   0.1500 
 23 H       -3.9570     1.5970     2.5760 H     1 <1>   0.1500 
 24 H       -5.3670    -0.1510     1.7890 H     1 <1>   0.0800 
 25 H       -5.0060    -0.8880     0.2440 H     1 <1>   0.0800 
 26 H       -6.3150     0.8480    -0.8040 H     1 <1>   0.4500 
 27 H       -6.1110     2.5680     0.8460 H     1 <1>   0.0800 
 28 H       -7.1720     1.6490     1.8900 H     1 <1>   0.0800 
 29 H       -7.8720    -0.6760     1.1830 H     1 <1>   0.0800 
 30 H       -7.2720    -1.3200    -0.3290 H     1 <1>   0.0800 
 31 H       -7.8430     2.7820    -0.8350 H     1 <1>   0.0800 
 32 H       -8.4510     3.3380     0.6910 H     1 <1>   0.0800 
 33 H       -9.6210    -0.5830    -0.5160 H     1 <1>   0.0800 
 34 H       -8.5780     0.2780    -1.5980 H     1 <1>   0.0800 
 35 H       -9.6630     1.2660     1.0530 H     1 <1>   0.0800 
 36 H      -13.0400     2.7270    -1.0200 H     1 <1>   0.0800 
 37 H      -12.0380     4.1250    -1.3960 H     1 <1>   0.0800 
 38 H      -13.4530     3.6370     1.2560 H     1 <1>   0.0800 
 39 H      -13.9640     4.7840     0.0440 H     1 <1>   0.0800 
 40 H      -12.4530     5.0340     0.8810 H     1 <1>   0.0800 
@<TRIPOS>BOND
  1   1   2  1   
  2   2   3  ar  
  3   2   4  ar  
  4   3   5  ar  
  5   3  20  1   
  6   4   6  ar  
  7   4  21  1   
  8   5   7  ar  
  9   5   8  1   
 10   6   7  ar  
 11   6  22  1   
 12   7  23  1   
 13   8   9  1   
 14   8  24  1   
 15   8  25  1   
 16   9  10  1   
 17   9  11  1   
 18   9  26  1   
 19  10  12  1   
 20  10  27  1   
 21  10  28  1   
 22  11  13  1   
 23  11  29  1   
 24  11  30  1   
 25  12  14  1   
 26  12  31  1   
 27  12  32  1   
 28  13  14  1   
 29  13  33  1   
 30  13  34  1   
 31  14  15  1   
 32  14  35  1   
 33  15  16  2   
 34  15  17  1   
 35  17  18  1   
 36  18  19  1   
 37  18  36  1   
 38  18  37  1   
 39  19  38  1   
 40  19  39  1   
 41  19  40  1   
@<TRIPOS>SUBSTRUCTURE
  1 ****  10 GROUP 4 **** **** 0

# MOE 2024.06 (io_trps.svl 2023.06)
