@<TRIPOS>MOLECULE
NONAME
51 52 1 0 0 
SMALL
USER_CHARGES


@<TRIPOS>ATOM
  1 O       -5.1630     3.3380    -0.1160 O.3   1 <1>  -0.5600 
  2 C       -6.5090     3.2850     0.2300 C.3   1 <1>   0.2000 
  3 C       -4.5690     4.6010    -0.0550 C.3   1 <1>   0.1200 
  4 C       -6.7770     1.8640     0.7120 C.3   1 <1>  -0.2400 
  5 C       -7.3480     3.6180    -1.0030 C.3   1 <1>  -0.2400 
  6 C       -3.1010     4.4550    -0.4770 C.3   1 <1>   0.2000 
  7 O       -2.5640     3.3500     0.1820 O.3   1 <1>  -0.6800 
  8 C       -2.2480     5.7000    -0.1560 C.3   1 <1>   0.3430 
  9 N       -0.8060     5.3260    -0.0440 N.4   1 <1>  -0.9590 
 10 C       -0.0090     6.2710     0.8190 C.3   1 <1>   0.3430 
 11 C       -0.1480     5.1030    -1.3820 C.3   1 <1>   0.3430 
 12 C        1.4690     5.8510     0.9440 C.3   1 <1>   0.2090 
 13 C        1.3300     4.6830    -1.2490 C.3   1 <1>   0.2090 
 14 N        2.0840     5.6530    -0.4010 N.pl3 1 <1>  -0.8380 
 15 C        3.4730     5.4570    -0.3850 C.ar  1 <1>   0.1000 
 16 C        4.1030     4.3300     0.1750 C.ar  1 <1>   0.0820 
 17 C        4.2600     6.4450    -0.9600 C.ar  1 <1>  -0.1500 
 18 O        3.3170     3.3600     0.7410 O.3   1 <1>  -0.3620 
 19 C        5.4910     4.2310     0.1400 C.ar  1 <1>  -0.1500 
 20 C        5.6380     6.3380    -0.9900 C.ar  1 <1>  -0.1500 
 21 C        3.8830     2.1950     1.3040 C.3   1 <1>   0.0400 
 22 C        6.2540     5.2300    -0.4400 C.ar  1 <1>  -0.1500 
 23 H       -6.7040     3.9800     1.0320 H     1 <1>   0.0800 
 24 H       -4.6400     4.9620     0.9570 H     1 <1>   0.0800 
 25 H       -5.0890     5.2720    -0.7160 H     1 <1>   0.0800 
 26 H       -6.5650     1.1560    -0.0680 H     1 <1>   0.0800 
 27 H       -7.8090     1.7610     0.9960 H     1 <1>   0.0800 
 28 H       -6.1680     1.6440     1.5700 H     1 <1>   0.0800 
 29 H       -7.1030     2.9530    -1.8120 H     1 <1>   0.0800 
 30 H       -7.1940     4.6340    -1.3130 H     1 <1>   0.0800 
 31 H       -8.3920     3.4990    -0.7730 H     1 <1>   0.0800 
 32 H       -3.0660     4.2520    -1.5340 H     1 <1>   0.0800 
 33 H       -3.2850     2.6730     0.2210 H     1 <1>   0.4000 
 34 H       -2.5850     6.0980     0.7870 H     1 <1>   0.0800 
 35 H       -2.3920     6.4600    -0.9070 H     1 <1>   0.0800 
 36 H       -0.8330     4.3960     0.4180 H     1 <1>   0.4500 
 37 H       -0.4420     6.3210     1.8040 H     1 <1>   0.0800 
 38 H       -0.0380     7.2590     0.3910 H     1 <1>   0.0800 
 39 H       -0.1850     6.0110    -1.9590 H     1 <1>   0.0800 
 40 H       -0.6780     4.3380    -1.9260 H     1 <1>   0.0800 
 41 H        1.5380     4.9430     1.5170 H     1 <1>   0.0800 
 42 H        2.0160     6.6150     1.4710 H     1 <1>   0.0800 
 43 H        1.7810     4.6430    -2.2250 H     1 <1>   0.0800 
 44 H        1.3850     3.6980    -0.8200 H     1 <1>   0.0800 
 45 H        3.7820     7.3060    -1.3880 H     1 <1>   0.1500 
 46 H        6.0060     3.3870     0.5570 H     1 <1>   0.1500 
 47 H        6.2300     7.1160    -1.4420 H     1 <1>   0.1500 
 48 H        4.4250     1.6650     0.5400 H     1 <1>   0.0800 
 49 H        3.0840     1.5800     1.6760 H     1 <1>   0.0800 
 50 H        4.5320     2.4770     2.1130 H     1 <1>   0.0800 
 51 H        7.3270     5.1450    -0.4620 H     1 <1>   0.1500 
@<TRIPOS>BOND
  1   1   2  1   
  2   1   3  1   
  3   2   4  1   
  4   2   5  1   
  5   2  23  1   
  6   3   6  1   
  7   3  24  1   
  8   3  25  1   
  9   4  26  1   
 10   4  27  1   
 11   4  28  1   
 12   5  29  1   
 13   5  30  1   
 14   5  31  1   
 15   6   7  1   
 16   6   8  1   
 17   6  32  1   
 18   7  33  1   
 19   8   9  1   
 20   8  34  1   
 21   8  35  1   
 22   9  10  1   
 23   9  11  1   
 24   9  36  1   
 25  10  12  1   
 26  10  37  1   
 27  10  38  1   
 28  11  13  1   
 29  11  39  1   
 30  11  40  1   
 31  12  14  1   
 32  12  41  1   
 33  12  42  1   
 34  13  14  1   
 35  13  43  1   
 36  13  44  1   
 37  14  15  1   
 38  15  16  ar  
 39  15  17  ar  
 40  16  18  1   
 41  16  19  ar  
 42  17  20  ar  
 43  17  45  1   
 44  18  21  1   
 45  19  22  ar  
 46  19  46  1   
 47  20  22  ar  
 48  20  47  1   
 49  21  48  1   
 50  21  49  1   
 51  21  50  1   
 52  22  51  1   
@<TRIPOS>SUBSTRUCTURE
  1 ****   9 GROUP 4 **** **** 0

# MOE 2024.06 (io_trps.svl 2023.06)
