@<TRIPOS>MOLECULE
NONAME
39 39 1 0 0 
SMALL
USER_CHARGES


@<TRIPOS>ATOM
  1 O        0.1580    -0.5550     1.4320 O.2   1 <1>  -0.5700 
  2 C        0.0530    -0.8640     0.2630 C.2   1 <1>   0.6900 
  3 N        1.1450    -1.1500    -0.5040 N.am  1 <1>  -0.5470 
  4 N       -1.1560    -0.9470    -0.3440 N.am  1 <1>  -0.7300 
  5 C        2.5190    -1.0700    -0.2320 C.ar  1 <1>   0.1170 
  6 C       -2.4900    -0.8210     0.2640 C.3   1 <1>   0.5000 
  7 C        3.3930    -1.8190    -1.0090 C.ar  1 <1>  -0.1500 
  8 C        3.0550    -0.2590     0.7650 C.ar  1 <1>  -0.1500 
  9 C       -2.6620    -1.9310     1.2520 C.1   1 <1>  -0.2000 
 10 C       -3.4970    -1.0250    -0.8940 C.3   1 <1>  -0.1600 
 11 C       -2.6640     0.5510     0.9610 C.3   1 <1>  -0.1600 
 12 C        4.7600    -1.7730    -0.8050 C.ar  1 <1>   0.0820 
 13 C        4.4200    -0.2060     0.9810 C.ar  1 <1>  -0.1500 
 14 C       -2.7900    -2.8130     2.0410 C.1   1 <1>  -0.1770 
 15 C       -4.9890    -0.9090    -0.5250 C.3   1 <1>  -0.2400 
 16 C       -2.4360     1.7900     0.0730 C.3   1 <1>  -0.2400 
 17 O        5.5240    -2.5440    -1.6200 O.3   1 <1>  -0.3620 
 18 C        5.2780    -0.9600     0.2000 C.ar  1 <1>  -0.1500 
 19 C        6.9270    -2.5900    -1.4790 C.3   1 <1>   0.0400 
 20 H        0.9190    -1.5640    -1.3990 H     1 <1>   0.3700 
 21 H       -1.1950    -1.2670    -1.3020 H     1 <1>   0.3700 
 22 H        3.0140    -2.4550    -1.7860 H     1 <1>   0.1500 
 23 H        2.4050     0.3380     1.3780 H     1 <1>   0.1500 
 24 H       -3.3410    -2.0070    -1.3050 H     1 <1>   0.0800 
 25 H       -3.2900    -0.3120    -1.6720 H     1 <1>   0.0800 
 26 H       -1.9930     0.6030     1.8000 H     1 <1>   0.0800 
 27 H       -3.6520     0.6050     1.3810 H     1 <1>   0.0800 
 28 H        4.8120     0.4240     1.7590 H     1 <1>   0.1500 
 29 H       -2.8880    -3.6050     2.7620 H     1 <1>   0.1770 
 30 H       -5.2440    -1.5920     0.2670 H     1 <1>   0.0800 
 31 H       -5.5950    -1.1470    -1.3810 H     1 <1>   0.0800 
 32 H       -5.2340     0.0910    -0.2130 H     1 <1>   0.0800 
 33 H       -1.4420     1.7800    -0.3380 H     1 <1>   0.0800 
 34 H       -2.5430     2.6820     0.6650 H     1 <1>   0.0800 
 35 H       -3.1490     1.8300    -0.7290 H     1 <1>   0.0800 
 36 H        6.3330    -0.9010     0.3870 H     1 <1>   0.1500 
 37 H        7.3150    -3.2670    -2.2180 H     1 <1>   0.0800 
 38 H        7.1660    -2.9470    -0.4930 H     1 <1>   0.0800 
 39 H        7.3260    -1.6040    -1.6410 H     1 <1>   0.0800 
@<TRIPOS>BOND
  1   1   2  2   
  2   2   3  am  
  3   2   4  am  
  4   3   5  1   
  5   3  20  1   
  6   4   6  1   
  7   4  21  1   
  8   5   7  ar  
  9   5   8  ar  
 10   6   9  1   
 11   6  10  1   
 12   6  11  1   
 13   7  12  ar  
 14   7  22  1   
 15   8  13  ar  
 16   8  23  1   
 17   9  14  3   
 18  10  15  1   
 19  10  24  1   
 20  10  25  1   
 21  11  16  1   
 22  11  26  1   
 23  11  27  1   
 24  12  17  1   
 25  12  18  ar  
 26  13  18  ar  
 27  13  28  1   
 28  14  29  1   
 29  15  30  1   
 30  15  31  1   
 31  15  32  1   
 32  16  33  1   
 33  16  34  1   
 34  16  35  1   
 35  17  19  1   
 36  18  36  1   
 37  19  37  1   
 38  19  38  1   
 39  19  39  1   
@<TRIPOS>SUBSTRUCTURE
  1 ****   3 GROUP 4 **** **** 0

# MOE 2024.06 (io_trps.svl 2023.06)
