@<TRIPOS>MOLECULE
NONAME
47 48 1 0 0 
SMALL
USER_CHARGES


@<TRIPOS>ATOM
  1 O        0.4320    -1.2150    -0.4120 O.3   1 <1>  -0.3630 
  2 C       -0.9220    -1.3030    -0.2980 C.ar  1 <1>   0.0830 
  3 C        1.1760    -0.2230     0.2450 C.3   1 <1>   0.1200 
  4 C       -1.5720    -2.3420    -0.9660 C.ar  1 <1>  -0.1440 
  5 C       -1.6600    -0.3970     0.4610 C.ar  1 <1>  -0.1500 
  6 C        2.6440    -0.4560    -0.1110 C.3   1 <1>  -0.1600 
  7 C       -2.9540    -2.4680    -0.8540 C.ar  1 <1>  -0.1440 
  8 C       -0.7800    -3.3420    -1.8100 C.3   1 <1>  -0.0960 
  9 C       -3.0330    -0.5210     0.5640 C.ar  1 <1>  -0.1430 
 10 C        3.5350     0.5870     0.5580 C.3   1 <1>   0.3430 
 11 C       -3.6700    -1.5560    -0.0940 C.ar  1 <1>  -0.1500 
 12 C       -3.7210    -3.5890    -1.5440 C.3   1 <1>  -0.0970 
 13 C       -3.8400     0.4670     1.3880 C.3   1 <1>  -0.0970 
 14 N        4.9710     0.2880     0.2940 N.4   1 <1>  -0.9590 
 15 C        5.8470     1.0420     1.2390 C.3   1 <1>   0.3430 
 16 C        5.3560     0.5480    -1.1280 C.3   1 <1>   0.3430 
 17 C        7.3010     0.6050     1.0570 C.3   1 <1>  -0.1600 
 18 C        6.8010     0.1030    -1.3610 C.3   1 <1>  -0.1600 
 19 C        7.7720     0.7880    -0.3910 C.3   1 <1>  -0.1600 
 20 H        1.0080    -0.3230     1.3040 H     1 <1>   0.0800 
 21 H        0.8350     0.7370    -0.1040 H     1 <1>   0.0800 
 22 H       -1.1870     0.4130     0.9780 H     1 <1>   0.1500 
 23 H        2.7380    -0.4000    -1.1810 H     1 <1>   0.0800 
 24 H        2.9200    -1.4400     0.2240 H     1 <1>   0.0800 
 25 H       -0.6750    -4.2650    -1.2700 H     1 <1>   0.0800 
 26 H        0.2000    -2.9780    -2.0540 H     1 <1>   0.0800 
 27 H       -1.2840    -3.5350    -2.7390 H     1 <1>   0.0800 
 28 H        3.3540     0.5640     1.6210 H     1 <1>   0.0800 
 29 H        3.2890     1.5720     0.1950 H     1 <1>   0.0800 
 30 H       -4.7380    -1.6500    -0.0130 H     1 <1>   0.1500 
 31 H       -3.7100    -3.4390    -2.6080 H     1 <1>   0.0800 
 32 H       -4.7440    -3.6160    -1.2160 H     1 <1>   0.0800 
 33 H       -3.2750    -4.5400    -1.3160 H     1 <1>   0.0800 
 34 H       -3.2330     0.9050     2.1590 H     1 <1>   0.0800 
 35 H       -4.6720    -0.0290     1.8550 H     1 <1>   0.0800 
 36 H       -4.2140     1.2490     0.7520 H     1 <1>   0.0800 
 37 H        5.1280    -0.7130     0.4720 H     1 <1>   0.4500 
 38 H        5.5430     0.8540     2.2570 H     1 <1>   0.0800 
 39 H        5.7640     2.1000     1.0490 H     1 <1>   0.0800 
 40 H        5.2650     1.6000    -1.3450 H     1 <1>   0.0800 
 41 H        4.7080     0.0060    -1.7970 H     1 <1>   0.0800 
 42 H        7.4060    -0.4250     1.3510 H     1 <1>   0.0800 
 43 H        7.9280     1.1890     1.7100 H     1 <1>   0.0800 
 44 H        7.0830     0.3400    -2.3730 H     1 <1>   0.0800 
 45 H        6.8670    -0.9660    -1.2540 H     1 <1>   0.0800 
 46 H        8.7610     0.3760    -0.5100 H     1 <1>   0.0800 
 47 H        7.8270     1.8390    -0.6220 H     1 <1>   0.0800 
@<TRIPOS>BOND
  1   1   2  1   
  2   1   3  1   
  3   2   4  ar  
  4   2   5  ar  
  5   3   6  1   
  6   3  20  1   
  7   3  21  1   
  8   4   7  ar  
  9   4   8  1   
 10   5   9  ar  
 11   5  22  1   
 12   6  10  1   
 13   6  23  1   
 14   6  24  1   
 15   7  11  ar  
 16   7  12  1   
 17   8  25  1   
 18   8  26  1   
 19   8  27  1   
 20   9  11  ar  
 21   9  13  1   
 22  10  14  1   
 23  10  28  1   
 24  10  29  1   
 25  11  30  1   
 26  12  31  1   
 27  12  32  1   
 28  12  33  1   
 29  13  34  1   
 30  13  35  1   
 31  13  36  1   
 32  14  15  1   
 33  14  16  1   
 34  14  37  1   
 35  15  17  1   
 36  15  38  1   
 37  15  39  1   
 38  16  18  1   
 39  16  40  1   
 40  16  41  1   
 41  17  19  1   
 42  17  42  1   
 43  17  43  1   
 44  18  19  1   
 45  18  44  1   
 46  18  45  1   
 47  19  46  1   
 48  19  47  1   
@<TRIPOS>SUBSTRUCTURE
  1 ****   3 GROUP 4 **** **** 0

# MOE 2024.06 (io_trps.svl 2023.06)
