@<TRIPOS>MOLECULE
NONAME
41 43 1 0 0 
SMALL
USER_CHARGES


@<TRIPOS>ATOM
  1 O        0.7110     1.5140     0.9880 O.2   1 <1>  -0.5700 
  2 C        1.8140     1.8280     0.6530 C.2   1 <1>   0.4480 
  3 C        2.7550     2.6840     1.4800 C.3   1 <1>  -0.0190 
  4 C        2.4590     1.4350    -0.6640 C.3   1 <1>  -0.0190 
  5 C        2.8120     4.0790     0.8180 C.3   1 <1>  -0.1600 
  6 C        4.1670     2.0320     1.5440 C.3   1 <1>  -0.1600 
  7 C        3.0650     2.6880    -1.3630 C.3   1 <1>  -0.1600 
  8 C        3.5520     0.3860    -0.3490 C.3   1 <1>  -0.1600 
  9 C        2.6220     4.0320    -0.7260 C.3   1 <1>  -0.0190 
 10 C        4.1780     0.5680     1.0560 C.3   1 <1>  -0.1600 
 11 C        3.1840     5.2720    -1.4360 C.2   1 <1>   0.5690 
 12 O        2.4030     6.0450    -1.9280 O.2   1 <1>  -0.5700 
 13 N        4.5150     5.5480    -1.5410 N.am  1 <1>  -0.5470 
 14 C        5.6500     4.8600    -1.1070 C.ar  1 <1>   0.1170 
 15 C        6.1750     5.0860     0.1590 C.ar  1 <1>  -0.1500 
 16 C        6.2870     3.9570    -1.9470 C.ar  1 <1>  -0.1500 
 17 C        7.2910     4.3960     0.6000 C.ar  1 <1>  -0.1440 
 18 C        7.4040     3.2670    -1.5170 C.ar  1 <1>  -0.1500 
 19 C        7.9030     3.4830    -0.2430 C.ar  1 <1>  -0.1500 
 20 C        7.8530     4.6330     1.9900 C.3   1 <1>  -0.0970 
 21 H        2.3580     2.7670     2.4770 H     1 <1>   0.0800 
 22 H        1.7080     1.0020    -1.3000 H     1 <1>   0.0800 
 23 H        3.7300     4.5670     1.0830 H     1 <1>   0.0800 
 24 H        2.0190     4.6840     1.2240 H     1 <1>   0.0800 
 25 H        4.8660     2.5820     0.9380 H     1 <1>   0.0800 
 26 H        4.5330     2.0750     2.5560 H     1 <1>   0.0800 
 27 H        4.1340     2.6310    -1.3220 H     1 <1>   0.0800 
 28 H        2.7890     2.6800    -2.4030 H     1 <1>   0.0800 
 29 H        4.3210     0.4110    -1.1020 H     1 <1>   0.0800 
 30 H        3.1110    -0.5950    -0.3900 H     1 <1>   0.0800 
 31 H        1.5570     4.0770    -0.8870 H     1 <1>   0.0800 
 32 H        3.6170    -0.0230     1.7610 H     1 <1>   0.0800 
 33 H        5.1860     0.1890     1.0550 H     1 <1>   0.0800 
 34 H        4.6890     6.4140    -2.0510 H     1 <1>   0.3700 
 35 H        5.7000     5.8090     0.7970 H     1 <1>   0.1500 
 36 H        5.9010     3.7940    -2.9370 H     1 <1>   0.1500 
 37 H        7.8900     2.5630    -2.1700 H     1 <1>   0.1500 
 38 H        8.7720     2.9410     0.0870 H     1 <1>   0.1500 
 39 H        7.1810     5.2300     2.5800 H     1 <1>   0.0800 
 40 H        8.7960     5.1430     1.9200 H     1 <1>   0.0800 
 41 H        8.0030     3.6930     2.4920 H     1 <1>   0.0800 
@<TRIPOS>BOND
  1   1   2  2   
  2   2   3  1   
  3   2   4  1   
  4   3   5  1   
  5   3   6  1   
  6   3  21  1   
  7   4   7  1   
  8   4   8  1   
  9   4  22  1   
 10   5   9  1   
 11   5  23  1   
 12   5  24  1   
 13   6  10  1   
 14   6  25  1   
 15   6  26  1   
 16   7   9  1   
 17   7  27  1   
 18   7  28  1   
 19   8  10  1   
 20   8  29  1   
 21   8  30  1   
 22   9  11  1   
 23   9  31  1   
 24  10  32  1   
 25  10  33  1   
 26  11  12  2   
 27  11  13  am  
 28  13  14  1   
 29  13  34  1   
 30  14  15  ar  
 31  14  16  ar  
 32  15  17  ar  
 33  15  35  1   
 34  16  18  ar  
 35  16  36  1   
 36  17  19  ar  
 37  17  20  1   
 38  18  19  ar  
 39  18  37  1   
 40  19  38  1   
 41  20  39  1   
 42  20  40  1   
 43  20  41  1   
@<TRIPOS>SUBSTRUCTURE
  1 ****   7 GROUP 4 **** **** 0

# MOE 2024.06 (io_trps.svl 2023.06)
