@<TRIPOS>MOLECULE
NONAME
38 38 1 0 0 
SMALL
USER_CHARGES


@<TRIPOS>ATOM
  1 O        0.2930    -0.7320    -0.6790 O.2   1 <1>  -0.5700 
  2 C        0.2080    -1.7550    -0.0460 C.2   1 <1>   0.5690 
  3 N        1.3170    -2.2850     0.5660 N.am  1 <1>  -0.6600 
  4 C       -1.1400    -2.4660     0.0380 C.3   1 <1>  -0.0990 
  5 C        1.4790    -3.7170     0.9590 C.3   1 <1>   0.1400 
  6 C        2.5750    -1.4830     0.6750 C.3   1 <1>   0.1400 
  7 C       -2.3490    -1.5490    -0.2270 C.3   1 <1>  -0.1600 
  8 C        2.6270    -4.3670     0.1540 C.3   1 <1>   0.3430 
  9 C        3.6920    -2.1310    -0.1590 C.3   1 <1>   0.3430 
 10 C       -3.6730    -2.3100    -0.0870 C.3   1 <1>  -0.1600 
 11 N        3.9070    -3.5750     0.2220 N.4   1 <1>  -0.9590 
 12 C       -4.8650    -1.3880    -0.3530 C.3   1 <1>  -0.2400 
 13 C        4.9730    -4.2050    -0.5870 C.3   1 <1>   0.4810 
 14 C        6.2880    -3.6520    -0.0920 C.2   1 <1>  -0.2880 
 15 C        7.1540    -4.3070     0.6890 C.2   1 <1>  -0.3000 
 16 H       -1.2470    -2.8830     1.0220 H     1 <1>   0.0800 
 17 H       -1.1450    -3.2660    -0.6780 H     1 <1>   0.0800 
 18 H        0.5750    -4.2690     0.7790 H     1 <1>   0.0800 
 19 H        1.6920    -3.7740     2.0130 H     1 <1>   0.0800 
 20 H        2.8730    -1.4240     1.7070 H     1 <1>   0.0800 
 21 H        2.4170    -0.4740     0.3300 H     1 <1>   0.0800 
 22 H       -2.2750    -1.1400    -1.2210 H     1 <1>   0.0800 
 23 H       -2.3290    -0.7270     0.4680 H     1 <1>   0.0800 
 24 H        2.3100    -4.4470    -0.8730 H     1 <1>   0.0800 
 25 H        2.7930    -5.3650     0.5250 H     1 <1>   0.0800 
 26 H        4.6020    -1.5710    -0.0160 H     1 <1>   0.0800 
 27 H        3.4200    -2.0610    -1.1990 H     1 <1>   0.0800 
 28 H       -3.7580    -2.7150     0.9080 H     1 <1>   0.0800 
 29 H       -3.6990    -3.1290    -0.7860 H     1 <1>   0.0800 
 30 H        4.2520    -3.5900     1.1910 H     1 <1>   0.4500 
 31 H       -4.8740    -0.5720     0.3490 H     1 <1>   0.0800 
 32 H       -5.7860    -1.9350    -0.2510 H     1 <1>   0.0800 
 33 H       -4.8150    -0.9860    -1.3500 H     1 <1>   0.0800 
 34 H        4.8380    -4.0040    -1.6390 H     1 <1>   0.0800 
 35 H        4.9640    -5.2730    -0.4350 H     1 <1>   0.0800 
 36 H        6.4850    -2.6520    -0.4400 H     1 <1>   0.1500 
 37 H        8.0910    -3.8910     1.0230 H     1 <1>   0.1500 
 38 H        7.0200    -5.3100     1.0620 H     1 <1>   0.1500 
@<TRIPOS>BOND
  1   1   2  2   
  2   2   3  am  
  3   2   4  1   
  4   3   5  1   
  5   3   6  1   
  6   4   7  1   
  7   4  16  1   
  8   4  17  1   
  9   5   8  1   
 10   5  18  1   
 11   5  19  1   
 12   6   9  1   
 13   6  20  1   
 14   6  21  1   
 15   7  10  1   
 16   7  22  1   
 17   7  23  1   
 18   8  11  1   
 19   8  24  1   
 20   8  25  1   
 21   9  11  1   
 22   9  26  1   
 23   9  27  1   
 24  10  12  1   
 25  10  28  1   
 26  10  29  1   
 27  11  13  1   
 28  11  30  1   
 29  12  31  1   
 30  12  32  1   
 31  12  33  1   
 32  13  14  1   
 33  13  34  1   
 34  13  35  1   
 35  14  15  2   
 36  14  36  1   
 37  15  37  1   
 38  15  38  1   
@<TRIPOS>SUBSTRUCTURE
  1 ****   3 GROUP 4 **** **** 0

# MOE 2024.06 (io_trps.svl 2023.06)
