@<TRIPOS>MOLECULE
NONAME
37 37 1 0 0 
SMALL
USER_CHARGES


@<TRIPOS>ATOM
  1 S        0.6620     0.6390    -0.7120 S.o2  1 <1>   1.5880 
  2 O       -0.7040     0.5350    -1.2880 O.co2 1 <1>  -0.8170 
  3 O        0.8480     1.7470     0.2520 O.co2 1 <1>  -0.8170 
  4 O        1.7620     0.4330    -1.6800 O.co2 1 <1>  -0.8170 
  5 N        0.7300    -0.7590     0.2690 N.am  1 <1>  -0.8490 
  6 C        0.5460    -1.9630    -0.5630 C.3   1 <1>   0.1960 
  7 C       -0.2620    -0.6820     1.3440 C.3   1 <1>   0.1160 
  8 C        0.9050    -3.2480     0.2020 C.3   1 <1>   0.2000 
  9 O        2.0590    -2.9860     0.9210 O.3   1 <1>  -0.6800 
 10 C        1.1540    -4.4460    -0.7140 C.3   1 <1>   0.1200 
 11 O       -0.0370    -4.8100    -1.3960 O.3   1 <1>  -0.3630 
 12 C       -0.8850    -5.6640    -0.7710 C.ar  1 <1>   0.0820 
 13 C       -0.5430    -7.0070    -0.5950 C.ar  1 <1>  -0.1440 
 14 C       -2.1160    -5.1860    -0.3200 C.ar  1 <1>  -0.1440 
 15 C       -1.4100    -7.8400     0.0940 C.ar  1 <1>  -0.1500 
 16 C        0.7380    -7.6120    -1.1550 C.3   1 <1>  -0.0970 
 17 C       -2.9660    -6.0390     0.3650 C.ar  1 <1>  -0.1500 
 18 C       -2.5660    -3.7530    -0.5650 C.3   1 <1>  -0.0970 
 19 C       -2.6120    -7.3580     0.5790 C.ar  1 <1>  -0.1500 
 20 H        1.1960    -1.9000    -1.4190 H     1 <1>   0.0800 
 21 H       -0.4590    -2.0060    -0.9390 H     1 <1>   0.0800 
 22 H       -0.0870     0.2040     1.9320 H     1 <1>   0.0800 
 23 H       -0.1870    -1.5330     1.9950 H     1 <1>   0.0800 
 24 H       -1.2550    -0.6260     0.9320 H     1 <1>   0.0800 
 25 H        0.1350    -3.4930     0.9110 H     1 <1>   0.0800 
 26 H        2.0910    -1.9960     0.9860 H     1 <1>   0.4000 
 27 H        1.4990    -5.2790    -0.1300 H     1 <1>   0.0800 
 28 H        1.8900    -4.1970    -1.4570 H     1 <1>   0.0800 
 29 H       -1.1550    -8.8730     0.2530 H     1 <1>   0.1500 
 30 H        1.0600    -7.0780    -2.0310 H     1 <1>   0.0800 
 31 H        0.5760    -8.6370    -1.4360 H     1 <1>   0.0800 
 32 H        1.5170    -7.5780    -0.4150 H     1 <1>   0.0800 
 33 H       -3.9110    -5.6810     0.7320 H     1 <1>   0.1500 
 34 H       -2.2100    -3.4030    -1.5180 H     1 <1>   0.0800 
 35 H       -2.1930    -3.1100     0.2100 H     1 <1>   0.0800 
 36 H       -3.6390    -3.6890    -0.5740 H     1 <1>   0.0800 
 37 H       -3.2760    -8.0130     1.1160 H     1 <1>   0.1500 
@<TRIPOS>BOND
  1   1   2  ar  
  2   1   3  ar  
  3   1   4  ar  
  4   1   5  am  
  5   5   6  1   
  6   5   7  1   
  7   6   8  1   
  8   6  20  1   
  9   6  21  1   
 10   7  22  1   
 11   7  23  1   
 12   7  24  1   
 13   8   9  1   
 14   8  10  1   
 15   8  25  1   
 16   9  26  1   
 17  10  11  1   
 18  10  27  1   
 19  10  28  1   
 20  11  12  1   
 21  12  13  ar  
 22  12  14  ar  
 23  13  15  ar  
 24  13  16  1   
 25  14  17  ar  
 26  14  18  1   
 27  15  19  ar  
 28  15  29  1   
 29  16  30  1   
 30  16  31  1   
 31  16  32  1   
 32  17  19  ar  
 33  17  33  1   
 34  18  34  1   
 35  18  35  1   
 36  18  36  1   
 37  19  37  1   
@<TRIPOS>SUBSTRUCTURE
  1 ****   8 GROUP 4 **** **** 0

# MOE 2024.06 (io_trps.svl 2023.06)
