@<TRIPOS>MOLECULE
NONAME
40 42 1 0 0 
SMALL
USER_CHARGES


@<TRIPOS>ATOM
  1 BR      -1.9500     1.8970     2.7930 Br    1 <1>  -0.1110 
  2 C       -0.9790     2.6250     1.2950 C.ar  1 <1>   0.1110 
  3 C       -1.4520     2.4220     0.0070 C.ar  1 <1>  -0.1440 
  4 C        0.1710     3.3440     1.5610 C.ar  1 <1>  -0.1500 
  5 C       -0.7250     2.9610    -1.0470 C.ar  1 <1>  -0.1500 
  6 C       -2.7230     1.6380    -0.2470 C.3   1 <1>   0.4870 
  7 C        0.8780     3.8780     0.4990 C.ar  1 <1>  -0.1500 
  8 C        0.4310     3.6860    -0.7980 C.ar  1 <1>  -0.1500 
  9 N       -3.8890     2.4460     0.1980 N.4   1 <1>  -0.9590 
 10 C       -5.1750     1.6620     0.1330 C.3   1 <1>   0.3430 
 11 C       -4.0060     3.7490    -0.5580 C.3   1 <1>   0.3430 
 12 C       -6.3900     2.4860     0.6070 C.3   1 <1>   0.2090 
 13 C       -5.2090     4.5930    -0.0930 C.3   1 <1>   0.2090 
 14 N       -6.4690     3.7900    -0.1200 N.pl3 1 <1>  -0.8380 
 15 C       -7.6610     4.5090     0.0320 C.ar  1 <1>   0.1000 
 16 C       -8.0690     5.1300     1.2210 C.ar  1 <1>   0.1770 
 17 C       -8.5020     4.6190    -1.0680 C.ar  1 <1>  -0.1500 
 18 CL      -7.0730     5.0450     2.6630 Cl    1 <1>  -0.1770 
 19 C       -9.2600     5.8260     1.3060 C.ar  1 <1>  -0.1500 
 20 C       -9.6970     5.3150    -0.9920 C.ar  1 <1>  -0.1500 
 21 C      -10.0790     5.9200     0.1940 C.ar  1 <1>  -0.1500 
 22 H        0.5090     3.4810     2.5740 H     1 <1>   0.1500 
 23 H       -1.0400     2.8240    -2.0680 H     1 <1>   0.1500 
 24 H       -2.6820     0.7110     0.3030 H     1 <1>   0.0800 
 25 H       -2.8080     1.4070    -1.2970 H     1 <1>   0.0800 
 26 H        1.7790     4.4410     0.6810 H     1 <1>   0.1500 
 27 H        0.9930     4.1010    -1.6190 H     1 <1>   0.1500 
 28 H       -3.7190     2.6880     1.1840 H     1 <1>   0.4500 
 29 H       -5.0970     0.7750     0.7400 H     1 <1>   0.0800 
 30 H       -5.3590     1.3540    -0.8830 H     1 <1>   0.0800 
 31 H       -4.1260     3.5470    -1.6100 H     1 <1>   0.0800 
 32 H       -3.1060     4.3290    -0.4340 H     1 <1>   0.0800 
 33 H       -6.3160     2.6590     1.6660 H     1 <1>   0.0800 
 34 H       -7.2930     1.9270     0.4280 H     1 <1>   0.0800 
 35 H       -5.3200     5.4460    -0.7420 H     1 <1>   0.0800 
 36 H       -5.0270     4.9590     0.9020 H     1 <1>   0.0800 
 37 H       -8.2130     4.1530    -1.9920 H     1 <1>   0.1500 
 38 H       -9.5430     6.2910     2.2340 H     1 <1>   0.1500 
 39 H      -10.3330     5.3870    -1.8580 H     1 <1>   0.1500 
 40 H      -11.0080     6.4600     0.2500 H     1 <1>   0.1500 
@<TRIPOS>BOND
  1   1   2  1   
  2   2   3  ar  
  3   2   4  ar  
  4   3   5  ar  
  5   3   6  1   
  6   4   7  ar  
  7   4  22  1   
  8   5   8  ar  
  9   5  23  1   
 10   6   9  1   
 11   6  24  1   
 12   6  25  1   
 13   7   8  ar  
 14   7  26  1   
 15   8  27  1   
 16   9  10  1   
 17   9  11  1   
 18   9  28  1   
 19  10  12  1   
 20  10  29  1   
 21  10  30  1   
 22  11  13  1   
 23  11  31  1   
 24  11  32  1   
 25  12  14  1   
 26  12  33  1   
 27  12  34  1   
 28  13  14  1   
 29  13  35  1   
 30  13  36  1   
 31  14  15  1   
 32  15  16  ar  
 33  15  17  ar  
 34  16  18  1   
 35  16  19  ar  
 36  17  20  ar  
 37  17  37  1   
 38  19  21  ar  
 39  19  38  1   
 40  20  21  ar  
 41  20  39  1   
 42  21  40  1   
@<TRIPOS>SUBSTRUCTURE
  1 ****  11 GROUP 4 **** **** 0

# MOE 2024.06 (io_trps.svl 2023.06)
