@<TRIPOS>MOLECULE
NONAME
37 39 1 0 0 
SMALL
USER_CHARGES


@<TRIPOS>ATOM
  1 BR      -2.4180     2.0430     3.1390 Br    1 <1>  -0.0580 
  2 C       -2.8040     1.1890     1.4580 C.2   1 <1>   0.1980 
  3 O       -3.8880     0.4490     1.3850 O.3   1 <1>  -0.2800 
  4 C       -2.1150     1.2370     0.3030 C.2   1 <1>  -0.1500 
  5 C       -3.9240    -0.0160     0.1450 C.2   1 <1>  -0.0400 
  6 C       -2.8630     0.4340    -0.5720 C.2   1 <1>  -0.1500 
  7 C       -5.0870    -0.9090    -0.2450 C.3   1 <1>   0.5230 
  8 N       -6.3460    -0.2490     0.1900 N.4   1 <1>  -0.9590 
  9 C       -7.5370    -1.1710     0.1310 C.3   1 <1>   0.3430 
 10 C       -6.5990     1.0340    -0.5640 C.3   1 <1>   0.3430 
 11 C       -8.8390    -0.4810     0.5880 C.3   1 <1>   0.2090 
 12 C       -7.8950     1.7380    -0.1100 C.3   1 <1>   0.2090 
 13 N       -9.0550     0.7970    -0.1540 N.pl3 1 <1>  -0.8380 
 14 C      -10.3240     1.3770    -0.0310 C.ar  1 <1>   0.1000 
 15 C      -10.8220     1.9570     1.1440 C.ar  1 <1>   0.1770 
 16 C      -11.1520     1.3790    -1.1470 C.ar  1 <1>  -0.1500 
 17 CL      -9.8500     2.0000     2.6040 Cl    1 <1>  -0.1770 
 18 C      -12.0860     2.5130     1.2010 C.ar  1 <1>  -0.1500 
 19 C      -12.4190     1.9340    -1.0990 C.ar  1 <1>  -0.1500 
 20 C      -12.8900     2.5020     0.0740 C.ar  1 <1>  -0.1500 
 21 H       -1.2010     1.7600     0.0810 H     1 <1>   0.1500 
 22 H       -2.5980     0.2460    -1.5990 H     1 <1>   0.1500 
 23 H       -4.9780    -1.8570     0.2570 H     1 <1>   0.0800 
 24 H       -5.0910    -1.0780    -1.3090 H     1 <1>   0.0800 
 25 H       -6.1860     0.0190     1.1730 H     1 <1>   0.4500 
 26 H       -7.3650    -2.0370     0.7500 H     1 <1>   0.0800 
 27 H       -7.6810    -1.5100    -0.8820 H     1 <1>   0.0800 
 28 H       -6.6860     0.8240    -1.6170 H     1 <1>   0.0800 
 29 H       -5.7710     1.7100    -0.4280 H     1 <1>   0.0800 
 30 H       -8.7920    -0.2890     1.6460 H     1 <1>   0.0800 
 31 H       -9.6740    -1.1380     0.4100 H     1 <1>   0.0800 
 32 H       -8.0930     2.5750    -0.7580 H     1 <1>   0.0800 
 33 H       -7.7650     2.1180     0.8880 H     1 <1>   0.0800 
 34 H      -10.7950     0.9410    -2.0600 H     1 <1>   0.1500 
 35 H      -12.4370     2.9510     2.1180 H     1 <1>   0.1500 
 36 H      -13.0440     1.9250    -1.9760 H     1 <1>   0.1500 
 37 H      -13.8760     2.9330     0.1080 H     1 <1>   0.1500 
@<TRIPOS>BOND
  1   1   2  1   
  2   2   3  1   
  3   2   4  2   
  4   3   5  1   
  5   4   6  1   
  6   4  21  1   
  7   5   6  2   
  8   5   7  1   
  9   6  22  1   
 10   7   8  1   
 11   7  23  1   
 12   7  24  1   
 13   8   9  1   
 14   8  10  1   
 15   8  25  1   
 16   9  11  1   
 17   9  26  1   
 18   9  27  1   
 19  10  12  1   
 20  10  28  1   
 21  10  29  1   
 22  11  13  1   
 23  11  30  1   
 24  11  31  1   
 25  12  13  1   
 26  12  32  1   
 27  12  33  1   
 28  13  14  1   
 29  14  15  ar  
 30  14  16  ar  
 31  15  17  1   
 32  15  18  ar  
 33  16  19  ar  
 34  16  34  1   
 35  18  20  ar  
 36  18  35  1   
 37  19  20  ar  
 38  19  36  1   
 39  20  37  1   
@<TRIPOS>SUBSTRUCTURE
  1 ****  12 GROUP 4 **** **** 0

# MOE 2024.06 (io_trps.svl 2023.06)
