@<TRIPOS>MOLECULE
NONAME
51 54 1 0 0 
SMALL
USER_CHARGES


@<TRIPOS>ATOM
  1 O        1.7670     0.3140    -0.0800 O.2   1 <1>  -0.5700 
  2 C        2.5030    -0.6450    -0.2090 C.2   1 <1>   0.5440 
  3 N        3.7140    -0.4280    -0.8290 N.am  1 <1>  -0.6600 
  4 C        2.1450    -1.9430     0.3380 C.ar  1 <1>   0.0860 
  5 C        3.8540     0.7340    -1.7540 C.3   1 <1>   0.1400 
  6 C        4.9740    -0.7590    -0.1070 C.3   1 <1>   0.1400 
  7 C        2.5810    -3.1290    -0.2540 C.ar  1 <1>  -0.1500 
  8 C        1.3580    -2.0420     1.4860 C.ar  1 <1>  -0.1500 
  9 C        4.3300     1.9700    -0.9690 C.3   1 <1>   0.3430 
 10 C        5.4810     0.4820     0.6600 C.3   1 <1>   0.3430 
 11 C        2.2640    -4.3670     0.2930 C.ar  1 <1>   0.0820 
 12 C        1.0380    -3.2690     2.0370 C.ar  1 <1>  -0.1500 
 13 N        5.6160     1.7030    -0.2190 N.4   1 <1>  -0.9590 
 14 O        2.6640    -5.5490    -0.2370 O.3   1 <1>  -0.3620 
 15 C        1.4970    -4.4300     1.4430 C.ar  1 <1>  -0.1500 
 16 C        6.0550     2.8730     0.6060 C.3   1 <1>   0.3430 
 17 C        3.2600    -5.6240    -1.5130 C.3   1 <1>   0.0400 
 18 C        6.5180     4.0640    -0.2550 C.3   1 <1>  -0.0800 
 19 C        7.5220     5.0310     0.6260 C.3   1 <1>   0.0580 
 20 C        5.2600     5.0520    -0.8170 C.3   1 <1>  -0.1600 
 21 C        7.6080     6.5490     1.1890 C.2   1 <1>  -0.2880 
 22 C        6.5390     5.7790     0.1360 C.3   1 <1>  -0.1600 
 23 C        5.5650     6.5800    -0.2830 C.3   1 <1>   0.0580 
 24 C        6.5790     7.3640     0.7120 C.2   1 <1>  -0.2880 
 25 H        2.9030     0.9490    -2.2150 H     1 <1>   0.0800 
 26 H        4.5500     0.4950    -2.5380 H     1 <1>   0.0800 
 27 H        5.7170    -1.0910    -0.8120 H     1 <1>   0.0800 
 28 H        4.8040    -1.5610     0.5910 H     1 <1>   0.0800 
 29 H        3.1690    -3.0650    -1.1490 H     1 <1>   0.1500 
 30 H        0.9900    -1.1430     1.9500 H     1 <1>   0.1500 
 31 H        3.5520     2.2460    -0.2760 H     1 <1>   0.0800 
 32 H        4.4670     2.7850    -1.6590 H     1 <1>   0.0800 
 33 H        6.4310     0.2500     1.1130 H     1 <1>   0.0800 
 34 H        4.7820     0.6900     1.4540 H     1 <1>   0.0800 
 35 H        0.4320    -3.3240     2.9250 H     1 <1>   0.1500 
 36 H        6.3470     1.5080    -0.9140 H     1 <1>   0.4500 
 37 H        1.2570    -5.3910     1.8620 H     1 <1>   0.1500 
 38 H        6.8860     2.5690     1.2220 H     1 <1>   0.0800 
 39 H        5.2600     3.1890     1.2620 H     1 <1>   0.0800 
 40 H        3.4060    -6.6620    -1.7520 H     1 <1>   0.0800 
 41 H        4.2090    -5.1200    -1.4870 H     1 <1>   0.0800 
 42 H        2.6010    -5.1730    -2.2340 H     1 <1>   0.0800 
 43 H        7.0790     3.6780    -1.0940 H     1 <1>   0.0800 
 44 H        8.4650     4.9400     0.1050 H     1 <1>   0.0800 
 45 H        4.3030     4.7340    -0.4350 H     1 <1>   0.0800 
 46 H        5.2100     5.0340    -1.8950 H     1 <1>   0.0800 
 47 H        8.4140     6.8110     1.8570 H     1 <1>   0.1500 
 48 H        7.1690     6.0150    -0.8250 H     1 <1>   0.0800 
 49 H        5.8610     5.4880     1.1020 H     1 <1>   0.0800 
 50 H        5.6650     7.1460    -1.2000 H     1 <1>   0.0800 
 51 H        6.3950     8.4060     0.9190 H     1 <1>   0.1500 
@<TRIPOS>BOND
  1   1   2  2   
  2   2   3  am  
  3   2   4  1   
  4   3   5  1   
  5   3   6  1   
  6   4   7  ar  
  7   4   8  ar  
  8   5   9  1   
  9   5  25  1   
 10   5  26  1   
 11   6  10  1   
 12   6  27  1   
 13   6  28  1   
 14   7  11  ar  
 15   7  29  1   
 16   8  12  ar  
 17   8  30  1   
 18   9  13  1   
 19   9  31  1   
 20   9  32  1   
 21  10  13  1   
 22  10  33  1   
 23  10  34  1   
 24  11  14  1   
 25  11  15  ar  
 26  12  15  ar  
 27  12  35  1   
 28  13  16  1   
 29  13  36  1   
 30  14  17  1   
 31  15  37  1   
 32  16  18  1   
 33  16  38  1   
 34  16  39  1   
 35  17  40  1   
 36  17  41  1   
 37  17  42  1   
 38  18  19  1   
 39  18  20  1   
 40  18  43  1   
 41  19  21  1   
 42  19  22  1   
 43  19  44  1   
 44  20  23  1   
 45  20  45  1   
 46  20  46  1   
 47  21  24  2   
 48  21  47  1   
 49  22  23  1   
 50  22  48  1   
 51  22  49  1   
 52  23  24  1   
 53  23  50  1   
 54  24  51  1   
@<TRIPOS>SUBSTRUCTURE
  1 ****  10 GROUP 4 **** **** 0

# MOE 2024.06 (io_trps.svl 2023.06)
