@<TRIPOS>MOLECULE
NONAME
44 45 1 0 0 
SMALL
USER_CHARGES


@<TRIPOS>ATOM
  1 O        2.0310     0.6700     3.7100 O.2   1 <1>  -0.5700 
  2 C        2.4230     1.1530     2.6730 C.2   1 <1>   0.6900 
  3 N        3.6020     0.7630     2.1360 N.am  1 <1>  -0.5390 
  4 N        1.7110     2.0920     2.0360 N.am  1 <1>  -0.7300 
  5 C        4.1550     1.2950     0.9910 C.2   1 <1>  -0.0290 
  6 C        2.2040     2.8500     0.8720 C.3   1 <1>   0.5020 
  7 C        3.5430     2.3180     0.3240 C.2   1 <1>  -0.1240 
  8 C        5.4630     0.6240     0.5950 C.3   1 <1>  -0.1020 
  9 C        2.3110     4.3080     1.3120 C.ar  1 <1>  -0.1440 
 10 C        4.0350     2.9880    -0.8490 C.2   1 <1>   0.4950 
 11 C        1.4130     5.2650     0.8450 C.ar  1 <1>   0.0830 
 12 C        3.3100     4.6890     2.1980 C.ar  1 <1>  -0.1500 
 13 O        5.1910     2.9530    -1.1920 O.2   1 <1>  -0.5700 
 14 C        3.1370     3.8000    -1.7660 C.3   1 <1>  -0.1790 
 15 O        0.4520     4.8560    -0.0220 O.3   1 <1>  -0.3630 
 16 C        1.5300     6.5880     1.2660 C.ar  1 <1>  -0.1500 
 17 C        3.4230     6.0040     2.6120 C.ar  1 <1>  -0.1500 
 18 C       -0.5570     5.7280    -0.4880 C.3   1 <1>   0.1200 
 19 C        2.5330     6.9530     2.1460 C.ar  1 <1>  -0.1500 
 20 C       -1.5080     4.9550    -1.4150 C.3   1 <1>  -0.0800 
 21 C       -2.5760     5.8990    -1.9810 C.3   1 <1>  -0.2400 
 22 C       -2.1860     3.7830    -0.6890 C.3   1 <1>  -0.2400 
 23 H        4.0680     0.0270     2.6650 H     1 <1>   0.3700 
 24 H        0.9240     2.4980     2.5360 H     1 <1>   0.3700 
 25 H        1.4620     2.7350     0.1040 H     1 <1>   0.0800 
 26 H        5.4500    -0.4170     0.8630 H     1 <1>   0.0800 
 27 H        6.2840     1.1020     1.0970 H     1 <1>   0.0800 
 28 H        5.6300     0.6740    -0.4650 H     1 <1>   0.0800 
 29 H        4.0080     3.9580     2.5730 H     1 <1>   0.1500 
 30 H        2.1670     3.3530    -1.8680 H     1 <1>   0.0800 
 31 H        3.5800     3.8510    -2.7440 H     1 <1>   0.0800 
 32 H        3.0430     4.8010    -1.3910 H     1 <1>   0.0800 
 33 H        0.8560     7.3490     0.9230 H     1 <1>   0.1500 
 34 H        4.2040     6.2860     3.2980 H     1 <1>   0.1500 
 35 H       -0.0850     6.5330    -1.0240 H     1 <1>   0.0800 
 36 H       -1.0910     6.1140     0.3630 H     1 <1>   0.0800 
 37 H        2.6220     7.9760     2.4690 H     1 <1>   0.1500 
 38 H       -0.9330     4.5690    -2.2400 H     1 <1>   0.0800 
 39 H       -3.1790     6.3110    -1.1900 H     1 <1>   0.0800 
 40 H       -3.2210     5.3690    -2.6600 H     1 <1>   0.0800 
 41 H       -2.1150     6.7080    -2.5190 H     1 <1>   0.0800 
 42 H       -2.7550     4.1370     0.1530 H     1 <1>   0.0800 
 43 H       -1.4510     3.0830    -0.3340 H     1 <1>   0.0800 
 44 H       -2.8490     3.2620    -1.3570 H     1 <1>   0.0800 
@<TRIPOS>BOND
  1   1   2  2   
  2   2   3  am  
  3   2   4  am  
  4   3   5  1   
  5   3  23  1   
  6   4   6  1   
  7   4  24  1   
  8   5   7  2   
  9   5   8  1   
 10   6   7  1   
 11   6   9  1   
 12   6  25  1   
 13   7  10  1   
 14   8  26  1   
 15   8  27  1   
 16   8  28  1   
 17   9  11  ar  
 18   9  12  ar  
 19  10  13  2   
 20  10  14  1   
 21  11  15  1   
 22  11  16  ar  
 23  12  17  ar  
 24  12  29  1   
 25  14  30  1   
 26  14  31  1   
 27  14  32  1   
 28  15  18  1   
 29  16  19  ar  
 30  16  33  1   
 31  17  19  ar  
 32  17  34  1   
 33  18  20  1   
 34  18  35  1   
 35  18  36  1   
 36  19  37  1   
 37  20  21  1   
 38  20  22  1   
 39  20  38  1   
 40  21  39  1   
 41  21  40  1   
 42  21  41  1   
 43  22  42  1   
 44  22  43  1   
 45  22  44  1   
@<TRIPOS>SUBSTRUCTURE
  1 ****   6 GROUP 4 **** **** 0

# MOE 2024.06 (io_trps.svl 2023.06)
