@<TRIPOS>MOLECULE
NONAME
42 43 1 0 0 
SMALL
USER_CHARGES


@<TRIPOS>ATOM
  1 O       -1.4780     1.9380     1.0560 O.2   1 <1>  -0.5700 
  2 C       -0.8430     2.2270     0.0550 C.2   1 <1>   0.4690 
  3 C        0.5840     2.4100     0.0700 C.ar  1 <1>   0.0860 
  4 C       -1.5150     2.4460    -1.1870 C.2   1 <1>  -0.1240 
  5 C        1.2180     2.8300    -1.1060 C.ar  1 <1>   0.0830 
  6 C        1.3750     2.1990     1.2020 C.ar  1 <1>  -0.1500 
  7 C       -0.8170     2.8460    -2.2730 C.2   1 <1>  -0.0730 
  8 C       -3.0140     2.2050    -1.2380 C.3   1 <1>   0.4810 
  9 O        0.5020     3.0470    -2.2310 O.3   1 <1>  -0.1590 
 10 C        2.5900     3.0320    -1.1400 C.ar  1 <1>  -0.1500 
 11 C        2.7430     2.4000     1.1700 C.ar  1 <1>  -0.1440 
 12 N       -3.7270     2.9880    -0.1870 N.4   1 <1>  -0.9590 
 13 C        3.3480     2.8180    -0.0070 C.ar  1 <1>  -0.1500 
 14 C        3.5940     2.1680     2.4060 C.3   1 <1>  -0.0970 
 15 C       -5.1730     2.6580    -0.1490 C.3   1 <1>   0.4810 
 16 C       -3.4720     4.4490    -0.2650 C.3   1 <1>   0.3430 
 17 C       -5.3900     1.1880     0.1940 C.2   1 <1>  -0.2760 
 18 C       -3.7440     5.0820     1.0930 C.3   1 <1>  -0.2400 
 19 C       -4.5760     0.4060     0.9160 C.2   1 <1>  -0.3000 
 20 C       -6.7020     0.6490    -0.3600 C.3   1 <1>  -0.1020 
 21 H        0.9000     1.8740     2.1120 H     1 <1>   0.1500 
 22 H       -1.2400     3.0300    -3.2470 H     1 <1>   0.1500 
 23 H       -3.1960     1.1520    -1.0860 H     1 <1>   0.0800 
 24 H       -3.3920     2.4700    -2.2110 H     1 <1>   0.0800 
 25 H        3.0580     3.3550    -2.0540 H     1 <1>   0.1500 
 26 H       -3.3110     2.6440     0.7000 H     1 <1>   0.4500 
 27 H        4.4130     2.9760    -0.0370 H     1 <1>   0.1500 
 28 H        2.9920     1.8430     3.2360 H     1 <1>   0.0800 
 29 H        4.0930     3.0790     2.6830 H     1 <1>   0.0800 
 30 H        4.3340     1.4140     2.2060 H     1 <1>   0.0800 
 31 H       -5.6070     2.8670    -1.1130 H     1 <1>   0.0800 
 32 H       -5.6800     3.2630     0.5840 H     1 <1>   0.0800 
 33 H       -4.0930     4.9010    -1.0230 H     1 <1>   0.0800 
 34 H       -2.4410     4.6300    -0.5230 H     1 <1>   0.0800 
 35 H       -4.7800     5.0090     1.3680 H     1 <1>   0.0800 
 36 H       -3.4890     6.1270     1.0520 H     1 <1>   0.0800 
 37 H       -3.1340     4.6240     1.8530 H     1 <1>   0.0800 
 38 H       -3.6450     0.7010     1.3690 H     1 <1>   0.1500 
 39 H       -4.7820    -0.6300     1.1350 H     1 <1>   0.1500 
 40 H       -6.7210     0.7180    -1.4340 H     1 <1>   0.0800 
 41 H       -7.5350     1.2010     0.0390 H     1 <1>   0.0800 
 42 H       -6.8330    -0.3860    -0.0920 H     1 <1>   0.0800 
@<TRIPOS>BOND
  1   1   2  2   
  2   2   3  1   
  3   2   4  1   
  4   3   5  ar  
  5   3   6  ar  
  6   4   7  2   
  7   4   8  1   
  8   5   9  1   
  9   5  10  ar  
 10   6  11  ar  
 11   6  21  1   
 12   7   9  1   
 13   7  22  1   
 14   8  12  1   
 15   8  23  1   
 16   8  24  1   
 17  10  13  ar  
 18  10  25  1   
 19  11  13  ar  
 20  11  14  1   
 21  12  15  1   
 22  12  16  1   
 23  12  26  1   
 24  13  27  1   
 25  14  28  1   
 26  14  29  1   
 27  14  30  1   
 28  15  17  1   
 29  15  31  1   
 30  15  32  1   
 31  16  18  1   
 32  16  33  1   
 33  16  34  1   
 34  17  19  2   
 35  17  20  1   
 36  18  35  1   
 37  18  36  1   
 38  18  37  1   
 39  19  38  1   
 40  19  39  1   
 41  20  40  1   
 42  20  41  1   
 43  20  42  1   
@<TRIPOS>SUBSTRUCTURE
  1 ****   2 GROUP 4 **** **** 0

# MOE 2024.06 (io_trps.svl 2023.06)
