@<TRIPOS>MOLECULE
NONAME
38 39 1 0 0 
SMALL
USER_CHARGES


@<TRIPOS>ATOM
  1 CL       0.6280    -1.0030     1.0030 Cl    1 <1>  -0.1770 
  2 C        2.2450    -0.5080     0.5720 C.ar  1 <1>   0.1770 
  3 C        2.4480     0.2000    -0.5980 C.ar  1 <1>  -0.1500 
  4 C        3.2990    -0.8300     1.4050 C.ar  1 <1>  -0.1500 
  5 C        3.7310     0.5910    -0.9390 C.ar  1 <1>  -0.1500 
  6 C        4.5790    -0.4350     1.0570 C.ar  1 <1>  -0.1500 
  7 C        4.8070     0.2760    -0.1160 C.ar  1 <1>  -0.1430 
  8 C        6.2170     0.7090    -0.5060 C.3   1 <1>   0.3640 
  9 N        7.0650    -0.4880    -0.6930 N.am  1 <1>  -0.7300 
 10 C        6.8030     1.7300     0.4700 C.3   1 <1>  -0.2400 
 11 C        7.8280    -1.1690     0.2050 C.2   1 <1>   0.5690 
 12 O        7.9790    -0.8150     1.3490 O.2   1 <1>  -0.5700 
 13 C        8.4930    -2.4620    -0.2680 C.3   1 <1>  -0.0190 
 14 C        7.7810    -3.6930     0.3240 C.3   1 <1>  -0.1600 
 15 C        9.9970    -2.4930     0.0670 C.3   1 <1>  -0.1600 
 16 C        8.4350    -5.0020    -0.1410 C.3   1 <1>  -0.1600 
 17 C       10.6520    -3.8010    -0.4000 C.3   1 <1>  -0.1600 
 18 C        9.9330    -5.0210     0.1910 C.3   1 <1>  -0.1600 
 19 H        1.6100     0.4380    -1.2280 H     1 <1>   0.1500 
 20 H        3.1190    -1.3800     2.3100 H     1 <1>   0.1500 
 21 H        3.8850     1.1430    -1.8510 H     1 <1>   0.1500 
 22 H        5.4030    -0.6850     1.7050 H     1 <1>   0.1500 
 23 H        6.1640     1.2000    -1.4630 H     1 <1>   0.0800 
 24 H        6.9030    -0.9370    -1.5920 H     1 <1>   0.3700 
 25 H        6.7690     1.3660     1.4800 H     1 <1>   0.0800 
 26 H        6.2280     2.6360     0.4280 H     1 <1>   0.0800 
 27 H        7.8210     1.9540     0.2060 H     1 <1>   0.0800 
 28 H        8.4000    -2.5110    -1.3380 H     1 <1>   0.0800 
 29 H        6.7440    -3.6860     0.0340 H     1 <1>   0.0800 
 30 H        7.8200    -3.6390     1.3990 H     1 <1>   0.0800 
 31 H       10.1260    -2.3950     1.1320 H     1 <1>   0.0800 
 32 H       10.4880    -1.6570    -0.3990 H     1 <1>   0.0800 
 33 H        8.3040    -5.1110    -1.2040 H     1 <1>   0.0800 
 34 H        7.9510    -5.8360     0.3380 H     1 <1>   0.0800 
 35 H       11.6850    -3.8130    -0.1000 H     1 <1>   0.0800 
 36 H       10.6200    -3.8540    -1.4750 H     1 <1>   0.0800 
 37 H       10.3770    -5.9230    -0.1940 H     1 <1>   0.0800 
 38 H       10.0590    -5.0220     1.2610 H     1 <1>   0.0800 
@<TRIPOS>BOND
  1   1   2  1   
  2   2   3  ar  
  3   2   4  ar  
  4   3   5  ar  
  5   3  19  1   
  6   4   6  ar  
  7   4  20  1   
  8   5   7  ar  
  9   5  21  1   
 10   6   7  ar  
 11   6  22  1   
 12   7   8  1   
 13   8   9  1   
 14   8  10  1   
 15   8  23  1   
 16   9  11  am  
 17   9  24  1   
 18  10  25  1   
 19  10  26  1   
 20  10  27  1   
 21  11  12  2   
 22  11  13  1   
 23  13  14  1   
 24  13  15  1   
 25  13  28  1   
 26  14  16  1   
 27  14  29  1   
 28  14  30  1   
 29  15  17  1   
 30  15  31  1   
 31  15  32  1   
 32  16  18  1   
 33  16  33  1   
 34  16  34  1   
 35  17  18  1   
 36  17  35  1   
 37  17  36  1   
 38  18  37  1   
 39  18  38  1   
@<TRIPOS>SUBSTRUCTURE
  1 ****   9 GROUP 4 **** **** 0

# MOE 2024.06 (io_trps.svl 2023.06)
