@<TRIPOS>MOLECULE
NONAME
36 37 1 0 0 
SMALL
USER_CHARGES


@<TRIPOS>ATOM
  1 O        0.1790    -0.3430    -0.2250 O.2   1 <1>  -0.5700 
  2 C        0.1290    -1.5480    -0.3770 C.2   1 <1>   0.7150 
  3 N        1.2790    -2.2230    -0.6530 N.am  1 <1>  -0.7300 
  4 C       -1.1000    -2.2820    -0.2660 C.2   1 <1>  -0.2370 
  5 C        2.6250    -1.6190    -0.7960 C.3   1 <1>   0.1400 
  6 N       -2.3090    -1.7450     0.0570 N.pl3 1 <1>   0.3140 
  7 C       -1.3420    -3.6130    -0.4450 C.2   1 <1>  -0.1500 
  8 C        3.4510    -1.8830     0.4640 C.3   1 <1>  -0.0220 
  9 N       -3.2820    -2.6690     0.0890 N.2   1 <1>  -0.7070 
 10 C       -2.6310    -0.3390     0.3570 C.3   1 <1>   0.0160 
 11 C       -2.6930    -3.7840    -0.2140 C.2   1 <1>   0.1390 
 12 C        4.8640    -1.3320     0.3260 C.2   1 <1>  -0.2760 
 13 C        5.9420    -2.1190     0.2420 C.2   1 <1>  -0.2880 
 14 C        4.9550     0.1920     0.2980 C.3   1 <1>  -0.0220 
 15 C        7.3670    -1.6110     0.0870 C.3   1 <1>  -0.0220 
 16 C        6.3920     0.6800     0.5390 C.3   1 <1>  -0.1600 
 17 C        7.3960    -0.1250    -0.2970 C.3   1 <1>  -0.1600 
 18 H        1.2290    -3.2360    -0.7360 H     1 <1>   0.3700 
 19 H        2.5330    -0.5580    -0.9570 H     1 <1>   0.0800 
 20 H        3.1200    -2.0460    -1.6510 H     1 <1>   0.0800 
 21 H       -0.6550    -4.3940    -0.7120 H     1 <1>   0.1500 
 22 H        3.5000    -2.9440     0.6330 H     1 <1>   0.0800 
 23 H        2.9700    -1.4300     1.3130 H     1 <1>   0.0800 
 24 H       -2.3970     0.2670    -0.4970 H     1 <1>   0.0800 
 25 H       -2.0520    -0.0160     1.2020 H     1 <1>   0.0800 
 26 H       -3.6780    -0.2540     0.5830 H     1 <1>   0.0800 
 27 H       -3.2140    -4.7260    -0.2730 H     1 <1>   0.1500 
 28 H        5.8900    -3.1940     0.2820 H     1 <1>   0.1500 
 29 H        4.3180     0.6140     1.0560 H     1 <1>   0.0800 
 30 H        4.6150     0.5480    -0.6580 H     1 <1>   0.0800 
 31 H        7.8730    -2.1800    -0.6730 H     1 <1>   0.0800 
 32 H        7.8870    -1.7560     1.0170 H     1 <1>   0.0800 
 33 H        6.6310     0.5640     1.5820 H     1 <1>   0.0800 
 34 H        6.4620     1.7250     0.2950 H     1 <1>   0.0800 
 35 H        7.1420    -0.0260    -1.3380 H     1 <1>   0.0800 
 36 H        8.3890     0.2650    -0.1570 H     1 <1>   0.0800 
@<TRIPOS>BOND
  1   1   2  2   
  2   2   3  am  
  3   2   4  1   
  4   3   5  1   
  5   3  18  1   
  6   4   6  1   
  7   4   7  2   
  8   5   8  1   
  9   5  19  1   
 10   5  20  1   
 11   6   9  1   
 12   6  10  1   
 13   7  11  1   
 14   7  21  1   
 15   8  12  1   
 16   8  22  1   
 17   8  23  1   
 18   9  11  2   
 19  10  24  1   
 20  10  25  1   
 21  10  26  1   
 22  11  27  1   
 23  12  13  2   
 24  12  14  1   
 25  13  15  1   
 26  13  28  1   
 27  14  16  1   
 28  14  29  1   
 29  14  30  1   
 30  15  17  1   
 31  15  31  1   
 32  15  32  1   
 33  16  17  1   
 34  16  33  1   
 35  16  34  1   
 36  17  35  1   
 37  17  36  1   
@<TRIPOS>SUBSTRUCTURE
  1 ****   3 GROUP 4 **** **** 0

# MOE 2024.06 (io_trps.svl 2023.06)
