@<TRIPOS>MOLECULE
NONAME
36 37 1 0 0 
SMALL
USER_CHARGES


@<TRIPOS>ATOM
  1 CL       0.8860    -1.2810     1.3860 Cl    1 <1>  -0.1770 
  2 C        2.3670    -0.7380     0.6400 C.ar  1 <1>   0.1770 
  3 C        3.5440    -0.7720     1.3610 C.ar  1 <1>  -0.1500 
  4 C        2.3430    -0.2830    -0.6630 C.ar  1 <1>  -0.1500 
  5 C        4.7170    -0.3400     0.7660 C.ar  1 <1>  -0.1500 
  6 C        3.5200     0.1480    -1.2510 C.ar  1 <1>  -0.1500 
  7 C        4.7190     0.1300    -0.5450 C.ar  1 <1>  -0.1430 
  8 C        5.9880     0.6280    -1.2480 C.3   1 <1>   0.3440 
  9 O        6.8940    -0.4440    -1.3670 O.3   1 <1>  -0.4300 
 10 C        6.6720     1.8510    -0.6200 C.3   1 <1>  -0.0190 
 11 C        7.8090    -0.7950    -0.4720 C.2   1 <1>   0.6590 
 12 C        7.4160     1.3980     0.6280 C.2   1 <1>   0.4480 
 13 C        5.7010     3.0280    -0.3530 C.3   1 <1>  -0.1600 
 14 O        8.1840    -1.9360    -0.4430 O.2   1 <1>  -0.5700 
 15 C        8.4340     0.2710     0.4430 C.3   1 <1>   0.1220 
 16 O        7.2140     1.9030     1.6940 O.2   1 <1>  -0.5700 
 17 C        5.0570     3.5890    -1.6280 C.3   1 <1>  -0.2400 
 18 C        8.8290    -0.3450     1.8100 C.3   1 <1>  -0.2400 
 19 C        9.7230     0.8260    -0.2060 C.3   1 <1>  -0.2400 
 20 H        3.5390    -1.1330     2.3730 H     1 <1>   0.1500 
 21 H        1.4150    -0.2690    -1.2060 H     1 <1>   0.1500 
 22 H        5.6180    -0.3810     1.3500 H     1 <1>   0.1500 
 23 H        3.4900     0.4960    -2.2690 H     1 <1>   0.1500 
 24 H        5.7250     0.8880    -2.2580 H     1 <1>   0.0800 
 25 H        7.4030     2.2080    -1.3200 H     1 <1>   0.0800 
 26 H        6.2490     3.8250     0.1240 H     1 <1>   0.0800 
 27 H        4.9300     2.7230     0.3350 H     1 <1>   0.0800 
 28 H        4.4130     2.8640    -2.0920 H     1 <1>   0.0800 
 29 H        5.8100     3.8940    -2.3340 H     1 <1>   0.0800 
 30 H        4.4610     4.4500    -1.3810 H     1 <1>   0.0800 
 31 H        7.9630    -0.7530     2.3010 H     1 <1>   0.0800 
 32 H        9.2620     0.4010     2.4540 H     1 <1>   0.0800 
 33 H        9.5460    -1.1380     1.6800 H     1 <1>   0.0800 
 34 H       10.1420     1.6090     0.4030 H     1 <1>   0.0800 
 35 H        9.5280     1.2200    -1.1870 H     1 <1>   0.0800 
 36 H       10.4550     0.0420    -0.3040 H     1 <1>   0.0800 
@<TRIPOS>BOND
  1   1   2  1   
  2   2   3  ar  
  3   2   4  ar  
  4   3   5  ar  
  5   3  20  1   
  6   4   6  ar  
  7   4  21  1   
  8   5   7  ar  
  9   5  22  1   
 10   6   7  ar  
 11   6  23  1   
 12   7   8  1   
 13   8   9  1   
 14   8  10  1   
 15   8  24  1   
 16   9  11  1   
 17  10  12  1   
 18  10  13  1   
 19  10  25  1   
 20  11  14  2   
 21  11  15  1   
 22  12  15  1   
 23  12  16  2   
 24  13  17  1   
 25  13  26  1   
 26  13  27  1   
 27  15  18  1   
 28  15  19  1   
 29  17  28  1   
 30  17  29  1   
 31  17  30  1   
 32  18  31  1   
 33  18  32  1   
 34  18  33  1   
 35  19  34  1   
 36  19  35  1   
 37  19  36  1   
@<TRIPOS>SUBSTRUCTURE
  1 ****   7 GROUP 4 **** **** 0

# MOE 2024.06 (io_trps.svl 2023.06)
