@<TRIPOS>MOLECULE
NONAME
56 61 1 0 0 
SMALL
USER_CHARGES


@<TRIPOS>ATOM
  1 O       -1.0520     1.4220     2.9060 O.2   1 <1>  -0.5700 
  2 C       -1.6690     1.3360     1.8780 C.2   1 <1>   0.7200 
  3 O       -2.6550     0.4470     1.7590 O.3   1 <1>  -0.2330 
  4 C       -1.3700     2.2280     0.6960 C.3   1 <1>   0.0000 
  5 C       -3.6320     0.4950     0.8170 C.ar  1 <1>   0.0820 
  6 C        0.0780     2.0610     0.2790 C.2   1 <1>   0.6300 
  7 C       -2.1550     3.5050     0.4630 C.3   1 <1>  -0.0950 
  8 C       -2.4000     2.2950    -0.3900 C.3   1 <1>  -0.0680 
  9 C       -3.6080     1.3900    -0.2270 C.ar  1 <1>  -0.0320 
 10 C       -4.6960    -0.4010     0.9600 C.ar  1 <1>  -0.1500 
 11 O        0.8480     2.9330     0.6000 O.2   1 <1>  -0.5700 
 12 N        0.5010     0.9750    -0.4500 N.am  1 <1>  -0.6600 
 13 C       -1.4840     4.7010    -0.2260 C.2   1 <1>   0.4840 
 14 C       -3.2910     3.9540     1.4060 C.3   1 <1>  -0.1450 
 15 C       -4.6810     1.4580    -1.1480 C.ar  1 <1>   0.0000 
 16 C       -5.7270    -0.3770     0.0660 C.ar  1 <1>  -0.1500 
 17 C        1.8930     0.9090    -0.9920 C.3   1 <1>   0.1400 
 18 C       -0.3090    -0.2160    -0.8530 C.3   1 <1>   0.1400 
 19 O       -1.6560     4.8030    -1.4170 O.2   1 <1>  -0.5700 
 20 C       -0.7480     5.6860     0.5460 C.ar  1 <1>   0.0860 
 21 C       -5.7510     0.5440    -1.0010 C.ar  1 <1>   0.0000 
 22 C       -4.7490     2.3920    -2.2080 C.ar  1 <1>  -0.1500 
 23 C        1.8650     0.6330    -2.5040 C.3   1 <1>   0.1200 
 24 C       -0.2290    -0.4250    -2.3740 C.3   1 <1>   0.1200 
 25 C       -0.4680     6.9390    -0.0070 C.ar  1 <1>  -0.1500 
 26 C       -0.2950     5.4610     1.8500 C.ar  1 <1>  -0.1500 
 27 C       -6.8160     0.5820    -1.9230 C.ar  1 <1>  -0.1500 
 28 C       -5.7970     2.4080    -3.0850 C.ar  1 <1>  -0.1500 
 29 O        1.1060    -0.5100    -2.7860 O.3   1 <1>  -0.5600 
 30 C        0.2090     7.9160     0.7000 C.ar  1 <1>  -0.1500 
 31 C        0.3820     6.4320     2.5640 C.ar  1 <1>  -0.1500 
 32 C       -6.8430     1.4900    -2.9440 C.ar  1 <1>  -0.1500 
 33 C        0.6340     7.6650     1.9910 C.ar  1 <1>  -0.1500 
 34 H       -2.0160     2.2890    -1.3970 H     1 <1>   0.1000 
 35 H       -4.6840    -1.0960     1.7810 H     1 <1>   0.1500 
 36 H       -3.8140     3.1240     1.8430 H     1 <1>   0.0800 
 37 H       -4.0050     4.5410     0.8540 H     1 <1>   0.0800 
 38 H       -2.9060     4.5580     2.2080 H     1 <1>   0.0800 
 39 H       -6.5490    -1.0640     0.1660 H     1 <1>   0.1500 
 40 H        2.4320     0.1210    -0.4960 H     1 <1>   0.0800 
 41 H        2.4200     1.8300    -0.8140 H     1 <1>   0.0800 
 42 H       -1.3360    -0.1160    -0.5660 H     1 <1>   0.0800 
 43 H        0.0830    -1.0900    -0.3610 H     1 <1>   0.0800 
 44 H       -3.9600     3.1150    -2.3290 H     1 <1>   0.1500 
 45 H        2.8620     0.4640    -2.8700 H     1 <1>   0.0800 
 46 H        1.4400     1.4690    -3.0330 H     1 <1>   0.0800 
 47 H       -0.7020     0.3880    -2.8970 H     1 <1>   0.0800 
 48 H       -0.7160    -1.3440    -2.6500 H     1 <1>   0.0800 
 49 H       -0.7900     7.1490    -1.0120 H     1 <1>   0.1500 
 50 H       -0.4560     4.5060     2.3190 H     1 <1>   0.1500 
 51 H       -7.6200    -0.1240    -1.8080 H     1 <1>   0.1500 
 52 H       -5.8340     3.1230    -3.8880 H     1 <1>   0.1500 
 53 H        0.4060     8.8720     0.2460 H     1 <1>   0.1500 
 54 H        0.7200     6.2260     3.5650 H     1 <1>   0.1500 
 55 H       -7.6600     1.5140    -3.6450 H     1 <1>   0.1500 
 56 H        1.1620     8.4220     2.5460 H     1 <1>   0.1500 
@<TRIPOS>BOND
  1   1   2  2   
  2   2   3  1   
  3   2   4  1   
  4   3   5  1   
  5   4   6  1   
  6   4   7  1   
  7   4   8  1   
  8   5   9  ar  
  9   5  10  ar  
 10   6  11  2   
 11   6  12  am  
 12   7   8  1   
 13   7  13  1   
 14   7  14  1   
 15   8   9  1   
 16   8  34  1   
 17   9  15  ar  
 18  10  16  ar  
 19  10  35  1   
 20  12  17  1   
 21  12  18  1   
 22  13  19  2   
 23  13  20  1   
 24  14  36  1   
 25  14  37  1   
 26  14  38  1   
 27  15  21  ar  
 28  15  22  ar  
 29  16  21  ar  
 30  16  39  1   
 31  17  23  1   
 32  17  40  1   
 33  17  41  1   
 34  18  24  1   
 35  18  42  1   
 36  18  43  1   
 37  20  25  ar  
 38  20  26  ar  
 39  21  27  ar  
 40  22  28  ar  
 41  22  44  1   
 42  23  29  1   
 43  23  45  1   
 44  23  46  1   
 45  24  29  1   
 46  24  47  1   
 47  24  48  1   
 48  25  30  ar  
 49  25  49  1   
 50  26  31  ar  
 51  26  50  1   
 52  27  32  ar  
 53  27  51  1   
 54  28  32  ar  
 55  28  52  1   
 56  30  33  ar  
 57  30  53  1   
 58  31  33  ar  
 59  31  54  1   
 60  32  55  1   
 61  33  56  1   
@<TRIPOS>SUBSTRUCTURE
  1 ****   8 GROUP 4 **** **** 0

# MOE 2024.06 (io_trps.svl 2023.06)
