@<TRIPOS>MOLECULE
NONAME
50 54 1 0 0 
SMALL
USER_CHARGES


@<TRIPOS>ATOM
  1 O       -1.3840    -0.8980    -0.5690 O.2   1 <1>  -0.5700 
  2 C       -1.2500    -1.2860     0.5760 C.2   1 <1>   0.6900 
  3 N       -2.3220    -1.2180     1.4150 N.am  1 <1>  -0.6600 
  4 N       -0.1110    -1.8570     1.0480 N.am  1 <1>  -0.5470 
  5 C       -3.1410     0.0290     1.3740 C.3   1 <1>   0.1400 
  6 C       -3.1570    -2.4470     1.5020 C.3   1 <1>   0.1400 
  7 C        1.0820    -2.2280     0.4080 C.ar  1 <1>   0.1170 
  8 C       -4.1310    -0.0090     0.1900 C.3   1 <1>   0.3430 
  9 C       -4.1230    -2.5080     0.3010 C.3   1 <1>   0.3430 
 10 C        1.8660    -3.2120     1.0080 C.ar  1 <1>  -0.1500 
 11 C        1.5160    -1.6500    -0.7920 C.ar  1 <1>  -0.1500 
 12 N       -4.9690    -1.2620     0.1820 N.4   1 <1>  -0.9590 
 13 C        3.0390    -3.5920     0.3900 C.ar  1 <1>   0.0820 
 14 C        2.7000    -2.0450    -1.4000 C.ar  1 <1>  -0.1500 
 15 C       -5.8230    -1.3160    -1.0350 C.3   1 <1>   0.4860 
 16 O        3.9240    -4.5110     0.7900 O.3   1 <1>  -0.3620 
 17 C        3.4460    -3.0270    -0.7820 C.ar  1 <1>   0.0820 
 18 C       -6.7630    -2.4990    -0.9090 C.ar  1 <1>  -0.1440 
 19 C        4.9590    -4.5340    -0.1910 C.3   1 <1>   0.4000 
 20 O        4.6080    -3.5640    -1.1760 O.3   1 <1>  -0.3630 
 21 C       -7.8190    -2.4530    -0.0010 C.ar  1 <1>  -0.1500 
 22 C       -6.5640    -3.6370    -1.6930 C.ar  1 <1>  -0.1500 
 23 C       -8.6340    -3.5620     0.1030 C.ar  1 <1>   0.0820 
 24 C       -7.4000    -4.7400    -1.5730 C.ar  1 <1>  -0.1500 
 25 O       -9.6860    -3.7370     0.9070 O.3   1 <1>  -0.3630 
 26 C       -8.4310    -4.6740    -0.6580 C.ar  1 <1>   0.0820 
 27 C      -10.2010    -5.0400     0.6270 C.3   1 <1>   0.4000 
 28 O       -9.3490    -5.6010    -0.3700 O.3   1 <1>  -0.3620 
 29 H       -0.1530    -2.0680     2.0410 H     1 <1>   0.3700 
 30 H       -2.4880     0.8790     1.2610 H     1 <1>   0.0800 
 31 H       -3.6730     0.1440     2.3020 H     1 <1>   0.0800 
 32 H       -3.7080    -2.4510     2.4260 H     1 <1>   0.0800 
 33 H       -2.5230    -3.3190     1.4900 H     1 <1>   0.0800 
 34 H       -3.5570     0.0450    -0.7220 H     1 <1>   0.0800 
 35 H       -4.7650     0.8610     0.2300 H     1 <1>   0.0800 
 36 H       -4.7560    -3.3750     0.4010 H     1 <1>   0.0800 
 37 H       -3.5350    -2.6300    -0.5950 H     1 <1>   0.0800 
 38 H        1.5780    -3.6800     1.9300 H     1 <1>   0.1500 
 39 H        0.9330    -0.8800    -1.2600 H     1 <1>   0.1500 
 40 H       -5.6020    -1.2460     0.9900 H     1 <1>   0.4500 
 41 H        3.0360    -1.6060    -2.3230 H     1 <1>   0.1500 
 42 H       -5.2110    -1.4220    -1.9160 H     1 <1>   0.0800 
 43 H       -6.4010    -0.4110    -1.1270 H     1 <1>   0.0800 
 44 H        5.0050    -5.5080    -0.6450 H     1 <1>   0.0800 
 45 H        5.8940    -4.2620     0.2650 H     1 <1>   0.0800 
 46 H       -8.0270    -1.5960     0.6140 H     1 <1>   0.1500 
 47 H       -5.7590    -3.6810    -2.4090 H     1 <1>   0.1500 
 48 H       -7.2650    -5.6270    -2.1680 H     1 <1>   0.1500 
 49 H      -11.2020    -4.9570     0.2400 H     1 <1>   0.0800 
 50 H      -10.1660    -5.6440     1.5160 H     1 <1>   0.0800 
@<TRIPOS>BOND
  1   1   2  2   
  2   2   3  am  
  3   2   4  am  
  4   3   5  1   
  5   3   6  1   
  6   4   7  1   
  7   4  29  1   
  8   5   8  1   
  9   5  30  1   
 10   5  31  1   
 11   6   9  1   
 12   6  32  1   
 13   6  33  1   
 14   7  10  ar  
 15   7  11  ar  
 16   8  12  1   
 17   8  34  1   
 18   8  35  1   
 19   9  12  1   
 20   9  36  1   
 21   9  37  1   
 22  10  13  ar  
 23  10  38  1   
 24  11  14  ar  
 25  11  39  1   
 26  12  15  1   
 27  12  40  1   
 28  13  16  1   
 29  13  17  ar  
 30  14  17  ar  
 31  14  41  1   
 32  15  18  1   
 33  15  42  1   
 34  15  43  1   
 35  16  19  1   
 36  17  20  1   
 37  18  21  ar  
 38  18  22  ar  
 39  19  20  1   
 40  19  44  1   
 41  19  45  1   
 42  21  23  ar  
 43  21  46  1   
 44  22  24  ar  
 45  22  47  1   
 46  23  25  1   
 47  23  26  ar  
 48  24  26  ar  
 49  24  48  1   
 50  25  27  1   
 51  26  28  1   
 52  27  28  1   
 53  27  49  1   
 54  27  50  1   
@<TRIPOS>SUBSTRUCTURE
  1 ****   9 GROUP 4 **** **** 0

# MOE 2024.06 (io_trps.svl 2023.06)
