@<TRIPOS>MOLECULE
NONAME
37 37 1 0 0 
SMALL
USER_CHARGES


@<TRIPOS>ATOM
  1 O       -0.8130    -0.2470     1.2250 O.2   1 <1>  -0.5700 
  2 C       -1.7580    -0.9730     0.9920 C.2   1 <1>   0.5440 
  3 N       -2.9640    -0.3560     0.8640 N.am  1 <1>  -0.7300 
  4 C       -1.5710    -2.4080     0.8590 C.ar  1 <1>   0.0860 
  5 C       -4.1820    -0.8580     0.1890 C.3   1 <1>   0.1400 
  6 C       -2.4990    -3.3330     1.3420 C.ar  1 <1>  -0.1500 
  7 C       -0.4230    -2.9190     0.2500 C.ar  1 <1>  -0.1500 
  8 C       -4.8030     0.2780    -0.6070 C.3   1 <1>  -0.2660 
  9 C       -2.2950    -4.6940     1.2140 C.ar  1 <1>  -0.1500 
 10 C       -0.2090    -4.2790     0.1190 C.ar  1 <1>  -0.1500 
 11 C       -6.0640    -0.2190    -1.2550 C.2   1 <1>   0.9060 
 12 C       -1.1510    -5.1810     0.6040 C.ar  1 <1>   0.0820 
 13 O       -6.1080    -0.2920    -2.4840 O.co2 1 <1>  -0.9000 
 14 O       -6.9990    -0.5550    -0.5240 O.co2 1 <1>  -0.9000 
 15 O       -1.0210    -6.5250     0.5220 O.3   1 <1>  -0.3630 
 16 C        0.1160    -7.1270    -0.0540 C.3   1 <1>   0.1200 
 17 C       -0.0530    -8.6440     0.0280 C.3   1 <1>  -0.1600 
 18 C        1.1520    -9.3710    -0.5830 C.3   1 <1>  -0.1600 
 19 C        0.9790   -10.8900    -0.4970 C.3   1 <1>  -0.2400 
 20 H       -2.9460     0.6560     0.9930 H     1 <1>   0.3700 
 21 H       -4.8860    -1.2070     0.9250 H     1 <1>   0.0800 
 22 H       -3.9390    -1.6730    -0.4730 H     1 <1>   0.0800 
 23 H       -3.3900    -2.9760     1.8280 H     1 <1>   0.1500 
 24 H        0.3100    -2.2240    -0.1220 H     1 <1>   0.1500 
 25 H       -4.1330     0.6150    -1.3740 H     1 <1>   0.0800 
 26 H       -5.0680     1.0930     0.0370 H     1 <1>   0.0800 
 27 H       -3.0240    -5.3910     1.5880 H     1 <1>   0.1500 
 28 H        0.6910    -4.6150    -0.3600 H     1 <1>   0.1500 
 29 H        0.9840    -6.8100     0.4970 H     1 <1>   0.0800 
 30 H        0.1850    -6.8070    -1.0790 H     1 <1>   0.0800 
 31 H       -0.9470    -8.9260    -0.4990 H     1 <1>   0.0800 
 32 H       -0.1570    -8.9280     1.0610 H     1 <1>   0.0800 
 33 H        2.0500    -9.0880    -0.0600 H     1 <1>   0.0800 
 34 H        1.2620    -9.0860    -1.6160 H     1 <1>   0.0800 
 35 H        0.8880   -11.2010     0.5290 H     1 <1>   0.0800 
 36 H        1.8310   -11.3830    -0.9290 H     1 <1>   0.0800 
 37 H        0.0970   -11.1990    -1.0310 H     1 <1>   0.0800 
@<TRIPOS>BOND
  1   1   2  2   
  2   2   3  am  
  3   2   4  1   
  4   3   5  1   
  5   3  20  1   
  6   4   6  ar  
  7   4   7  ar  
  8   5   8  1   
  9   5  21  1   
 10   5  22  1   
 11   6   9  ar  
 12   6  23  1   
 13   7  10  ar  
 14   7  24  1   
 15   8  11  1   
 16   8  25  1   
 17   8  26  1   
 18   9  12  ar  
 19   9  27  1   
 20  10  12  ar  
 21  10  28  1   
 22  11  13  ar  
 23  11  14  ar  
 24  12  15  1   
 25  15  16  1   
 26  16  17  1   
 27  16  29  1   
 28  16  30  1   
 29  17  18  1   
 30  17  31  1   
 31  17  32  1   
 32  18  19  1   
 33  18  33  1   
 34  18  34  1   
 35  19  35  1   
 36  19  36  1   
 37  19  37  1   
@<TRIPOS>SUBSTRUCTURE
  1 ****   6 GROUP 4 **** **** 0

# MOE 2024.06 (io_trps.svl 2023.06)
