@<TRIPOS>MOLECULE
NONAME
37 38 1 0 0 
SMALL
USER_CHARGES


@<TRIPOS>ATOM
  1 O        3.8330     5.9940     0.0180 O.3   1 <1>  -0.3620 
  2 C        2.7300     5.2080     0.0300 C.ar  1 <1>   0.0830 
  3 C        5.1300     5.4430     0.0210 C.3   1 <1>   0.0400 
  4 C        2.7650     3.8170     0.0470 C.ar  1 <1>  -0.1500 
  5 C        1.5020     5.8470     0.0260 C.ar  1 <1>  -0.1500 
  6 C        1.5870     3.0930     0.0590 C.ar  1 <1>  -0.1500 
  7 C        0.3290     5.1160     0.0360 C.ar  1 <1>  -0.1500 
  8 C        0.3400     3.7210     0.0510 C.ar  1 <1>   0.0280 
  9 C       -0.9070     2.9950     0.0620 C.2   1 <1>  -0.1780 
 10 C       -1.1110     1.6720    -0.1320 C.2   1 <1>  -0.1500 
 11 C       -2.3530     0.9400    -0.1200 C.2   1 <1>  -0.1380 
 12 C       -2.4170    -0.3980    -0.2450 C.2   1 <1>  -0.2880 
 13 C       -3.6400     1.7430     0.0420 C.3   1 <1>  -0.0220 
 14 C       -3.6770    -1.2360    -0.2140 C.3   1 <1>   0.4810 
 15 C       -4.8890     0.8990    -0.2350 C.3   1 <1>   0.3430 
 16 N       -4.7660    -0.4400     0.4160 N.4   1 <1>  -0.9590 
 17 C       -6.0600    -1.1830     0.4210 C.3   1 <1>   0.2630 
 18 H        5.8370     6.2530     0.0090 H     1 <1>   0.0800 
 19 H        5.2540     4.8360    -0.8590 H     1 <1>   0.0800 
 20 H        5.2590     4.8580     0.9140 H     1 <1>   0.0800 
 21 H        3.6980     3.2870     0.0540 H     1 <1>   0.1500 
 22 H        1.4760     6.9220     0.0130 H     1 <1>   0.1500 
 23 H        1.6470     2.0220     0.0800 H     1 <1>   0.1500 
 24 H       -0.6090     5.6400     0.0310 H     1 <1>   0.1500 
 25 H       -1.7500     3.6330     0.2510 H     1 <1>   0.1500 
 26 H       -0.2580     1.0460    -0.3240 H     1 <1>   0.1500 
 27 H       -1.5350    -0.9990    -0.3870 H     1 <1>   0.1500 
 28 H       -3.6400     2.5710    -0.6450 H     1 <1>   0.0800 
 29 H       -3.6880     2.1440     1.0400 H     1 <1>   0.0800 
 30 H       -3.5020    -2.1290     0.3640 H     1 <1>   0.0800 
 31 H       -3.9480    -1.5230    -1.2180 H     1 <1>   0.0800 
 32 H       -4.9990     0.7710    -1.3000 H     1 <1>   0.0800 
 33 H       -5.7580     1.4190     0.1350 H     1 <1>   0.0800 
 34 H       -4.4580    -0.2700     1.3840 H     1 <1>   0.4500 
 35 H       -6.3880    -1.3730    -0.5880 H     1 <1>   0.0800 
 36 H       -6.8190    -0.6090     0.9280 H     1 <1>   0.0800 
 37 H       -5.9490    -2.1260     0.9320 H     1 <1>   0.0800 
@<TRIPOS>BOND
  1   1   2  1   
  2   1   3  1   
  3   2   4  ar  
  4   2   5  ar  
  5   3  18  1   
  6   3  19  1   
  7   3  20  1   
  8   4   6  ar  
  9   4  21  1   
 10   5   7  ar  
 11   5  22  1   
 12   6   8  ar  
 13   6  23  1   
 14   7   8  ar  
 15   7  24  1   
 16   8   9  1   
 17   9  10  2   
 18   9  25  1   
 19  10  11  1   
 20  10  26  1   
 21  11  12  2   
 22  11  13  1   
 23  12  14  1   
 24  12  27  1   
 25  13  15  1   
 26  13  28  1   
 27  13  29  1   
 28  14  16  1   
 29  14  30  1   
 30  14  31  1   
 31  15  16  1   
 32  15  32  1   
 33  15  33  1   
 34  16  17  1   
 35  16  34  1   
 36  17  35  1   
 37  17  36  1   
 38  17  37  1   
@<TRIPOS>SUBSTRUCTURE
  1 ****   9 GROUP 4 **** **** 0

# MOE 2024.06 (io_trps.svl 2023.06)
