@<TRIPOS>MOLECULE
NONAME
49 52 1 0 0 
SMALL
USER_CHARGES


@<TRIPOS>ATOM
  1 O       -1.9890     1.3740     1.1770 O.2   1 <1>  -0.5700 
  2 C       -1.7840     2.4450     0.6470 C.2   1 <1>   0.5950 
  3 C       -2.8170     3.1730    -0.0090 C.2   1 <1>  -0.0860 
  4 C       -0.3700     2.9760     0.7240 C.3   1 <1>  -0.1790 
  5 C       -4.1610     3.1800     0.2880 C.2   1 <1>  -0.0680 
  6 C       -2.7470     4.0280    -1.1330 C.2   1 <1>   0.1080 
  7 N       -4.7650     3.9880    -0.5980 N.pl3 1 <1>   0.5930 
  8 N       -5.1040     2.6560     1.1630 N.pl3 1 <1>  -0.5530 
  9 N       -3.8920     4.5080    -1.4910 N.2   1 <1>  -0.7070 
 10 C       -1.5050     4.3790    -1.9290 C.3   1 <1>  -0.0590 
 11 C       -6.1330     3.9960    -0.3390 C.ar  1 <1>  -0.0230 
 12 C       -6.3350     3.1750     0.7610 C.ar  1 <1>   0.1000 
 13 C       -4.8620     1.8560     2.3920 C.3   1 <1>   0.2090 
 14 C       -7.1920     4.6410    -0.9650 C.ar  1 <1>  -0.1500 
 15 C       -7.6190     2.9920     1.2650 C.ar  1 <1>  -0.1500 
 16 C       -5.0830     0.3440     2.1660 C.3   1 <1>   0.3430 
 17 C       -8.4660     4.4500    -0.4640 C.ar  1 <1>  -0.1500 
 18 C       -8.6770     3.6310     0.6450 C.ar  1 <1>  -0.1500 
 19 N       -4.2970    -0.2060     1.0140 N.4   1 <1>  -0.9590 
 20 C       -5.0150    -0.0680    -0.2860 C.3   1 <1>   0.3430 
 21 C       -3.8300    -1.5980     1.2500 C.3   1 <1>   0.3430 
 22 C       -4.0690    -0.4350    -1.4290 C.3   1 <1>  -0.1600 
 23 C       -2.8620    -2.0020     0.1360 C.3   1 <1>  -0.1600 
 24 C       -3.4920    -1.8470    -1.2550 C.3   1 <1>  -0.1600 
 25 H        0.0920     2.6410     1.6340 H     1 <1>   0.0800 
 26 H        0.2040     2.6100    -0.1070 H     1 <1>   0.0800 
 27 H       -0.3700     4.0500     0.7220 H     1 <1>   0.0800 
 28 H       -1.7890     4.8180    -2.8700 H     1 <1>   0.0800 
 29 H       -0.9110     5.0960    -1.3920 H     1 <1>   0.0800 
 30 H       -0.9230     3.5000    -2.1310 H     1 <1>   0.0800 
 31 H       -5.5270     2.1990     3.1660 H     1 <1>   0.0800 
 32 H       -3.8590     2.0290     2.7370 H     1 <1>   0.0800 
 33 H       -7.0100     5.2730    -1.8180 H     1 <1>   0.1500 
 34 H       -7.7880     2.3680     2.1220 H     1 <1>   0.1500 
 35 H       -6.1320     0.1600     2.0100 H     1 <1>   0.0800 
 36 H       -4.7930    -0.1660     3.0690 H     1 <1>   0.0800 
 37 H       -9.3050     4.9390    -0.9300 H     1 <1>   0.1500 
 38 H       -9.6790     3.5040     1.0190 H     1 <1>   0.1500 
 39 H       -3.4400     0.3800     0.9410 H     1 <1>   0.4500 
 40 H       -5.3580     0.9440    -0.4240 H     1 <1>   0.0800 
 41 H       -5.8730    -0.7200    -0.3020 H     1 <1>   0.0800 
 42 H       -4.6720    -2.2700     1.2610 H     1 <1>   0.0800 
 43 H       -3.3240    -1.6620     2.2000 H     1 <1>   0.0800 
 44 H       -3.2710     0.2860    -1.4720 H     1 <1>   0.0800 
 45 H       -4.6040    -0.3780    -2.3610 H     1 <1>   0.0800 
 46 H       -2.5650    -3.0260     0.2810 H     1 <1>   0.0800 
 47 H       -1.9740    -1.3970     0.2050 H     1 <1>   0.0800 
 48 H       -2.7520    -2.0360    -2.0160 H     1 <1>   0.0800 
 49 H       -4.2790    -2.5730    -1.3760 H     1 <1>   0.0800 
@<TRIPOS>BOND
  1   1   2  2   
  2   2   3  1   
  3   2   4  1   
  4   3   5  2   
  5   3   6  1   
  6   4  25  1   
  7   4  26  1   
  8   4  27  1   
  9   5   7  1   
 10   5   8  1   
 11   6   9  2   
 12   6  10  1   
 13   7   9  1   
 14   7  11  1   
 15   8  12  1   
 16   8  13  1   
 17  10  28  1   
 18  10  29  1   
 19  10  30  1   
 20  11  12  ar  
 21  11  14  ar  
 22  12  15  ar  
 23  13  16  1   
 24  13  31  1   
 25  13  32  1   
 26  14  17  ar  
 27  14  33  1   
 28  15  18  ar  
 29  15  34  1   
 30  16  19  1   
 31  16  35  1   
 32  16  36  1   
 33  17  18  ar  
 34  17  37  1   
 35  18  38  1   
 36  19  20  1   
 37  19  21  1   
 38  19  39  1   
 39  20  22  1   
 40  20  40  1   
 41  20  41  1   
 42  21  23  1   
 43  21  42  1   
 44  21  43  1   
 45  22  24  1   
 46  22  44  1   
 47  22  45  1   
 48  23  24  1   
 49  23  46  1   
 50  23  47  1   
 51  24  48  1   
 52  24  49  1   
@<TRIPOS>SUBSTRUCTURE
  1 ****   5 GROUP 4 **** **** 0

# MOE 2024.06 (io_trps.svl 2023.06)
