@<TRIPOS>MOLECULE
NONAME
41 45 1 0 0 
SMALL
USER_CHARGES


@<TRIPOS>ATOM
  1 O       -0.7740    -1.2900     2.1330 O.2   1 <1>  -0.5700 
  2 C       -1.2370    -1.4750     1.0380 C.2   1 <1>   0.5690 
  3 N       -0.7890    -2.3300     0.0400 N.am  1 <1>  -0.2370 
  4 C       -2.4200    -0.7360     0.4840 C.3   1 <1>  -0.0190 
  5 C        0.4540    -3.0060     0.0250 C.ar  1 <1>   0.1170 
  6 C       -1.7690    -2.4120    -0.9400 C.2   1 <1>   0.5690 
  7 C       -3.6430     0.0920     0.9150 C.3   1 <1>   0.1530 
  8 C       -3.0370    -1.8650    -0.3500 C.3   1 <1>  -0.0190 
  9 C        0.5610    -4.2930    -0.4970 C.ar  1 <1>  -0.1500 
 10 C        1.6030    -2.4050     0.5310 C.ar  1 <1>  -0.1500 
 11 O       -1.6770    -2.8510    -2.0570 O.2   1 <1>  -0.5700 
 12 C       -4.7880    -0.7690     1.4360 C.2   1 <1>  -0.2880 
 13 C       -4.1930     0.2360    -0.5120 C.3   1 <1>  -0.1900 
 14 C       -4.3870    -1.2530    -0.7990 C.3   1 <1>   0.1530 
 15 C        1.7730    -4.9600    -0.5120 C.ar  1 <1>  -0.1500 
 16 C        2.8170    -3.0680     0.5210 C.ar  1 <1>  -0.1500 
 17 C       -5.2580    -1.5080     0.4260 C.2   1 <1>  -0.2880 
 18 C       -5.1690     1.2860    -0.9290 C.3   1 <1>  -0.2000 
 19 C       -3.7780     1.2550    -1.5240 C.3   1 <1>  -0.2000 
 20 C        2.9090    -4.3500     0.0050 C.ar  1 <1>   0.0830 
 21 O        4.1340    -4.9420     0.0170 O.3   1 <1>  -0.2330 
 22 C        4.4200    -6.2380     0.1170 C.2   1 <1>   0.6590 
 23 O        3.6000    -7.1030     0.2810 O.2   1 <1>  -0.5700 
 24 C        5.8860    -6.5780     0.0180 C.3   1 <1>  -0.1790 
 25 H       -1.9000    -0.0540    -0.1720 H     1 <1>   0.0800 
 26 H       -3.4620     1.0280     1.4160 H     1 <1>   0.0800 
 27 H       -3.3080    -2.6830     0.3000 H     1 <1>   0.0800 
 28 H       -0.3070    -4.7830    -0.9010 H     1 <1>   0.1500 
 29 H        1.5540    -1.4120     0.9420 H     1 <1>   0.1500 
 30 H       -5.0950    -0.7000     2.4660 H     1 <1>   0.1500 
 31 H       -4.7970    -1.5330    -1.7540 H     1 <1>   0.0800 
 32 H        1.8210    -5.9490    -0.9320 H     1 <1>   0.1500 
 33 H        3.6960    -2.5910     0.9160 H     1 <1>   0.1500 
 34 H       -6.0660    -2.2190     0.3850 H     1 <1>   0.1500 
 35 H       -5.4190     2.0660    -0.2310 H     1 <1>   0.1000 
 36 H       -6.0050     1.0000    -1.5440 H     1 <1>   0.1000 
 37 H       -3.6710     0.9600    -2.5540 H     1 <1>   0.1000 
 38 H       -3.0950     2.0390    -1.2460 H     1 <1>   0.1000 
 39 H        6.4240    -6.0870     0.8060 H     1 <1>   0.0800 
 40 H        6.2670    -6.2540    -0.9320 H     1 <1>   0.0800 
 41 H        6.0200    -7.6410     0.1080 H     1 <1>   0.0800 
@<TRIPOS>BOND
  1   1   2  2   
  2   2   3  am  
  3   2   4  1   
  4   3   5  1   
  5   3   6  am  
  6   4   7  1   
  7   4   8  1   
  8   4  25  1   
  9   5   9  ar  
 10   5  10  ar  
 11   6   8  1   
 12   6  11  2   
 13   7  12  1   
 14   7  13  1   
 15   7  26  1   
 16   8  14  1   
 17   8  27  1   
 18   9  15  ar  
 19   9  28  1   
 20  10  16  ar  
 21  10  29  1   
 22  12  17  2   
 23  12  30  1   
 24  13  14  1   
 25  13  18  1   
 26  13  19  1   
 27  14  17  1   
 28  14  31  1   
 29  15  20  ar  
 30  15  32  1   
 31  16  20  ar  
 32  16  33  1   
 33  17  34  1   
 34  18  19  1   
 35  18  35  1   
 36  18  36  1   
 37  19  37  1   
 38  19  38  1   
 39  20  21  1   
 40  21  22  1   
 41  22  23  2   
 42  22  24  1   
 43  24  39  1   
 44  24  40  1   
 45  24  41  1   
@<TRIPOS>SUBSTRUCTURE
  1 ****   3 GROUP 4 **** **** 0

# MOE 2024.06 (io_trps.svl 2023.06)
