@<TRIPOS>MOLECULE
NONAME
53 56 1 0 0 
SMALL
USER_CHARGES


@<TRIPOS>ATOM
  1 O       -2.4020     2.7690    -1.6940 O.2   1 <1>  -0.5700 
  2 C       -2.9770     2.0090    -0.9650 C.2   1 <1>   0.4480 
  3 C       -4.4140     2.2690    -0.4720 C.3   1 <1>   0.0610 
  4 C       -2.2140     0.7540    -0.4940 C.3   1 <1>   0.4840 
  5 C       -4.6130     3.7870    -0.2230 C.3   1 <1>  -0.1600 
  6 C       -4.7450     1.5260     0.8530 C.3   1 <1>  -0.1600 
  7 C       -5.4300     1.8250    -1.5530 C.3   1 <1>  -0.1600 
  8 N       -0.7510     0.9590    -0.6870 N.4   1 <1>  -0.9060 
  9 C       -2.5890    -0.4900    -1.2980 C.3   1 <1>  -0.2400 
 10 C       -6.0520     4.0950     0.2300 C.3   1 <1>  -0.0800 
 11 C       -6.1860     1.8210     1.3060 C.3   1 <1>  -0.0800 
 12 C       -6.8740     2.1180    -1.1040 C.3   1 <1>  -0.0800 
 13 C        0.0140     1.3050     0.5240 C.3   1 <1>   0.4230 
 14 C       -6.3470     3.3340     1.5330 C.3   1 <1>  -0.1600 
 15 C       -7.0320     3.6310    -0.8630 C.3   1 <1>  -0.1600 
 16 C       -7.1640     1.3660     0.2070 C.3   1 <1>  -0.1600 
 17 C       -0.4230     2.6730     1.0700 C.3   1 <1>  -0.1600 
 18 C        1.5000     1.3090     0.1560 C.3   1 <1>  -0.1600 
 19 C        0.4450     3.1000     2.2630 C.3   1 <1>  -0.1600 
 20 C        2.3700     1.7260     1.3500 C.3   1 <1>  -0.1600 
 21 C        1.9350     3.0900     1.8990 C.3   1 <1>  -0.1600 
 22 H       -2.4170     0.5800     0.5500 H     1 <1>   0.0800 
 23 H       -4.4100     4.3380    -1.1260 H     1 <1>   0.0800 
 24 H       -3.9220     4.1340     0.5260 H     1 <1>   0.0800 
 25 H       -4.0690     1.8350     1.6320 H     1 <1>   0.0800 
 26 H       -4.6530     0.4620     0.7300 H     1 <1>   0.0800 
 27 H       -5.3360     0.7730    -1.7550 H     1 <1>   0.0800 
 28 H       -5.2330     2.3500    -2.4720 H     1 <1>   0.0800 
 29 H       -0.6880     1.7560    -1.3470 H     1 <1>   0.4500 
 30 H       -0.3380     0.1480    -1.1540 H     1 <1>   0.4500 
 31 H       -2.4320    -0.3260    -2.3510 H     1 <1>   0.0800 
 32 H       -3.6280    -0.7240    -1.1520 H     1 <1>   0.0800 
 33 H       -2.0180    -1.3410    -0.9740 H     1 <1>   0.0800 
 34 H       -6.1660     5.1540     0.3920 H     1 <1>   0.0800 
 35 H       -6.4000     1.2950     2.2210 H     1 <1>   0.0800 
 36 H       -7.5660     1.8010    -1.8670 H     1 <1>   0.0800 
 37 H       -0.1470     0.5560     1.2850 H     1 <1>   0.0800 
 38 H       -7.3510     3.5480     1.8580 H     1 <1>   0.0800 
 39 H       -5.6790     3.6640     2.3100 H     1 <1>   0.0800 
 40 H       -8.0420     3.8480    -0.5620 H     1 <1>   0.0800 
 41 H       -6.8440     4.1690    -1.7760 H     1 <1>   0.0800 
 42 H       -8.1760     1.5610     0.5190 H     1 <1>   0.0800 
 43 H       -7.0750     0.3050     0.0490 H     1 <1>   0.0800 
 44 H       -1.4450     2.6430     1.4010 H     1 <1>   0.0800 
 45 H       -0.3340     3.4200     0.2990 H     1 <1>   0.0800 
 46 H        1.6760     2.0010    -0.6510 H     1 <1>   0.0800 
 47 H        1.8040     0.3270    -0.1620 H     1 <1>   0.0800 
 48 H        0.2790     2.4330     3.0930 H     1 <1>   0.0800 
 49 H        0.1630     4.0900     2.5810 H     1 <1>   0.0800 
 50 H        3.4030     1.7770     1.0470 H     1 <1>   0.0800 
 51 H        2.2970     0.9880     2.1320 H     1 <1>   0.0800 
 52 H        2.5200     3.3290     2.7720 H     1 <1>   0.0800 
 53 H        2.1300     3.8530     1.1630 H     1 <1>   0.0800 
@<TRIPOS>BOND
  1   1   2  2   
  2   2   3  1   
  3   2   4  1   
  4   3   5  1   
  5   3   6  1   
  6   3   7  1   
  7   4   8  1   
  8   4   9  1   
  9   4  22  1   
 10   5  10  1   
 11   5  23  1   
 12   5  24  1   
 13   6  11  1   
 14   6  25  1   
 15   6  26  1   
 16   7  12  1   
 17   7  27  1   
 18   7  28  1   
 19   8  13  1   
 20   8  29  1   
 21   8  30  1   
 22   9  31  1   
 23   9  32  1   
 24   9  33  1   
 25  10  14  1   
 26  10  15  1   
 27  10  34  1   
 28  11  14  1   
 29  11  16  1   
 30  11  35  1   
 31  12  15  1   
 32  12  16  1   
 33  12  36  1   
 34  13  17  1   
 35  13  18  1   
 36  13  37  1   
 37  14  38  1   
 38  14  39  1   
 39  15  40  1   
 40  15  41  1   
 41  16  42  1   
 42  16  43  1   
 43  17  19  1   
 44  17  44  1   
 45  17  45  1   
 46  18  20  1   
 47  18  46  1   
 48  18  47  1   
 49  19  21  1   
 50  19  48  1   
 51  19  49  1   
 52  20  21  1   
 53  20  50  1   
 54  20  51  1   
 55  21  52  1   
 56  21  53  1   
@<TRIPOS>SUBSTRUCTURE
  1 ****   2 GROUP 4 **** **** 0

# MOE 2024.06 (io_trps.svl 2023.06)
