@<TRIPOS>MOLECULE
NONAME
47 49 1 0 0 
SMALL
USER_CHARGES


@<TRIPOS>ATOM
  1 S        0.0690     0.5810     1.4670 S.o2  1 <1>   1.4470 
  2 O       -0.2200    -0.8340     1.3840 O.2   1 <1>  -0.6500 
  3 O        0.4650     1.1470     2.7400 O.2   1 <1>  -0.6500 
  4 N        1.3550     0.8710     0.4050 N.am  1 <1>  -0.8490 
  5 C       -1.2730     1.5470     0.7260 C.ar  1 <1>  -0.0090 
  6 C        2.5230     0.0370     0.7430 C.3   1 <1>   0.1960 
  7 C        1.7510     2.2940     0.3840 C.3   1 <1>   0.1960 
  8 C       -1.8330     2.6330     1.3870 C.ar  1 <1>  -0.1500 
  9 C       -1.7430     1.2540    -0.5470 C.ar  1 <1>  -0.1500 
 10 C        3.7050     0.2400    -0.2270 C.3   1 <1>   0.2090 
 11 C        2.8740     2.5750    -0.6300 C.3   1 <1>   0.2090 
 12 C       -2.8060     3.4100     0.7860 C.ar  1 <1>  -0.1500 
 13 C       -2.7170     2.0310    -1.1470 C.ar  1 <1>  -0.1500 
 14 N        4.0500     1.6810    -0.4250 N.pl3 1 <1>  -0.8380 
 15 C       -3.2660     3.1380    -0.5010 C.ar  1 <1>  -0.1790 
 16 C        5.1590     2.2030     0.2440 C.ar  1 <1>   0.1000 
 17 C       -4.2700     3.9770    -1.1450 C.2   1 <1>   0.9790 
 18 C        6.3020     2.6050    -0.4550 C.ar  1 <1>  -0.1440 
 19 C        5.1270     2.3360     1.6270 C.ar  1 <1>  -0.1500 
 20 O       -4.6720     3.7150    -2.2930 O.co2 1 <1>  -0.9000 
 21 O       -4.7280     4.9740    -0.5610 O.co2 1 <1>  -0.9000 
 22 C        7.3850     3.1420     0.2370 C.ar  1 <1>  -0.1430 
 23 C        6.3140     2.4410    -1.9760 C.3   1 <1>  -0.0970 
 24 C        6.2030     2.8610     2.3130 C.ar  1 <1>  -0.1500 
 25 C        7.3270     3.2630     1.6180 C.ar  1 <1>  -0.1500 
 26 C        8.6510     3.6130    -0.4660 C.3   1 <1>  -0.0970 
 27 H        2.2400    -1.0020     0.7160 H     1 <1>   0.0800 
 28 H        2.8500     0.2570     1.7450 H     1 <1>   0.0800 
 29 H        2.0830     2.6010     1.3620 H     1 <1>   0.0800 
 30 H        0.9050     2.9040     0.1190 H     1 <1>   0.0800 
 31 H       -1.5010     2.8830     2.3800 H     1 <1>   0.1500 
 32 H       -1.3360     0.4120    -1.0800 H     1 <1>   0.1500 
 33 H        3.4500    -0.1870    -1.1810 H     1 <1>   0.0800 
 34 H        4.5670    -0.2840     0.1470 H     1 <1>   0.0800 
 35 H        3.1870     3.6010    -0.5440 H     1 <1>   0.0800 
 36 H        2.4940     2.4280    -1.6260 H     1 <1>   0.0800 
 37 H       -3.2260     4.2540     1.3110 H     1 <1>   0.1500 
 38 H       -3.0660     1.7910    -2.1390 H     1 <1>   0.1500 
 39 H        4.2540     2.0300     2.1680 H     1 <1>   0.1500 
 40 H        7.2890     2.5680    -2.4040 H     1 <1>   0.0800 
 41 H        5.9720     1.4560    -2.2370 H     1 <1>   0.0800 
 42 H        5.6480     3.1600    -2.4160 H     1 <1>   0.0800 
 43 H        6.1670     2.9580     3.3830 H     1 <1>   0.1500 
 44 H        8.1590     3.6730     2.1640 H     1 <1>   0.1500 
 45 H        9.1500     2.7760    -0.9200 H     1 <1>   0.0800 
 46 H        9.3310     4.0760     0.2260 H     1 <1>   0.0800 
 47 H        8.4050     4.3340    -1.2240 H     1 <1>   0.0800 
@<TRIPOS>BOND
  1   1   2  2   
  2   1   3  2   
  3   1   4  am  
  4   1   5  1   
  5   4   6  1   
  6   4   7  1   
  7   5   8  ar  
  8   5   9  ar  
  9   6  10  1   
 10   6  27  1   
 11   6  28  1   
 12   7  11  1   
 13   7  29  1   
 14   7  30  1   
 15   8  12  ar  
 16   8  31  1   
 17   9  13  ar  
 18   9  32  1   
 19  10  14  1   
 20  10  33  1   
 21  10  34  1   
 22  11  14  1   
 23  11  35  1   
 24  11  36  1   
 25  12  15  ar  
 26  12  37  1   
 27  13  15  ar  
 28  13  38  1   
 29  14  16  1   
 30  15  17  1   
 31  16  18  ar  
 32  16  19  ar  
 33  17  20  ar  
 34  17  21  ar  
 35  18  22  ar  
 36  18  23  1   
 37  19  24  ar  
 38  19  39  1   
 39  22  25  ar  
 40  22  26  1   
 41  23  40  1   
 42  23  41  1   
 43  23  42  1   
 44  24  25  ar  
 45  24  43  1   
 46  25  44  1   
 47  26  45  1   
 48  26  46  1   
 49  26  47  1   
@<TRIPOS>SUBSTRUCTURE
  1 ****   7 GROUP 4 **** **** 0

# MOE 2024.06 (io_trps.svl 2023.06)
