@<TRIPOS>MOLECULE
NONAME
45 47 1 0 0 
SMALL
USER_CHARGES


@<TRIPOS>ATOM
  1 S       -0.4780    -0.1550     0.1410 S.o2  1 <1>   1.3330 
  2 O       -0.8690     1.0540    -0.5470 O.2   1 <1>  -0.6500 
  3 O        0.6610    -0.9150    -0.3170 O.2   1 <1>  -0.6500 
  4 N       -1.8210    -1.1850     0.1860 N.am  1 <1>  -0.8490 
  5 C       -0.2220     0.2150     1.8630 C.3   1 <1>  -0.1350 
  6 C       -1.8060    -2.1480    -0.9330 C.3   1 <1>   0.1960 
  7 C       -3.0990    -0.4480     0.1900 C.3   1 <1>   0.1960 
  8 C       -2.9750    -3.1440    -0.8540 C.3   1 <1>   0.1400 
  9 C       -4.3120    -1.3880     0.3130 C.3   1 <1>   0.1400 
 10 N       -4.2900    -2.4410    -0.7480 N.am  1 <1>  -0.6600 
 11 C       -5.3670    -2.8140    -1.5210 C.2   1 <1>   0.5690 
 12 O       -5.2590    -3.6640    -2.3750 O.2   1 <1>  -0.5700 
 13 C       -6.7370    -2.1530    -1.3720 C.3   1 <1>   0.1810 
 14 O       -7.2140    -2.2300    -0.0360 O.3   1 <1>  -0.3630 
 15 C       -8.3350    -1.5690     0.3440 C.ar  1 <1>   0.0820 
 16 C       -9.1900    -0.9210    -0.5480 C.ar  1 <1>  -0.1500 
 17 C       -8.6150    -1.5510     1.7040 C.ar  1 <1>  -0.1500 
 18 C      -10.3000    -0.2640    -0.0520 C.ar  1 <1>  -0.1440 
 19 C       -9.7310    -0.8890     2.1890 C.ar  1 <1>  -0.1500 
 20 C      -10.5670    -0.2460     1.2950 C.ar  1 <1>  -0.1440 
 21 C      -11.3500     0.4960    -0.8250 C.3   1 <1>  -0.0170 
 22 C      -11.8250     0.5280     1.5970 C.3   1 <1>  -0.0170 
 23 C      -12.4640     0.7260     0.2110 C.3   1 <1>  -0.1600 
 24 H       -1.0810     0.7090     2.2710 H     1 <1>   0.0800 
 25 H        0.6300     0.8560     1.9760 H     1 <1>   0.0800 
 26 H       -0.0480    -0.6900     2.4100 H     1 <1>   0.0800 
 27 H       -0.8880    -2.7110    -0.9150 H     1 <1>   0.0800 
 28 H       -1.8490    -1.6210    -1.8720 H     1 <1>   0.0800 
 29 H       -3.1970     0.1220    -0.7200 H     1 <1>   0.0800 
 30 H       -3.1130     0.2440     1.0130 H     1 <1>   0.0800 
 31 H       -2.8430    -3.7720     0.0100 H     1 <1>   0.0800 
 32 H       -2.9530    -3.7770    -1.7240 H     1 <1>   0.0800 
 33 H       -5.2060    -0.7960     0.2510 H     1 <1>   0.0800 
 34 H       -4.2960    -1.8630     1.2790 H     1 <1>   0.0800 
 35 H       -7.4450    -2.6530    -2.0070 H     1 <1>   0.0800 
 36 H       -6.6620    -1.1190    -1.6510 H     1 <1>   0.0800 
 37 H       -9.0170    -0.9210    -1.6060 H     1 <1>   0.1500 
 38 H       -7.9540    -2.0600     2.3810 H     1 <1>   0.1500 
 39 H       -9.9440    -0.8760     3.2430 H     1 <1>   0.1500 
 40 H      -11.7070    -0.0690    -1.6690 H     1 <1>   0.0800 
 41 H      -10.9410     1.4340    -1.1580 H     1 <1>   0.0800 
 42 H      -11.5660     1.4760     2.0360 H     1 <1>   0.0800 
 43 H      -12.4760    -0.0170     2.2580 H     1 <1>   0.0800 
 44 H      -13.2250    -0.0220     0.0720 H     1 <1>   0.0800 
 45 H      -12.9080     1.7010     0.1110 H     1 <1>   0.0800 
@<TRIPOS>BOND
  1   1   2  2   
  2   1   3  2   
  3   1   4  am  
  4   1   5  1   
  5   4   6  1   
  6   4   7  1   
  7   5  24  1   
  8   5  25  1   
  9   5  26  1   
 10   6   8  1   
 11   6  27  1   
 12   6  28  1   
 13   7   9  1   
 14   7  29  1   
 15   7  30  1   
 16   8  10  1   
 17   8  31  1   
 18   8  32  1   
 19   9  10  1   
 20   9  33  1   
 21   9  34  1   
 22  10  11  am  
 23  11  12  2   
 24  11  13  1   
 25  13  14  1   
 26  13  35  1   
 27  13  36  1   
 28  14  15  1   
 29  15  16  ar  
 30  15  17  ar  
 31  16  18  ar  
 32  16  37  1   
 33  17  19  ar  
 34  17  38  1   
 35  18  20  ar  
 36  18  21  1   
 37  19  20  ar  
 38  19  39  1   
 39  20  22  1   
 40  21  23  1   
 41  21  40  1   
 42  21  41  1   
 43  22  23  1   
 44  22  42  1   
 45  22  43  1   
 46  23  44  1   
 47  23  45  1   
@<TRIPOS>SUBSTRUCTURE
  1 ****   9 GROUP 4 **** **** 0

# MOE 2024.06 (io_trps.svl 2023.06)
