@<TRIPOS>MOLECULE
NONAME
48 52 1 0 0 
SMALL
USER_CHARGES


@<TRIPOS>ATOM
  1 F        0.0260     0.3720     0.9020 F     1 <1>  -0.1900 
  2 C       -0.7820     1.3940     0.7870 C.ar  1 <1>   0.1900 
  3 C       -2.1240     1.2190     1.0650 C.ar  1 <1>  -0.1500 
  4 C       -0.2630     2.6130     0.3940 C.ar  1 <1>  -0.1500 
  5 C       -2.9730     2.3050     0.9400 C.ar  1 <1>  -0.1500 
  6 C       -1.1250     3.6900     0.2710 C.ar  1 <1>  -0.1500 
  7 C       -2.4850     3.5470     0.5350 C.ar  1 <1>   0.1170 
  8 N       -3.3250     4.6580     0.4010 N.am  1 <1>  -0.5470 
  9 C       -4.6150     4.7720    -0.0340 C.2   1 <1>   0.5440 
 10 O       -5.1650     5.8240     0.2130 O.2   1 <1>  -0.5700 
 11 C       -5.3220     3.7240    -0.7500 C.ar  1 <1>   0.0860 
 12 C       -6.6750     3.5030    -0.5030 C.ar  1 <1>  -0.1500 
 13 C       -4.7020     2.9130    -1.7020 C.ar  1 <1>  -0.1500 
 14 C       -7.3960     2.5100    -1.1490 C.ar  1 <1>   0.1170 
 15 C       -5.4010     1.9180    -2.3580 C.ar  1 <1>  -0.1500 
 16 N       -8.7570     2.3630    -0.8470 N.am  1 <1>  -0.5470 
 17 C       -6.7400     1.7160    -2.0830 C.ar  1 <1>  -0.1500 
 18 C       -9.5670     1.2600    -0.9080 C.2   1 <1>   0.5690 
 19 O       -9.1600     0.1700    -1.2240 O.2   1 <1>  -0.5700 
 20 C      -11.0450     1.3760    -0.5360 C.3   1 <1>  -0.0190 
 21 C      -11.6790     2.7800    -0.7340 C.3   1 <1>  -0.0190 
 22 C      -11.2980     1.1090     0.9680 C.3   1 <1>  -0.0800 
 23 C      -13.0560     2.6360    -1.3290 C.2   1 <1>   0.6590 
 24 C      -12.0290     3.2040     0.7010 C.3   1 <1>  -0.0800 
 25 C      -12.8210     0.9920     1.2070 C.3   1 <1>  -0.1600 
 26 C      -11.0300     2.4720     1.5820 C.3   1 <1>  -0.1600 
 27 O      -13.3220     2.7180    -2.4960 O.2   1 <1>  -0.5700 
 28 O      -13.9390     2.4150    -0.3770 O.3   1 <1>  -0.4300 
 29 C      -13.3350     2.4130     0.8940 C.3   1 <1>   0.2000 
 30 H       -2.4900     0.2560     1.3720 H     1 <1>   0.1500 
 31 H        0.7880     2.7100     0.1900 H     1 <1>   0.1500 
 32 H       -4.0180     2.1850     1.1630 H     1 <1>   0.1500 
 33 H       -0.7410     4.6460    -0.0370 H     1 <1>   0.1500 
 34 H       -2.9660     5.5440     0.7560 H     1 <1>   0.3700 
 35 H       -7.1680     4.1290     0.2180 H     1 <1>   0.1500 
 36 H       -3.6620     3.0650    -1.9310 H     1 <1>   0.1500 
 37 H       -4.9050     1.2980    -3.0860 H     1 <1>   0.1500 
 38 H       -9.1950     3.2010    -0.4720 H     1 <1>   0.3700 
 39 H       -7.2750     0.9410    -2.6020 H     1 <1>   0.1500 
 40 H      -11.5680     0.6410    -1.1260 H     1 <1>   0.0800 
 41 H      -11.0850     3.4880    -1.2820 H     1 <1>   0.0800 
 42 H      -10.7240     0.2940     1.3770 H     1 <1>   0.0800 
 43 H      -12.1310     4.2630     0.8650 H     1 <1>   0.0800 
 44 H      -13.0060     0.7600     2.2420 H     1 <1>   0.0800 
 45 H      -13.2840     0.2390     0.5930 H     1 <1>   0.0800 
 46 H      -10.0180     2.8130     1.4560 H     1 <1>   0.0800 
 47 H      -11.2940     2.5150     2.6270 H     1 <1>   0.0800 
 48 H      -14.0090     2.8100     1.6340 H     1 <1>   0.0800 
@<TRIPOS>BOND
  1   1   2  1   
  2   2   3  ar  
  3   2   4  ar  
  4   3   5  ar  
  5   3  30  1   
  6   4   6  ar  
  7   4  31  1   
  8   5   7  ar  
  9   5  32  1   
 10   6   7  ar  
 11   6  33  1   
 12   7   8  1   
 13   8   9  am  
 14   8  34  1   
 15   9  10  2   
 16   9  11  1   
 17  11  12  ar  
 18  11  13  ar  
 19  12  14  ar  
 20  12  35  1   
 21  13  15  ar  
 22  13  36  1   
 23  14  16  1   
 24  14  17  ar  
 25  15  17  ar  
 26  15  37  1   
 27  16  18  am  
 28  16  38  1   
 29  17  39  1   
 30  18  19  2   
 31  18  20  1   
 32  20  21  1   
 33  20  22  1   
 34  20  40  1   
 35  21  23  1   
 36  21  24  1   
 37  21  41  1   
 38  22  25  1   
 39  22  26  1   
 40  22  42  1   
 41  23  27  2   
 42  23  28  1   
 43  24  26  1   
 44  24  29  1   
 45  24  43  1   
 46  25  29  1   
 47  25  44  1   
 48  25  45  1   
 49  26  46  1   
 50  26  47  1   
 51  28  29  1   
 52  29  48  1   
@<TRIPOS>SUBSTRUCTURE
  1 ****  14 GROUP 4 **** **** 0

# MOE 2024.06 (io_trps.svl 2023.06)
