@<TRIPOS>MOLECULE
NONAME
38 38 1 0 0 
SMALL
USER_CHARGES


@<TRIPOS>ATOM
  1 BR       1.5970    -0.3380    -1.6770 Br    1 <1>  -0.1110 
  2 C        0.6470    -1.8580    -0.9770 C.ar  1 <1>   0.1110 
  3 C       -0.5120    -2.2620    -1.6090 C.ar  1 <1>  -0.1500 
  4 C        1.1470    -2.5020     0.1370 C.ar  1 <1>  -0.1500 
  5 C       -1.2030    -3.3550    -1.1050 C.ar  1 <1>  -0.1430 
  6 C        0.4580    -3.5930     0.6380 C.ar  1 <1>  -0.1500 
  7 C       -0.7180    -4.0230     0.0210 C.ar  1 <1>   0.0830 
  8 C       -2.4800    -3.8190    -1.7790 C.3   1 <1>   0.4870 
  9 O       -1.4430    -5.0800     0.4780 O.3   1 <1>  -0.3620 
 10 N       -3.5940    -3.7280    -0.7990 N.4   1 <1>  -0.9590 
 11 C       -0.9140    -5.9590     1.4530 C.3   1 <1>   0.0400 
 12 C       -4.7940    -4.4760    -1.2910 C.3   1 <1>   0.3430 
 13 C       -3.8750    -2.3180    -0.4130 C.3   1 <1>   0.3430 
 14 C       -5.8610    -4.6830    -0.2080 C.3   1 <1>   0.1200 
 15 C       -3.7780    -2.1850     1.1070 C.3   1 <1>  -0.1600 
 16 O       -6.8890    -5.4200    -0.7670 O.3   1 <1>  -0.6800 
 17 C       -4.0670    -0.7470     1.5510 C.3   1 <1>  -0.2400 
 18 H       -0.8470    -1.7220    -2.4780 H     1 <1>   0.1500 
 19 H        2.0560    -2.1560     0.5990 H     1 <1>   0.1500 
 20 H        0.8530    -4.0860     1.5060 H     1 <1>   0.1500 
 21 H       -2.3510    -4.8420    -2.0940 H     1 <1>   0.0800 
 22 H       -2.6900    -3.2140    -2.6450 H     1 <1>   0.0800 
 23 H       -3.2030    -4.2110     0.0290 H     1 <1>   0.4500 
 24 H       -1.6040    -6.7730     1.5880 H     1 <1>   0.0800 
 25 H       -0.7950    -5.4270     2.3810 H     1 <1>   0.0800 
 26 H        0.0320    -6.3400     1.1080 H     1 <1>   0.0800 
 27 H       -4.4880    -5.4490    -1.6400 H     1 <1>   0.0800 
 28 H       -5.2380    -3.9460    -2.1180 H     1 <1>   0.0800 
 29 H       -4.8570    -2.0250    -0.7470 H     1 <1>   0.0800 
 30 H       -3.1550    -1.6560    -0.8650 H     1 <1>   0.0800 
 31 H       -6.2710    -3.7450     0.1260 H     1 <1>   0.0800 
 32 H       -5.4650    -5.2400     0.6240 H     1 <1>   0.0800 
 33 H       -2.7860    -2.4490     1.4300 H     1 <1>   0.0800 
 34 H       -4.4830    -2.8410     1.5860 H     1 <1>   0.0800 
 35 H       -7.6030    -5.6010    -0.1180 H     1 <1>   0.4000 
 36 H       -3.3590    -0.0630     1.1150 H     1 <1>   0.0800 
 37 H       -3.9900    -0.6700     2.6220 H     1 <1>   0.0800 
 38 H       -5.0610    -0.4470     1.2630 H     1 <1>   0.0800 
@<TRIPOS>BOND
  1   1   2  1   
  2   2   3  ar  
  3   2   4  ar  
  4   3   5  ar  
  5   3  18  1   
  6   4   6  ar  
  7   4  19  1   
  8   5   7  ar  
  9   5   8  1   
 10   6   7  ar  
 11   6  20  1   
 12   7   9  1   
 13   8  10  1   
 14   8  21  1   
 15   8  22  1   
 16   9  11  1   
 17  10  12  1   
 18  10  13  1   
 19  10  23  1   
 20  11  24  1   
 21  11  25  1   
 22  11  26  1   
 23  12  14  1   
 24  12  27  1   
 25  12  28  1   
 26  13  15  1   
 27  13  29  1   
 28  13  30  1   
 29  14  16  1   
 30  14  31  1   
 31  14  32  1   
 32  15  17  1   
 33  15  33  1   
 34  15  34  1   
 35  16  35  1   
 36  17  36  1   
 37  17  37  1   
 38  17  38  1   
@<TRIPOS>SUBSTRUCTURE
  1 ****   5 GROUP 4 **** **** 0

# MOE 2024.06 (io_trps.svl 2023.06)
