@<TRIPOS>MOLECULE
NONAME
35 36 1 0 0 
SMALL
USER_CHARGES


@<TRIPOS>ATOM
  1 O        3.6820     2.0230    -1.2700 O.3   1 <1>  -0.3630 
  2 C        2.8160     2.2860    -0.2540 C.ar  1 <1>   0.0830 
  3 C        4.3680     3.0620    -1.9350 C.3   1 <1>   0.0400 
  4 C        1.9500     1.2710     0.1530 C.ar  1 <1>  -0.1440 
  5 C        2.7760     3.5230     0.3870 C.ar  1 <1>  -0.1500 
  6 C        1.0590     1.5090     1.1880 C.ar  1 <1>  -0.1500 
  7 C        1.9500    -0.1030    -0.5110 C.3   1 <1>  -0.0160 
  8 C        1.8830     3.7450     1.4200 C.ar  1 <1>  -0.1500 
  9 C        1.0240     2.7390     1.8200 C.ar  1 <1>  -0.1500 
 10 C        2.7900    -1.1230     0.2830 C.3   1 <1>  -0.0800 
 11 C        4.2570    -0.6750     0.4230 C.3   1 <1>  -0.1600 
 12 C        2.7250    -2.5090    -0.3810 C.3   1 <1>  -0.1600 
 13 C        5.1150    -1.7260     1.1230 C.3   1 <1>   0.3430 
 14 C        3.6130    -3.5280     0.3350 C.3   1 <1>   0.3430 
 15 N        5.0090    -3.0170     0.3920 N.4   1 <1>  -0.9060 
 16 H        4.8880     2.6370    -2.7750 H     1 <1>   0.0800 
 17 H        5.0740     3.5060    -1.2560 H     1 <1>   0.0800 
 18 H        3.6530     3.7890    -2.2780 H     1 <1>   0.0800 
 19 H        3.4310     4.3220     0.1010 H     1 <1>   0.1500 
 20 H        0.3810     0.7380     1.5100 H     1 <1>   0.1500 
 21 H        2.3150    -0.0260    -1.5200 H     1 <1>   0.0800 
 22 H        0.9340    -0.4500    -0.5770 H     1 <1>   0.0800 
 23 H        1.8560     4.7020     1.9120 H     1 <1>   0.1500 
 24 H        0.3270     2.9150     2.6220 H     1 <1>   0.1500 
 25 H        2.3650    -1.1980     1.2710 H     1 <1>   0.0800 
 26 H        4.3040     0.2320     1.0000 H     1 <1>   0.0800 
 27 H        4.6730    -0.4570    -0.5450 H     1 <1>   0.0800 
 28 H        3.0250    -2.4410    -1.4130 H     1 <1>   0.0800 
 29 H        1.7090    -2.8660    -0.3660 H     1 <1>   0.0800 
 30 H        4.7730    -1.8500     2.1380 H     1 <1>   0.0800 
 31 H        6.1420    -1.3940     1.1480 H     1 <1>   0.0800 
 32 H        3.5830    -4.4690    -0.1910 H     1 <1>   0.0800 
 33 H        3.2420    -3.6860     1.3360 H     1 <1>   0.0800 
 34 H        5.6230    -3.7160     0.8280 H     1 <1>   0.4500 
 35 H        5.3450    -2.8730    -0.5680 H     1 <1>   0.4500 
@<TRIPOS>BOND
  1   1   2  1   
  2   1   3  1   
  3   2   4  ar  
  4   2   5  ar  
  5   3  16  1   
  6   3  17  1   
  7   3  18  1   
  8   4   6  ar  
  9   4   7  1   
 10   5   8  ar  
 11   5  19  1   
 12   6   9  ar  
 13   6  20  1   
 14   7  10  1   
 15   7  21  1   
 16   7  22  1   
 17   8   9  ar  
 18   8  23  1   
 19   9  24  1   
 20  10  11  1   
 21  10  12  1   
 22  10  25  1   
 23  11  13  1   
 24  11  26  1   
 25  11  27  1   
 26  12  14  1   
 27  12  28  1   
 28  12  29  1   
 29  13  15  1   
 30  13  30  1   
 31  13  31  1   
 32  14  15  1   
 33  14  32  1   
 34  14  33  1   
 35  15  34  1   
 36  15  35  1   
@<TRIPOS>SUBSTRUCTURE
  1 ****   4 GROUP 4 **** **** 0

# MOE 2024.06 (io_trps.svl 2023.06)
