@<TRIPOS>MOLECULE
NONAME
45 47 1 0 0 
SMALL
USER_CHARGES


@<TRIPOS>ATOM
  1 CL       0.2580     1.1610     1.9610 Cl    1 <1>  -0.1770 
  2 C       -1.3790     1.5790     1.5210 C.ar  1 <1>   0.1770 
  3 C       -1.6330     2.8210     0.9750 C.ar  1 <1>  -0.1500 
  4 C       -2.3910     0.6610     1.7260 C.ar  1 <1>  -0.1500 
  5 C       -2.9290     3.1690     0.6200 C.ar  1 <1>   0.1000 
  6 C       -3.6870     1.0000     1.3750 C.ar  1 <1>  -0.1500 
  7 N       -3.2100     4.4310     0.0610 N.pl3 1 <1>  -0.8380 
  8 C       -3.9680     2.2450     0.8240 C.ar  1 <1>   0.1170 
  9 C       -3.1050     5.6220     0.9630 C.3   1 <1>   0.2090 
 10 C       -2.7260     4.6910    -1.3320 C.3   1 <1>   0.2090 
 11 N       -5.2540     2.6600     0.4430 N.am  1 <1>  -0.5470 
 12 C       -1.7780     6.3850     0.7820 C.3   1 <1>   0.1200 
 13 C       -1.4250     5.5150    -1.3620 C.3   1 <1>   0.1200 
 14 C       -6.4870     2.0780     0.4760 C.2   1 <1>   0.5690 
 15 O       -1.5330     6.6610    -0.5670 O.3   1 <1>  -0.5600 
 16 O       -6.6870     0.9630     0.8960 O.2   1 <1>  -0.5700 
 17 C       -7.6660     2.8980    -0.0520 C.3   1 <1>  -0.0190 
 18 C       -8.7080     3.1600     1.0530 C.3   1 <1>  -0.1600 
 19 C       -8.3250     2.2180    -1.2670 C.3   1 <1>  -0.1600 
 20 C       -9.8970     3.9760     0.5260 C.3   1 <1>  -0.1600 
 21 C       -9.5140     3.0340    -1.7950 C.3   1 <1>  -0.1600 
 22 C      -10.5430     3.2940    -0.6870 C.3   1 <1>  -0.1600 
 23 H       -0.8240     3.5070     0.8300 H     1 <1>   0.1500 
 24 H       -2.1690    -0.3000     2.1530 H     1 <1>   0.1500 
 25 H       -4.4750     0.2860     1.5350 H     1 <1>   0.1500 
 26 H       -3.1980     5.3080     1.9880 H     1 <1>   0.0800 
 27 H       -3.9200     6.2910     0.7520 H     1 <1>   0.0800 
 28 H       -3.4870     5.2270    -1.8710 H     1 <1>   0.0800 
 29 H       -2.5660     3.7550    -1.8390 H     1 <1>   0.0800 
 30 H       -5.1990     3.6100     0.0660 H     1 <1>   0.3700 
 31 H       -0.9560     5.8140     1.1720 H     1 <1>   0.0800 
 32 H       -1.8210     7.3230     1.3060 H     1 <1>   0.0800 
 33 H       -1.2140     5.8320    -2.3670 H     1 <1>   0.0800 
 34 H       -0.5950     4.9280    -1.0090 H     1 <1>   0.0800 
 35 H       -7.2900     3.8520    -0.3770 H     1 <1>   0.0800 
 36 H       -8.2440     3.6840     1.8710 H     1 <1>   0.0800 
 37 H       -9.0670     2.2170     1.4310 H     1 <1>   0.0800 
 38 H       -8.6690     1.2380    -0.9800 H     1 <1>   0.0800 
 39 H       -7.5980     2.0930    -2.0500 H     1 <1>   0.0800 
 40 H       -9.5600     4.9600     0.2450 H     1 <1>   0.0800 
 41 H      -10.6290     4.0890     1.3070 H     1 <1>   0.0800 
 42 H       -9.9840     2.5020    -2.6040 H     1 <1>   0.0800 
 43 H       -9.1600     3.9750    -2.1810 H     1 <1>   0.0800 
 44 H      -11.3370     3.9120    -1.0690 H     1 <1>   0.0800 
 45 H      -10.9750     2.3570    -0.3780 H     1 <1>   0.0800 
@<TRIPOS>BOND
  1   1   2  1   
  2   2   3  ar  
  3   2   4  ar  
  4   3   5  ar  
  5   3  23  1   
  6   4   6  ar  
  7   4  24  1   
  8   5   7  1   
  9   5   8  ar  
 10   6   8  ar  
 11   6  25  1   
 12   7   9  1   
 13   7  10  1   
 14   8  11  1   
 15   9  12  1   
 16   9  26  1   
 17   9  27  1   
 18  10  13  1   
 19  10  28  1   
 20  10  29  1   
 21  11  14  am  
 22  11  30  1   
 23  12  15  1   
 24  12  31  1   
 25  12  32  1   
 26  13  15  1   
 27  13  33  1   
 28  13  34  1   
 29  14  16  2   
 30  14  17  1   
 31  17  18  1   
 32  17  19  1   
 33  17  35  1   
 34  18  20  1   
 35  18  36  1   
 36  18  37  1   
 37  19  21  1   
 38  19  38  1   
 39  19  39  1   
 40  20  22  1   
 41  20  40  1   
 42  20  41  1   
 43  21  22  1   
 44  21  42  1   
 45  21  43  1   
 46  22  44  1   
 47  22  45  1   
@<TRIPOS>SUBSTRUCTURE
  1 ****  11 GROUP 4 **** **** 0

# MOE 2024.06 (io_trps.svl 2023.06)
