@<TRIPOS>MOLECULE
NONAME
45 48 1 0 0 
SMALL
USER_CHARGES


@<TRIPOS>ATOM
  1 O       -0.8960     0.6740    -0.8300 O.2   1 <1>  -0.5700 
  2 C       -0.5240    -0.4050    -0.4390 C.2   1 <1>   0.5690 
  3 N        0.7390    -0.6520     0.0140 N.am  1 <1>  -0.5470 
  4 C       -1.5240    -1.5540    -0.4540 C.3   1 <1>   0.1810 
  5 C        1.8700     0.1180     0.1660 C.ar  1 <1>   0.4270 
  6 O       -0.9400    -2.7560     0.0330 O.3   1 <1>  -0.3630 
  7 N        2.8900    -0.5690     0.6570 N.ar  1 <1>  -0.6200 
  8 C        1.9440     1.4730    -0.1570 C.ar  1 <1>  -0.1500 
  9 C       -1.6670    -3.9020     0.1040 C.ar  1 <1>   0.0830 
 10 C        4.0130     0.1080     0.8300 C.ar  1 <1>   0.1600 
 11 C        3.1190     2.1680     0.0270 C.ar  1 <1>  -0.1430 
 12 C       -2.9970    -3.9970    -0.2820 C.ar  1 <1>  -0.1500 
 13 C       -0.9930    -5.0230     0.6010 C.ar  1 <1>  -0.1500 
 14 C        4.1800     1.4490     0.5390 C.ar  1 <1>  -0.1500 
 15 C        3.2500     3.6420    -0.3090 C.3   1 <1>  -0.0970 
 16 C       -3.6480    -5.2240    -0.1660 C.ar  1 <1>   0.0000 
 17 C       -1.6320    -6.2400     0.7180 C.ar  1 <1>  -0.1500 
 18 C       -2.9620    -6.3220     0.3300 C.ar  1 <1>   0.1400 
 19 C       -4.9410    -5.7140    -0.4400 C.2   1 <1>  -0.1810 
 20 O       -3.7560    -7.3980     0.3650 O.3   1 <1>  -0.2800 
 21 C       -4.9380    -7.0100    -0.0950 C.2   1 <1>  -0.0400 
 22 C       -6.1470    -4.9920    -1.0060 C.3   1 <1>   0.0210 
 23 C       -6.1070    -7.9630    -0.1990 C.3   1 <1>   0.0200 
 24 C       -7.1990    -6.0200    -1.4740 C.3   1 <1>  -0.1600 
 25 C       -7.4020    -7.1640    -0.4550 C.3   1 <1>  -0.1600 
 26 H        0.9040    -1.6140     0.3110 H     1 <1>   0.3700 
 27 H       -1.8560    -1.7200    -1.4620 H     1 <1>   0.0800 
 28 H       -2.3590    -1.3030     0.1740 H     1 <1>   0.0800 
 29 H        1.0850     1.9770    -0.5520 H     1 <1>   0.1500 
 30 H        4.8510    -0.4380     1.2290 H     1 <1>   0.1500 
 31 H       -3.5540    -3.1670    -0.6680 H     1 <1>   0.1500 
 32 H        0.0380    -4.9210     0.8930 H     1 <1>   0.1500 
 33 H        5.1290     1.9230     0.7100 H     1 <1>   0.1500 
 34 H        2.3230     4.0300    -0.6920 H     1 <1>   0.0800 
 35 H        4.0140     3.7810    -1.0530 H     1 <1>   0.0800 
 36 H        3.5160     4.1970     0.5720 H     1 <1>   0.0800 
 37 H       -1.1350    -7.1130     1.0980 H     1 <1>   0.1500 
 38 H       -5.8500    -4.3740    -1.8350 H     1 <1>   0.0800 
 39 H       -6.5630    -4.3620    -0.2410 H     1 <1>   0.0800 
 40 H       -6.1980    -8.5300     0.7110 H     1 <1>   0.0800 
 41 H       -5.9230    -8.6450    -1.0100 H     1 <1>   0.0800 
 42 H       -6.8750    -6.4450    -2.4080 H     1 <1>   0.0800 
 43 H       -8.1340    -5.5170    -1.6490 H     1 <1>   0.0800 
 44 H       -7.7330    -6.7380     0.4770 H     1 <1>   0.0800 
 45 H       -8.1710    -7.8320    -0.8020 H     1 <1>   0.0800 
@<TRIPOS>BOND
  1   1   2  2   
  2   2   3  am  
  3   2   4  1   
  4   3   5  1   
  5   3  26  1   
  6   4   6  1   
  7   4  27  1   
  8   4  28  1   
  9   5   7  ar  
 10   5   8  ar  
 11   6   9  1   
 12   7  10  ar  
 13   8  11  ar  
 14   8  29  1   
 15   9  12  ar  
 16   9  13  ar  
 17  10  14  ar  
 18  10  30  1   
 19  11  14  ar  
 20  11  15  1   
 21  12  16  ar  
 22  12  31  1   
 23  13  17  ar  
 24  13  32  1   
 25  14  33  1   
 26  15  34  1   
 27  15  35  1   
 28  15  36  1   
 29  16  18  ar  
 30  16  19  1   
 31  17  18  ar  
 32  17  37  1   
 33  18  20  1   
 34  19  21  2   
 35  19  22  1   
 36  20  21  1   
 37  21  23  1   
 38  22  24  1   
 39  22  38  1   
 40  22  39  1   
 41  23  25  1   
 42  23  40  1   
 43  23  41  1   
 44  24  25  1   
 45  24  42  1   
 46  24  43  1   
 47  25  44  1   
 48  25  45  1   
@<TRIPOS>SUBSTRUCTURE
  1 ****   6 GROUP 4 **** **** 0

# MOE 2024.06 (io_trps.svl 2023.06)
