@<TRIPOS>MOLECULE
NONAME
53 55 1 0 0 
SMALL
USER_CHARGES


@<TRIPOS>ATOM
  1 S        0.3080    -0.1640     0.0940 S.o2  1 <1>   1.4470 
  2 O        1.2400    -0.7430    -0.8520 O.2   1 <1>  -0.6500 
  3 O        0.7570     0.1760     1.4230 O.2   1 <1>  -0.6500 
  4 N       -0.2450     1.3060    -0.6370 N.am  1 <1>  -0.6930 
  5 C       -1.2110    -1.1510     0.1490 C.ar  1 <1>  -0.0090 
  6 C       -1.1790     2.0920     0.0210 C.ar  1 <1>   0.1990 
  7 C        0.6770     1.9650    -1.6160 C.3   1 <1>   0.2570 
  8 C       -1.5950    -1.9450    -0.9260 C.ar  1 <1>  -0.1500 
  9 C       -2.0550    -1.1010     1.2530 C.ar  1 <1>  -0.1500 
 10 C       -2.5350     1.8700    -0.1830 C.ar  1 <1>  -0.1500 
 11 C       -0.7900     3.0950     0.8990 C.ar  1 <1>  -0.1500 
 12 C        2.0150     2.4230    -1.0240 C.2   1 <1>   0.5690 
 13 C       -2.7790    -2.6630    -0.9030 C.ar  1 <1>  -0.1500 
 14 C       -3.2420    -1.8130     1.2840 C.ar  1 <1>  -0.1500 
 15 C       -3.5030     2.6200     0.4750 C.ar  1 <1>  -0.1430 
 16 C       -1.7370     3.8540     1.5590 C.ar  1 <1>  -0.1500 
 17 O        2.1750     3.5980    -0.7900 O.2   1 <1>  -0.5700 
 18 N        2.9850     1.5030    -0.7820 N.am  1 <1>  -0.7300 
 19 C       -3.6040    -2.5950     0.2040 C.ar  1 <1>  -0.1500 
 20 C       -3.0850     3.6180     1.3510 C.ar  1 <1>  -0.1500 
 21 C       -4.9950     2.3350     0.2460 C.3   1 <1>   1.1630 
 22 C        4.2410     1.7540    -0.0660 C.3   1 <1>   0.2200 
 23 F       -5.2590     1.9500    -0.9970 F     1 <1>  -0.3400 
 24 F       -5.4410     1.3690     1.0390 F     1 <1>  -0.3400 
 25 F       -5.7660     3.3920     0.4760 F     1 <1>  -0.3400 
 26 C        5.4010     1.1800    -0.8850 C.3   1 <1>  -0.1600 
 27 C        4.1530     1.0930     1.3130 C.3   1 <1>  -0.1600 
 28 C        6.7310     1.3060    -0.1270 C.3   1 <1>  -0.1600 
 29 C        5.4800     1.2170     2.0760 C.3   1 <1>  -0.1600 
 30 C        6.6450     0.6460     1.2560 C.3   1 <1>  -0.1600 
 31 H        0.1860     2.8270    -2.0310 H     1 <1>   0.0800 
 32 H        0.8760     1.2860    -2.4250 H     1 <1>   0.0800 
 33 H       -0.9610    -2.0030    -1.7950 H     1 <1>   0.1500 
 34 H       -1.7820    -0.4910     2.0990 H     1 <1>   0.1500 
 35 H       -2.8250     1.0910    -0.8670 H     1 <1>   0.1500 
 36 H        0.2570     3.2750     1.0720 H     1 <1>   0.1500 
 37 H       -3.0580    -3.2730    -1.7450 H     1 <1>   0.1500 
 38 H       -3.8820    -1.7570     2.1490 H     1 <1>   0.1500 
 39 H       -1.4220     4.6290     2.2380 H     1 <1>   0.1500 
 40 H        2.7670     0.5070    -0.9180 H     1 <1>   0.3700 
 41 H       -4.5270    -3.1510     0.2260 H     1 <1>   0.1500 
 42 H       -3.8060     4.2190     1.8820 H     1 <1>   0.1500 
 43 H        4.3850     2.8150     0.0580 H     1 <1>   0.0800 
 44 H        5.4720     1.7090    -1.8190 H     1 <1>   0.0800 
 45 H        5.2140     0.1410    -1.0930 H     1 <1>   0.0800 
 46 H        3.9100     0.0510     1.1990 H     1 <1>   0.0800 
 47 H        3.3690     1.5610     1.8830 H     1 <1>   0.0800 
 48 H        6.9760     2.3480    -0.0100 H     1 <1>   0.0800 
 49 H        7.5170     0.8440    -0.6990 H     1 <1>   0.0800 
 50 H        5.4060     0.6940     3.0130 H     1 <1>   0.0800 
 51 H        5.6690     2.2550     2.2910 H     1 <1>   0.0800 
 52 H        7.5690     0.8010     1.7870 H     1 <1>   0.0800 
 53 H        6.5090    -0.4150     1.1360 H     1 <1>   0.0800 
@<TRIPOS>BOND
  1   1   2  2   
  2   1   3  2   
  3   1   4  am  
  4   1   5  1   
  5   4   6  1   
  6   4   7  1   
  7   5   8  ar  
  8   5   9  ar  
  9   6  10  ar  
 10   6  11  ar  
 11   7  12  1   
 12   7  31  1   
 13   7  32  1   
 14   8  13  ar  
 15   8  33  1   
 16   9  14  ar  
 17   9  34  1   
 18  10  15  ar  
 19  10  35  1   
 20  11  16  ar  
 21  11  36  1   
 22  12  17  2   
 23  12  18  am  
 24  13  19  ar  
 25  13  37  1   
 26  14  19  ar  
 27  14  38  1   
 28  15  20  ar  
 29  15  21  1   
 30  16  20  ar  
 31  16  39  1   
 32  18  22  1   
 33  18  40  1   
 34  19  41  1   
 35  20  42  1   
 36  21  23  1   
 37  21  24  1   
 38  21  25  1   
 39  22  26  1   
 40  22  27  1   
 41  22  43  1   
 42  26  28  1   
 43  26  44  1   
 44  26  45  1   
 45  27  29  1   
 46  27  46  1   
 47  27  47  1   
 48  28  30  1   
 49  28  48  1   
 50  28  49  1   
 51  29  30  1   
 52  29  50  1   
 53  29  51  1   
 54  30  52  1   
 55  30  53  1   
@<TRIPOS>SUBSTRUCTURE
  1 ****   4 GROUP 4 **** **** 0

# MOE 2024.06 (io_trps.svl 2023.06)
