@<TRIPOS>MOLECULE
NONAME
40 42 1 0 0 
SMALL
USER_CHARGES


@<TRIPOS>ATOM
  1 CL       1.2240    -0.0930    -2.5600 Cl    1 <1>  -0.1770 
  2 C        1.6910    -1.3870    -1.4860 C.ar  1 <1>   0.1770 
  3 C        3.0280    -1.6070    -1.2350 C.ar  1 <1>  -0.1500 
  4 C        0.7120    -2.1680    -0.9040 C.ar  1 <1>  -0.1500 
  5 C        3.4160    -2.6330    -0.3820 C.ar  1 <1>   0.1170 
  6 C        1.0900    -3.1900    -0.0510 C.ar  1 <1>  -0.1500 
  7 N        4.7830    -2.8130    -0.1450 N.am  1 <1>  -0.5470 
  8 C        2.4310    -3.4260     0.2190 C.ar  1 <1>  -0.1430 
  9 C        5.5630    -3.8960    -0.4280 C.2   1 <1>   0.6900 
 10 C        2.7900    -4.5560     1.1750 C.3   1 <1>  -0.0960 
 11 O        5.1020    -4.8480    -1.0280 O.2   1 <1>  -0.5700 
 12 N        6.8840    -3.8790    -0.0550 N.am  1 <1>  -0.6600 
 13 C        7.8480    -4.8840    -0.5830 C.3   1 <1>   0.1400 
 14 C        7.4540    -3.0010     1.0060 C.3   1 <1>   0.1400 
 15 C        9.0590    -4.1590    -1.1730 C.3   1 <1>  -0.1600 
 16 C        8.6450    -2.2340     0.4310 C.3   1 <1>  -0.1600 
 17 C        9.6720    -3.2020    -0.1470 C.3   1 <1>   0.5600 
 18 O       10.7050    -2.4740    -0.7150 O.3   1 <1>  -0.5600 
 19 O       10.2540    -3.9160     0.8930 O.3   1 <1>  -0.5600 
 20 C       11.8940    -3.1470    -0.5150 C.3   1 <1>   0.1200 
 21 C       11.5950    -4.1090     0.6190 C.3   1 <1>   0.1200 
 22 H        3.7650    -0.9880    -1.7100 H     1 <1>   0.1500 
 23 H       -0.3240    -1.9790    -1.1180 H     1 <1>   0.1500 
 24 H        0.3300    -3.8030     0.4030 H     1 <1>   0.1500 
 25 H        5.3240    -1.9730     0.0240 H     1 <1>   0.3700 
 26 H        3.5850    -4.2560     1.8330 H     1 <1>   0.0800 
 27 H        3.1110    -5.4160     0.6150 H     1 <1>   0.0800 
 28 H        1.9450    -4.8370     1.7770 H     1 <1>   0.0800 
 29 H        7.3880    -5.4930    -1.3430 H     1 <1>   0.0800 
 30 H        8.1600    -5.5290     0.2210 H     1 <1>   0.0800 
 31 H        7.7840    -3.6170     1.8260 H     1 <1>   0.0800 
 32 H        6.7200    -2.3140     1.3870 H     1 <1>   0.0800 
 33 H        8.7340    -3.5960    -2.0290 H     1 <1>   0.0800 
 34 H        9.7870    -4.8780    -1.4980 H     1 <1>   0.0800 
 35 H        9.1070    -1.6420     1.1990 H     1 <1>   0.0800 
 36 H        8.2990    -1.5790    -0.3460 H     1 <1>   0.0800 
 37 H       12.6610    -2.4390    -0.2560 H     1 <1>   0.0800 
 38 H       12.1580    -3.6690    -1.4180 H     1 <1>   0.0800 
 39 H       11.7520    -5.1320     0.3240 H     1 <1>   0.0800 
 40 H       12.1680    -3.8830     1.5000 H     1 <1>   0.0800 
@<TRIPOS>BOND
  1   1   2  1   
  2   2   3  ar  
  3   2   4  ar  
  4   3   5  ar  
  5   3  22  1   
  6   4   6  ar  
  7   4  23  1   
  8   5   7  1   
  9   5   8  ar  
 10   6   8  ar  
 11   6  24  1   
 12   7   9  am  
 13   7  25  1   
 14   8  10  1   
 15   9  11  2   
 16   9  12  am  
 17  10  26  1   
 18  10  27  1   
 19  10  28  1   
 20  12  13  1   
 21  12  14  1   
 22  13  15  1   
 23  13  29  1   
 24  13  30  1   
 25  14  16  1   
 26  14  31  1   
 27  14  32  1   
 28  15  17  1   
 29  15  33  1   
 30  15  34  1   
 31  16  17  1   
 32  16  35  1   
 33  16  36  1   
 34  17  18  1   
 35  17  19  1   
 36  18  20  1   
 37  19  21  1   
 38  20  21  1   
 39  20  37  1   
 40  20  38  1   
 41  21  39  1   
 42  21  40  1   
@<TRIPOS>SUBSTRUCTURE
  1 ****   9 GROUP 4 **** **** 0

# MOE 2024.06 (io_trps.svl 2023.06)
