@<TRIPOS>MOLECULE
NONAME
48 50 1 0 0 
SMALL
USER_CHARGES


@<TRIPOS>ATOM
  1 F       -0.5470    -3.2750    -2.4160 F     1 <1>  -0.1900 
  2 C       -1.3700    -2.6880    -1.5780 C.ar  1 <1>   0.1900 
  3 C       -1.0180    -2.5830    -0.2260 C.ar  1 <1>   0.1000 
  4 C       -2.5570    -2.1970    -2.0850 C.ar  1 <1>  -0.1500 
  5 N        0.1760    -3.0680     0.3250 N.pl3 1 <1>  -0.8380 
  6 C       -1.9290    -1.9520     0.6110 C.ar  1 <1>  -0.1500 
  7 C       -3.4430    -1.5730    -1.2230 C.ar  1 <1>  -0.1500 
  8 C        1.4100    -2.3430    -0.1080 C.3   1 <1>   0.2090 
  9 C        0.3150    -4.5550     0.3250 C.3   1 <1>   0.2090 
 10 C       -3.1260    -1.4520     0.1220 C.ar  1 <1>  -0.1500 
 11 C        2.6390    -2.8050     0.7010 C.3   1 <1>   0.3430 
 12 C        1.5520    -4.9980     1.1350 C.3   1 <1>   0.3430 
 13 N        2.8140    -4.3070     0.6850 N.4   1 <1>  -0.9590 
 14 C        3.9950    -4.7340     1.4820 C.3   1 <1>   0.4860 
 15 C        5.2370    -4.1430     0.8490 C.ar  1 <1>  -0.1430 
 16 C        5.8120    -3.0050     1.3960 C.ar  1 <1>  -0.1500 
 17 C        5.8020    -4.7170    -0.2820 C.ar  1 <1>  -0.1500 
 18 C        6.9260    -2.4260     0.8140 C.ar  1 <1>   0.0830 
 19 C        6.9270    -4.1430    -0.8690 C.ar  1 <1>   0.0830 
 20 O        7.4050    -1.3080     1.4110 O.3   1 <1>  -0.3630 
 21 C        7.4810    -2.9990    -0.3230 C.ar  1 <1>  -0.1500 
 22 O        7.5340    -4.6410    -1.9730 O.3   1 <1>  -0.3630 
 23 C        8.5850    -0.6840     0.9510 C.3   1 <1>   0.0400 
 24 C        7.2050    -5.9060    -2.5040 C.3   1 <1>   0.0400 
 25 H       -2.7840    -2.3010    -3.1310 H     1 <1>   0.1500 
 26 H       -1.6940    -1.8520     1.6550 H     1 <1>   0.1500 
 27 H       -4.3750    -1.1820    -1.5950 H     1 <1>   0.1500 
 28 H        1.2660    -1.2860     0.0370 H     1 <1>   0.0800 
 29 H        1.5840    -2.5100    -1.1570 H     1 <1>   0.0800 
 30 H        0.3970    -4.9160    -0.6860 H     1 <1>   0.0800 
 31 H       -0.5690    -4.9910     0.7590 H     1 <1>   0.0800 
 32 H       -3.8160    -0.9660     0.7910 H     1 <1>   0.1500 
 33 H        2.5170    -2.4650     1.7160 H     1 <1>   0.0800 
 34 H        3.5170    -2.3270     0.2980 H     1 <1>   0.0800 
 35 H        1.6630    -6.0660     1.0450 H     1 <1>   0.0800 
 36 H        1.3660    -4.7700     2.1720 H     1 <1>   0.0800 
 37 H        2.9970    -4.5660    -0.2910 H     1 <1>   0.4500 
 38 H        4.0740    -5.8090     1.4870 H     1 <1>   0.0800 
 39 H        3.9020    -4.3920     2.5010 H     1 <1>   0.0800 
 40 H        5.4130    -2.5430     2.2820 H     1 <1>   0.1500 
 41 H        5.3710    -5.6050    -0.7050 H     1 <1>   0.1500 
 42 H        8.3440    -2.5790    -0.8040 H     1 <1>   0.1500 
 43 H        8.7910     0.1560     1.5890 H     1 <1>   0.0800 
 44 H        8.4320    -0.3460    -0.0590 H     1 <1>   0.0800 
 45 H        9.3960    -1.3890     1.0020 H     1 <1>   0.0800 
 46 H        7.8800    -6.1110    -3.3160 H     1 <1>   0.0800 
 47 H        6.1950    -5.8810    -2.8710 H     1 <1>   0.0800 
 48 H        7.3230    -6.6500    -1.7360 H     1 <1>   0.0800 
@<TRIPOS>BOND
  1   1   2  1   
  2   2   3  ar  
  3   2   4  ar  
  4   3   5  1   
  5   3   6  ar  
  6   4   7  ar  
  7   4  25  1   
  8   5   8  1   
  9   5   9  1   
 10   6  10  ar  
 11   6  26  1   
 12   7  10  ar  
 13   7  27  1   
 14   8  11  1   
 15   8  28  1   
 16   8  29  1   
 17   9  12  1   
 18   9  30  1   
 19   9  31  1   
 20  10  32  1   
 21  11  13  1   
 22  11  33  1   
 23  11  34  1   
 24  12  13  1   
 25  12  35  1   
 26  12  36  1   
 27  13  14  1   
 28  13  37  1   
 29  14  15  1   
 30  14  38  1   
 31  14  39  1   
 32  15  16  ar  
 33  15  17  ar  
 34  16  18  ar  
 35  16  40  1   
 36  17  19  ar  
 37  17  41  1   
 38  18  20  1   
 39  18  21  ar  
 40  19  21  ar  
 41  19  22  1   
 42  20  23  1   
 43  21  42  1   
 44  22  24  1   
 45  23  43  1   
 46  23  44  1   
 47  23  45  1   
 48  24  46  1   
 49  24  47  1   
 50  24  48  1   
@<TRIPOS>SUBSTRUCTURE
  1 ****  11 GROUP 4 **** **** 0

# MOE 2024.06 (io_trps.svl 2023.06)
