@<TRIPOS>MOLECULE
NONAME
42 44 1 0 0 
SMALL
USER_CHARGES


@<TRIPOS>ATOM
  1 CL       0.3750    -0.2130    -1.3390 Cl    1 <1>  -0.1770 
  2 C        1.8230    -0.8410    -0.5850 C.ar  1 <1>   0.1770 
  3 C        1.7320    -1.8360     0.3780 C.ar  1 <1>  -0.1440 
  4 C        3.0390    -0.3180    -0.9760 C.ar  1 <1>  -0.1500 
  5 C        2.9060    -2.3020     0.9510 C.ar  1 <1>  -0.1500 
  6 C        0.3880    -2.4080     0.8020 C.3   1 <1>  -0.0960 
  7 C        4.2160    -0.7840    -0.4060 C.ar  1 <1>   0.1170 
  8 C        4.1290    -1.7800     0.5640 C.ar  1 <1>  -0.1500 
  9 N        5.4340    -0.2220    -0.8100 N.am  1 <1>  -0.5470 
 10 C        6.7080    -0.7080    -0.7660 C.2   1 <1>   0.6900 
 11 O        6.9330    -1.8720    -0.4920 O.2   1 <1>  -0.5700 
 12 N        7.7400     0.1420    -1.0630 N.am  1 <1>  -0.6600 
 13 C        7.7430     1.5850    -0.6690 C.3   1 <1>   0.1400 
 14 C        9.1050    -0.3930    -1.3540 C.3   1 <1>   0.1400 
 15 C        8.6780     1.8110     0.5280 C.3   1 <1>   0.1400 
 16 C       10.0580    -0.1580    -0.1710 C.3   1 <1>   0.1400 
 17 N       10.0470     1.2800     0.2450 N.am  1 <1>  -0.6600 
 18 C       11.1480     2.1140     0.1740 C.2   1 <1>   0.7150 
 19 O       10.9450     3.3040     0.0000 O.2   1 <1>  -0.5700 
 20 C       12.5170     1.6480     0.2810 C.2   1 <1>   0.0550 
 21 O       12.8380     0.4700     0.8170 O.3   1 <1>  -0.2800 
 22 C       13.6720     2.2730    -0.0840 C.2   1 <1>  -0.1500 
 23 C       14.1440     0.3320     0.7960 C.2   1 <1>  -0.0100 
 24 C       14.7240     1.4190     0.2460 C.2   1 <1>  -0.1500 
 25 H        3.0610     0.4480    -1.7270 H     1 <1>   0.1500 
 26 H        2.8780    -3.0730     1.7000 H     1 <1>   0.1500 
 27 H       -0.2340    -1.6270     1.2030 H     1 <1>   0.0800 
 28 H        0.5110    -3.1670     1.5540 H     1 <1>   0.0800 
 29 H       -0.1080    -2.8450    -0.0460 H     1 <1>   0.0800 
 30 H        5.0250    -2.1550     1.0240 H     1 <1>   0.1500 
 31 H        5.3700     0.6350    -1.3470 H     1 <1>   0.3700 
 32 H        6.7550     1.9140    -0.4020 H     1 <1>   0.0800 
 33 H        8.0810     2.1810    -1.4990 H     1 <1>   0.0800 
 34 H        9.4960     0.1010    -2.2260 H     1 <1>   0.0800 
 35 H        9.0580    -1.4460    -1.5710 H     1 <1>   0.0800 
 36 H        8.2790     1.3030     1.3890 H     1 <1>   0.0800 
 37 H        8.7170     2.8610     0.7590 H     1 <1>   0.0800 
 38 H       11.0430    -0.4660    -0.4690 H     1 <1>   0.0800 
 39 H        9.7530    -0.7710     0.6600 H     1 <1>   0.0800 
 40 H       13.7660     3.2450    -0.5370 H     1 <1>   0.1500 
 41 H       14.5820    -0.5680     1.1930 H     1 <1>   0.1500 
 42 H       15.7690     1.6160     0.0860 H     1 <1>   0.1500 
@<TRIPOS>BOND
  1   1   2  1   
  2   2   3  ar  
  3   2   4  ar  
  4   3   5  ar  
  5   3   6  1   
  6   4   7  ar  
  7   4  25  1   
  8   5   8  ar  
  9   5  26  1   
 10   6  27  1   
 11   6  28  1   
 12   6  29  1   
 13   7   8  ar  
 14   7   9  1   
 15   8  30  1   
 16   9  10  am  
 17   9  31  1   
 18  10  11  2   
 19  10  12  am  
 20  12  13  1   
 21  12  14  1   
 22  13  15  1   
 23  13  32  1   
 24  13  33  1   
 25  14  16  1   
 26  14  34  1   
 27  14  35  1   
 28  15  17  1   
 29  15  36  1   
 30  15  37  1   
 31  16  17  1   
 32  16  38  1   
 33  16  39  1   
 34  17  18  am  
 35  18  19  2   
 36  18  20  1   
 37  20  21  1   
 38  20  22  2   
 39  21  23  1   
 40  22  24  1   
 41  22  40  1   
 42  23  24  2   
 43  23  41  1   
 44  24  42  1   
@<TRIPOS>SUBSTRUCTURE
  1 ****  12 GROUP 4 **** **** 0

# MOE 2024.06 (io_trps.svl 2023.06)
