@<TRIPOS>MOLECULE
NONAME
42 43 1 0 0 
SMALL
USER_CHARGES


@<TRIPOS>ATOM
  1 CL      -1.1270    -2.7710     2.4360 Cl    1 <1>  -0.1770 
  2 C       -1.7880    -2.0760     0.9740 C.ar  1 <1>   0.1770 
  3 C       -1.0670    -2.0290    -0.2160 C.ar  1 <1>  -0.1440 
  4 C       -3.0680    -1.5560     1.0690 C.ar  1 <1>  -0.1500 
  5 C       -1.6800    -1.4110    -1.2990 C.ar  1 <1>   0.1770 
  6 C        0.3360    -2.6010    -0.3870 C.3   1 <1>   0.5940 
  7 C       -3.6600    -0.9620    -0.0310 C.ar  1 <1>  -0.1500 
  8 CL      -0.8420    -1.2440    -2.8240 Cl    1 <1>  -0.1770 
  9 C       -2.9590    -0.8870    -1.2200 C.ar  1 <1>  -0.1500 
 10 S        0.3440    -4.3730    -0.0460 S.3   1 <1>  -0.4600 
 11 N        1.3350    -2.0300     0.5400 N.am  1 <1>  -0.6600 
 12 C        1.6190    -4.3640     1.2350 C.3   1 <1>   0.2110 
 13 C        2.0130    -2.8960     1.3440 C.2   1 <1>   0.5690 
 14 C        1.5470    -0.5670     0.5910 C.3   1 <1>   0.1400 
 15 C        2.7400    -5.3010     0.7740 C.3   1 <1>  -0.2400 
 16 O        2.8950    -2.5310     2.0890 O.2   1 <1>  -0.5700 
 17 C        2.7860    -0.2110    -0.2340 C.3   1 <1>  -0.1600 
 18 C        3.2590     1.2010     0.1020 C.3   1 <1>   0.3430 
 19 N        4.5940     1.4590    -0.5120 N.4   1 <1>  -0.9590 
 20 C        5.2170     2.6810     0.0850 C.3   1 <1>   0.2630 
 21 C        4.5280     1.5800    -2.0030 C.3   1 <1>   0.2630 
 22 H       -3.5960    -1.6180     2.0050 H     1 <1>   0.1500 
 23 H        0.6940    -2.5060    -1.3950 H     1 <1>   0.0800 
 24 H       -4.6580    -0.5590     0.0400 H     1 <1>   0.1500 
 25 H       -3.4000    -0.4230    -2.0850 H     1 <1>   0.1500 
 26 H        1.1650    -4.7010     2.1490 H     1 <1>   0.0800 
 27 H        1.6980    -0.2880     1.6220 H     1 <1>   0.0800 
 28 H        0.6790    -0.0440     0.2270 H     1 <1>   0.0800 
 29 H        3.1450    -4.9700    -0.1650 H     1 <1>   0.0800 
 30 H        2.3610    -6.3010     0.6630 H     1 <1>   0.0800 
 31 H        3.5270    -5.3100     1.5060 H     1 <1>   0.0800 
 32 H        2.5460    -0.2950    -1.2780 H     1 <1>   0.0800 
 33 H        3.5730    -0.9040     0.0120 H     1 <1>   0.0800 
 34 H        3.3400     1.2880     1.1750 H     1 <1>   0.0800 
 35 H        2.5400     1.9280    -0.2420 H     1 <1>   0.0800 
 36 H        5.1950     0.6520    -0.2780 H     1 <1>   0.4500 
 37 H        4.6160     3.5510    -0.1240 H     1 <1>   0.0800 
 38 H        6.2020     2.8360    -0.3240 H     1 <1>   0.0800 
 39 H        5.3060     2.5710     1.1540 H     1 <1>   0.0800 
 40 H        3.8830     2.3980    -2.2850 H     1 <1>   0.0800 
 41 H        4.1440     0.6720    -2.4380 H     1 <1>   0.0800 
 42 H        5.5110     1.7610    -2.4070 H     1 <1>   0.0800 
@<TRIPOS>BOND
  1   1   2  1   
  2   2   3  ar  
  3   2   4  ar  
  4   3   5  ar  
  5   3   6  1   
  6   4   7  ar  
  7   4  22  1   
  8   5   8  1   
  9   5   9  ar  
 10   6  10  1   
 11   6  11  1   
 12   6  23  1   
 13   7   9  ar  
 14   7  24  1   
 15   9  25  1   
 16  10  12  1   
 17  11  13  am  
 18  11  14  1   
 19  12  13  1   
 20  12  15  1   
 21  12  26  1   
 22  13  16  2   
 23  14  17  1   
 24  14  27  1   
 25  14  28  1   
 26  15  29  1   
 27  15  30  1   
 28  15  31  1   
 29  17  18  1   
 30  17  32  1   
 31  17  33  1   
 32  18  19  1   
 33  18  34  1   
 34  18  35  1   
 35  19  20  1   
 36  19  21  1   
 37  19  36  1   
 38  20  37  1   
 39  20  38  1   
 40  20  39  1   
 41  21  40  1   
 42  21  41  1   
 43  21  42  1   
@<TRIPOS>SUBSTRUCTURE
  1 ****  11 GROUP 4 **** **** 0

# MOE 2024.06 (io_trps.svl 2023.06)
