@<TRIPOS>MOLECULE
NONAME
50 53 1 0 0 
SMALL
USER_CHARGES


@<TRIPOS>ATOM
  1 S        0.3250    -0.0050    -1.1890 S.o2  1 <1>   1.4470 
  2 O        1.4210     0.7330    -1.7790 O.2   1 <1>  -0.6500 
  3 O       -0.8740    -0.2360    -1.9630 O.2   1 <1>  -0.6500 
  4 N       -0.1420     0.9080     0.1570 N.am  1 <1>  -0.8490 
  5 C        0.9470    -1.5490    -0.4690 C.ar  1 <1>  -0.0090 
  6 C       -0.5690     2.2840    -0.2290 C.3   1 <1>   0.3370 
  7 C       -1.2290     0.2830     0.9220 C.3   1 <1>   0.1960 
  8 C        1.8890    -1.5330     0.5530 C.ar  1 <1>  -0.1500 
  9 C        0.5000    -2.7860    -0.9200 C.ar  1 <1>  -0.1500 
 10 C        0.5030     3.3930    -0.0550 C.2   1 <1>   0.5690 
 11 C       -1.8440     2.5460     0.5770 C.3   1 <1>  -0.1600 
 12 C       -2.4510     1.1690     0.7510 C.3   1 <1>  -0.1600 
 13 C        2.3650    -2.7080     1.1090 C.ar  1 <1>  -0.1500 
 14 C        0.9720    -3.9640    -0.3680 C.ar  1 <1>  -0.1500 
 15 O        0.1630     4.4780     0.3550 O.2   1 <1>  -0.5700 
 16 N        1.7940     3.1080    -0.4050 N.am  1 <1>  -0.4940 
 17 C        1.9080    -3.9310     0.6510 C.ar  1 <1>  -0.1430 
 18 C        2.9440     3.8490    -0.2810 C.2   1 <1>   0.4420 
 19 C        2.4280    -5.2210     1.2600 C.3   1 <1>  -0.0970 
 20 S        4.4000     3.1130    -0.9560 S.3   1 <1>  -0.0800 
 21 N        3.1390     4.9940     0.2560 N.2   1 <1>  -0.5650 
 22 C        5.3310     4.5060    -0.4540 C.ar  1 <1>   0.0400 
 23 C        4.4660     5.3850     0.1700 C.ar  1 <1>   0.2270 
 24 C        6.6810     4.7410    -0.6230 C.ar  1 <1>  -0.1500 
 25 C        4.9880     6.5760     0.6560 C.ar  1 <1>  -0.1500 
 26 C        7.1900     5.9390    -0.1300 C.ar  1 <1>   0.0830 
 27 C        6.3390     6.8440     0.5040 C.ar  1 <1>  -0.1500 
 28 O        8.4940     6.2970    -0.2270 O.3   1 <1>  -0.3620 
 29 C        9.4380     5.4570    -0.8530 C.3   1 <1>   0.0400 
 30 H       -0.8540     2.2850    -1.2680 H     1 <1>   0.0800 
 31 H       -0.9460     0.2670     1.9610 H     1 <1>   0.0800 
 32 H       -1.4370    -0.7280     0.6080 H     1 <1>   0.0800 
 33 H        2.2550    -0.5890     0.9200 H     1 <1>   0.1500 
 34 H       -0.2270    -2.8300    -1.7140 H     1 <1>   0.1500 
 35 H       -2.5010     3.2300     0.0700 H     1 <1>   0.0800 
 36 H       -1.5870     2.9570     1.5390 H     1 <1>   0.0800 
 37 H       -3.1120     1.1120     1.5970 H     1 <1>   0.0800 
 38 H       -2.9830     0.8770    -0.1390 H     1 <1>   0.0800 
 39 H        3.0930    -2.6650     1.9010 H     1 <1>   0.1500 
 40 H        0.6070    -4.9080    -0.7350 H     1 <1>   0.1500 
 41 H        1.9210     2.2000    -0.8640 H     1 <1>   0.3700 
 42 H        3.4440    -5.0990     1.5900 H     1 <1>   0.0800 
 43 H        2.4010    -6.0170     0.5370 H     1 <1>   0.0800 
 44 H        1.8190    -5.4970     2.1020 H     1 <1>   0.0800 
 45 H        7.2890     4.0090    -1.1200 H     1 <1>   0.1500 
 46 H        4.3300     7.2720     1.1440 H     1 <1>   0.1500 
 47 H        6.7520     7.7650     0.8780 H     1 <1>   0.1500 
 48 H       10.3960     5.9440    -0.8140 H     1 <1>   0.0800 
 49 H        9.1470     5.3060    -1.8780 H     1 <1>   0.0800 
 50 H        9.4820     4.5230    -0.3220 H     1 <1>   0.0800 
@<TRIPOS>BOND
  1   1   2  2   
  2   1   3  2   
  3   1   4  am  
  4   1   5  1   
  5   4   6  1   
  6   4   7  1   
  7   5   8  ar  
  8   5   9  ar  
  9   6  10  1   
 10   6  11  1   
 11   6  30  1   
 12   7  12  1   
 13   7  31  1   
 14   7  32  1   
 15   8  13  ar  
 16   8  33  1   
 17   9  14  ar  
 18   9  34  1   
 19  10  15  2   
 20  10  16  am  
 21  11  12  1   
 22  11  35  1   
 23  11  36  1   
 24  12  37  1   
 25  12  38  1   
 26  13  17  ar  
 27  13  39  1   
 28  14  17  ar  
 29  14  40  1   
 30  16  18  1   
 31  16  41  1   
 32  17  19  1   
 33  18  20  1   
 34  18  21  2   
 35  19  42  1   
 36  19  43  1   
 37  19  44  1   
 38  20  22  1   
 39  21  23  1   
 40  22  23  ar  
 41  22  24  ar  
 42  23  25  ar  
 43  24  26  ar  
 44  24  45  1   
 45  25  27  ar  
 46  25  46  1   
 47  26  27  ar  
 48  26  28  1   
 49  27  47  1   
 50  28  29  1   
 51  29  48  1   
 52  29  49  1   
 53  29  50  1   
@<TRIPOS>SUBSTRUCTURE
  1 ****  16 GROUP 4 **** **** 0

# MOE 2024.06 (io_trps.svl 2023.06)
