@<TRIPOS>MOLECULE
NONAME
50 52 1 0 0 
SMALL
USER_CHARGES


@<TRIPOS>ATOM
  1 O        0.1240    -1.4100    -1.7810 O.2   1 <1>  -0.5700 
  2 C       -0.4350    -1.5220    -0.7100 C.2   1 <1>   0.6340 
  3 O        0.1070    -0.9420     0.3660 O.3   1 <1>  -0.4300 
  4 C       -1.6780    -2.2520    -0.5390 C.ar  1 <1>   0.0860 
  5 C        1.3150    -0.2110     0.2890 C.3   1 <1>   0.0400 
  6 C       -2.3300    -2.3360     0.6930 C.ar  1 <1>  -0.1500 
  7 C       -2.2790    -2.9060    -1.6160 C.ar  1 <1>  -0.1500 
  8 C       -3.5230    -3.0190     0.8400 C.ar  1 <1>  -0.1500 
  9 C       -3.4710    -3.5930    -1.4790 C.ar  1 <1>  -0.1500 
 10 C       -4.1090    -3.6460    -0.2500 C.ar  1 <1>  -0.1440 
 11 C       -5.4370    -4.3660    -0.1050 C.3   1 <1>   0.4860 
 12 N       -6.5130    -3.3450    -0.0070 N.4   1 <1>  -0.9590 
 13 C       -7.8540    -3.9570     0.3050 C.3   1 <1>   0.3430 
 14 C       -6.5950    -2.4880    -1.2500 C.3   1 <1>   0.3430 
 15 C       -8.9680    -2.8970     0.4220 C.3   1 <1>   0.2090 
 16 C       -7.6920    -1.4110    -1.1460 C.3   1 <1>   0.2090 
 17 N       -9.0070    -2.0180    -0.7840 N.pl3 1 <1>  -0.8380 
 18 C      -10.0810    -1.1160    -0.8040 C.ar  1 <1>   0.1000 
 19 C      -10.2200    -0.0420     0.0950 C.ar  1 <1>   0.0830 
 20 C      -11.0550    -1.3090    -1.7730 C.ar  1 <1>  -0.1500 
 21 O       -9.2520     0.1410     1.0490 O.3   1 <1>  -0.3620 
 22 C      -11.3260     0.7980    -0.0070 C.ar  1 <1>  -0.1500 
 23 C      -12.1490    -0.4700    -1.8660 C.ar  1 <1>  -0.1500 
 24 C       -9.3210     1.2170     1.9610 C.3   1 <1>   0.0400 
 25 C      -12.2850     0.5840    -0.9830 C.ar  1 <1>  -0.1500 
 26 H        1.5550     0.1580     1.2700 H     1 <1>   0.0800 
 27 H        1.1830     0.6100    -0.3940 H     1 <1>   0.0800 
 28 H        2.0950    -0.8640    -0.0620 H     1 <1>   0.0800 
 29 H       -1.8920    -1.8560     1.5530 H     1 <1>   0.1500 
 30 H       -1.7940    -2.8720    -2.5790 H     1 <1>   0.1500 
 31 H       -3.9820    -3.0560     1.8150 H     1 <1>   0.1500 
 32 H       -3.8890    -4.0820    -2.3440 H     1 <1>   0.1500 
 33 H       -5.4180    -4.9750     0.7840 H     1 <1>   0.0800 
 34 H       -5.6050    -5.0050    -0.9560 H     1 <1>   0.0800 
 35 H       -6.2670    -2.7100     0.7620 H     1 <1>   0.4500 
 36 H       -7.8030    -4.5110     1.2270 H     1 <1>   0.0800 
 37 H       -8.1310    -4.6420    -0.4800 H     1 <1>   0.0800 
 38 H       -6.8150    -3.1070    -2.1030 H     1 <1>   0.0800 
 39 H       -5.6500    -2.0020    -1.4260 H     1 <1>   0.0800 
 40 H       -8.8090    -2.3020     1.3050 H     1 <1>   0.0800 
 41 H       -9.9200    -3.3880     0.5270 H     1 <1>   0.0800 
 42 H       -7.7870    -0.9060    -2.0920 H     1 <1>   0.0800 
 43 H       -7.4080    -0.6790    -0.4110 H     1 <1>   0.0800 
 44 H      -10.9490    -2.1280    -2.4590 H     1 <1>   0.1500 
 45 H      -11.4690     1.6270     0.6590 H     1 <1>   0.1500 
 46 H      -12.8940    -0.6370    -2.6260 H     1 <1>   0.1500 
 47 H       -8.4590     1.1710     2.6020 H     1 <1>   0.0800 
 48 H      -10.2170     1.1210     2.5480 H     1 <1>   0.0800 
 49 H       -9.3170     2.1420     1.4120 H     1 <1>   0.0800 
 50 H      -13.1370     1.2390    -1.0550 H     1 <1>   0.1500 
@<TRIPOS>BOND
  1   1   2  2   
  2   2   3  1   
  3   2   4  1   
  4   3   5  1   
  5   4   6  ar  
  6   4   7  ar  
  7   5  26  1   
  8   5  27  1   
  9   5  28  1   
 10   6   8  ar  
 11   6  29  1   
 12   7   9  ar  
 13   7  30  1   
 14   8  10  ar  
 15   8  31  1   
 16   9  10  ar  
 17   9  32  1   
 18  10  11  1   
 19  11  12  1   
 20  11  33  1   
 21  11  34  1   
 22  12  13  1   
 23  12  14  1   
 24  12  35  1   
 25  13  15  1   
 26  13  36  1   
 27  13  37  1   
 28  14  16  1   
 29  14  38  1   
 30  14  39  1   
 31  15  17  1   
 32  15  40  1   
 33  15  41  1   
 34  16  17  1   
 35  16  42  1   
 36  16  43  1   
 37  17  18  1   
 38  18  19  ar  
 39  18  20  ar  
 40  19  21  1   
 41  19  22  ar  
 42  20  23  ar  
 43  20  44  1   
 44  21  24  1   
 45  22  25  ar  
 46  22  45  1   
 47  23  25  ar  
 48  23  46  1   
 49  24  47  1   
 50  24  48  1   
 51  24  49  1   
 52  25  50  1   
@<TRIPOS>SUBSTRUCTURE
  1 ****  14 GROUP 4 **** **** 0

# MOE 2024.06 (io_trps.svl 2023.06)
