@<TRIPOS>MOLECULE
NONAME
40 40 1 0 0 
SMALL
USER_CHARGES


@<TRIPOS>ATOM
  1 O       -8.3520     0.9200    -0.2790 O.3   1 <1>  -0.3630 
  2 C       -9.6130     0.4270    -0.1900 C.ar  1 <1>   0.0830 
  3 C       -7.2320     0.1050    -0.0430 C.3   1 <1>   0.1200 
  4 C       -9.9150    -0.8800     0.1800 C.ar  1 <1>  -0.1500 
  5 C      -10.6430     1.3000    -0.4910 C.ar  1 <1>  -0.1500 
  6 C       -5.9890     0.9750    -0.2510 C.3   1 <1>   0.3430 
  7 C      -11.2320    -1.3100     0.2450 C.ar  1 <1>  -0.1440 
  8 C      -11.9570     0.8770    -0.4270 C.ar  1 <1>  -0.1500 
  9 N       -4.7040     0.2270    -0.0220 N.4   1 <1>  -0.9590 
 10 C      -12.2610    -0.4250    -0.0610 C.ar  1 <1>  -0.1430 
 11 C      -11.5250    -2.7480     0.6540 C.3   1 <1>  -0.0970 
 12 C       -3.5600     1.1730     0.1100 C.3   1 <1>   0.3430 
 13 C       -4.4550    -0.7650    -1.1060 C.3   1 <1>   0.3430 
 14 C      -13.7220    -0.8510    -0.0040 C.3   1 <1>  -0.0970 
 15 C       -3.5910     1.8200     1.4900 C.3   1 <1>  -0.2400 
 16 C       -3.4790    -1.8260    -0.6110 C.3   1 <1>  -0.2400 
 17 H       -7.2670    -0.7110    -0.7420 H     1 <1>   0.0800 
 18 H       -7.2880    -0.2510     0.9710 H     1 <1>   0.0800 
 19 H       -9.1390    -1.5780     0.4220 H     1 <1>   0.1500 
 20 H      -10.4160     2.3110    -0.7750 H     1 <1>   0.1500 
 21 H       -6.0530     1.8020     0.4360 H     1 <1>   0.0800 
 22 H       -6.0040     1.3710    -1.2530 H     1 <1>   0.0800 
 23 H      -12.7430     1.5710    -0.6660 H     1 <1>   0.1500 
 24 H       -4.7770    -0.2870     0.8660 H     1 <1>   0.4500 
 25 H      -10.6190    -3.2880     0.8590 H     1 <1>   0.0800 
 26 H      -12.0480    -3.2550    -0.1370 H     1 <1>   0.0800 
 27 H      -12.1330    -2.7610     1.5400 H     1 <1>   0.0800 
 28 H       -3.6070     1.9280    -0.6590 H     1 <1>   0.0800 
 29 H       -2.6280     0.6420     0.0020 H     1 <1>   0.0800 
 30 H       -4.0600    -0.2720    -1.9820 H     1 <1>   0.0800 
 31 H       -5.3760    -1.2510    -1.3830 H     1 <1>   0.0800 
 32 H      -13.9760    -1.1660     0.9920 H     1 <1>   0.0800 
 33 H      -13.8960    -1.6640    -0.6850 H     1 <1>   0.0800 
 34 H      -14.3720    -0.0390    -0.2750 H     1 <1>   0.0800 
 35 H       -4.4630     2.4340     1.6240 H     1 <1>   0.0800 
 36 H       -3.5480     1.0740     2.2640 H     1 <1>   0.0800 
 37 H       -2.7280     2.4540     1.5970 H     1 <1>   0.0800 
 38 H       -3.3450    -2.5650    -1.3810 H     1 <1>   0.0800 
 39 H       -2.5130    -1.4070    -0.3920 H     1 <1>   0.0800 
 40 H       -3.8640    -2.3240     0.2610 H     1 <1>   0.0800 
@<TRIPOS>BOND
  1   1   2  1   
  2   1   3  1   
  3   2   4  ar  
  4   2   5  ar  
  5   3   6  1   
  6   3  17  1   
  7   3  18  1   
  8   4   7  ar  
  9   4  19  1   
 10   5   8  ar  
 11   5  20  1   
 12   6   9  1   
 13   6  21  1   
 14   6  22  1   
 15   7  10  ar  
 16   7  11  1   
 17   8  10  ar  
 18   8  23  1   
 19   9  12  1   
 20   9  13  1   
 21   9  24  1   
 22  10  14  1   
 23  11  25  1   
 24  11  26  1   
 25  11  27  1   
 26  12  15  1   
 27  12  28  1   
 28  12  29  1   
 29  13  16  1   
 30  13  30  1   
 31  13  31  1   
 32  14  32  1   
 33  14  33  1   
 34  14  34  1   
 35  15  35  1   
 36  15  36  1   
 37  15  37  1   
 38  16  38  1   
 39  16  39  1   
 40  16  40  1   
@<TRIPOS>SUBSTRUCTURE
  1 ****   1 GROUP 4 **** **** 0

# MOE 2024.06 (io_trps.svl 2023.06)
