@<TRIPOS>MOLECULE
NONAME
56 58 1 0 0 
SMALL
USER_CHARGES


@<TRIPOS>ATOM
  1 O       -0.4750    -0.2290     0.1590 O.3   1 <1>  -0.3630 
  2 C       -1.7030    -0.8100     0.1960 C.ar  1 <1>   0.0830 
  3 C        0.4900    -0.5770    -0.8080 C.3   1 <1>   0.0400 
  4 C       -2.5390    -0.4770     1.2550 C.ar  1 <1>  -0.1440 
  5 C       -2.1440    -1.7110    -0.7680 C.ar  1 <1>  -0.1500 
  6 C       -3.8000    -1.0410     1.3310 C.ar  1 <1>  -0.1500 
  7 C       -2.0720     0.4950     2.3310 C.3   1 <1>  -0.0960 
  8 C       -3.4070    -2.2780    -0.6930 C.ar  1 <1>  -0.1430 
  9 C       -4.2460    -1.9280     0.3600 C.ar  1 <1>  -0.1430 
 10 C       -3.8160    -3.2730    -1.7730 C.3   1 <1>  -0.0970 
 11 C       -5.6550    -2.4770     0.4830 C.3   1 <1>   0.4860 
 12 N       -6.5300    -1.7350    -0.4630 N.4   1 <1>  -0.9590 
 13 C       -6.6010    -0.2630    -0.1300 C.3   1 <1>   0.3430 
 14 C       -7.9080    -2.3390    -0.5560 C.3   1 <1>   0.3430 
 15 C       -7.4890     0.5300    -1.1120 C.3   1 <1>   0.2090 
 16 C       -8.8160    -1.5940    -1.5580 C.3   1 <1>   0.2090 
 17 N       -8.8150    -0.1240    -1.3140 N.pl3 1 <1>  -0.8380 
 18 C       -9.9140     0.4150    -0.6460 C.ar  1 <1>   0.1000 
 19 C      -10.9110     1.0950    -1.3460 C.ar  1 <1>  -0.1430 
 20 C      -10.0330     0.2770     0.7340 C.ar  1 <1>  -0.1500 
 21 C      -11.9960     1.6160    -0.6620 C.ar  1 <1>  -0.1500 
 22 C      -10.8210     1.2730    -2.8550 C.3   1 <1>  -0.0970 
 23 C      -11.1170     0.7990     1.4160 C.ar  1 <1>  -0.1430 
 24 C      -12.1000     1.4700     0.7100 C.ar  1 <1>  -0.1500 
 25 C      -11.2490     0.6480     2.9220 C.3   1 <1>  -0.0970 
 26 H        1.3850    -0.0170    -0.6030 H     1 <1>   0.0800 
 27 H        0.1160    -0.3220    -1.7840 H     1 <1>   0.0800 
 28 H        0.6950    -1.6310    -0.7340 H     1 <1>   0.0800 
 29 H       -1.5010    -1.9800    -1.5850 H     1 <1>   0.1500 
 30 H       -4.4340    -0.7790     2.1610 H     1 <1>   0.1500 
 31 H       -1.1910     0.1070     2.8100 H     1 <1>   0.0800 
 32 H       -2.8270     0.6520     3.0790 H     1 <1>   0.0800 
 33 H       -1.8270     1.4420     1.8840 H     1 <1>   0.0800 
 34 H       -2.9560    -3.5970    -2.3340 H     1 <1>   0.0800 
 35 H       -4.5070    -2.8220    -2.4610 H     1 <1>   0.0800 
 36 H       -4.2600    -4.1500    -1.3380 H     1 <1>   0.0800 
 37 H       -6.0090    -2.3580     1.4930 H     1 <1>   0.0800 
 38 H       -5.6510    -3.5280     0.2450 H     1 <1>   0.0800 
 39 H       -6.0790    -1.7970    -1.3830 H     1 <1>   0.4500 
 40 H       -5.6120     0.1650    -0.1400 H     1 <1>   0.0800 
 41 H       -7.0030    -0.1360     0.8610 H     1 <1>   0.0800 
 42 H       -8.3830    -2.3020     0.4100 H     1 <1>   0.0800 
 43 H       -7.8390    -3.3720    -0.8520 H     1 <1>   0.0800 
 44 H       -6.9920     0.6170    -2.0620 H     1 <1>   0.0800 
 45 H       -7.6370     1.5270    -0.7330 H     1 <1>   0.0800 
 46 H       -9.8230    -1.9690    -1.4740 H     1 <1>   0.0800 
 47 H       -8.4830    -1.7830    -2.5640 H     1 <1>   0.0800 
 48 H       -9.2730    -0.2440     1.2770 H     1 <1>   0.1500 
 49 H      -12.7700     2.1420    -1.1920 H     1 <1>   0.1500 
 50 H      -10.8170     0.3120    -3.3350 H     1 <1>   0.0800 
 51 H       -9.9120     1.7890    -3.1060 H     1 <1>   0.0800 
 52 H      -11.6520     1.8420    -3.2300 H     1 <1>   0.0800 
 53 H      -12.9520     1.8820     1.2240 H     1 <1>   0.1500 
 54 H      -10.3650     0.2100     3.3470 H     1 <1>   0.0800 
 55 H      -12.0910     0.0210     3.1520 H     1 <1>   0.0800 
 56 H      -11.4030     1.6120     3.3730 H     1 <1>   0.0800 
@<TRIPOS>BOND
  1   1   2  1   
  2   1   3  1   
  3   2   4  ar  
  4   2   5  ar  
  5   3  26  1   
  6   3  27  1   
  7   3  28  1   
  8   4   6  ar  
  9   4   7  1   
 10   5   8  ar  
 11   5  29  1   
 12   6   9  ar  
 13   6  30  1   
 14   7  31  1   
 15   7  32  1   
 16   7  33  1   
 17   8   9  ar  
 18   8  10  1   
 19   9  11  1   
 20  10  34  1   
 21  10  35  1   
 22  10  36  1   
 23  11  12  1   
 24  11  37  1   
 25  11  38  1   
 26  12  13  1   
 27  12  14  1   
 28  12  39  1   
 29  13  15  1   
 30  13  40  1   
 31  13  41  1   
 32  14  16  1   
 33  14  42  1   
 34  14  43  1   
 35  15  17  1   
 36  15  44  1   
 37  15  45  1   
 38  16  17  1   
 39  16  46  1   
 40  16  47  1   
 41  17  18  1   
 42  18  19  ar  
 43  18  20  ar  
 44  19  21  ar  
 45  19  22  1   
 46  20  23  ar  
 47  20  48  1   
 48  21  24  ar  
 49  21  49  1   
 50  22  50  1   
 51  22  51  1   
 52  22  52  1   
 53  23  24  ar  
 54  23  25  1   
 55  24  53  1   
 56  25  54  1   
 57  25  55  1   
 58  25  56  1   
@<TRIPOS>SUBSTRUCTURE
  1 ****  13 GROUP 4 **** **** 0

# MOE 2024.06 (io_trps.svl 2023.06)
