@<TRIPOS>MOLECULE
NONAME
38 40 1 0 0 
SMALL
USER_CHARGES


@<TRIPOS>ATOM
  1 BR      -0.1850     2.0590    -0.2070 Br    1 <1>  -0.1110 
  2 C        1.5900     1.3330    -0.0630 C.ar  1 <1>   0.1110 
  3 C        1.9770     0.7420     1.1220 C.ar  1 <1>  -0.1500 
  4 C        2.4350     1.4160    -1.1500 C.ar  1 <1>  -0.1500 
  5 C        3.2560     0.2230     1.2160 C.ar  1 <1>  -0.1500 
  6 C        3.7120     0.8910    -1.0420 C.ar  1 <1>  -0.1500 
  7 C        4.1440     0.2940     0.1430 C.ar  1 <1>  -0.1430 
  8 C        5.5660    -0.2950     0.2880 C.3   1 <1>   0.4240 
  9 O        5.9470    -0.1700     1.6430 O.3   1 <1>  -0.4300 
 10 C        5.7190    -1.7700    -0.1670 C.3   1 <1>   0.0610 
 11 C        6.6850     0.4700    -0.4480 C.3   1 <1>   0.2000 
 12 C        6.8080     0.8030     1.8610 C.2   1 <1>   0.6590 
 13 C        7.1770    -1.7510    -0.6020 C.2   1 <1>   0.6590 
 14 C        5.4390    -2.8080     0.9480 C.3   1 <1>  -0.2400 
 15 C        4.8350    -2.1310    -1.3850 C.3   1 <1>  -0.2400 
 16 O        7.6330    -0.5240    -0.7730 O.3   1 <1>  -0.4300 
 17 C        7.2480     1.4740     0.5700 C.3   1 <1>   0.0610 
 18 O        7.1810     1.1020     2.9620 O.2   1 <1>  -0.5700 
 19 O        7.8530    -2.7240    -0.7970 O.2   1 <1>  -0.5700 
 20 C        8.7780     1.6710     0.4810 C.3   1 <1>  -0.2400 
 21 C        6.5620     2.8480     0.4110 C.3   1 <1>  -0.2400 
 22 H        1.2920     0.6910     1.9500 H     1 <1>   0.1500 
 23 H        2.0960     1.8790    -2.0600 H     1 <1>   0.1500 
 24 H        3.5490    -0.2400     2.1450 H     1 <1>   0.1500 
 25 H        4.3470     0.9560    -1.9070 H     1 <1>   0.1500 
 26 H        6.3830     0.9300    -1.3690 H     1 <1>   0.0800 
 27 H        6.1160    -2.6810     1.7750 H     1 <1>   0.0800 
 28 H        5.5750    -3.8070     0.5710 H     1 <1>   0.0800 
 29 H        4.4310    -2.7120     1.3110 H     1 <1>   0.0800 
 30 H        5.0020    -1.4520    -2.2020 H     1 <1>   0.0800 
 31 H        3.7910    -2.1100    -1.1240 H     1 <1>   0.0800 
 32 H        5.0720    -3.1230    -1.7300 H     1 <1>   0.0800 
 33 H        9.2960     0.7470     0.6760 H     1 <1>   0.0800 
 34 H        9.1040     2.3870     1.2150 H     1 <1>   0.0800 
 35 H        9.0610     2.0240    -0.4950 H     1 <1>   0.0800 
 36 H        5.4920     2.7630     0.4940 H     1 <1>   0.0800 
 37 H        6.8000     3.2850    -0.5420 H     1 <1>   0.0800 
 38 H        6.8980     3.5170     1.1850 H     1 <1>   0.0800 
@<TRIPOS>BOND
  1   1   2  1   
  2   2   3  ar  
  3   2   4  ar  
  4   3   5  ar  
  5   3  22  1   
  6   4   6  ar  
  7   4  23  1   
  8   5   7  ar  
  9   5  24  1   
 10   6   7  ar  
 11   6  25  1   
 12   7   8  1   
 13   8   9  1   
 14   8  10  1   
 15   8  11  1   
 16   9  12  1   
 17  10  13  1   
 18  10  14  1   
 19  10  15  1   
 20  11  16  1   
 21  11  17  1   
 22  11  26  1   
 23  12  17  1   
 24  12  18  2   
 25  13  16  1   
 26  13  19  2   
 27  14  27  1   
 28  14  28  1   
 29  14  29  1   
 30  15  30  1   
 31  15  31  1   
 32  15  32  1   
 33  17  20  1   
 34  17  21  1   
 35  20  33  1   
 36  20  34  1   
 37  20  35  1   
 38  21  36  1   
 39  21  37  1   
 40  21  38  1   
@<TRIPOS>SUBSTRUCTURE
  1 ****   8 GROUP 4 **** **** 0

# MOE 2024.06 (io_trps.svl 2023.06)
