@<TRIPOS>MOLECULE
NONAME
43 44 1 0 0 
SMALL
USER_CHARGES


@<TRIPOS>ATOM
  1 S       -0.5650     0.7740    -0.9130 S.3   1 <1>  -0.3320 
  2 C       -0.6130     1.8120     0.5720 C.ar  1 <1>   0.1020 
  3 C        1.2060     0.5080    -1.3730 C.3   1 <1>  -0.0100 
  4 C       -1.8220     2.0160     1.2600 C.ar  1 <1>   0.0860 
  5 C        0.5730     2.3850     1.0100 C.ar  1 <1>  -0.1500 
  6 C       -3.1190     1.4810     0.8670 C.2   1 <1>   0.5440 
  7 C       -1.7560     2.8000     2.4160 C.ar  1 <1>  -0.1500 
  8 C        0.5930     3.1630     2.1510 C.ar  1 <1>  -0.1500 
  9 O       -3.9640     1.2280     1.7070 O.2   1 <1>  -0.5700 
 10 N       -3.4770     1.3070    -0.4420 N.am  1 <1>  -0.7300 
 11 C       -0.5760     3.3670     2.8580 C.ar  1 <1>  -0.1500 
 12 C       -4.5820     0.4410    -0.9110 C.3   1 <1>   0.1400 
 13 C       -5.8500     1.2670    -1.1350 C.3   1 <1>  -0.1600 
 14 C       -6.2880     1.9320     0.1700 C.3   1 <1>   0.3430 
 15 N       -7.5120     2.7590    -0.0210 N.4   1 <1>  -0.9590 
 16 C       -7.7110     3.6380     1.1820 C.3   1 <1>   0.3430 
 17 C       -8.7420     1.9270    -0.2620 C.3   1 <1>   0.3430 
 18 C       -9.0280     4.4330     1.0910 C.3   1 <1>   0.1200 
 19 C      -10.0150     2.7960    -0.2920 C.3   1 <1>   0.1200 
 20 O      -10.1050     3.5680     0.8710 O.3   1 <1>  -0.5600 
 21 H        1.2270    -0.1910    -2.1900 H     1 <1>   0.0800 
 22 H        1.7170     0.1040    -0.5170 H     1 <1>   0.0800 
 23 H        1.6210     1.4530    -1.6720 H     1 <1>   0.0800 
 24 H        1.4940     2.2440     0.4810 H     1 <1>   0.1500 
 25 H       -2.6530     2.9690     2.9860 H     1 <1>   0.1500 
 26 H        1.5140     3.6070     2.4910 H     1 <1>   0.1500 
 27 H       -2.7070     1.4020    -1.1180 H     1 <1>   0.3700 
 28 H       -0.5640     3.9660     3.7530 H     1 <1>   0.1500 
 29 H       -4.7650    -0.3320    -0.1810 H     1 <1>   0.0800 
 30 H       -4.2860    -0.0370    -1.8300 H     1 <1>   0.0800 
 31 H       -6.6160     0.6040    -1.4920 H     1 <1>   0.0800 
 32 H       -5.6520     2.0100    -1.8870 H     1 <1>   0.0800 
 33 H       -5.4840     2.5630     0.5140 H     1 <1>   0.0800 
 34 H       -6.4550     1.1820     0.9270 H     1 <1>   0.0800 
 35 H       -7.3630     3.3690    -0.8340 H     1 <1>   0.4500 
 36 H       -6.8850     4.3240     1.2780 H     1 <1>   0.0800 
 37 H       -7.7410     3.0320     2.0730 H     1 <1>   0.0800 
 38 H       -8.8480     1.1990     0.5260 H     1 <1>   0.0800 
 39 H       -8.6540     1.3960    -1.1950 H     1 <1>   0.0800 
 40 H       -8.9940     5.1550     0.2940 H     1 <1>   0.0800 
 41 H       -9.2110     4.9520     2.0160 H     1 <1>   0.0800 
 42 H      -10.8900     2.1710    -0.3370 H     1 <1>   0.0800 
 43 H      -10.0190     3.4530    -1.1450 H     1 <1>   0.0800 
@<TRIPOS>BOND
  1   1   2  1   
  2   1   3  1   
  3   2   4  ar  
  4   2   5  ar  
  5   3  21  1   
  6   3  22  1   
  7   3  23  1   
  8   4   6  1   
  9   4   7  ar  
 10   5   8  ar  
 11   5  24  1   
 12   6   9  2   
 13   6  10  am  
 14   7  11  ar  
 15   7  25  1   
 16   8  11  ar  
 17   8  26  1   
 18  10  12  1   
 19  10  27  1   
 20  11  28  1   
 21  12  13  1   
 22  12  29  1   
 23  12  30  1   
 24  13  14  1   
 25  13  31  1   
 26  13  32  1   
 27  14  15  1   
 28  14  33  1   
 29  14  34  1   
 30  15  16  1   
 31  15  17  1   
 32  15  35  1   
 33  16  18  1   
 34  16  36  1   
 35  16  37  1   
 36  17  19  1   
 37  17  38  1   
 38  17  39  1   
 39  18  20  1   
 40  18  40  1   
 41  18  41  1   
 42  19  20  1   
 43  19  42  1   
 44  19  43  1   
@<TRIPOS>SUBSTRUCTURE
  1 ****   6 GROUP 4 **** **** 0

# MOE 2024.06 (io_trps.svl 2023.06)
