@<TRIPOS>MOLECULE
NONAME
52 54 1 0 0 
SMALL
USER_CHARGES


@<TRIPOS>ATOM
  1 O        0.0910     0.5450    -1.3270 O.2   1 <1>  -0.5700 
  2 C        0.0950     1.7360    -1.0820 C.2   1 <1>   0.5440 
  3 N        1.2780     2.4430    -1.1750 N.am  1 <1>  -0.6600 
  4 C       -1.1460     2.3860    -0.7040 C.ar  1 <1>   0.0860 
  5 C        1.3820     3.9100    -0.9370 C.3   1 <1>   0.1400 
  6 C        2.5680     1.7730    -1.4960 C.3   1 <1>   0.1400 
  7 C       -1.5750     2.4570     0.6270 C.ar  1 <1>  -0.1440 
  8 C       -1.9410     2.9780    -1.6840 C.ar  1 <1>  -0.1500 
  9 C        2.3820     4.1810     0.1900 C.3   1 <1>  -0.1600 
 10 C        3.5690     2.0230    -0.3650 C.3   1 <1>  -0.1600 
 11 C       -2.7520     3.1150     0.9470 C.ar  1 <1>  -0.1500 
 12 C       -0.7550     1.8060     1.7330 C.3   1 <1>  -0.0970 
 13 C       -3.1150     3.6320    -1.3610 C.ar  1 <1>  -0.1500 
 14 C        3.7500     3.5260    -0.0880 C.3   1 <1>  -0.0190 
 15 C       -3.5200     3.7030    -0.0420 C.ar  1 <1>  -0.1500 
 16 C        4.7490     3.7490     1.0460 C.2   1 <1>   0.5690 
 17 O        4.3720     3.8060     2.1910 O.2   1 <1>  -0.5700 
 18 N        6.0610     3.8640     0.7290 N.am  1 <1>  -0.7300 
 19 C        7.1490     3.9610     1.7130 C.3   1 <1>   0.2840 
 20 C        8.3940     3.3760     1.0750 C.ar  1 <1>  -0.1430 
 21 C        9.3280     4.2000     0.4670 C.ar  1 <1>  -0.1500 
 22 C        8.6030     2.0060     1.0860 C.ar  1 <1>  -0.1500 
 23 C       10.4580     3.6590    -0.1220 C.ar  1 <1>  -0.1500 
 24 C        9.7340     1.4660     0.4970 C.ar  1 <1>  -0.1500 
 25 C       10.6680     2.2900    -0.1090 C.ar  1 <1>  -0.1430 
 26 C       11.9070     1.6990    -0.7560 C.3   1 <1>  -0.0970 
 27 H        0.4270     4.3310    -0.6730 H     1 <1>   0.0800 
 28 H        1.7140     4.3860    -1.8430 H     1 <1>   0.0800 
 29 H        2.9470     2.1690    -2.4220 H     1 <1>   0.0800 
 30 H        2.4300     0.7120    -1.6220 H     1 <1>   0.0800 
 31 H       -1.6260     2.9180    -2.7100 H     1 <1>   0.1500 
 32 H        1.9760     3.8010     1.1110 H     1 <1>   0.0800 
 33 H        2.5070     5.2430     0.3080 H     1 <1>   0.0800 
 34 H        4.5140     1.5840    -0.6280 H     1 <1>   0.0800 
 35 H        3.2160     1.5300     0.5250 H     1 <1>   0.0800 
 36 H       -3.0810     3.1710     1.9700 H     1 <1>   0.1500 
 37 H        0.2270     2.2420     1.7750 H     1 <1>   0.0800 
 38 H       -0.6540     0.7520     1.5390 H     1 <1>   0.0800 
 39 H       -1.2240     1.9310     2.6910 H     1 <1>   0.0800 
 40 H       -3.7140     4.0830    -2.1340 H     1 <1>   0.1500 
 41 H        4.1550     3.9840    -0.9730 H     1 <1>   0.0800 
 42 H       -4.4330     4.2110     0.2160 H     1 <1>   0.1500 
 43 H        6.3850     3.7500    -0.2310 H     1 <1>   0.3700 
 44 H        6.8910     3.4150     2.6060 H     1 <1>   0.0800 
 45 H        7.3060     4.9930     1.9760 H     1 <1>   0.0800 
 46 H        9.1810     5.2650     0.4470 H     1 <1>   0.1500 
 47 H        7.8840     1.3540     1.5520 H     1 <1>   0.1500 
 48 H       11.1750     4.3100    -0.5920 H     1 <1>   0.1500 
 49 H        9.8820     0.4010     0.5130 H     1 <1>   0.1500 
 50 H       12.7350     2.3790    -0.6710 H     1 <1>   0.0800 
 51 H       11.7180     1.5080    -1.7970 H     1 <1>   0.0800 
 52 H       12.1780     0.7750    -0.2770 H     1 <1>   0.0800 
@<TRIPOS>BOND
  1   1   2  2   
  2   2   3  am  
  3   2   4  1   
  4   3   5  1   
  5   3   6  1   
  6   4   7  ar  
  7   4   8  ar  
  8   5   9  1   
  9   5  27  1   
 10   5  28  1   
 11   6  10  1   
 12   6  29  1   
 13   6  30  1   
 14   7  11  ar  
 15   7  12  1   
 16   8  13  ar  
 17   8  31  1   
 18   9  14  1   
 19   9  32  1   
 20   9  33  1   
 21  10  14  1   
 22  10  34  1   
 23  10  35  1   
 24  11  15  ar  
 25  11  36  1   
 26  12  37  1   
 27  12  38  1   
 28  12  39  1   
 29  13  15  ar  
 30  13  40  1   
 31  14  16  1   
 32  14  41  1   
 33  15  42  1   
 34  16  17  2   
 35  16  18  am  
 36  18  19  1   
 37  18  43  1   
 38  19  20  1   
 39  19  44  1   
 40  19  45  1   
 41  20  21  ar  
 42  20  22  ar  
 43  21  23  ar  
 44  21  46  1   
 45  22  24  ar  
 46  22  47  1   
 47  23  25  ar  
 48  23  48  1   
 49  24  25  ar  
 50  24  49  1   
 51  25  26  1   
 52  26  50  1   
 53  26  51  1   
 54  26  52  1   
@<TRIPOS>SUBSTRUCTURE
  1 ****  14 GROUP 4 **** **** 0

# MOE 2024.06 (io_trps.svl 2023.06)
