@<TRIPOS>MOLECULE
NONAME
54 56 1 0 0 
SMALL
USER_CHARGES


@<TRIPOS>ATOM
  1 CL       1.0040     0.1410     1.9170 Cl    1 <1>  -0.1770 
  2 C        0.2220    -0.7300     0.6160 C.ar  1 <1>   0.1770 
  3 C        0.8410    -1.8240     0.0240 C.ar  1 <1>  -0.1440 
  4 C       -1.0160    -0.2840     0.1930 C.ar  1 <1>  -0.1500 
  5 C        0.1890    -2.4640    -1.0200 C.ar  1 <1>  -0.1500 
  6 C        2.1980    -2.3360     0.4840 C.3   1 <1>   0.2540 
  7 C       -1.6560    -0.9360    -0.8470 C.ar  1 <1>  -0.1500 
  8 C       -1.0510    -2.0240    -1.4520 C.ar  1 <1>  -0.1500 
  9 N        3.2540    -2.0880    -0.5250 N.3   1 <1>  -0.8100 
 10 C        3.3380    -0.6890    -1.0100 C.3   1 <1>   0.1100 
 11 C        4.5760    -2.5790    -0.0860 C.3   1 <1>   0.1100 
 12 C        3.9550     0.2640     0.0320 C.3   1 <1>   0.3430 
 13 C        5.2370    -1.6580     0.9650 C.3   1 <1>   0.3430 
 14 N        5.2980    -0.2290     0.5050 N.4   1 <1>  -0.9590 
 15 C        5.8760     0.6700     1.5390 C.3   1 <1>   0.4860 
 16 C        6.1010     2.0320     0.9130 C.ar  1 <1>  -0.1430 
 17 C        7.1050     2.2090    -0.0260 C.ar  1 <1>  -0.1500 
 18 C        5.2940     3.1070     1.2570 C.ar  1 <1>  -0.1500 
 19 C        7.2900     3.4420    -0.6290 C.ar  1 <1>   0.0830 
 20 C        5.4740     4.3420     0.6560 C.ar  1 <1>  -0.1500 
 21 O        8.2590     3.5640    -1.5680 O.3   1 <1>  -0.3630 
 22 C        6.4690     4.5220    -0.3010 C.ar  1 <1>   0.0830 
 23 C        9.5950     3.6630    -1.1230 C.3   1 <1>   0.1200 
 24 O        6.6810     5.7100    -0.9340 O.3   1 <1>  -0.3630 
 25 C        9.8750     5.0860    -0.6400 C.3   1 <1>  -0.2400 
 26 C        5.9250     6.8610    -0.6340 C.3   1 <1>   0.0400 
 27 H       -1.4750     0.5630     0.6710 H     1 <1>   0.1500 
 28 H        0.6510    -3.3100    -1.5030 H     1 <1>   0.1500 
 29 H        2.1160    -3.3980     0.6440 H     1 <1>   0.0800 
 30 H        2.4710    -1.8940     1.4250 H     1 <1>   0.0800 
 31 H       -2.6220    -0.5990    -1.1850 H     1 <1>   0.1500 
 32 H       -1.5470    -2.5310    -2.2630 H     1 <1>   0.1500 
 33 H        2.3650    -0.3300    -1.2980 H     1 <1>   0.0800 
 34 H        3.9430    -0.6680    -1.9000 H     1 <1>   0.0800 
 35 H        5.2210    -2.6500    -0.9460 H     1 <1>   0.0800 
 36 H        4.4760    -3.5740     0.3140 H     1 <1>   0.0800 
 37 H        3.2810     0.3480     0.8660 H     1 <1>   0.0800 
 38 H        4.0580     1.2430    -0.4090 H     1 <1>   0.0800 
 39 H        6.2310    -2.0190     1.1720 H     1 <1>   0.0800 
 40 H        4.6680    -1.7200     1.8780 H     1 <1>   0.0800 
 41 H        5.9170    -0.1810    -0.3130 H     1 <1>   0.4500 
 42 H        6.8180     0.2800     1.8880 H     1 <1>   0.0800 
 43 H        5.2060     0.7540     2.3790 H     1 <1>   0.0800 
 44 H        7.7560     1.4030    -0.3140 H     1 <1>   0.1500 
 45 H        4.5140     3.0010     1.9940 H     1 <1>   0.1500 
 46 H        4.8300     5.1530     0.9430 H     1 <1>   0.1500 
 47 H       10.2290     3.4260    -1.9600 H     1 <1>   0.0800 
 48 H        9.7620     2.9450    -0.3390 H     1 <1>   0.0800 
 49 H        9.6500     5.7890    -1.4220 H     1 <1>   0.0800 
 50 H       10.9120     5.1840    -0.3760 H     1 <1>   0.0800 
 51 H        9.2810     5.3140     0.2260 H     1 <1>   0.0800 
 52 H        6.2860     7.6650    -1.2490 H     1 <1>   0.0800 
 53 H        6.0590     7.1080     0.4040 H     1 <1>   0.0800 
 54 H        4.8910     6.6680    -0.8570 H     1 <1>   0.0800 
@<TRIPOS>BOND
  1   1   2  1   
  2   2   3  ar  
  3   2   4  ar  
  4   3   5  ar  
  5   3   6  1   
  6   4   7  ar  
  7   4  27  1   
  8   5   8  ar  
  9   5  28  1   
 10   6   9  1   
 11   6  29  1   
 12   6  30  1   
 13   7   8  ar  
 14   7  31  1   
 15   8  32  1   
 16   9  10  1   
 17   9  11  1   
 18  10  12  1   
 19  10  33  1   
 20  10  34  1   
 21  11  13  1   
 22  11  35  1   
 23  11  36  1   
 24  12  14  1   
 25  12  37  1   
 26  12  38  1   
 27  13  14  1   
 28  13  39  1   
 29  13  40  1   
 30  14  15  1   
 31  14  41  1   
 32  15  16  1   
 33  15  42  1   
 34  15  43  1   
 35  16  17  ar  
 36  16  18  ar  
 37  17  19  ar  
 38  17  44  1   
 39  18  20  ar  
 40  18  45  1   
 41  19  21  1   
 42  19  22  ar  
 43  20  22  ar  
 44  20  46  1   
 45  21  23  1   
 46  22  24  1   
 47  23  25  1   
 48  23  47  1   
 49  23  48  1   
 50  24  26  1   
 51  25  49  1   
 52  25  50  1   
 53  25  51  1   
 54  26  52  1   
 55  26  53  1   
 56  26  54  1   
@<TRIPOS>SUBSTRUCTURE
  1 ****  12 GROUP 4 **** **** 0

# MOE 2024.06 (io_trps.svl 2023.06)
