@<TRIPOS>MOLECULE
NONAME
37 38 1 0 0 
SMALL
USER_CHARGES


@<TRIPOS>ATOM
  1 O        1.2660     2.8730     1.5410 O.2   1 <1>  -0.5700 
  2 C        1.1580     2.2480     0.5160 C.2   1 <1>   0.6590 
  3 O        0.1180     1.4600     0.2760 O.3   1 <1>  -0.4300 
  4 C        2.1950     2.3410    -0.5850 C.3   1 <1>   0.0820 
  5 C       -0.8980     1.2720     1.2320 C.3   1 <1>   0.1200 
  6 C        3.0350     1.0740    -0.6930 C.2   1 <1>  -0.1810 
  7 C       -1.9090     0.2840     0.6580 C.3   1 <1>  -0.2400 
  8 C        2.7290    -0.0670    -1.4310 C.2   1 <1>   0.1080 
  9 C        4.2150     0.7900    -0.1010 C.2   1 <1>  -0.3320 
 10 N        3.6370    -0.9780    -1.3200 N.2   1 <1>  -0.7070 
 11 C        1.4920    -0.2780    -2.2760 C.3   1 <1>  -0.0590 
 12 N        4.5820    -0.4610    -0.4980 N.pl3 1 <1>   0.5930 
 13 C        5.0330     1.6370     0.8660 C.3   1 <1>  -0.0600 
 14 C        5.7480    -1.1820    -0.1180 C.ar  1 <1>  -0.0230 
 15 C        7.0170    -0.7290    -0.4690 C.ar  1 <1>  -0.1500 
 16 C        5.6390    -2.3570     0.6180 C.ar  1 <1>  -0.1500 
 17 C        8.1470    -1.4260    -0.0820 C.ar  1 <1>  -0.1500 
 18 C        6.7680    -3.0560     1.0060 C.ar  1 <1>  -0.1500 
 19 C        8.0240    -2.5890     0.6580 C.ar  1 <1>  -0.1500 
 20 H        2.8350     3.1790    -0.3830 H     1 <1>   0.0800 
 21 H        1.6970     2.5330    -1.5160 H     1 <1>   0.0800 
 22 H       -1.3570     2.2250     1.4360 H     1 <1>   0.0800 
 23 H       -0.4500     0.8860     2.1330 H     1 <1>   0.0800 
 24 H       -2.3380     0.6760    -0.2470 H     1 <1>   0.0800 
 25 H       -2.6980     0.1200     1.3690 H     1 <1>   0.0800 
 26 H       -1.4310    -0.6570     0.4530 H     1 <1>   0.0800 
 27 H        1.3460     0.5550    -2.9370 H     1 <1>   0.0800 
 28 H        0.6330    -0.3890    -1.6420 H     1 <1>   0.0800 
 29 H        1.6030    -1.1700    -2.8650 H     1 <1>   0.0800 
 30 H        4.4870     2.5110     1.1700 H     1 <1>   0.0800 
 31 H        5.9520     1.9490     0.4040 H     1 <1>   0.0800 
 32 H        5.2660     1.0660     1.7490 H     1 <1>   0.0800 
 33 H        7.1170     0.1700    -1.0510 H     1 <1>   0.1500 
 34 H        4.6610    -2.7230     0.8810 H     1 <1>   0.1500 
 35 H        9.1240    -1.0670    -0.3580 H     1 <1>   0.1500 
 36 H        6.6690    -3.9630     1.5760 H     1 <1>   0.1500 
 37 H        8.9020    -3.1330     0.9590 H     1 <1>   0.1500 
@<TRIPOS>BOND
  1   1   2  2   
  2   2   3  1   
  3   2   4  1   
  4   3   5  1   
  5   4   6  1   
  6   4  20  1   
  7   4  21  1   
  8   5   7  1   
  9   5  22  1   
 10   5  23  1   
 11   6   8  1   
 12   6   9  2   
 13   7  24  1   
 14   7  25  1   
 15   7  26  1   
 16   8  10  2   
 17   8  11  1   
 18   9  12  1   
 19   9  13  1   
 20  10  12  1   
 21  11  27  1   
 22  11  28  1   
 23  11  29  1   
 24  12  14  1   
 25  13  30  1   
 26  13  31  1   
 27  13  32  1   
 28  14  15  ar  
 29  14  16  ar  
 30  15  17  ar  
 31  15  33  1   
 32  16  18  ar  
 33  16  34  1   
 34  17  19  ar  
 35  17  35  1   
 36  18  19  ar  
 37  18  36  1   
 38  19  37  1   
@<TRIPOS>SUBSTRUCTURE
  1 ****   9 GROUP 4 **** **** 0

# MOE 2024.06 (io_trps.svl 2023.06)
