@<TRIPOS>MOLECULE
NONAME
41 42 1 0 0 
SMALL
USER_CHARGES


@<TRIPOS>ATOM
  1 S        0.0090     0.2220    -0.3170 S.o2  1 <1>   1.3330 
  2 O        0.2470    -1.2040    -0.3410 O.2   1 <1>  -0.6500 
  3 O       -0.2930     0.9170    -1.5490 O.2   1 <1>  -0.6500 
  4 N        1.3780     0.9640     0.3510 N.am  1 <1>  -0.8490 
  5 C       -1.2630     0.5660     0.9070 C.3   1 <1>  -0.0550 
  6 C        2.6150     0.2060     0.0630 C.3   1 <1>   0.1960 
  7 C        1.4890     2.3850     0.0220 C.3   1 <1>   0.1960 
  8 C       -2.6510    -0.0020     0.5600 C.3   1 <1>  -0.2400 
  9 C        3.9030     1.0390     0.2360 C.3   1 <1>  -0.0190 
 10 C        2.5360     3.0550     0.9280 C.3   1 <1>  -0.1600 
 11 C        5.0900     0.1350     0.5500 C.2   1 <1>   0.5690 
 12 C        3.7140     2.1330     1.3010 C.3   1 <1>  -0.1600 
 13 O        5.0350    -0.5850     1.5170 O.2   1 <1>  -0.5700 
 14 N        6.1750     0.1900    -0.2810 N.am  1 <1>  -0.5470 
 15 C        7.4320    -0.4620    -0.3150 C.ar  1 <1>   0.1170 
 16 C        8.0370    -1.1760     0.7340 C.ar  1 <1>   0.0820 
 17 C        8.1450    -0.3560    -1.5050 C.ar  1 <1>  -0.1500 
 18 O        7.4370    -1.3530     1.9250 O.3   1 <1>  -0.5330 
 19 C        9.2940    -1.7360     0.5860 C.ar  1 <1>  -0.1500 
 20 C        9.4000    -0.9200    -1.6560 C.ar  1 <1>  -0.1500 
 21 C        9.9790    -1.6110    -0.6080 C.ar  1 <1>  -0.1500 
 22 H       -1.3500     1.6280     1.0300 H     1 <1>   0.0800 
 23 H       -0.9510     0.1560     1.8480 H     1 <1>   0.0800 
 24 H        2.5860    -0.1750    -0.9450 H     1 <1>   0.0800 
 25 H        2.6360    -0.6440     0.7270 H     1 <1>   0.0800 
 26 H        0.5400     2.8770     0.1550 H     1 <1>   0.0800 
 27 H        1.7710     2.4890    -1.0140 H     1 <1>   0.0800 
 28 H       -2.9980     0.4130    -0.3710 H     1 <1>   0.0800 
 29 H       -3.3570     0.2390     1.3340 H     1 <1>   0.0800 
 30 H       -2.5970    -1.0720     0.4600 H     1 <1>   0.0800 
 31 H        4.0970     1.5250    -0.7020 H     1 <1>   0.0800 
 32 H        2.0560     3.3890     1.8310 H     1 <1>   0.0800 
 33 H        2.9050     3.9300     0.4230 H     1 <1>   0.0800 
 34 H        4.6140     2.7100     1.4230 H     1 <1>   0.0800 
 35 H        3.4980     1.6550     2.2430 H     1 <1>   0.0800 
 36 H        6.0580     0.8350    -1.0600 H     1 <1>   0.3700 
 37 H        7.7200     0.1760    -2.3370 H     1 <1>   0.1500 
 38 H        6.4800    -1.0750     1.8890 H     1 <1>   0.4500 
 39 H        9.7290    -2.2720     1.4110 H     1 <1>   0.1500 
 40 H        9.9290    -0.8220    -2.5880 H     1 <1>   0.1500 
 41 H       10.9560    -2.0500    -0.7180 H     1 <1>   0.1500 
@<TRIPOS>BOND
  1   1   2  2   
  2   1   3  2   
  3   1   4  am  
  4   1   5  1   
  5   4   6  1   
  6   4   7  1   
  7   5   8  1   
  8   5  22  1   
  9   5  23  1   
 10   6   9  1   
 11   6  24  1   
 12   6  25  1   
 13   7  10  1   
 14   7  26  1   
 15   7  27  1   
 16   8  28  1   
 17   8  29  1   
 18   8  30  1   
 19   9  11  1   
 20   9  12  1   
 21   9  31  1   
 22  10  12  1   
 23  10  32  1   
 24  10  33  1   
 25  11  13  2   
 26  11  14  am  
 27  12  34  1   
 28  12  35  1   
 29  14  15  1   
 30  14  36  1   
 31  15  16  ar  
 32  15  17  ar  
 33  16  18  1   
 34  16  19  ar  
 35  17  20  ar  
 36  17  37  1   
 37  18  38  1   
 38  19  21  ar  
 39  19  39  1   
 40  20  21  ar  
 41  20  40  1   
 42  21  41  1   
@<TRIPOS>SUBSTRUCTURE
  1 ****   9 GROUP 4 **** **** 0

# MOE 2024.06 (io_trps.svl 2023.06)
