@<TRIPOS>MOLECULE
NONAME
45 45 1 0 0 
SMALL
USER_CHARGES


@<TRIPOS>ATOM
  1 N       -0.2870     0.2460    -0.0070 N.4   1 <1>  -0.9590 
  2 C        0.8160    -0.0550    -0.9750 C.3   1 <1>   0.4860 
  3 C       -1.5850    -0.3760    -0.4710 C.3   1 <1>   0.3430 
  4 C       -0.3320     1.7280     0.2140 C.3   1 <1>   0.3430 
  5 C        2.1360     0.2030    -0.2800 C.ar  1 <1>  -0.1440 
  6 C       -2.5430    -0.8270     0.6720 C.3   1 <1>   0.3430 
  7 C       -1.2050     2.0830     1.4110 C.3   1 <1>  -0.2400 
  8 C        2.6020    -0.6750     0.6900 C.ar  1 <1>  -0.1500 
  9 C        2.8900     1.3230    -0.6060 C.ar  1 <1>  -0.1500 
 10 N       -3.7980    -1.5440     0.2210 N.4   1 <1>  -0.9590 
 11 C        3.7980    -0.4240     1.3390 C.ar  1 <1>  -0.1500 
 12 C        4.0850     1.5710     0.0450 C.ar  1 <1>  -0.1500 
 13 C       -3.5180    -2.9060    -0.3260 C.3   1 <1>   0.3430 
 14 C       -4.6880    -0.7540    -0.6900 C.3   1 <1>   0.3430 
 15 C        4.5380     0.7000     1.0180 C.ar  1 <1>  -0.1500 
 16 C       -4.7600    -3.7780    -0.1860 C.3   1 <1>  -0.2400 
 17 C       -5.2020     0.4880     0.0280 C.3   1 <1>  -0.2400 
 18 H        0.0490    -0.1670     0.8760 H     1 <1>   0.4500 
 19 H        0.7310     0.5620    -1.8550 H     1 <1>   0.0800 
 20 H        0.7830    -1.0890    -1.2780 H     1 <1>   0.0800 
 21 H       -1.3540    -1.2480    -1.0590 H     1 <1>   0.0800 
 22 H       -2.1000     0.3240    -1.1090 H     1 <1>   0.0800 
 23 H       -0.6930     2.2330    -0.6690 H     1 <1>   0.0800 
 24 H        0.6650     2.0900     0.4150 H     1 <1>   0.0800 
 25 H       -2.8330     0.0370     1.2430 H     1 <1>   0.0800 
 26 H       -1.9990    -1.4810     1.3340 H     1 <1>   0.0800 
 27 H       -2.2490     1.9790     1.1860 H     1 <1>   0.0800 
 28 H       -1.0410     3.1180     1.6560 H     1 <1>   0.0800 
 29 H       -0.9390     1.5010     2.2760 H     1 <1>   0.0800 
 30 H        2.0570    -1.5650     0.9530 H     1 <1>   0.1500 
 31 H        2.5670     2.0140    -1.3660 H     1 <1>   0.1500 
 32 H       -4.3660    -1.7130     1.0690 H     1 <1>   0.4500 
 33 H        4.1630    -1.1020     2.0920 H     1 <1>   0.1500 
 34 H        4.6710     2.4400    -0.2070 H     1 <1>   0.1500 
 35 H       -2.7170    -3.3670     0.2300 H     1 <1>   0.0800 
 36 H       -3.2240    -2.8480    -1.3620 H     1 <1>   0.0800 
 37 H       -5.5370    -1.3530    -0.9800 H     1 <1>   0.0800 
 38 H       -4.1620    -0.4730    -1.5890 H     1 <1>   0.0800 
 39 H        5.4700     0.8940     1.5230 H     1 <1>   0.1500 
 40 H       -5.0770    -3.8400     0.8400 H     1 <1>   0.0800 
 41 H       -4.5250    -4.7760    -0.5150 H     1 <1>   0.0800 
 42 H       -5.5710    -3.4240    -0.7960 H     1 <1>   0.0800 
 43 H       -5.7040     0.2240     0.9420 H     1 <1>   0.0800 
 44 H       -5.9190     0.9830    -0.6040 H     1 <1>   0.0800 
 45 H       -4.4160     1.1910     0.2320 H     1 <1>   0.0800 
@<TRIPOS>BOND
  1   1   2  1   
  2   1   3  1   
  3   1   4  1   
  4   1  18  1   
  5   2   5  1   
  6   2  19  1   
  7   2  20  1   
  8   3   6  1   
  9   3  21  1   
 10   3  22  1   
 11   4   7  1   
 12   4  23  1   
 13   4  24  1   
 14   5   8  ar  
 15   5   9  ar  
 16   6  10  1   
 17   6  25  1   
 18   6  26  1   
 19   7  27  1   
 20   7  28  1   
 21   7  29  1   
 22   8  11  ar  
 23   8  30  1   
 24   9  12  ar  
 25   9  31  1   
 26  10  13  1   
 27  10  14  1   
 28  10  32  1   
 29  11  15  ar  
 30  11  33  1   
 31  12  15  ar  
 32  12  34  1   
 33  13  16  1   
 34  13  35  1   
 35  13  36  1   
 36  14  17  1   
 37  14  37  1   
 38  14  38  1   
 39  15  39  1   
 40  16  40  1   
 41  16  41  1   
 42  16  42  1   
 43  17  43  1   
 44  17  44  1   
 45  17  45  1   
@<TRIPOS>SUBSTRUCTURE
  1 ****   1 GROUP 4 **** **** 0

# MOE 2024.06 (io_trps.svl 2023.06)
