@<TRIPOS>MOLECULE
NONAME
46 47 1 0 0 
SMALL
USER_CHARGES


@<TRIPOS>ATOM
  1 O        1.2160     0.6570     2.9280 O.2   1 <1>  -0.5700 
  2 C        0.5900     0.6210     1.8960 C.2   1 <1>   0.5690 
  3 N        1.2010     0.5100     0.6870 N.am  1 <1>  -0.7300 
  4 C       -0.9260     0.7080     1.9600 C.3   1 <1>   0.0440 
  5 C        2.6610     0.4120     0.4620 C.3   1 <1>   0.1400 
  6 C       -1.5790     0.7910     0.5820 C.ar  1 <1>  -0.1430 
  7 C        3.1980     1.7530    -0.0350 C.3   1 <1>  -0.0160 
  8 C       -1.7590     2.0190    -0.0340 C.ar  1 <1>  -0.1500 
  9 C       -1.9800    -0.3620    -0.0740 C.ar  1 <1>  -0.1500 
 10 C        4.6880     1.6490    -0.3210 C.ar  1 <1>  -0.1430 
 11 C       -2.3310     2.0930    -1.2920 C.ar  1 <1>  -0.1500 
 12 C       -2.5520    -0.2870    -1.3320 C.ar  1 <1>  -0.1500 
 13 C        5.1400     1.3970    -1.6070 C.ar  1 <1>  -0.1500 
 14 C        5.6060     1.8050     0.7060 C.ar  1 <1>  -0.1500 
 15 C       -2.7320     0.9400    -1.9470 C.ar  1 <1>  -0.1430 
 16 C        6.4960     1.3030    -1.8730 C.ar  1 <1>   0.0830 
 17 C        6.9640     1.6970     0.4530 C.ar  1 <1>  -0.1500 
 18 C       -3.3610     1.0220    -3.3260 C.3   1 <1>  -0.0970 
 19 O        6.8660     1.0910    -3.1610 O.3   1 <1>  -0.3620 
 20 C        7.4170     1.4290    -0.8270 C.ar  1 <1>   0.0830 
 21 C        7.5850     2.1330    -3.7830 C.3   1 <1>   0.0400 
 22 O        8.7550     1.2970    -1.0020 O.3   1 <1>  -0.3630 
 23 C        9.2120     0.0140    -1.3690 C.3   1 <1>   0.0400 
 24 H        0.6050     0.5150    -0.1480 H     1 <1>   0.3700 
 25 H       -1.1900     1.5740     2.5380 H     1 <1>   0.0800 
 26 H       -1.2900    -0.1540     2.4860 H     1 <1>   0.0800 
 27 H        2.8590    -0.3580    -0.2650 H     1 <1>   0.0800 
 28 H        3.1550     0.1430     1.3810 H     1 <1>   0.0800 
 29 H        3.0280     2.5040     0.7160 H     1 <1>   0.0800 
 30 H        2.6780     2.0430    -0.9300 H     1 <1>   0.0800 
 31 H       -1.4530     2.9250     0.4610 H     1 <1>   0.1500 
 32 H       -1.8480    -1.3250     0.3880 H     1 <1>   0.1500 
 33 H       -2.4650     3.0530    -1.7580 H     1 <1>   0.1500 
 34 H       -2.8580    -1.1910    -1.8300 H     1 <1>   0.1500 
 35 H        4.4470     1.2770    -2.4200 H     1 <1>   0.1500 
 36 H        5.2690     2.0060     1.7090 H     1 <1>   0.1500 
 37 H        7.6760     1.8120     1.2490 H     1 <1>   0.1500 
 38 H       -2.5960     0.9590    -4.0800 H     1 <1>   0.0800 
 39 H       -3.8890     1.9500    -3.4440 H     1 <1>   0.0800 
 40 H       -4.0580     0.2160    -3.4700 H     1 <1>   0.0800 
 41 H        7.7080     1.8830    -4.8210 H     1 <1>   0.0800 
 42 H        8.5470     2.2330    -3.3140 H     1 <1>   0.0800 
 43 H        7.0260     3.0470    -3.6860 H     1 <1>   0.0800 
 44 H       10.2870     0.0280    -1.3760 H     1 <1>   0.0800 
 45 H        8.8420    -0.2310    -2.3480 H     1 <1>   0.0800 
 46 H        8.8570    -0.7000    -0.6470 H     1 <1>   0.0800 
@<TRIPOS>BOND
  1   1   2  2   
  2   2   3  am  
  3   2   4  1   
  4   3   5  1   
  5   3  24  1   
  6   4   6  1   
  7   4  25  1   
  8   4  26  1   
  9   5   7  1   
 10   5  27  1   
 11   5  28  1   
 12   6   8  ar  
 13   6   9  ar  
 14   7  10  1   
 15   7  29  1   
 16   7  30  1   
 17   8  11  ar  
 18   8  31  1   
 19   9  12  ar  
 20   9  32  1   
 21  10  13  ar  
 22  10  14  ar  
 23  11  15  ar  
 24  11  33  1   
 25  12  15  ar  
 26  12  34  1   
 27  13  16  ar  
 28  13  35  1   
 29  14  17  ar  
 30  14  36  1   
 31  15  18  1   
 32  16  19  1   
 33  16  20  ar  
 34  17  20  ar  
 35  17  37  1   
 36  18  38  1   
 37  18  39  1   
 38  18  40  1   
 39  19  21  1   
 40  20  22  1   
 41  21  41  1   
 42  21  42  1   
 43  21  43  1   
 44  22  23  1   
 45  23  44  1   
 46  23  45  1   
 47  23  46  1   
@<TRIPOS>SUBSTRUCTURE
  1 ****   7 GROUP 4 **** **** 0

# MOE 2024.06 (io_trps.svl 2023.06)
