@<TRIPOS>MOLECULE
NONAME
44 45 1 0 0 
SMALL
USER_CHARGES


@<TRIPOS>ATOM
  1 S        0.3140    -0.4620     1.3520 S.o2  1 <1>   1.3330 
  2 O        1.1040    -1.1780     2.3290 O.2   1 <1>  -0.6500 
  3 O       -0.7350     0.4270     1.8000 O.2   1 <1>  -0.6500 
  4 N        1.3610     0.4360     0.3660 N.am  1 <1>  -0.8490 
  5 C       -0.3920    -1.6650     0.2130 C.3   1 <1>  -0.0550 
  6 C        2.5230     0.9340     1.1090 C.3   1 <1>   0.1960 
  7 C        0.6680     1.5130    -0.3470 C.3   1 <1>   0.1960 
  8 C        0.6340    -2.5720    -0.4920 C.3   1 <1>  -0.2400 
  9 C        3.5200     1.5970     0.1570 C.3   1 <1>  -0.1600 
 10 C        1.6090     2.1800    -1.3510 C.3   1 <1>  -0.1600 
 11 C        2.8580     2.7300    -0.6440 C.3   1 <1>  -0.0190 
 12 C        3.8340     3.3710    -1.6340 C.2   1 <1>   0.5690 
 13 O        4.4080     2.6750    -2.4340 O.2   1 <1>  -0.5700 
 14 N        4.0880     4.7060    -1.6120 N.am  1 <1>  -0.5470 
 15 C        3.5660     5.7320    -0.8080 C.ar  1 <1>   0.1170 
 16 C        4.4170     6.5420    -0.0520 C.ar  1 <1>   0.0820 
 17 C        2.1990     5.9740    -0.7560 C.ar  1 <1>  -0.1500 
 18 O        5.7530     6.3530    -0.1020 O.3   1 <1>  -0.5330 
 19 C        3.9070     7.5430     0.7560 C.ar  1 <1>  -0.1500 
 20 C        1.6810     6.9760     0.0500 C.ar  1 <1>  -0.1440 
 21 C        2.5390     7.7550     0.8080 C.ar  1 <1>  -0.1500 
 22 C        0.1840     7.2230     0.1070 C.3   1 <1>  -0.0970 
 23 H       -0.9580    -1.1450    -0.5340 H     1 <1>   0.0800 
 24 H       -1.0760    -2.2860     0.7580 H     1 <1>   0.0800 
 25 H        3.0220     0.1140     1.6000 H     1 <1>   0.0800 
 26 H        2.2010     1.6320     1.8640 H     1 <1>   0.0800 
 27 H        0.3080     2.2460     0.3580 H     1 <1>   0.0800 
 28 H       -0.1810     1.1120    -0.8750 H     1 <1>   0.0800 
 29 H        1.3130    -1.9790    -1.0800 H     1 <1>   0.0800 
 30 H        0.1340    -3.2700    -1.1380 H     1 <1>   0.0800 
 31 H        1.2040    -3.1210     0.2380 H     1 <1>   0.0800 
 32 H        3.9090     0.8500    -0.5140 H     1 <1>   0.0800 
 33 H        4.3460     1.9900     0.7230 H     1 <1>   0.0800 
 34 H        1.0920     2.9780    -1.8510 H     1 <1>   0.0800 
 35 H        1.8990     1.4570    -2.0950 H     1 <1>   0.0800 
 36 H        2.5410     3.4690     0.0670 H     1 <1>   0.0800 
 37 H        4.9370     4.9530    -2.1220 H     1 <1>   0.3700 
 38 H        1.5410     5.3750    -1.3560 H     1 <1>   0.1500 
 39 H        6.2440     6.9660     0.4730 H     1 <1>   0.4500 
 40 H        4.5610     8.1600     1.3430 H     1 <1>   0.1500 
 41 H        2.1450     8.5330     1.4400 H     1 <1>   0.1500 
 42 H       -0.2230     6.7940     1.0050 H     1 <1>   0.0800 
 43 H       -0.3090     6.7840    -0.7410 H     1 <1>   0.0800 
 44 H       -0.0180     8.2800     0.1060 H     1 <1>   0.0800 
@<TRIPOS>BOND
  1   1   2  2   
  2   1   3  2   
  3   1   4  am  
  4   1   5  1   
  5   4   6  1   
  6   4   7  1   
  7   5   8  1   
  8   5  23  1   
  9   5  24  1   
 10   6   9  1   
 11   6  25  1   
 12   6  26  1   
 13   7  10  1   
 14   7  27  1   
 15   7  28  1   
 16   8  29  1   
 17   8  30  1   
 18   8  31  1   
 19   9  11  1   
 20   9  32  1   
 21   9  33  1   
 22  10  11  1   
 23  10  34  1   
 24  10  35  1   
 25  11  12  1   
 26  11  36  1   
 27  12  13  2   
 28  12  14  am  
 29  14  15  1   
 30  14  37  1   
 31  15  16  ar  
 32  15  17  ar  
 33  16  18  1   
 34  16  19  ar  
 35  17  20  ar  
 36  17  38  1   
 37  18  39  1   
 38  19  21  ar  
 39  19  40  1   
 40  20  21  ar  
 41  20  22  1   
 42  21  41  1   
 43  22  42  1   
 44  22  43  1   
 45  22  44  1   
@<TRIPOS>SUBSTRUCTURE
  1 ****  11 GROUP 4 **** **** 0

# MOE 2024.06 (io_trps.svl 2023.06)
