@<TRIPOS>MOLECULE
NONAME
49 51 1 0 0 
SMALL
USER_CHARGES


@<TRIPOS>ATOM
  1 F        0.8820    -0.0040     1.4170 F     1 <1>  -0.3400 
  2 C        1.9600    -0.5830     0.9030 C.3   1 <1>   1.1580 
  3 F        2.4500     0.2850     0.0290 F     1 <1>  -0.3400 
  4 F        2.8290    -0.6710     1.9010 F     1 <1>  -0.3400 
  5 C        1.6200    -1.9200     0.2870 C.2   1 <1>  -0.1690 
  6 N        2.6740    -2.6040    -0.2690 N.pl3 1 <1>   0.6010 
  7 C        0.3890    -2.5030     0.2380 C.2   1 <1>  -0.1360 
  8 N        3.9710    -2.2630    -0.3520 N.2   1 <1>  -0.7070 
  9 C        2.4400    -3.8350    -0.8310 C.2   1 <1>  -0.0260 
 10 C        0.1960    -3.7830    -0.3770 C.2   1 <1>   0.3490 
 11 C        4.5640    -3.2810    -0.9670 C.2   1 <1>   0.2030 
 12 N        1.2040    -4.4310    -0.8870 N.2   1 <1>  -0.5760 
 13 C        3.6390    -4.2740    -1.2790 C.2   1 <1>  -0.1500 
 14 C       -1.1320    -4.3590    -0.4140 C.ar  1 <1>   0.0860 
 15 C        5.9860    -3.3530    -1.2720 C.2   1 <1>   0.7160 
 16 C       -1.3290    -5.7130    -0.1470 C.ar  1 <1>  -0.1500 
 17 C       -2.2570    -3.5940    -0.7150 C.ar  1 <1>  -0.1500 
 18 O        6.4830    -4.3350    -1.7940 O.2   1 <1>  -0.5700 
 19 N        6.7920    -2.2990    -0.9480 N.am  1 <1>  -0.7300 
 20 C       -2.5910    -6.2980    -0.1570 C.ar  1 <1>   0.0830 
 21 C       -3.5190    -4.1540    -0.7210 C.ar  1 <1>  -0.1500 
 22 C        8.2540    -2.2050    -1.1820 C.3   1 <1>   0.1400 
 23 O       -2.7400    -7.6310     0.1000 O.3   1 <1>  -0.3630 
 24 C       -3.7120    -5.4950    -0.4380 C.ar  1 <1>   0.0830 
 25 C        9.0150    -2.8610    -0.0310 C.3   1 <1>   0.1200 
 26 C       -1.6530    -8.5310     0.0390 C.3   1 <1>   0.0400 
 27 O       -5.0170    -5.8860    -0.4720 O.3   1 <1>  -0.3630 
 28 O       10.3730    -2.5990    -0.1930 O.3   1 <1>  -0.5600 
 29 C       -5.4620    -7.1680    -0.0950 C.3   1 <1>   0.0400 
 30 C       11.1790    -3.1970     0.7700 C.3   1 <1>   0.0400 
 31 H       -0.4770    -2.0280     0.6650 H     1 <1>   0.1500 
 32 H        3.8520    -5.2020    -1.7780 H     1 <1>   0.1500 
 33 H       -0.4550    -6.2950     0.0740 H     1 <1>   0.1500 
 34 H       -2.1510    -2.5510    -0.9550 H     1 <1>   0.1500 
 35 H        6.3330    -1.5070    -0.4900 H     1 <1>   0.3700 
 36 H       -4.3780    -3.5470    -0.9500 H     1 <1>   0.1500 
 37 H        8.5340    -1.1690    -1.2580 H     1 <1>   0.0800 
 38 H        8.5050    -2.7040    -2.1030 H     1 <1>   0.0800 
 39 H        8.8600    -3.9270    -0.0470 H     1 <1>   0.0800 
 40 H        8.6990    -2.4490     0.9120 H     1 <1>   0.0800 
 41 H       -2.0430    -9.5300     0.1210 H     1 <1>   0.0800 
 42 H       -1.1510    -8.4120    -0.9050 H     1 <1>   0.0800 
 43 H       -0.9870    -8.3330     0.8600 H     1 <1>   0.0800 
 44 H       -5.0630    -7.8910    -0.7830 H     1 <1>   0.0800 
 45 H       -5.1340    -7.3700     0.9090 H     1 <1>   0.0800 
 46 H       -6.5360    -7.1760    -0.1390 H     1 <1>   0.0800 
 47 H       12.2000    -2.9330     0.5610 H     1 <1>   0.0800 
 48 H       11.0620    -4.2660     0.7160 H     1 <1>   0.0800 
 49 H       10.9010    -2.8330     1.7440 H     1 <1>   0.0800 
@<TRIPOS>BOND
  1   1   2  1   
  2   2   3  1   
  3   2   4  1   
  4   2   5  1   
  5   5   6  1   
  6   5   7  2   
  7   6   8  1   
  8   6   9  1   
  9   7  10  1   
 10   7  31  1   
 11   8  11  2   
 12   9  12  1   
 13   9  13  2   
 14  10  12  2   
 15  10  14  1   
 16  11  13  1   
 17  11  15  1   
 18  13  32  1   
 19  14  16  ar  
 20  14  17  ar  
 21  15  18  2   
 22  15  19  am  
 23  16  20  ar  
 24  16  33  1   
 25  17  21  ar  
 26  17  34  1   
 27  19  22  1   
 28  19  35  1   
 29  20  23  1   
 30  20  24  ar  
 31  21  24  ar  
 32  21  36  1   
 33  22  25  1   
 34  22  37  1   
 35  22  38  1   
 36  23  26  1   
 37  24  27  1   
 38  25  28  1   
 39  25  39  1   
 40  25  40  1   
 41  26  41  1   
 42  26  42  1   
 43  26  43  1   
 44  27  29  1   
 45  28  30  1   
 46  29  44  1   
 47  29  45  1   
 48  29  46  1   
 49  30  47  1   
 50  30  48  1   
 51  30  49  1   
@<TRIPOS>SUBSTRUCTURE
  1 ****   9 GROUP 4 **** **** 0

# MOE 2024.06 (io_trps.svl 2023.06)
