@<TRIPOS>MOLECULE
NONAME
42 43 1 0 0 
SMALL
USER_CHARGES


@<TRIPOS>ATOM
  1 O       -3.2150     2.1060     3.8060 O.2   1 <1>  -0.5700 
  2 C       -3.3760     2.0710     2.6040 C.2   1 <1>   0.7060 
  3 O       -4.6100     1.8770     2.1350 O.3   1 <1>  -0.2320 
  4 C       -2.3140     2.2230     1.6640 C.2   1 <1>  -0.1360 
  5 C       -4.8880     1.8180     0.8130 C.ar  1 <1>   0.0830 
  6 C       -2.5270     2.1740     0.3300 C.2   1 <1>  -0.1670 
  7 C       -3.8680     1.9620    -0.1420 C.ar  1 <1>   0.0280 
  8 C       -6.2050     1.6110     0.4380 C.ar  1 <1>  -0.1500 
  9 C       -1.3820     2.3390    -0.6590 C.3   1 <1>  -0.1020 
 10 C       -4.2340     1.8900    -1.4890 C.ar  1 <1>  -0.1500 
 11 C       -6.5420     1.5350    -0.9050 C.ar  1 <1>   0.0830 
 12 C       -5.5460     1.6810    -1.8610 C.ar  1 <1>  -0.1500 
 13 O       -7.7970     1.3220    -1.3670 O.3   1 <1>  -0.3630 
 14 C       -8.8940     0.9870    -0.5230 C.3   1 <1>   0.2610 
 15 C       -9.8810     0.0980    -1.3100 C.2   1 <1>   0.6590 
 16 C       -9.4880     2.2990     0.0440 C.3   1 <1>  -0.1600 
 17 O      -10.9490     0.5050    -1.6890 O.2   1 <1>  -0.5700 
 18 O       -9.5550    -1.1740    -1.5490 O.3   1 <1>  -0.4300 
 19 C      -10.1140     2.1490     1.4460 C.3   1 <1>  -0.0800 
 20 C       -8.2560    -1.7220    -1.4500 C.3   1 <1>   0.0400 
 21 C      -11.2980     1.1740     1.4660 C.3   1 <1>  -0.2400 
 22 C      -10.5790     3.5200     1.9480 C.3   1 <1>  -0.2400 
 23 H       -1.3430     2.3770     2.0940 H     1 <1>   0.1500 
 24 H       -6.9380     1.5220     1.2170 H     1 <1>   0.1500 
 25 H       -1.5570     3.1920    -1.2910 H     1 <1>   0.0800 
 26 H       -1.2910     1.4600    -1.2720 H     1 <1>   0.0800 
 27 H       -0.4490     2.4870    -0.1450 H     1 <1>   0.0800 
 28 H       -3.4900     1.9990    -2.2560 H     1 <1>   0.1500 
 29 H       -5.8150     1.6300    -2.9020 H     1 <1>   0.1500 
 30 H       -8.5150     0.3930     0.2860 H     1 <1>   0.0800 
 31 H      -10.2190     2.6910    -0.6410 H     1 <1>   0.0800 
 32 H       -8.7020     3.0300     0.1160 H     1 <1>   0.0800 
 33 H       -9.3620     1.7860     2.1280 H     1 <1>   0.0800 
 34 H       -8.3020    -2.7470    -1.7720 H     1 <1>   0.0800 
 35 H       -7.9250    -1.6780    -0.4280 H     1 <1>   0.0800 
 36 H       -7.5910    -1.1710    -2.0920 H     1 <1>   0.0800 
 37 H      -12.0410     1.4660     0.7430 H     1 <1>   0.0800 
 38 H      -11.7570     1.1640     2.4380 H     1 <1>   0.0800 
 39 H      -10.9810     0.1710     1.2450 H     1 <1>   0.0800 
 40 H      -11.3400     3.9220     1.3020 H     1 <1>   0.0800 
 41 H       -9.7540     4.2110     1.9770 H     1 <1>   0.0800 
 42 H      -10.9820     3.4390     2.9420 H     1 <1>   0.0800 
@<TRIPOS>BOND
  1   1   2  2   
  2   2   3  1   
  3   2   4  1   
  4   3   5  1   
  5   4   6  2   
  6   4  23  1   
  7   5   7  ar  
  8   5   8  ar  
  9   6   7  1   
 10   6   9  1   
 11   7  10  ar  
 12   8  11  ar  
 13   8  24  1   
 14   9  25  1   
 15   9  26  1   
 16   9  27  1   
 17  10  12  ar  
 18  10  28  1   
 19  11  12  ar  
 20  11  13  1   
 21  12  29  1   
 22  13  14  1   
 23  14  15  1   
 24  14  16  1   
 25  14  30  1   
 26  15  17  2   
 27  15  18  1   
 28  16  19  1   
 29  16  31  1   
 30  16  32  1   
 31  18  20  1   
 32  19  21  1   
 33  19  22  1   
 34  19  33  1   
 35  20  34  1   
 36  20  35  1   
 37  20  36  1   
 38  21  37  1   
 39  21  38  1   
 40  21  39  1   
 41  22  40  1   
 42  22  41  1   
 43  22  42  1   
@<TRIPOS>SUBSTRUCTURE
  1 ****   8 GROUP 4 **** **** 0

# MOE 2024.06 (io_trps.svl 2023.06)
