@<TRIPOS>MOLECULE
NONAME
30 30 1 0 0 
SMALL
USER_CHARGES


@<TRIPOS>ATOM
  1 S       -0.1800    -0.3780     0.0500 S.o2  1 <1>   1.4470 
  2 O       -0.6520    -0.6340     1.3910 O.2   1 <1>  -0.6500 
  3 O       -0.6100    -1.2170    -1.0450 O.2   1 <1>  -0.6500 
  4 N       -0.7040     1.1480    -0.4060 N.am  1 <1>  -0.9140 
  5 C        1.6250    -0.2060     0.0500 C.ar  1 <1>  -0.0090 
  6 C       -2.0580     1.4380    -0.0170 C.3   1 <1>   0.2760 
  7 C        2.4320    -1.0470    -0.7110 C.ar  1 <1>  -0.1500 
  8 C        2.2450     0.7740     0.8200 C.ar  1 <1>  -0.1500 
  9 C       -2.6930     2.2320    -1.1510 C.3   1 <1>  -0.2400 
 10 C       -2.0280     2.2680     1.2630 C.3   1 <1>  -0.2400 
 11 C        3.8110    -0.9120    -0.7070 C.ar  1 <1>  -0.1500 
 12 C        3.6220     0.9200     0.8340 C.ar  1 <1>  -0.1500 
 13 C        4.3990     0.0710     0.0650 C.ar  1 <1>   0.1010 
 14 S        6.1950     0.1860     0.0180 S.3   1 <1>  -0.3310 
 15 C        6.6700     1.5700     1.1460 C.3   1 <1>  -0.0100 
 16 H       -0.7200     1.0750    -1.4200 H     1 <1>   0.4200 
 17 H       -2.6220     0.5290     0.1380 H     1 <1>   0.0800 
 18 H        1.9780    -1.8160    -1.3140 H     1 <1>   0.1500 
 19 H        1.6340     1.4320     1.4170 H     1 <1>   0.1500 
 20 H       -2.1420     3.1370    -1.3380 H     1 <1>   0.0800 
 21 H       -3.7010     2.4970    -0.8880 H     1 <1>   0.0800 
 22 H       -2.7310     1.6410    -2.0490 H     1 <1>   0.0800 
 23 H       -1.4610     3.1690     1.1160 H     1 <1>   0.0800 
 24 H       -1.5930     1.7040     2.0680 H     1 <1>   0.0800 
 25 H       -3.0290     2.5350     1.5500 H     1 <1>   0.0800 
 26 H        4.4290    -1.5650    -1.2990 H     1 <1>   0.1500 
 27 H        4.0640     1.6870     1.4390 H     1 <1>   0.1500 
 28 H        7.7420     1.6470     1.1300 H     1 <1>   0.0800 
 29 H        6.3200     1.3290     2.1340 H     1 <1>   0.0800 
 30 H        6.2170     2.4720     0.7750 H     1 <1>   0.0800 
@<TRIPOS>BOND
  1   1   2  2   
  2   1   3  2   
  3   1   4  am  
  4   1   5  1   
  5   4   6  1   
  6   4  16  1   
  7   5   7  ar  
  8   5   8  ar  
  9   6   9  1   
 10   6  10  1   
 11   6  17  1   
 12   7  11  ar  
 13   7  18  1   
 14   8  12  ar  
 15   8  19  1   
 16   9  20  1   
 17   9  21  1   
 18   9  22  1   
 19  10  23  1   
 20  10  24  1   
 21  10  25  1   
 22  11  13  ar  
 23  11  26  1   
 24  12  13  ar  
 25  12  27  1   
 26  13  14  1   
 27  14  15  1   
 28  15  28  1   
 29  15  29  1   
 30  15  30  1   
@<TRIPOS>SUBSTRUCTURE
  1 ****   5 GROUP 4 **** **** 0

# MOE 2024.06 (io_trps.svl 2023.06)
