@<TRIPOS>MOLECULE
NONAME
37 37 1 0 0 
SMALL
USER_CHARGES


@<TRIPOS>ATOM
  1 O       -3.4640    -5.9370    -0.6910 O.3   1 <1>  -0.3630 
  2 C       -2.5120    -6.7800    -0.2320 C.ar  1 <1>   0.0830 
  3 C       -4.0770    -5.1300     0.2790 C.3   1 <1>   0.1200 
  4 C       -2.8670    -8.0630     0.1800 C.ar  1 <1>  -0.1440 
  5 C       -1.1850    -6.3580    -0.1820 C.ar  1 <1>  -0.1440 
  6 C       -5.1020    -4.2550    -0.4390 C.3   1 <1>  -0.1600 
  7 C       -1.8880    -8.9050     0.6810 C.ar  1 <1>  -0.1500 
  8 C       -4.3010    -8.5650     0.0860 C.3   1 <1>  -0.0960 
  9 C       -0.2230    -7.2170     0.3220 C.ar  1 <1>  -0.1500 
 10 C       -0.7640    -4.9810    -0.6760 C.3   1 <1>  -0.0970 
 11 C       -5.8250    -3.3480     0.5540 C.3   1 <1>   0.3430 
 12 C       -0.5730    -8.4840     0.7560 C.ar  1 <1>  -0.1500 
 13 N       -6.7470    -2.4180    -0.1620 N.4   1 <1>  -0.9590 
 14 C       -7.1980    -1.3200     0.7480 C.3   1 <1>   0.2630 
 15 C       -7.9310    -3.1260    -0.7470 C.3   1 <1>   0.2630 
 16 H       -3.3140    -4.5380     0.7550 H     1 <1>   0.0800 
 17 H       -4.5430    -5.7720     1.0060 H     1 <1>   0.0800 
 18 H       -5.8040    -4.9020    -0.9340 H     1 <1>   0.0800 
 19 H       -4.5850    -3.6570    -1.1690 H     1 <1>   0.0800 
 20 H       -2.1420    -9.8960     1.0120 H     1 <1>   0.1500 
 21 H       -4.8710    -8.2100     0.9240 H     1 <1>   0.0800 
 22 H       -4.3260    -9.6400     0.0820 H     1 <1>   0.0800 
 23 H       -4.7570    -8.2190    -0.8240 H     1 <1>   0.0800 
 24 H        0.8060    -6.9080     0.3770 H     1 <1>   0.1500 
 25 H       -0.9620    -4.2430     0.0790 H     1 <1>   0.0800 
 26 H       -1.3050    -4.7250    -1.5690 H     1 <1>   0.0800 
 27 H        0.2860    -4.9650    -0.9060 H     1 <1>   0.0800 
 28 H       -5.0890    -2.7760     1.0980 H     1 <1>   0.0800 
 29 H       -6.3770    -3.9450     1.2630 H     1 <1>   0.0800 
 30 H        0.1810    -9.1450     1.1460 H     1 <1>   0.1500 
 31 H       -6.2150    -1.9910    -0.9370 H     1 <1>   0.4500 
 32 H       -7.7570    -1.7250     1.5770 H     1 <1>   0.0800 
 33 H       -7.8280    -0.6270     0.2150 H     1 <1>   0.0800 
 34 H       -6.3490    -0.7810     1.1360 H     1 <1>   0.0800 
 35 H       -8.4980    -3.6140     0.0300 H     1 <1>   0.0800 
 36 H       -7.6130    -3.8690    -1.4600 H     1 <1>   0.0800 
 37 H       -8.5750    -2.4240    -1.2520 H     1 <1>   0.0800 
@<TRIPOS>BOND
  1   1   2  1   
  2   1   3  1   
  3   2   4  ar  
  4   2   5  ar  
  5   3   6  1   
  6   3  16  1   
  7   3  17  1   
  8   4   7  ar  
  9   4   8  1   
 10   5   9  ar  
 11   5  10  1   
 12   6  11  1   
 13   6  18  1   
 14   6  19  1   
 15   7  12  ar  
 16   7  20  1   
 17   8  21  1   
 18   8  22  1   
 19   8  23  1   
 20   9  12  ar  
 21   9  24  1   
 22  10  25  1   
 23  10  26  1   
 24  10  27  1   
 25  11  13  1   
 26  11  28  1   
 27  11  29  1   
 28  12  30  1   
 29  13  14  1   
 30  13  15  1   
 31  13  31  1   
 32  14  32  1   
 33  14  33  1   
 34  14  34  1   
 35  15  35  1   
 36  15  36  1   
 37  15  37  1   
@<TRIPOS>SUBSTRUCTURE
  1 ****   3 GROUP 4 **** **** 0

# MOE 2024.06 (io_trps.svl 2023.06)
