@<TRIPOS>MOLECULE
NONAME
57 61 1 0 0 
SMALL
USER_CHARGES


@<TRIPOS>ATOM
  1 O        0.7160     0.3360     0.8240 O.2   1 <1>  -0.5700 
  2 C        0.9100     1.3410     0.1620 C.2   1 <1>   0.7150 
  3 N        2.1900     1.5850    -0.2970 N.am  1 <1>  -0.6600 
  4 C       -0.1800     2.2490    -0.1330 C.2   1 <1>   0.0550 
  5 C        2.7310     2.9660    -0.4760 C.3   1 <1>   0.1400 
  6 C        3.2500     0.5290    -0.2570 C.3   1 <1>   0.1400 
  7 O       -1.1060     2.5340     0.7790 O.3   1 <1>  -0.2800 
  8 C       -0.4760     2.9410    -1.2710 C.2   1 <1>  -0.1500 
  9 C        3.8090     3.2740     0.5780 C.3   1 <1>   0.1400 
 10 C        4.3050     0.8630     0.8060 C.3   1 <1>   0.1400 
 11 C       -1.9710     3.3740     0.2610 C.2   1 <1>  -0.0100 
 12 C       -1.6370     3.6700    -1.0130 C.2   1 <1>  -0.1500 
 13 N        4.8810     2.2280     0.5660 N.am  1 <1>  -0.6600 
 14 C        6.2200     2.3700     0.2450 C.2   1 <1>   0.5690 
 15 O        6.8650     1.3740    -0.0020 O.2   1 <1>  -0.5700 
 16 C        6.9710     3.7350     0.1760 C.3   1 <1>   0.0610 
 17 C        8.5090     3.5070     0.0550 C.3   1 <1>  -0.1600 
 18 C        6.7650     4.5770     1.4660 C.3   1 <1>  -0.1600 
 19 C        6.5540     4.5500    -1.0780 C.3   1 <1>  -0.1600 
 20 C        9.2970     4.8300    -0.0220 C.3   1 <1>   0.0000 
 21 C        7.5050     5.9270     1.3880 C.3   1 <1>   0.0000 
 22 C        7.3010     5.8940    -1.1380 C.3   1 <1>  -0.0800 
 23 C        9.0140     5.6530     1.2490 C.3   1 <1>  -0.1600 
 24 C        8.8100     5.6260    -1.2470 C.3   1 <1>  -0.1600 
 25 C       10.8000     4.5450    -0.1420 C.3   1 <1>  -0.2400 
 26 C        7.0160     6.6970     0.1440 C.3   1 <1>  -0.1600 
 27 C        7.2360     6.7480     2.6560 C.3   1 <1>  -0.2400 
 28 H        1.9490     3.6980    -0.3890 H     1 <1>   0.0800 
 29 H        3.1600     3.0520    -1.4600 H     1 <1>   0.0800 
 30 H        3.7280     0.4670    -1.2190 H     1 <1>   0.0800 
 31 H        2.8210    -0.4340    -0.0440 H     1 <1>   0.0800 
 32 H        0.0620     2.9330    -2.2020 H     1 <1>   0.1500 
 33 H        3.3520     3.2920     1.5520 H     1 <1>   0.0800 
 34 H        4.1960     4.2510     0.3890 H     1 <1>   0.0800 
 35 H        5.0700     0.1060     0.7930 H     1 <1>   0.0800 
 36 H        3.8450     0.8360     1.7790 H     1 <1>   0.0800 
 37 H       -2.7970     3.7110     0.8640 H     1 <1>   0.1500 
 38 H       -2.1430     4.3220    -1.7040 H     1 <1>   0.1500 
 39 H        8.7170     2.9250    -0.8270 H     1 <1>   0.0800 
 40 H        8.8510     2.9340     0.8990 H     1 <1>   0.0800 
 41 H        7.1270     4.0160     2.3100 H     1 <1>   0.0800 
 42 H        5.7300     4.7720     1.6490 H     1 <1>   0.0800 
 43 H        5.5030     4.7450    -1.0940 H     1 <1>   0.0800 
 44 H        6.7770     3.9760    -1.9610 H     1 <1>   0.0800 
 45 H        6.9730     6.4530    -1.9980 H     1 <1>   0.0800 
 46 H        9.3660     5.1160     2.1120 H     1 <1>   0.0800 
 47 H        9.5500     6.5850     1.2040 H     1 <1>   0.0800 
 48 H        9.0150     5.0740    -2.1480 H     1 <1>   0.0800 
 49 H        9.3390     6.5610    -1.3110 H     1 <1>   0.0800 
 50 H       11.1460     3.9890     0.7110 H     1 <1>   0.0800 
 51 H       11.3540     5.4650    -0.1960 H     1 <1>   0.0800 
 52 H       11.0040     3.9710    -1.0270 H     1 <1>   0.0800 
 53 H        7.5170     7.6480     0.0860 H     1 <1>   0.0800 
 54 H        5.9610     6.8910     0.2220 H     1 <1>   0.0800 
 55 H        7.5730     6.2150     3.5280 H     1 <1>   0.0800 
 56 H        6.1840     6.9460     2.7630 H     1 <1>   0.0800 
 57 H        7.7560     7.6880     2.6110 H     1 <1>   0.0800 
@<TRIPOS>BOND
  1   1   2  2   
  2   2   3  am  
  3   2   4  1   
  4   3   5  1   
  5   3   6  1   
  6   4   7  1   
  7   4   8  2   
  8   5   9  1   
  9   5  28  1   
 10   5  29  1   
 11   6  10  1   
 12   6  30  1   
 13   6  31  1   
 14   7  11  1   
 15   8  12  1   
 16   8  32  1   
 17   9  13  1   
 18   9  33  1   
 19   9  34  1   
 20  10  13  1   
 21  10  35  1   
 22  10  36  1   
 23  11  12  2   
 24  11  37  1   
 25  12  38  1   
 26  13  14  am  
 27  14  15  2   
 28  14  16  1   
 29  16  17  1   
 30  16  18  1   
 31  16  19  1   
 32  17  20  1   
 33  17  39  1   
 34  17  40  1   
 35  18  21  1   
 36  18  41  1   
 37  18  42  1   
 38  19  22  1   
 39  19  43  1   
 40  19  44  1   
 41  20  23  1   
 42  20  24  1   
 43  20  25  1   
 44  21  23  1   
 45  21  26  1   
 46  21  27  1   
 47  22  24  1   
 48  22  26  1   
 49  22  45  1   
 50  23  46  1   
 51  23  47  1   
 52  24  48  1   
 53  24  49  1   
 54  25  50  1   
 55  25  51  1   
 56  25  52  1   
 57  26  53  1   
 58  26  54  1   
 59  27  55  1   
 60  27  56  1   
 61  27  57  1   
@<TRIPOS>SUBSTRUCTURE
  1 ****   9 GROUP 4 **** **** 0

# MOE 2024.06 (io_trps.svl 2023.06)
