@<TRIPOS>MOLECULE
NONAME
41 42 1 0 0 
SMALL
USER_CHARGES


@<TRIPOS>ATOM
  1 S        0.1950     0.3660     0.7070 S.o2  1 <1>   1.4470 
  2 O        0.5810     0.5250     2.0910 O.2   1 <1>  -0.6500 
  3 O        0.2720     1.4810    -0.2090 O.2   1 <1>  -0.6500 
  4 N        1.2040    -0.7880     0.0290 N.am  1 <1>  -0.9140 
  5 C       -1.4380    -0.4170     0.6120 C.ar  1 <1>  -0.0090 
  6 C        2.5500    -0.8250     0.5620 C.3   1 <1>   0.2760 
  7 C       -1.7030    -1.6010     1.2890 C.ar  1 <1>  -0.1500 
  8 C       -2.4690     0.1370    -0.1390 C.ar  1 <1>  -0.1500 
  9 C        3.3700     0.3630     0.0610 C.3   1 <1>  -0.1600 
 10 C        3.2620    -2.0070    -0.0850 C.3   1 <1>  -0.1600 
 11 C       -2.9450    -2.2060     1.2220 C.ar  1 <1>  -0.1500 
 12 C       -3.7130    -0.4650    -0.2090 C.ar  1 <1>  -0.1500 
 13 C        3.7740     0.0140    -1.3750 C.3   1 <1>  -0.1600 
 14 C        3.7280    -1.5160    -1.4620 C.3   1 <1>  -0.1600 
 15 C       -3.9740    -1.6480     0.4740 C.ar  1 <1>   0.1170 
 16 N       -5.2110    -2.3060     0.4400 N.am  1 <1>  -0.5470 
 17 C       -6.4360    -1.9450    -0.0300 C.2   1 <1>   0.7800 
 18 O       -6.6950    -0.8810    -0.5520 O.2   1 <1>  -0.5700 
 19 O       -7.3850    -2.8640     0.1260 O.3   1 <1>  -0.4300 
 20 C       -8.7030    -2.6220    -0.3120 C.3   1 <1>   0.1200 
 21 C       -9.5420    -3.8550     0.0060 C.3   1 <1>  -0.2400 
 22 H        1.3020    -0.4940    -0.9390 H     1 <1>   0.4200 
 23 H        2.5430    -0.9090     1.6380 H     1 <1>   0.0800 
 24 H       -0.9210    -2.0510     1.8770 H     1 <1>   0.1500 
 25 H       -2.2980     1.0550    -0.6770 H     1 <1>   0.1500 
 26 H        4.2610     0.4280     0.6620 H     1 <1>   0.0800 
 27 H        2.8590     1.3060     0.1330 H     1 <1>   0.0800 
 28 H        2.6340    -2.8790    -0.1460 H     1 <1>   0.0800 
 29 H        4.1260    -2.2490     0.5090 H     1 <1>   0.0800 
 30 H       -3.1140    -3.1210     1.7610 H     1 <1>   0.1500 
 31 H       -4.4770    -0.0010    -0.8050 H     1 <1>   0.1500 
 32 H        4.7550     0.3950    -1.6020 H     1 <1>   0.0800 
 33 H        3.0690     0.4420    -2.0680 H     1 <1>   0.0800 
 34 H        3.0230    -1.8170    -2.2180 H     1 <1>   0.0800 
 35 H        4.6940    -1.9260    -1.7070 H     1 <1>   0.0800 
 36 H       -5.2360    -3.2270     0.8690 H     1 <1>   0.3700 
 37 H       -8.6810    -2.4320    -1.3730 H     1 <1>   0.0800 
 38 H       -9.0800    -1.7540     0.2020 H     1 <1>   0.0800 
 39 H       -9.1480    -4.7140    -0.5060 H     1 <1>   0.0800 
 40 H      -10.5550    -3.6970    -0.3180 H     1 <1>   0.0800 
 41 H       -9.5470    -4.0370     1.0660 H     1 <1>   0.0800 
@<TRIPOS>BOND
  1   1   2  2   
  2   1   3  2   
  3   1   4  am  
  4   1   5  1   
  5   4   6  1   
  6   4  22  1   
  7   5   7  ar  
  8   5   8  ar  
  9   6   9  1   
 10   6  10  1   
 11   6  23  1   
 12   7  11  ar  
 13   7  24  1   
 14   8  12  ar  
 15   8  25  1   
 16   9  13  1   
 17   9  26  1   
 18   9  27  1   
 19  10  14  1   
 20  10  28  1   
 21  10  29  1   
 22  11  15  ar  
 23  11  30  1   
 24  12  15  ar  
 25  12  31  1   
 26  13  14  1   
 27  13  32  1   
 28  13  33  1   
 29  14  34  1   
 30  14  35  1   
 31  15  16  1   
 32  16  17  am  
 33  16  36  1   
 34  17  18  2   
 35  17  19  1   
 36  19  20  1   
 37  20  21  1   
 38  20  37  1   
 39  20  38  1   
 40  21  39  1   
 41  21  40  1   
 42  21  41  1   
@<TRIPOS>SUBSTRUCTURE
  1 ****   5 GROUP 4 **** **** 0

# MOE 2024.06 (io_trps.svl 2023.06)
