@<TRIPOS>MOLECULE
NONAME
30 30 1 0 0 
SMALL
USER_CHARGES


@<TRIPOS>ATOM
  1 S        0.5420     0.2560     0.1430 S.3   1 <1>  -0.3320 
  2 C        1.1560    -1.4150    -0.1930 C.ar  1 <1>   0.1020 
  3 C       -1.2840     0.1540     0.4010 C.3   1 <1>   0.0700 
  4 C        2.4770    -1.6090    -0.6310 C.ar  1 <1>   0.0860 
  5 C        0.2900    -2.4860    -0.0140 C.ar  1 <1>  -0.1500 
  6 C       -1.8140     1.5800     0.5320 C.3   1 <1>  -0.2400 
  7 C        3.4620    -0.5560    -0.8270 C.2   1 <1>   0.5440 
  8 C        2.8610    -2.9260    -0.8950 C.ar  1 <1>  -0.1500 
  9 C        0.7120    -3.7750    -0.2790 C.ar  1 <1>  -0.1500 
 10 O        4.2750    -0.6400    -1.7290 O.2   1 <1>  -0.5700 
 11 N        3.5530     0.5210     0.0070 N.am  1 <1>  -0.7300 
 12 C        2.0010    -3.9940    -0.7240 C.ar  1 <1>  -0.1500 
 13 C        4.4850     1.6590    -0.1770 C.3   1 <1>   0.1400 
 14 C        5.8630     1.3080     0.3870 C.3   1 <1>   0.1200 
 15 O        6.7400     2.3570     0.1500 O.3   1 <1>  -0.6800 
 16 H       -1.4560    -0.4130     1.3000 H     1 <1>   0.0800 
 17 H       -1.7060    -0.3460    -0.4530 H     1 <1>   0.0800 
 18 H       -0.7140    -2.3450     0.3320 H     1 <1>   0.1500 
 19 H       -1.3550     2.0710     1.3710 H     1 <1>   0.0800 
 20 H       -2.8780     1.5640     0.6800 H     1 <1>   0.0800 
 21 H       -1.5980     2.1380    -0.3620 H     1 <1>   0.0800 
 22 H        3.8630    -3.1130    -1.2450 H     1 <1>   0.1500 
 23 H        0.0400    -4.6060    -0.1420 H     1 <1>   0.1500 
 24 H        2.7670     0.6860     0.6440 H     1 <1>   0.3700 
 25 H        2.3350    -4.9950    -0.9380 H     1 <1>   0.1500 
 26 H        4.0930     2.5240     0.3300 H     1 <1>   0.0800 
 27 H        4.5680     1.8750    -1.2280 H     1 <1>   0.0800 
 28 H        6.2560     0.4250    -0.0880 H     1 <1>   0.0800 
 29 H        5.8070     1.1570     1.4510 H     1 <1>   0.0800 
 30 H        6.9410     2.4170    -0.8050 H     1 <1>   0.4000 
@<TRIPOS>BOND
  1   1   2  1   
  2   1   3  1   
  3   2   4  ar  
  4   2   5  ar  
  5   3   6  1   
  6   3  16  1   
  7   3  17  1   
  8   4   7  1   
  9   4   8  ar  
 10   5   9  ar  
 11   5  18  1   
 12   6  19  1   
 13   6  20  1   
 14   6  21  1   
 15   7  10  2   
 16   7  11  am  
 17   8  12  ar  
 18   8  22  1   
 19   9  12  ar  
 20   9  23  1   
 21  11  13  1   
 22  11  24  1   
 23  12  25  1   
 24  13  14  1   
 25  13  26  1   
 26  13  27  1   
 27  14  15  1   
 28  14  28  1   
 29  14  29  1   
 30  15  30  1   
@<TRIPOS>SUBSTRUCTURE
  1 ****   4 GROUP 4 **** **** 0

# MOE 2024.06 (io_trps.svl 2023.06)
