@<TRIPOS>MOLECULE
NONAME
41 43 1 0 0 
SMALL
USER_CHARGES


@<TRIPOS>ATOM
  1 S       -0.1820     1.3370     1.5850 S.o2  1 <1>   1.3330 
  2 O        0.9290     0.7440     2.2900 O.2   1 <1>  -0.6500 
  3 O       -1.2430     1.9800     2.3250 O.2   1 <1>  -0.6500 
  4 N        0.4380     2.4910     0.4250 N.am  1 <1>  -0.5140 
  5 C       -0.9060     0.1040     0.5250 C.3   1 <1>  -0.1350 
  6 N        1.5890     2.4290    -0.3150 N.2   1 <1>  -0.4300 
  7 C       -0.2890     3.7460     0.2320 C.3   1 <1>   0.4190 
  8 C        1.7810     3.5480    -0.9000 C.2   1 <1>   0.4740 
  9 C       -1.5890     3.5080    -0.5390 C.ar  1 <1>  -0.1440 
 10 C        0.7050     4.5630    -0.5850 C.3   1 <1>  -0.0990 
 11 C        2.8550     3.9110    -1.7750 C.2   1 <1>  -0.0450 
 12 C       -2.7760     4.0670    -0.0810 C.ar  1 <1>   0.0830 
 13 C       -1.6130     2.7370    -1.6950 C.ar  1 <1>  -0.1500 
 14 S        4.0920     2.7040    -2.1510 S.3   1 <1>  -0.0800 
 15 C        3.1630     5.0610    -2.4350 C.2   1 <1>  -0.1500 
 16 O       -2.7580     4.8300     1.0330 O.3   1 <1>  -0.3630 
 17 C       -3.9650     3.8570    -0.7650 C.ar  1 <1>  -0.1500 
 18 C       -2.8000     2.5240    -2.3760 C.ar  1 <1>  -0.1500 
 19 C        4.9700     3.8140    -3.1850 C.2   1 <1>  -0.1100 
 20 C        4.3480     5.0060    -3.2250 C.2   1 <1>  -0.1500 
 21 C       -3.5730     4.4220     2.1080 C.3   1 <1>   0.1200 
 22 C       -3.9770     3.0830    -1.9110 C.ar  1 <1>  -0.1500 
 23 C       -3.0890     5.1390     3.3640 C.3   1 <1>  -0.2400 
 24 H       -0.1640    -0.2800    -0.1480 H     1 <1>   0.0800 
 25 H       -1.7080     0.5290    -0.0450 H     1 <1>   0.0800 
 26 H       -1.2920    -0.7040     1.1140 H     1 <1>   0.0800 
 27 H       -0.4590     4.2070     1.1900 H     1 <1>   0.0800 
 28 H        1.1060     5.3620     0.0080 H     1 <1>   0.0800 
 29 H        0.2570     4.9580    -1.4780 H     1 <1>   0.0800 
 30 H       -0.7070     2.2920    -2.0710 H     1 <1>   0.1500 
 31 H        2.5840     5.9670    -2.3930 H     1 <1>   0.1500 
 32 H       -4.8760     4.3030    -0.4100 H     1 <1>   0.1500 
 33 H       -2.8070     1.9230    -3.2700 H     1 <1>   0.1500 
 34 H        5.8660     3.4520    -3.6570 H     1 <1>   0.1500 
 35 H        4.6830     5.8610    -3.7880 H     1 <1>   0.1500 
 36 H       -3.4810     3.3550     2.2230 H     1 <1>   0.0800 
 37 H       -4.5920     4.6810     1.8840 H     1 <1>   0.0800 
 38 H       -4.8990     2.9200    -2.4430 H     1 <1>   0.1500 
 39 H       -2.0730     4.8590     3.5750 H     1 <1>   0.0800 
 40 H       -3.7010     4.8560     4.2000 H     1 <1>   0.0800 
 41 H       -3.1540     6.2040     3.2330 H     1 <1>   0.0800 
@<TRIPOS>BOND
  1   1   2  2   
  2   1   3  2   
  3   1   4  am  
  4   1   5  1   
  5   4   6  1   
  6   4   7  1   
  7   5  24  1   
  8   5  25  1   
  9   5  26  1   
 10   6   8  2   
 11   7   9  1   
 12   7  10  1   
 13   7  27  1   
 14   8  10  1   
 15   8  11  1   
 16   9  12  ar  
 17   9  13  ar  
 18  10  28  1   
 19  10  29  1   
 20  11  14  1   
 21  11  15  2   
 22  12  16  1   
 23  12  17  ar  
 24  13  18  ar  
 25  13  30  1   
 26  14  19  1   
 27  15  20  1   
 28  15  31  1   
 29  16  21  1   
 30  17  22  ar  
 31  17  32  1   
 32  18  22  ar  
 33  18  33  1   
 34  19  20  2   
 35  19  34  1   
 36  20  35  1   
 37  21  23  1   
 38  21  36  1   
 39  21  37  1   
 40  22  38  1   
 41  23  39  1   
 42  23  40  1   
 43  23  41  1   
@<TRIPOS>SUBSTRUCTURE
  1 ****   7 GROUP 4 **** **** 0

# MOE 2024.06 (io_trps.svl 2023.06)
