@<TRIPOS>MOLECULE
Structure1973
18 19 1 0 0 
SMALL
USER_CHARGES


@<TRIPOS>ATOM
  1 O        0.2890     0.2050    -0.4790 O.co2 1 <1>  -0.9000 
  2 C        0.5620     1.3710    -0.1410 C.2   1 <1>   1.0330 
  3 O       -0.3460     2.0890     0.3120 O.co2 1 <1>  -0.9000 
  4 C        1.9210     1.8550    -0.2700 C.2   1 <1>  -0.2330 
  5 C        2.5150     3.0720    -0.1010 C.2   1 <1>  -0.2370 
  6 C        2.9870     1.0280    -0.6290 C.2   1 <1>   0.1390 
  7 N        3.8250     2.9110    -0.3410 N.pl3 1 <1>   0.3000 
  8 C        1.9090     4.4050     0.2880 C.3   1 <1>  -0.0150 
  9 N        4.1300     1.6440    -0.6730 N.2   1 <1>  -0.7070 
 10 C        0.7410     4.9270    -0.4860 C.3   1 <1>  -0.2000 
 11 C        2.0760     5.5920    -0.6090 C.3   1 <1>  -0.2000 
 12 H        2.8550    -0.0210    -0.8440 H     1 <1>   0.1500 
 13 H        4.5310     3.6520    -0.2900 H     1 <1>   0.2700 
 14 H        1.8810     4.5540     1.3540 H     1 <1>   0.1000 
 15 H       -0.0530     5.3790     0.0810 H     1 <1>   0.1000 
 16 H        0.3660     4.2970    -1.2740 H     1 <1>   0.1000 
 17 H        2.6040     5.4800    -1.5390 H     1 <1>   0.1000 
 18 H        2.2080     6.5630    -0.1660 H     1 <1>   0.1000 
@<TRIPOS>BOND
  1   1   2  ar  
  2   2   3  ar  
  3   2   4  1   
  4   4   5  2   
  5   4   6  1   
  6   5   7  1   
  7   5   8  1   
  8   6   9  2   
  9   6  12  1   
 10   7   9  1   
 11   7  13  1   
 12   8  10  1   
 13   8  11  1   
 14   8  14  1   
 15  10  11  1   
 16  10  15  1   
 17  10  16  1   
 18  11  17  1   
 19  11  18  1   
@<TRIPOS>SUBSTRUCTURE
  1 ****   4 GROUP 4 **** **** 0

# MOE 2024.06 (io_trps.svl 2023.06)
