@<TRIPOS>MOLECULE
NONAME
52 53 1 0 0 
SMALL
USER_CHARGES


@<TRIPOS>ATOM
  1 S        2.7250    -3.6430    -0.8760 S.3   1 <1>  -0.3710 
  2 C        4.3360    -4.1340    -0.2550 C.2   1 <1>   0.6510 
  3 C        1.9390    -5.2680    -1.3350 C.3   1 <1>   0.0700 
  4 N        4.5030    -5.3900    -0.1910 N.2   1 <1>  -0.6210 
  5 N        5.2330    -3.1650     0.1280 N.am  1 <1>  -0.2370 
  6 C        1.6900    -6.0950    -0.0580 C.3   1 <1>   0.3430 
  7 C        5.6430    -5.8750     0.3490 C.2   1 <1>   0.0210 
  8 C        6.4380    -3.6300     0.6610 C.2   1 <1>   0.6160 
  9 C        4.9630    -1.7910    -0.0160 C.ar  1 <1>   0.1170 
 10 N        1.7230    -7.5810    -0.2900 N.4   1 <1>  -0.9590 
 11 O        5.6680    -7.1060     0.4270 O.3   1 <1>  -0.8500 
 12 C        6.6480    -5.0100     0.7780 C.2   1 <1>  -0.1240 
 13 O        7.2700    -2.7730     1.0150 O.2   1 <1>  -0.5700 
 14 C        5.1330    -1.1610    -1.2440 C.ar  1 <1>  -0.1500 
 15 C        4.5170    -1.0410     1.0660 C.ar  1 <1>  -0.1500 
 16 C        1.1800    -8.3000     0.8870 C.3   1 <1>   0.3430 
 17 C        3.1430    -8.0150    -0.5080 C.3   1 <1>   0.3430 
 18 C        7.9350    -5.6040     1.3650 C.3   1 <1>   0.0580 
 19 C        4.8550     0.1860    -1.3900 C.ar  1 <1>  -0.1500 
 20 C        4.2370     0.3060     0.9230 C.ar  1 <1>  -0.1500 
 21 C       -0.3420    -8.2040     0.8930 C.3   1 <1>  -0.2400 
 22 C        3.1720    -9.3840    -1.1770 C.3   1 <1>  -0.2400 
 23 C        8.1330    -5.2020     2.8320 C.3   1 <1>  -0.2400 
 24 C        9.1640    -5.2450     0.5210 C.3   1 <1>  -0.2400 
 25 C        4.4050     0.9210    -0.3060 C.ar  1 <1>  -0.1500 
 26 H        2.6290    -5.7510    -2.0030 H     1 <1>   0.0800 
 27 H        1.0210    -5.0430    -1.8450 H     1 <1>   0.0800 
 28 H        0.7360    -5.8040     0.3470 H     1 <1>   0.0800 
 29 H        2.4370    -5.8500     0.6790 H     1 <1>   0.0800 
 30 H        1.1890    -7.8220    -1.1280 H     1 <1>   0.4500 
 31 H        5.4870    -1.7320    -2.0840 H     1 <1>   0.1500 
 32 H        4.3950    -1.5180     2.0220 H     1 <1>   0.1500 
 33 H        1.5910    -7.8840     1.7940 H     1 <1>   0.0800 
 34 H        1.4610    -9.3390     0.8430 H     1 <1>   0.0800 
 35 H        3.6780    -8.0400     0.4290 H     1 <1>   0.0800 
 36 H        3.6620    -7.3180    -1.1450 H     1 <1>   0.0800 
 37 H        7.8510    -6.6770     1.3470 H     1 <1>   0.0800 
 38 H        4.9890     0.6630    -2.3450 H     1 <1>   0.1500 
 39 H        3.8930     0.8760     1.7680 H     1 <1>   0.1500 
 40 H       -0.6730    -7.1900     1.0220 H     1 <1>   0.0800 
 41 H       -0.7240    -8.7800     1.7170 H     1 <1>   0.0800 
 42 H       -0.7520    -8.6090    -0.0140 H     1 <1>   0.0800 
 43 H        2.7580   -10.1460    -0.5440 H     1 <1>   0.0800 
 44 H        4.2010    -9.6380    -1.3620 H     1 <1>   0.0800 
 45 H        2.6590    -9.3610    -2.1200 H     1 <1>   0.0800 
 46 H        8.2990    -4.1440     2.9240 H     1 <1>   0.0800 
 47 H        8.9770    -5.7210     3.2460 H     1 <1>   0.0800 
 48 H        7.2570    -5.4670     3.3960 H     1 <1>   0.0800 
 49 H        9.3570    -4.1880     0.5500 H     1 <1>   0.0800 
 50 H        8.9960    -5.5400    -0.4990 H     1 <1>   0.0800 
 51 H       10.0290    -5.7650     0.8900 H     1 <1>   0.0800 
 52 H        4.1890     1.9690    -0.4180 H     1 <1>   0.1500 
@<TRIPOS>BOND
  1   1   2  1   
  2   1   3  1   
  3   2   4  2   
  4   2   5  1   
  5   3   6  1   
  6   3  26  1   
  7   3  27  1   
  8   4   7  1   
  9   5   8  am  
 10   5   9  1   
 11   6  10  1   
 12   6  28  1   
 13   6  29  1   
 14   7  11  1   
 15   7  12  2   
 16   8  12  1   
 17   8  13  2   
 18   9  14  ar  
 19   9  15  ar  
 20  10  16  1   
 21  10  17  1   
 22  10  30  1   
 23  12  18  1   
 24  14  19  ar  
 25  14  31  1   
 26  15  20  ar  
 27  15  32  1   
 28  16  21  1   
 29  16  33  1   
 30  16  34  1   
 31  17  22  1   
 32  17  35  1   
 33  17  36  1   
 34  18  23  1   
 35  18  24  1   
 36  18  37  1   
 37  19  25  ar  
 38  19  38  1   
 39  20  25  ar  
 40  20  39  1   
 41  21  40  1   
 42  21  41  1   
 43  21  42  1   
 44  22  43  1   
 45  22  44  1   
 46  22  45  1   
 47  23  46  1   
 48  23  47  1   
 49  23  48  1   
 50  24  49  1   
 51  24  50  1   
 52  24  51  1   
 53  25  52  1   
@<TRIPOS>SUBSTRUCTURE
  1 ****   2 GROUP 4 **** **** 0

# MOE 2024.06 (io_trps.svl 2023.06)
