@<TRIPOS>MOLECULE
NONAME
42 44 1 0 0 
SMALL
USER_CHARGES


@<TRIPOS>ATOM
  1 BR       0.9710    -0.7500     0.2890 Br    1 <1>  -0.1110 
  2 C       -0.6410    -1.7830     0.5210 C.ar  1 <1>   0.1110 
  3 C       -1.4210    -2.1120    -0.5780 C.ar  1 <1>   0.0820 
  4 C       -0.9870    -2.1770     1.7970 C.ar  1 <1>  -0.1500 
  5 O       -1.0900    -1.7220    -1.8260 O.3   1 <1>  -0.3630 
  6 C       -2.5810    -2.8430    -0.3790 C.ar  1 <1>  -0.1500 
  7 C       -2.1480    -2.9150     1.9740 C.ar  1 <1>  -0.1500 
  8 C       -0.2700    -2.6070    -2.5540 C.3   1 <1>   0.0400 
  9 C       -2.9630    -3.2550     0.8950 C.ar  1 <1>  -0.0090 
 10 S       -4.4830    -4.2160     1.1340 S.o2  1 <1>   1.4470 
 11 O       -4.8750    -4.1850     2.5270 O.2   1 <1>  -0.6500 
 12 O       -4.3470    -5.4890     0.4630 O.2   1 <1>  -0.6500 
 13 N       -5.6420    -3.3270     0.2770 N.am  1 <1>  -0.8490 
 14 C       -6.8720    -4.1160     0.0670 C.3   1 <1>   0.1960 
 15 C       -5.9800    -2.0500     0.9410 C.3   1 <1>   0.1960 
 16 C       -7.9350    -3.3470    -0.7410 C.3   1 <1>   0.2090 
 17 C       -7.0120    -1.2330     0.1410 C.3   1 <1>   0.2090 
 18 N       -8.2490    -2.0320    -0.1120 N.pl3 1 <1>  -0.8380 
 19 C       -9.3630    -1.3700    -0.5900 C.ar  1 <1>   0.4100 
 20 N       -9.1600    -0.3060    -1.3580 N.ar  1 <1>  -0.6200 
 21 C      -10.6320    -1.8410    -0.2600 C.ar  1 <1>  -0.1500 
 22 C      -10.2470     0.2970    -1.8110 C.ar  1 <1>   0.1600 
 23 C      -11.7540    -1.2050    -0.7380 C.ar  1 <1>  -0.1500 
 24 C      -11.5430    -0.1020    -1.5390 C.ar  1 <1>  -0.1500 
 25 H       -0.3630    -1.9140     2.6330 H     1 <1>   0.1500 
 26 H       -3.1950    -3.0920    -1.2270 H     1 <1>   0.1500 
 27 H       -2.4280    -3.2300     2.9660 H     1 <1>   0.1500 
 28 H       -0.0850    -2.1760    -3.5210 H     1 <1>   0.0800 
 29 H       -0.7790    -3.5490    -2.6600 H     1 <1>   0.0800 
 30 H        0.6590    -2.7380    -2.0270 H     1 <1>   0.0800 
 31 H       -7.2920    -4.3950     1.0190 H     1 <1>   0.0800 
 32 H       -6.6320    -5.0210    -0.4650 H     1 <1>   0.0800 
 33 H       -5.0910    -1.4560     1.0570 H     1 <1>   0.0800 
 34 H       -6.3850    -2.2390     1.9220 H     1 <1>   0.0800 
 35 H       -8.8300    -3.9400    -0.8070 H     1 <1>   0.0800 
 36 H       -7.5700    -3.1820    -1.7410 H     1 <1>   0.0800 
 37 H       -6.5800    -0.9330    -0.7980 H     1 <1>   0.0800 
 38 H       -7.2710    -0.3440     0.6890 H     1 <1>   0.0800 
 39 H      -10.7140    -2.7000     0.3760 H     1 <1>   0.1500 
 40 H      -10.0950     1.1600    -2.4360 H     1 <1>   0.1500 
 41 H      -12.7450    -1.5480    -0.4980 H     1 <1>   0.1500 
 42 H      -12.3740     0.4430    -1.9480 H     1 <1>   0.1500 
@<TRIPOS>BOND
  1   1   2  1   
  2   2   3  ar  
  3   2   4  ar  
  4   3   5  1   
  5   3   6  ar  
  6   4   7  ar  
  7   4  25  1   
  8   5   8  1   
  9   6   9  ar  
 10   6  26  1   
 11   7   9  ar  
 12   7  27  1   
 13   8  28  1   
 14   8  29  1   
 15   8  30  1   
 16   9  10  1   
 17  10  11  2   
 18  10  12  2   
 19  10  13  am  
 20  13  14  1   
 21  13  15  1   
 22  14  16  1   
 23  14  31  1   
 24  14  32  1   
 25  15  17  1   
 26  15  33  1   
 27  15  34  1   
 28  16  18  1   
 29  16  35  1   
 30  16  36  1   
 31  17  18  1   
 32  17  37  1   
 33  17  38  1   
 34  18  19  1   
 35  19  20  ar  
 36  19  21  ar  
 37  20  22  ar  
 38  21  23  ar  
 39  21  39  1   
 40  22  24  ar  
 41  22  40  1   
 42  23  24  ar  
 43  23  41  1   
 44  24  42  1   
@<TRIPOS>SUBSTRUCTURE
  1 ****  13 GROUP 4 **** **** 0

# MOE 2024.06 (io_trps.svl 2023.06)
