@<TRIPOS>MOLECULE
NONAME
39 40 1 0 0 
SMALL
USER_CHARGES


@<TRIPOS>ATOM
  1 O        0.3100     0.3180    -1.6830 O.2   1 <1>  -0.5700 
  2 C        0.7200     1.1690    -0.9170 C.2   1 <1>   0.5440 
  3 N       -0.1870     1.9870    -0.3030 N.am  1 <1>  -0.7300 
  4 C        2.1400     1.3040    -0.6450 C.ar  1 <1>   0.0860 
  5 C       -1.6470     1.9520    -0.4920 C.3   1 <1>   0.2200 
  6 C        2.9970     0.2070    -0.7540 C.ar  1 <1>  -0.1500 
  7 C        2.7110     2.5220    -0.2670 C.ar  1 <1>  -0.1500 
  8 C       -2.1370     3.3660    -0.7780 C.3   1 <1>  -0.1600 
  9 C       -2.3050     1.6160     0.8400 C.3   1 <1>  -0.1600 
 10 C        4.3480     0.3150    -0.4870 C.ar  1 <1>  -0.1500 
 11 C        4.0630     2.6400     0.0030 C.ar  1 <1>  -0.1500 
 12 C       -2.2470     4.0550     0.5870 C.3   1 <1>  -0.1600 
 13 C       -2.3540     2.9320     1.6260 C.3   1 <1>  -0.1600 
 14 C        4.8950     1.5290    -0.1040 C.ar  1 <1>   0.0830 
 15 O        6.2240     1.5530     0.1410 O.3   1 <1>  -0.3630 
 16 C        6.8900     2.7370     0.5160 C.3   1 <1>   0.1200 
 17 C        8.3720     2.4120     0.7050 C.3   1 <1>  -0.1600 
 18 C        9.1680     3.6550     1.1170 C.3   1 <1>  -0.2400 
 19 H        0.1200     2.6180     0.4340 H     1 <1>   0.3700 
 20 H       -1.9190     1.2580    -1.2710 H     1 <1>   0.0800 
 21 H        2.5880    -0.7430    -1.0540 H     1 <1>   0.1500 
 22 H        2.0880     3.3950    -0.1910 H     1 <1>   0.1500 
 23 H       -3.1170     3.3010    -1.2170 H     1 <1>   0.0800 
 24 H       -1.4900     3.8890    -1.4610 H     1 <1>   0.0800 
 25 H       -1.7850     0.8330     1.3640 H     1 <1>   0.0800 
 26 H       -3.3120     1.2880     0.6460 H     1 <1>   0.0800 
 27 H        4.9910    -0.5420    -0.5750 H     1 <1>   0.1500 
 28 H        4.4530     3.5970     0.2900 H     1 <1>   0.1500 
 29 H       -3.1060     4.7040     0.6190 H     1 <1>   0.0800 
 30 H       -1.3640     4.6410     0.7750 H     1 <1>   0.0800 
 31 H       -1.5200     2.9840     2.3050 H     1 <1>   0.0800 
 32 H       -3.2670     3.0050     2.1930 H     1 <1>   0.0800 
 33 H        6.4580     3.0920     1.4360 H     1 <1>   0.0800 
 34 H        6.7570     3.4640    -0.2660 H     1 <1>   0.0800 
 35 H        8.7690     2.0260    -0.2170 H     1 <1>   0.0800 
 36 H        8.4740     1.6570     1.4660 H     1 <1>   0.0800 
 37 H        9.0950     4.4180     0.3620 H     1 <1>   0.0800 
 38 H       10.2060     3.4000     1.2430 H     1 <1>   0.0800 
 39 H        8.8000     4.0490     2.0480 H     1 <1>   0.0800 
@<TRIPOS>BOND
  1   1   2  2   
  2   2   3  am  
  3   2   4  1   
  4   3   5  1   
  5   3  19  1   
  6   4   6  ar  
  7   4   7  ar  
  8   5   8  1   
  9   5   9  1   
 10   5  20  1   
 11   6  10  ar  
 12   6  21  1   
 13   7  11  ar  
 14   7  22  1   
 15   8  12  1   
 16   8  23  1   
 17   8  24  1   
 18   9  13  1   
 19   9  25  1   
 20   9  26  1   
 21  10  14  ar  
 22  10  27  1   
 23  11  14  ar  
 24  11  28  1   
 25  12  13  1   
 26  12  29  1   
 27  12  30  1   
 28  13  31  1   
 29  13  32  1   
 30  14  15  1   
 31  15  16  1   
 32  16  17  1   
 33  16  33  1   
 34  16  34  1   
 35  17  18  1   
 36  17  35  1   
 37  17  36  1   
 38  18  37  1   
 39  18  38  1   
 40  18  39  1   
@<TRIPOS>SUBSTRUCTURE
  1 ****   7 GROUP 4 **** **** 0

# MOE 2024.06 (io_trps.svl 2023.06)
