@<TRIPOS>MOLECULE
NONAME
35 36 1 0 0 
SMALL
USER_CHARGES


@<TRIPOS>ATOM
  1 CL       0.6760    -1.0530     0.9040 Cl    1 <1>  -0.1770 
  2 C        2.2970    -0.5560     0.4920 C.ar  1 <1>   0.1770 
  3 C        2.5130     0.1530    -0.6740 C.ar  1 <1>  -0.1500 
  4 C        3.3410    -0.8770     1.3380 C.ar  1 <1>  -0.1500 
  5 C        3.8010     0.5460    -1.0000 C.ar  1 <1>  -0.1500 
  6 C        4.6250    -0.4810     1.0060 C.ar  1 <1>  -0.1500 
  7 C        4.8660     0.2320    -0.1640 C.ar  1 <1>  -0.1430 
  8 C        6.2810     0.6670    -0.5360 C.3   1 <1>   0.3640 
  9 N        7.1350    -0.5280    -0.7130 N.am  1 <1>  -0.7300 
 10 C        6.8520     1.6890     0.4480 C.3   1 <1>  -0.2400 
 11 C        7.8920    -1.2040     0.1930 C.2   1 <1>   0.5690 
 12 O        8.0230    -0.8540     1.3410 O.2   1 <1>  -0.5700 
 13 C        8.5800    -2.4850    -0.2800 C.3   1 <1>  -0.0190 
 14 C        7.9850    -3.7590     0.3240 C.3   1 <1>  -0.1600 
 15 C       10.0640    -2.5860     0.0790 C.3   1 <1>  -0.1600 
 16 C        9.0690    -4.8270     0.1550 C.3   1 <1>  -0.1600 
 17 C       10.3940    -4.0760    -0.0300 C.3   1 <1>  -0.1600 
 18 H        1.6830     0.3910    -1.3140 H     1 <1>   0.1500 
 19 H        3.1510    -1.4280     2.2410 H     1 <1>   0.1500 
 20 H        3.9650     1.0980    -1.9090 H     1 <1>   0.1500 
 21 H        5.4420    -0.7300     1.6640 H     1 <1>   0.1500 
 22 H        6.2390     1.1580    -1.4930 H     1 <1>   0.0800 
 23 H        6.9870    -0.9750    -1.6150 H     1 <1>   0.3700 
 24 H        6.8060     1.3240     1.4580 H     1 <1>   0.0800 
 25 H        6.2740     2.5930     0.4000 H     1 <1>   0.0800 
 26 H        7.8720     1.9160     0.1980 H     1 <1>   0.0800 
 27 H        8.4970    -2.5540    -1.3500 H     1 <1>   0.0800 
 28 H        7.0610    -4.0370    -0.1520 H     1 <1>   0.0800 
 29 H        7.8040    -3.6020     1.3750 H     1 <1>   0.0800 
 30 H       10.2110    -2.2670     1.0980 H     1 <1>   0.0800 
 31 H       10.6780    -1.9840    -0.5670 H     1 <1>   0.0800 
 32 H        8.8660    -5.4230    -0.7180 H     1 <1>   0.0800 
 33 H        9.1020    -5.4720     1.0160 H     1 <1>   0.0800 
 34 H       11.1170    -4.3640     0.7140 H     1 <1>   0.0800 
 35 H       10.7960    -4.2900    -1.0060 H     1 <1>   0.0800 
@<TRIPOS>BOND
  1   1   2  1   
  2   2   3  ar  
  3   2   4  ar  
  4   3   5  ar  
  5   3  18  1   
  6   4   6  ar  
  7   4  19  1   
  8   5   7  ar  
  9   5  20  1   
 10   6   7  ar  
 11   6  21  1   
 12   7   8  1   
 13   8   9  1   
 14   8  10  1   
 15   8  22  1   
 16   9  11  am  
 17   9  23  1   
 18  10  24  1   
 19  10  25  1   
 20  10  26  1   
 21  11  12  2   
 22  11  13  1   
 23  13  14  1   
 24  13  15  1   
 25  13  27  1   
 26  14  16  1   
 27  14  28  1   
 28  14  29  1   
 29  15  17  1   
 30  15  30  1   
 31  15  31  1   
 32  16  17  1   
 33  16  32  1   
 34  16  33  1   
 35  17  34  1   
 36  17  35  1   
@<TRIPOS>SUBSTRUCTURE
  1 ****   9 GROUP 4 **** **** 0

# MOE 2024.06 (io_trps.svl 2023.06)
