@<TRIPOS>MOLECULE
NONAME
35 35 1 0 0 
SMALL
USER_CHARGES


@<TRIPOS>ATOM
  1 BR      -0.1330    -0.6950     1.2900 Br    1 <1>  -0.1110 
  2 C        1.6830    -1.2490     0.9460 C.ar  1 <1>   0.1110 
  3 C        1.9500    -2.1610    -0.0650 C.ar  1 <1>  -0.1440 
  4 C        2.6770    -0.7040     1.7370 C.ar  1 <1>  -0.1500 
  5 C        3.2710    -2.5310    -0.2770 C.ar  1 <1>  -0.1500 
  6 C        0.8370    -2.7460    -0.9220 C.3   1 <1>  -0.0960 
  7 C        3.9880    -1.0840     1.5120 C.ar  1 <1>  -0.1500 
  8 C        4.2920    -1.9940     0.5100 C.ar  1 <1>   0.0830 
  9 O        5.6030    -2.3100     0.3590 O.3   1 <1>  -0.3630 
 10 C        6.0270    -3.2360    -0.6360 C.3   1 <1>   0.1810 
 11 C        7.5380    -3.4340    -0.6170 C.2   1 <1>   0.5690 
 12 O        8.0160    -4.2050    -1.4150 O.2   1 <1>  -0.5700 
 13 N        8.2860    -2.7440     0.2890 N.am  1 <1>  -0.7300 
 14 C        9.7460    -2.7740     0.5010 C.3   1 <1>   0.2200 
 15 C       10.4710    -2.3110    -0.7720 C.3   1 <1>  -0.1600 
 16 C       10.1590    -4.1710     0.9660 C.3   1 <1>  -0.2400 
 17 C       11.9710    -2.0600    -0.5560 C.3   1 <1>  -0.2400 
 18 H        2.4270     0.0000     2.5100 H     1 <1>   0.1500 
 19 H        3.4870    -3.2360    -1.0560 H     1 <1>   0.1500 
 20 H        0.1340    -3.2730    -0.3010 H     1 <1>   0.0800 
 21 H        1.2270    -3.4320    -1.6510 H     1 <1>   0.0800 
 22 H        0.3200    -1.9580    -1.4400 H     1 <1>   0.0800 
 23 H        4.7810    -0.6760     2.1130 H     1 <1>   0.1500 
 24 H        5.7350    -2.8580    -1.5980 H     1 <1>   0.0800 
 25 H        5.5470    -4.1790    -0.4490 H     1 <1>   0.0800 
 26 H        7.7700    -2.1240     0.9190 H     1 <1>   0.3700 
 27 H        9.9720    -2.0750     1.2900 H     1 <1>   0.0800 
 28 H       10.0210    -1.3950    -1.1110 H     1 <1>   0.0800 
 29 H       10.3500    -3.0480    -1.5460 H     1 <1>   0.0800 
 30 H       10.0220    -4.8870     0.1750 H     1 <1>   0.0800 
 31 H        9.5710    -4.4670     1.8160 H     1 <1>   0.0800 
 32 H       11.1930    -4.1780     1.2540 H     1 <1>   0.0800 
 33 H       12.1250    -1.3430     0.2310 H     1 <1>   0.0800 
 34 H       12.4080    -1.6740    -1.4600 H     1 <1>   0.0800 
 35 H       12.4800    -2.9730    -0.3020 H     1 <1>   0.0800 
@<TRIPOS>BOND
  1   1   2  1   
  2   2   3  ar  
  3   2   4  ar  
  4   3   5  ar  
  5   3   6  1   
  6   4   7  ar  
  7   4  18  1   
  8   5   8  ar  
  9   5  19  1   
 10   6  20  1   
 11   6  21  1   
 12   6  22  1   
 13   7   8  ar  
 14   7  23  1   
 15   8   9  1   
 16   9  10  1   
 17  10  11  1   
 18  10  24  1   
 19  10  25  1   
 20  11  12  2   
 21  11  13  am  
 22  13  14  1   
 23  13  26  1   
 24  14  15  1   
 25  14  16  1   
 26  14  27  1   
 27  15  17  1   
 28  15  28  1   
 29  15  29  1   
 30  16  30  1   
 31  16  31  1   
 32  16  32  1   
 33  17  33  1   
 34  17  34  1   
 35  17  35  1   
@<TRIPOS>SUBSTRUCTURE
  1 ****   9 GROUP 4 **** **** 0

# MOE 2024.06 (io_trps.svl 2023.06)
