@<TRIPOS>MOLECULE
NONAME
48 50 1 0 0 
SMALL
USER_CHARGES


@<TRIPOS>ATOM
  1 S        0.1080     0.7120    -1.4400 S.o2  1 <1>   1.4470 
  2 O       -0.3430     1.8800    -2.1670 O.2   1 <1>  -0.6500 
  3 O       -0.3710    -0.5970    -1.8290 O.2   1 <1>  -0.6500 
  4 N       -0.3530     0.9350     0.1750 N.am  1 <1>  -0.8490 
  5 C        1.9190     0.6820    -1.3510 C.ar  1 <1>  -0.0090 
  6 C       -1.7850     0.6600     0.3640 C.3   1 <1>   0.1960 
  7 C       -0.0510     2.2890     0.6710 C.3   1 <1>   0.1960 
  8 C        2.6870     1.7360    -1.8340 C.ar  1 <1>  -0.1500 
  9 C        2.5880    -0.3910    -0.7760 C.ar  1 <1>  -0.1500 
 10 C       -2.2070     0.8760     1.8300 C.3   1 <1>   0.1200 
 11 C       -0.5070     2.4570     2.1320 C.3   1 <1>   0.1200 
 12 C        4.0670     1.7190    -1.7430 C.ar  1 <1>  -0.1500 
 13 C        3.9680    -0.4130    -0.6850 C.ar  1 <1>  -0.1500 
 14 O       -1.8700     2.1660     2.2570 O.3   1 <1>  -0.5600 
 15 C        4.7300     0.6440    -1.1630 C.ar  1 <1>   0.1170 
 16 N        6.1230     0.5720    -1.0500 N.am  1 <1>  -0.5470 
 17 C        7.0940     1.5370    -1.0620 C.2   1 <1>   0.5690 
 18 O        6.8670     2.7150    -1.1900 O.2   1 <1>  -0.5700 
 19 C        8.5390     1.0970    -0.8850 C.3   1 <1>   0.0440 
 20 C        8.6570    -0.3820    -0.5060 C.ar  1 <1>  -0.1430 
 21 C        8.4310    -0.8320     0.7930 C.ar  1 <1>  -0.1430 
 22 C        8.9680    -1.2970    -1.5020 C.ar  1 <1>  -0.1500 
 23 C        8.5190    -2.1880     1.0690 C.ar  1 <1>  -0.1500 
 24 C        8.0860     0.1230     1.9300 C.3   1 <1>  -0.0970 
 25 C        9.0530    -2.6470    -1.2170 C.ar  1 <1>  -0.1500 
 26 C        8.8280    -3.0930     0.0700 C.ar  1 <1>  -0.1500 
 27 H       -1.9970    -0.3600     0.0900 H     1 <1>   0.0800 
 28 H       -2.3730     1.3020    -0.2710 H     1 <1>   0.0800 
 29 H       -0.5500     3.0300     0.0670 H     1 <1>   0.0800 
 30 H        1.0090     2.4690     0.6130 H     1 <1>   0.0800 
 31 H        2.2010     2.5820    -2.2900 H     1 <1>   0.1500 
 32 H        2.0140    -1.2210    -0.3950 H     1 <1>   0.1500 
 33 H       -1.7180     0.1620     2.4700 H     1 <1>   0.0800 
 34 H       -3.2710     0.7630     1.9320 H     1 <1>   0.0800 
 35 H       -0.3580     3.4720     2.4550 H     1 <1>   0.0800 
 36 H        0.0480     1.8000     2.7790 H     1 <1>   0.0800 
 37 H        4.6290     2.5490    -2.1320 H     1 <1>   0.1500 
 38 H        4.4560    -1.2600    -0.2350 H     1 <1>   0.1500 
 39 H        6.4970    -0.3610    -0.8540 H     1 <1>   0.3700 
 40 H        8.9980     1.7110    -0.1340 H     1 <1>   0.0800 
 41 H        9.0590     1.2850    -1.8050 H     1 <1>   0.0800 
 42 H        9.1450    -0.9670    -2.5110 H     1 <1>   0.1500 
 43 H        8.3500    -2.5510     2.0670 H     1 <1>   0.1500 
 44 H        8.8970     0.8090     2.0940 H     1 <1>   0.0800 
 45 H        7.9140    -0.4140     2.8450 H     1 <1>   0.0800 
 46 H        7.1960     0.6800     1.6990 H     1 <1>   0.0800 
 47 H        9.2960    -3.3500    -1.9960 H     1 <1>   0.1500 
 48 H        8.8950    -4.1430     0.2970 H     1 <1>   0.1500 
@<TRIPOS>BOND
  1   1   2  2   
  2   1   3  2   
  3   1   4  am  
  4   1   5  1   
  5   4   6  1   
  6   4   7  1   
  7   5   8  ar  
  8   5   9  ar  
  9   6  10  1   
 10   6  27  1   
 11   6  28  1   
 12   7  11  1   
 13   7  29  1   
 14   7  30  1   
 15   8  12  ar  
 16   8  31  1   
 17   9  13  ar  
 18   9  32  1   
 19  10  14  1   
 20  10  33  1   
 21  10  34  1   
 22  11  14  1   
 23  11  35  1   
 24  11  36  1   
 25  12  15  ar  
 26  12  37  1   
 27  13  15  ar  
 28  13  38  1   
 29  15  16  1   
 30  16  17  am  
 31  16  39  1   
 32  17  18  2   
 33  17  19  1   
 34  19  20  1   
 35  19  40  1   
 36  19  41  1   
 37  20  21  ar  
 38  20  22  ar  
 39  21  23  ar  
 40  21  24  1   
 41  22  25  ar  
 42  22  42  1   
 43  23  26  ar  
 44  23  43  1   
 45  24  44  1   
 46  24  45  1   
 47  24  46  1   
 48  25  26  ar  
 49  25  47  1   
 50  26  48  1   
@<TRIPOS>SUBSTRUCTURE
  1 ****  13 GROUP 4 **** **** 0

# MOE 2024.06 (io_trps.svl 2023.06)
