@<TRIPOS>MOLECULE
NONAME
36 36 1 0 0 
SMALL
USER_CHARGES


@<TRIPOS>ATOM
  1 S       -0.8590     0.0160     1.8520 S.2   1 <1>  -0.6770 
  2 P       -1.5080    -1.0080     0.3430 P.3   1 <1>   0.8160 
  3 C       -0.3830    -2.2610    -0.2380 C.ar  1 <1>  -0.1390 
  4 C       -1.8410     0.0130    -1.0680 C.3   1 <1>  -0.1600 
  5 C       -3.0230    -1.8540     0.7120 C.3   1 <1>  -0.1600 
  6 C        0.8640    -2.4480     0.3470 C.ar  1 <1>  -0.1500 
  7 C       -0.7080    -3.1010    -1.2970 C.ar  1 <1>  -0.1500 
  8 C       -2.8530     1.1480    -0.8390 C.3   1 <1>  -0.2400 
  9 C       -2.9110    -2.9240     1.8110 C.3   1 <1>  -0.2400 
 10 C        1.7790    -3.4180    -0.0710 C.ar  1 <1>   0.0860 
 11 C        0.1660    -4.0740    -1.7450 C.ar  1 <1>  -0.1500 
 12 C        3.0690    -3.5690     0.5810 C.2   1 <1>   0.6340 
 13 C        1.3940    -4.2290    -1.1380 C.ar  1 <1>  -0.1500 
 14 O        3.4420    -2.8660     1.4960 O.2   1 <1>  -0.5700 
 15 O        3.8810    -4.5360     0.1430 O.3   1 <1>  -0.4300 
 16 C        5.1480    -4.7540     0.7200 C.3   1 <1>   0.1200 
 17 C        5.8050    -5.9220    -0.0080 C.3   1 <1>  -0.2400 
 18 H       -2.1970    -0.5770    -1.8920 H     1 <1>   0.0800 
 19 H       -0.9250     0.4700    -1.3990 H     1 <1>   0.0800 
 20 H       -3.4180    -2.3310    -0.1650 H     1 <1>   0.0800 
 21 H       -3.7650    -1.1470     1.0350 H     1 <1>   0.0800 
 22 H        1.1500    -1.8140     1.1730 H     1 <1>   0.1500 
 23 H       -1.6600    -3.0060    -1.7900 H     1 <1>   0.1500 
 24 H       -3.8200     0.7560    -0.5770 H     1 <1>   0.0800 
 25 H       -2.9570     1.7390    -1.7330 H     1 <1>   0.0800 
 26 H       -2.5170     1.7930    -0.0450 H     1 <1>   0.0800 
 27 H       -2.2200    -3.6960     1.5220 H     1 <1>   0.0800 
 28 H       -3.8710    -3.3740     1.9930 H     1 <1>   0.0800 
 29 H       -2.5630    -2.4790     2.7280 H     1 <1>   0.0800 
 30 H       -0.1120    -4.7110    -2.5670 H     1 <1>   0.1500 
 31 H        2.0640    -4.9920    -1.4970 H     1 <1>   0.1500 
 32 H        5.0130    -4.9760     1.7660 H     1 <1>   0.0800 
 33 H        5.7310    -3.8540     0.6150 H     1 <1>   0.0800 
 34 H        5.2070    -6.8090     0.0980 H     1 <1>   0.0800 
 35 H        6.7760    -6.1110     0.4130 H     1 <1>   0.0800 
 36 H        5.9240    -5.6890    -1.0510 H     1 <1>   0.0800 
@<TRIPOS>BOND
  1   1   2  2   
  2   2   3  1   
  3   2   4  1   
  4   2   5  1   
  5   3   6  ar  
  6   3   7  ar  
  7   4   8  1   
  8   4  18  1   
  9   4  19  1   
 10   5   9  1   
 11   5  20  1   
 12   5  21  1   
 13   6  10  ar  
 14   6  22  1   
 15   7  11  ar  
 16   7  23  1   
 17   8  24  1   
 18   8  25  1   
 19   8  26  1   
 20   9  27  1   
 21   9  28  1   
 22   9  29  1   
 23  10  12  1   
 24  10  13  ar  
 25  11  13  ar  
 26  11  30  1   
 27  12  14  2   
 28  12  15  1   
 29  13  31  1   
 30  15  16  1   
 31  16  17  1   
 32  16  32  1   
 33  16  33  1   
 34  17  34  1   
 35  17  35  1   
 36  17  36  1   
@<TRIPOS>SUBSTRUCTURE
  1 ****   6 GROUP 4 **** **** 0

# MOE 2024.06 (io_trps.svl 2023.06)
