@<TRIPOS>MOLECULE
NONAME
42 45 1 0 0 
SMALL
USER_CHARGES


@<TRIPOS>ATOM
  1 O        0.0710     1.1820     1.7740 O.2   1 <1>  -0.5700 
  2 C        0.3890     2.0320     0.9820 C.2   1 <1>   0.5690 
  3 N        1.4800     2.0570     0.1260 N.am  1 <1>  -0.2370 
  4 C       -0.3520     3.3190     0.7810 C.3   1 <1>  -0.0190 
  5 C        2.5920     1.1850     0.1790 C.ar  1 <1>   0.1170 
  6 C        1.2950     3.0780    -0.7950 C.2   1 <1>   0.5690 
  7 C       -1.7190     3.9750     1.0210 C.3   1 <1>   0.1960 
  8 C       -0.1490     3.4820    -0.7270 C.3   1 <1>  -0.0190 
  9 C        3.8900     1.6750     0.0690 C.ar  1 <1>  -0.1500 
 10 C        2.4170    -0.1860     0.3400 C.ar  1 <1>  -0.1500 
 11 O        2.0980     3.5640    -1.5490 O.2   1 <1>  -0.5700 
 12 C       -1.3150     5.2780     0.3370 C.2   1 <1>  -0.2760 
 13 C       -2.7800     3.5800     0.0020 C.2   1 <1>  -0.2880 
 14 C       -1.0450     4.7010    -1.0440 C.3   1 <1>   0.1960 
 15 C        4.9820     0.8270     0.1160 C.ar  1 <1>  -0.1500 
 16 C        3.5050    -1.0390     0.3880 C.ar  1 <1>  -0.1500 
 17 C       -1.2180     6.5330     0.8010 C.2   1 <1>  -0.2760 
 18 C       -2.4150     4.0550    -1.1920 C.2   1 <1>  -0.2880 
 19 C        4.7930    -0.5430     0.2760 C.ar  1 <1>   0.0830 
 20 C       -0.7850     7.7240    -0.0440 C.3   1 <1>  -0.1020 
 21 C       -1.5270     6.9480     2.2330 C.3   1 <1>  -0.1020 
 22 O        5.8050    -1.4470     0.3310 O.3   1 <1>  -0.3630 
 23 C        7.1500    -1.0420     0.2120 C.3   1 <1>   0.0400 
 24 H        0.3160     3.9920     1.3020 H     1 <1>   0.0800 
 25 H       -2.0440     4.0650     2.0410 H     1 <1>   0.0800 
 26 H       -0.6080     2.6520    -1.2430 H     1 <1>   0.0800 
 27 H        4.0520     2.7320    -0.0580 H     1 <1>   0.1500 
 28 H        1.4260    -0.5940     0.4320 H     1 <1>   0.1500 
 29 H       -3.6490     3.0250     0.3100 H     1 <1>   0.1500 
 30 H       -0.7430     5.3580    -1.8400 H     1 <1>   0.0800 
 31 H        5.9650     1.2480     0.0250 H     1 <1>   0.1500 
 32 H        3.3620    -2.0970     0.5150 H     1 <1>   0.1500 
 33 H       -2.8990     4.0080    -2.1530 H     1 <1>   0.1500 
 34 H       -1.5690     8.4600    -0.0690 H     1 <1>   0.0800 
 35 H       -0.5640     7.4400    -1.0550 H     1 <1>   0.0800 
 36 H        0.0970     8.1740     0.3760 H     1 <1>   0.0800 
 37 H       -0.6570     7.3890     2.6860 H     1 <1>   0.0800 
 38 H       -1.8310     6.1150     2.8370 H     1 <1>   0.0800 
 39 H       -2.3230     7.6710     2.2410 H     1 <1>   0.0800 
 40 H        7.3840    -0.3670     1.0160 H     1 <1>   0.0800 
 41 H        7.2880    -0.5680    -0.7440 H     1 <1>   0.0800 
 42 H        7.7690    -1.9180     0.2780 H     1 <1>   0.0800 
@<TRIPOS>BOND
  1   1   2  2   
  2   2   3  am  
  3   2   4  1   
  4   3   5  1   
  5   3   6  am  
  6   4   7  1   
  7   4   8  1   
  8   4  24  1   
  9   5   9  ar  
 10   5  10  ar  
 11   6   8  1   
 12   6  11  2   
 13   7  12  1   
 14   7  13  1   
 15   7  25  1   
 16   8  14  1   
 17   8  26  1   
 18   9  15  ar  
 19   9  27  1   
 20  10  16  ar  
 21  10  28  1   
 22  12  14  1   
 23  12  17  2   
 24  13  18  2   
 25  13  29  1   
 26  14  18  1   
 27  14  30  1   
 28  15  19  ar  
 29  15  31  1   
 30  16  19  ar  
 31  16  32  1   
 32  17  20  1   
 33  17  21  1   
 34  18  33  1   
 35  19  22  1   
 36  20  34  1   
 37  20  35  1   
 38  20  36  1   
 39  21  37  1   
 40  21  38  1   
 41  21  39  1   
 42  22  23  1   
 43  23  40  1   
 44  23  41  1   
 45  23  42  1   
@<TRIPOS>SUBSTRUCTURE
  1 ****   3 GROUP 4 **** **** 0

# MOE 2024.06 (io_trps.svl 2023.06)
