@<TRIPOS>MOLECULE
NONAME
42 43 1 0 0 
SMALL
USER_CHARGES


@<TRIPOS>ATOM
  1 O       -1.5110     0.3300     0.3620 O.3   1 <1>  -0.3630 
  2 C       -1.6280     1.6780     0.2010 C.ar  1 <1>   0.0830 
  3 C       -0.5220    -0.2080     1.2190 C.3   1 <1>   0.0400 
  4 C       -2.4360     2.1270    -0.8380 C.ar  1 <1>  -0.1440 
  5 C       -0.9970     2.6040     1.0290 C.ar  1 <1>  -0.1500 
  6 C       -2.6090     3.4860    -1.0410 C.ar  1 <1>  -0.1500 
  7 C       -3.1430     1.1320    -1.7310 C.3   1 <1>   0.4870 
  8 C       -1.1790     3.9600     0.8240 C.ar  1 <1>  -0.1500 
  9 C       -1.9920     4.4060    -0.2130 C.ar  1 <1>   0.0830 
 10 N       -4.1120     0.3730    -0.8990 N.4   1 <1>  -0.9060 
 11 O       -2.2380     5.7130    -0.4790 O.3   1 <1>  -0.3620 
 12 C       -5.1150     1.2230    -0.1870 C.3   1 <1>   0.3430 
 13 C       -1.6140     6.7390     0.2630 C.3   1 <1>   0.0400 
 14 C       -6.0810     1.9220    -1.1450 C.3   1 <1>  -0.0170 
 15 C       -6.9720     2.8410    -0.3350 C.ar  1 <1>  -0.1430 
 16 C       -6.5010     4.0820     0.0690 C.ar  1 <1>  -0.1500 
 17 C       -8.2560     2.4500     0.0170 C.ar  1 <1>  -0.1500 
 18 C       -7.3030     4.9200     0.8230 C.ar  1 <1>  -0.1500 
 19 C       -9.0570     3.2900     0.7710 C.ar  1 <1>  -0.1500 
 20 C       -8.5810     4.5240     1.1750 C.ar  1 <1>  -0.1500 
 21 H        0.4420     0.1760     0.9300 H     1 <1>   0.0800 
 22 H       -0.5290    -1.2790     1.1180 H     1 <1>   0.0800 
 23 H       -0.7490     0.0610     2.2360 H     1 <1>   0.0800 
 24 H       -0.3660     2.2930     1.8410 H     1 <1>   0.1500 
 25 H       -3.2230     3.8630    -1.8410 H     1 <1>   0.1500 
 26 H       -2.4150     0.4600    -2.1570 H     1 <1>   0.0800 
 27 H       -3.6490     1.6450    -2.5330 H     1 <1>   0.0800 
 28 H       -0.6840     4.6530     1.4800 H     1 <1>   0.1500 
 29 H       -3.5180    -0.0750    -0.1820 H     1 <1>   0.4500 
 30 H       -4.5610    -0.3700    -1.4420 H     1 <1>   0.4500 
 31 H       -4.6040     1.9720     0.3990 H     1 <1>   0.0800 
 32 H       -5.6860     0.6160     0.4970 H     1 <1>   0.0800 
 33 H       -1.9380     7.6840    -0.1360 H     1 <1>   0.0800 
 34 H       -0.5480     6.6470     0.1600 H     1 <1>   0.0800 
 35 H       -1.9120     6.6580     1.2930 H     1 <1>   0.0800 
 36 H       -6.6810     1.1970    -1.6660 H     1 <1>   0.0800 
 37 H       -5.5510     2.5160    -1.8670 H     1 <1>   0.0800 
 38 H       -5.5110     4.4130    -0.1940 H     1 <1>   0.1500 
 39 H       -8.6480     1.4960    -0.2890 H     1 <1>   0.1500 
 40 H       -6.9350     5.8820     1.1350 H     1 <1>   0.1500 
 41 H      -10.0530     2.9860     1.0430 H     1 <1>   0.1500 
 42 H       -9.2050     5.1770     1.7610 H     1 <1>   0.1500 
@<TRIPOS>BOND
  1   1   2  1   
  2   1   3  1   
  3   2   4  ar  
  4   2   5  ar  
  5   3  21  1   
  6   3  22  1   
  7   3  23  1   
  8   4   6  ar  
  9   4   7  1   
 10   5   8  ar  
 11   5  24  1   
 12   6   9  ar  
 13   6  25  1   
 14   7  10  1   
 15   7  26  1   
 16   7  27  1   
 17   8   9  ar  
 18   8  28  1   
 19   9  11  1   
 20  10  12  1   
 21  10  29  1   
 22  10  30  1   
 23  11  13  1   
 24  12  14  1   
 25  12  31  1   
 26  12  32  1   
 27  13  33  1   
 28  13  34  1   
 29  13  35  1   
 30  14  15  1   
 31  14  36  1   
 32  14  37  1   
 33  15  16  ar  
 34  15  17  ar  
 35  16  18  ar  
 36  16  38  1   
 37  17  19  ar  
 38  17  39  1   
 39  18  20  ar  
 40  18  40  1   
 41  19  20  ar  
 42  19  41  1   
 43  20  42  1   
@<TRIPOS>SUBSTRUCTURE
  1 ****   6 GROUP 4 **** **** 0

# MOE 2024.06 (io_trps.svl 2023.06)
