@<TRIPOS>MOLECULE
NONAME
48 50 1 0 0 
SMALL
USER_CHARGES


@<TRIPOS>ATOM
  1 O       -0.3460    -1.7730    -1.6040 O.3   1 <1>  -0.3630 
  2 C       -1.2660    -1.5440    -0.6130 C.ar  1 <1>   0.0820 
  3 C       -0.5050    -1.2140    -2.8910 C.3   1 <1>   0.0400 
  4 C       -1.0300    -2.1000     0.6590 C.ar  1 <1>   0.1000 
  5 C       -2.4130    -0.7860    -0.8290 C.ar  1 <1>  -0.1500 
  6 N        0.0910    -2.8790     0.9790 N.pl3 1 <1>  -0.8380 
  7 C       -1.9550    -1.8730     1.6680 C.ar  1 <1>  -0.1500 
  8 C       -3.3200    -0.5740     0.1950 C.ar  1 <1>  -0.1500 
  9 C        1.3870    -2.1370     0.9570 C.3   1 <1>   0.2090 
 10 C        0.1510    -4.1960     0.2800 C.3   1 <1>   0.2090 
 11 C       -3.0910    -1.1180     1.4450 C.ar  1 <1>  -0.1500 
 12 C        2.5320    -3.0070     1.5110 C.3   1 <1>   0.3430 
 13 C        1.2970    -5.0660     0.8360 C.3   1 <1>   0.3430 
 14 N        2.6170    -4.3460     0.8230 N.4   1 <1>  -0.9590 
 15 C        3.7320    -5.1760     1.3350 C.3   1 <1>   0.4860 
 16 C        5.0360    -4.4630     1.0340 C.ar  1 <1>  -0.1430 
 17 C        5.3940    -4.1890    -0.2840 C.ar  1 <1>   0.0820 
 18 C        5.8720    -4.0820     2.0720 C.ar  1 <1>  -0.1500 
 19 O        4.5360    -4.5780    -1.2650 O.3   1 <1>  -0.3620 
 20 C        6.5930    -3.5300    -0.5450 C.ar  1 <1>  -0.1500 
 21 C        7.0600    -3.4270     1.8040 C.ar  1 <1>  -0.1500 
 22 C        4.9170    -4.5330    -2.6270 C.3   1 <1>   0.0400 
 23 C        7.4190    -3.1520     0.4970 C.ar  1 <1>  -0.1500 
 24 H        0.3350    -1.5110    -3.4930 H     1 <1>   0.0800 
 25 H       -0.5310    -0.1420    -2.8060 H     1 <1>   0.0800 
 26 H       -1.4140    -1.5890    -3.3260 H     1 <1>   0.0800 
 27 H       -2.6280    -0.3470    -1.7840 H     1 <1>   0.1500 
 28 H       -1.7760    -2.2960     2.6390 H     1 <1>   0.1500 
 29 H       -4.2050     0.0140     0.0190 H     1 <1>   0.1500 
 30 H        1.2930    -1.2460     1.5540 H     1 <1>   0.0800 
 31 H        1.6220    -1.8340    -0.0490 H     1 <1>   0.0800 
 32 H        0.2940    -4.0460    -0.7760 H     1 <1>   0.0800 
 33 H       -0.7860    -4.7080     0.4160 H     1 <1>   0.0800 
 34 H       -3.7960    -0.9550     2.2420 H     1 <1>   0.1500 
 35 H        2.3600    -3.1530     2.5640 H     1 <1>   0.0800 
 36 H        3.4620    -2.4750     1.3970 H     1 <1>   0.0800 
 37 H        1.3640    -5.9690     0.2540 H     1 <1>   0.0800 
 38 H        1.0450    -5.3390     1.8480 H     1 <1>   0.0800 
 39 H        2.8780    -4.1590    -0.1610 H     1 <1>   0.4500 
 40 H        3.7370    -6.1330     0.8400 H     1 <1>   0.0800 
 41 H        3.6270    -5.3330     2.3960 H     1 <1>   0.0800 
 42 H        5.6160    -4.2910     3.0980 H     1 <1>   0.1500 
 43 H        6.9040    -3.2990    -1.5470 H     1 <1>   0.1500 
 44 H        7.7110    -3.1330     2.6110 H     1 <1>   0.1500 
 45 H        5.0640    -3.5080    -2.9190 H     1 <1>   0.0800 
 46 H        4.1300    -4.9690    -3.2150 H     1 <1>   0.0800 
 47 H        5.8230    -5.1010    -2.7570 H     1 <1>   0.0800 
 48 H        8.3470    -2.6430     0.2930 H     1 <1>   0.1500 
@<TRIPOS>BOND
  1   1   2  1   
  2   1   3  1   
  3   2   4  ar  
  4   2   5  ar  
  5   3  24  1   
  6   3  25  1   
  7   3  26  1   
  8   4   6  1   
  9   4   7  ar  
 10   5   8  ar  
 11   5  27  1   
 12   6   9  1   
 13   6  10  1   
 14   7  11  ar  
 15   7  28  1   
 16   8  11  ar  
 17   8  29  1   
 18   9  12  1   
 19   9  30  1   
 20   9  31  1   
 21  10  13  1   
 22  10  32  1   
 23  10  33  1   
 24  11  34  1   
 25  12  14  1   
 26  12  35  1   
 27  12  36  1   
 28  13  14  1   
 29  13  37  1   
 30  13  38  1   
 31  14  15  1   
 32  14  39  1   
 33  15  16  1   
 34  15  40  1   
 35  15  41  1   
 36  16  17  ar  
 37  16  18  ar  
 38  17  19  1   
 39  17  20  ar  
 40  18  21  ar  
 41  18  42  1   
 42  19  22  1   
 43  20  23  ar  
 44  20  43  1   
 45  21  23  ar  
 46  21  44  1   
 47  22  45  1   
 48  22  46  1   
 49  22  47  1   
 50  23  48  1   
@<TRIPOS>SUBSTRUCTURE
  1 ****   9 GROUP 4 **** **** 0

# MOE 2024.06 (io_trps.svl 2023.06)
