@<TRIPOS>MOLECULE
NONAME
31 32 1 0 0 
SMALL
USER_CHARGES


@<TRIPOS>ATOM
  1 O        0.8660     1.0050    -1.0120 O.2   1 <1>  -0.5700 
  2 C        0.7560     1.0980     0.1840 C.2   1 <1>   0.5690 
  3 N       -0.4040     1.3930     0.8470 N.am  1 <1>  -0.5390 
  4 C        1.9820     0.8640     1.0310 C.3   1 <1>  -0.1790 
  5 C       -1.6920     1.7070     0.3790 C.2   1 <1>  -0.0290 
  6 C       -2.0210     1.9090    -0.9060 C.2   1 <1>  -0.2880 
  7 C       -2.7360     1.8120     1.4910 C.3   1 <1>  -0.0220 
  8 C       -3.4250     2.2460    -1.3820 C.3   1 <1>   0.0580 
  9 C       -4.1340     2.2790     1.0190 C.3   1 <1>  -0.0800 
 10 C       -3.5710     3.7730    -1.4870 C.3   1 <1>  -0.0220 
 11 C       -4.4380     1.6930    -0.3690 C.3   1 <1>  -0.1600 
 12 C       -4.2650     3.8170     0.9670 C.3   1 <1>  -0.0220 
 13 C       -3.3910     4.4310    -0.1200 C.2   1 <1>  -0.2760 
 14 C       -2.5360     5.4320     0.1040 C.2   1 <1>  -0.3000 
 15 H       -0.3140     1.3910     1.8600 H     1 <1>   0.3700 
 16 H        2.1880     1.7350     1.6230 H     1 <1>   0.0800 
 17 H        2.8270     0.6680     0.3960 H     1 <1>   0.0800 
 18 H        1.8250     0.0170     1.6710 H     1 <1>   0.0800 
 19 H       -1.3070     1.8660    -1.7090 H     1 <1>   0.1500 
 20 H       -2.3790     2.4780     2.2560 H     1 <1>   0.0800 
 21 H       -2.8380     0.8360     1.9300 H     1 <1>   0.0800 
 22 H       -3.5980     1.7910    -2.3420 H     1 <1>   0.0800 
 23 H       -4.8630     1.9120     1.7210 H     1 <1>   0.0800 
 24 H       -2.8430     4.1550    -2.1790 H     1 <1>   0.0800 
 25 H       -4.5480     4.0120    -1.8690 H     1 <1>   0.0800 
 26 H       -4.3640     0.6200    -0.3370 H     1 <1>   0.0800 
 27 H       -5.4380     1.9490    -0.6710 H     1 <1>   0.0800 
 28 H       -4.0140     4.2390     1.9250 H     1 <1>   0.0800 
 29 H       -5.2900     4.0730     0.7640 H     1 <1>   0.0800 
 30 H       -1.9050     5.8640    -0.6530 H     1 <1>   0.1500 
 31 H       -2.3900     5.9010     1.0600 H     1 <1>   0.1500 
@<TRIPOS>BOND
  1   1   2  2   
  2   2   3  am  
  3   2   4  1   
  4   3   5  1   
  5   3  15  1   
  6   4  16  1   
  7   4  17  1   
  8   4  18  1   
  9   5   6  2   
 10   5   7  1   
 11   6   8  1   
 12   6  19  1   
 13   7   9  1   
 14   7  20  1   
 15   7  21  1   
 16   8  10  1   
 17   8  11  1   
 18   8  22  1   
 19   9  11  1   
 20   9  12  1   
 21   9  23  1   
 22  10  13  1   
 23  10  24  1   
 24  10  25  1   
 25  11  26  1   
 26  11  27  1   
 27  12  13  1   
 28  12  28  1   
 29  12  29  1   
 30  13  14  2   
 31  14  30  1   
 32  14  31  1   
@<TRIPOS>SUBSTRUCTURE
  1 ****   5 GROUP 4 **** **** 0

# MOE 2024.06 (io_trps.svl 2023.06)
