@<TRIPOS>MOLECULE
NONAME
49 49 1 0 0 
SMALL
USER_CHARGES


@<TRIPOS>ATOM
  1 O        0.6280    -0.8600     0.8330 O.3   1 <1>  -0.3630 
  2 C       -0.5920    -1.2020     0.3600 C.ar  1 <1>   0.0830 
  3 C        1.6480    -0.7720    -0.1290 C.3   1 <1>   0.1200 
  4 C       -0.9530    -2.5450     0.2930 C.ar  1 <1>  -0.1440 
  5 C       -1.4770    -0.2080    -0.0480 C.ar  1 <1>  -0.1440 
  6 C        2.9360    -0.3780     0.5960 C.3   1 <1>  -0.1600 
  7 C       -2.1930    -2.8850    -0.2230 C.ar  1 <1>  -0.1500 
  8 C       -0.0220    -3.6460     0.7810 C.3   1 <1>  -0.0960 
  9 C       -2.7110    -0.5720    -0.5610 C.ar  1 <1>  -0.1500 
 10 C       -1.1230     1.2690     0.0640 C.3   1 <1>  -0.0970 
 11 C        4.1200    -0.2550    -0.3730 C.3   1 <1>  -0.1600 
 12 C       -3.0720    -1.9060    -0.6570 C.ar  1 <1>  -0.1430 
 13 C        5.3880     0.1390     0.3810 C.3   1 <1>   0.3430 
 14 C       -4.4270    -2.2920    -1.2210 C.3   1 <1>  -0.0970 
 15 N        6.5120     0.2500    -0.5840 N.4   1 <1>  -0.9060 
 16 C        7.8190     0.6220    -0.0350 C.3   1 <1>   0.5030 
 17 C        8.2770    -0.4330     0.9700 C.3   1 <1>  -0.2400 
 18 C        7.7320     2.0020     0.6150 C.3   1 <1>  -0.2400 
 19 C        8.7820     0.6650    -1.2170 C.3   1 <1>  -0.2400 
 20 H        1.3630    -0.0320    -0.8560 H     1 <1>   0.0800 
 21 H        1.7440    -1.7310    -0.6080 H     1 <1>   0.0800 
 22 H        3.1490    -1.1270     1.3410 H     1 <1>   0.0800 
 23 H        2.7710     0.5630     1.0940 H     1 <1>   0.0800 
 24 H       -2.4800    -3.9190    -0.2860 H     1 <1>   0.1500 
 25 H        0.7150    -3.8620     0.0300 H     1 <1>   0.0800 
 26 H       -0.5740    -4.5440     0.9920 H     1 <1>   0.0800 
 27 H        0.4740    -3.3390     1.6840 H     1 <1>   0.0800 
 28 H       -3.4000     0.1860    -0.8860 H     1 <1>   0.1500 
 29 H       -0.4990     1.5590    -0.7610 H     1 <1>   0.0800 
 30 H       -0.6000     1.4560     0.9840 H     1 <1>   0.0800 
 31 H       -2.0110     1.8740     0.0550 H     1 <1>   0.0800 
 32 H        3.8870     0.4930    -1.1130 H     1 <1>   0.0800 
 33 H        4.2660    -1.2010    -0.8650 H     1 <1>   0.0800 
 34 H        5.6090    -0.6080     1.1260 H     1 <1>   0.0800 
 35 H        5.2310     1.0820     0.8790 H     1 <1>   0.0800 
 36 H       -4.3750    -3.2530    -1.7000 H     1 <1>   0.0800 
 37 H       -4.7510    -1.5690    -1.9470 H     1 <1>   0.0800 
 38 H       -5.1500    -2.3370    -0.4270 H     1 <1>   0.0800 
 39 H        6.2740     0.9420    -1.3000 H     1 <1>   0.4500 
 40 H        6.6290    -0.6450    -1.0680 H     1 <1>   0.4500 
 41 H        7.6530    -0.4460     1.8460 H     1 <1>   0.0800 
 42 H        9.2770    -0.2090     1.2990 H     1 <1>   0.0800 
 43 H        8.2910    -1.4130     0.5270 H     1 <1>   0.0800 
 44 H        7.1080     1.9910     1.4900 H     1 <1>   0.0800 
 45 H        7.3630     2.7360    -0.0780 H     1 <1>   0.0800 
 46 H        8.7130     2.3150     0.9310 H     1 <1>   0.0800 
 47 H        8.4780     1.4000    -1.9420 H     1 <1>   0.0800 
 48 H        9.7670     0.9350    -0.8760 H     1 <1>   0.0800 
 49 H        8.8570    -0.2960    -1.6940 H     1 <1>   0.0800 
@<TRIPOS>BOND
  1   1   2  1   
  2   1   3  1   
  3   2   4  ar  
  4   2   5  ar  
  5   3   6  1   
  6   3  20  1   
  7   3  21  1   
  8   4   7  ar  
  9   4   8  1   
 10   5   9  ar  
 11   5  10  1   
 12   6  11  1   
 13   6  22  1   
 14   6  23  1   
 15   7  12  ar  
 16   7  24  1   
 17   8  25  1   
 18   8  26  1   
 19   8  27  1   
 20   9  12  ar  
 21   9  28  1   
 22  10  29  1   
 23  10  30  1   
 24  10  31  1   
 25  11  13  1   
 26  11  32  1   
 27  11  33  1   
 28  12  14  1   
 29  13  15  1   
 30  13  34  1   
 31  13  35  1   
 32  14  36  1   
 33  14  37  1   
 34  14  38  1   
 35  15  16  1   
 36  15  39  1   
 37  15  40  1   
 38  16  17  1   
 39  16  18  1   
 40  16  19  1   
 41  17  41  1   
 42  17  42  1   
 43  17  43  1   
 44  18  44  1   
 45  18  45  1   
 46  18  46  1   
 47  19  47  1   
 48  19  48  1   
 49  19  49  1   
@<TRIPOS>SUBSTRUCTURE
  1 ****   3 GROUP 4 **** **** 0

# MOE 2024.06 (io_trps.svl 2023.06)
