@<TRIPOS>MOLECULE
NONAME
45 47 1 0 0 
SMALL
USER_CHARGES


@<TRIPOS>ATOM
  1 O        1.8190    -0.8890     1.1400 O.2   1 <1>  -0.5700 
  2 C        1.5330    -1.6510     0.2350 C.2   1 <1>   0.5440 
  3 N        2.3240    -1.6050    -0.8910 N.am  1 <1>  -0.6600 
  4 C        0.4550    -2.6160     0.3770 C.ar  1 <1>   0.0860 
  5 C        3.0510    -0.3420    -1.2080 C.3   1 <1>   0.1400 
  6 C        3.0680    -2.8290    -1.3000 C.3   1 <1>   0.1400 
  7 C       -0.2390    -3.1090    -0.7300 C.ar  1 <1>  -0.1500 
  8 C        0.0790    -3.0930     1.6330 C.ar  1 <1>  -0.1500 
  9 C        4.4260    -0.3500    -0.5160 C.3   1 <1>   0.3430 
 10 C        4.4630    -2.8380    -0.6360 C.3   1 <1>   0.3430 
 11 C       -1.2450    -4.0470    -0.5920 C.ar  1 <1>  -0.1500 
 12 C       -0.9270    -4.0310     1.7790 C.ar  1 <1>  -0.1500 
 13 N        5.2420    -1.5660    -0.8890 N.4   1 <1>  -0.9590 
 14 C       -1.5890    -4.5130     0.6640 C.ar  1 <1>  -0.1500 
 15 C        6.5390    -1.5420    -0.1440 C.3   1 <1>   0.3430 
 16 C        7.5280    -2.5870    -0.6640 C.3   1 <1>  -0.0170 
 17 C        8.8430    -2.4100     0.0690 C.ar  1 <1>  -0.1430 
 18 C        9.8390    -1.6040    -0.4640 C.ar  1 <1>  -0.1500 
 19 C        9.0570    -3.0440     1.2840 C.ar  1 <1>  -0.1500 
 20 C       11.0330    -1.4300     0.2140 C.ar  1 <1>  -0.1500 
 21 C       10.2510    -2.8680     1.9610 C.ar  1 <1>  -0.1500 
 22 C       11.2390    -2.0610     1.4270 C.ar  1 <1>  -0.1500 
 23 H        2.4800     0.5020    -0.8590 H     1 <1>   0.0800 
 24 H        3.1650    -0.2430    -2.2730 H     1 <1>   0.0800 
 25 H        3.1650    -2.8520    -2.3710 H     1 <1>   0.0800 
 26 H        2.5270    -3.7100    -0.9990 H     1 <1>   0.0800 
 27 H        0.0070    -2.7470    -1.7130 H     1 <1>   0.1500 
 28 H        0.5820    -2.7180     2.5090 H     1 <1>   0.1500 
 29 H        4.2600    -0.3350     0.5500 H     1 <1>   0.0800 
 30 H        4.9600     0.5490    -0.7790 H     1 <1>   0.0800 
 31 H        5.0160    -3.6880    -1.0000 H     1 <1>   0.0800 
 32 H        4.3250    -2.9660     0.4260 H     1 <1>   0.0800 
 33 H       -1.7670    -4.4150    -1.4590 H     1 <1>   0.1500 
 34 H       -1.1980    -4.3850     2.7590 H     1 <1>   0.1500 
 35 H        5.4400    -1.5050    -1.8960 H     1 <1>   0.4500 
 36 H       -2.3720    -5.2440     0.7750 H     1 <1>   0.1500 
 37 H        6.3640    -1.7100     0.9070 H     1 <1>   0.0800 
 38 H        6.9940    -0.5700    -0.2460 H     1 <1>   0.0800 
 39 H        7.6890    -2.4570    -1.7190 H     1 <1>   0.0800 
 40 H        7.1640    -3.5830    -0.4890 H     1 <1>   0.0800 
 41 H        9.7030    -1.1070    -1.4090 H     1 <1>   0.1500 
 42 H        8.3050    -3.6800     1.7170 H     1 <1>   0.1500 
 43 H       11.8050    -0.8060    -0.2020 H     1 <1>   0.1500 
 44 H       10.4160    -3.3620     2.9040 H     1 <1>   0.1500 
 45 H       12.1680    -1.9260     1.9540 H     1 <1>   0.1500 
@<TRIPOS>BOND
  1   1   2  2   
  2   2   3  am  
  3   2   4  1   
  4   3   5  1   
  5   3   6  1   
  6   4   7  ar  
  7   4   8  ar  
  8   5   9  1   
  9   5  23  1   
 10   5  24  1   
 11   6  10  1   
 12   6  25  1   
 13   6  26  1   
 14   7  11  ar  
 15   7  27  1   
 16   8  12  ar  
 17   8  28  1   
 18   9  13  1   
 19   9  29  1   
 20   9  30  1   
 21  10  13  1   
 22  10  31  1   
 23  10  32  1   
 24  11  14  ar  
 25  11  33  1   
 26  12  14  ar  
 27  12  34  1   
 28  13  15  1   
 29  13  35  1   
 30  14  36  1   
 31  15  16  1   
 32  15  37  1   
 33  15  38  1   
 34  16  17  1   
 35  16  39  1   
 36  16  40  1   
 37  17  18  ar  
 38  17  19  ar  
 39  18  20  ar  
 40  18  41  1   
 41  19  21  ar  
 42  19  42  1   
 43  20  22  ar  
 44  20  43  1   
 45  21  22  ar  
 46  21  44  1   
 47  22  45  1   
@<TRIPOS>SUBSTRUCTURE
  1 ****  10 GROUP 4 **** **** 0

# MOE 2024.06 (io_trps.svl 2023.06)
