@<TRIPOS>MOLECULE
NONAME
35 35 1 0 0 
SMALL
USER_CHARGES


@<TRIPOS>ATOM
  1 O        0.0780    -0.1380     0.6370 O.2   1 <1>  -0.5700 
  2 C        0.1600    -1.3000     0.2900 C.2   1 <1>   0.6340 
  3 O       -0.9760    -1.9740     0.0600 O.3   1 <1>  -0.4300 
  4 C        1.4200    -2.0270     0.1140 C.ar  1 <1>   0.3960 
  5 C       -2.2550    -1.3890     0.1600 C.3   1 <1>   0.2000 
  6 N        2.5650    -1.3520    -0.0580 N.ar  1 <1>  -0.6200 
  7 C        1.4110    -3.4240     0.1270 C.ar  1 <1>  -0.1500 
  8 C       -3.2430    -2.5150     0.4530 C.3   1 <1>  -0.2400 
  9 C       -2.5740    -0.6960    -1.1650 C.3   1 <1>  -0.2400 
 10 C        3.7140    -2.0250    -0.2180 C.ar  1 <1>   0.3960 
 11 C        2.5710    -4.1420    -0.0340 C.ar  1 <1>  -0.1500 
 12 C        4.9700    -1.2960    -0.4070 C.2   1 <1>   0.6340 
 13 C        3.7280    -3.4220    -0.2070 C.ar  1 <1>  -0.1500 
 14 O        5.0480    -0.1390    -0.7720 O.2   1 <1>  -0.5700 
 15 O        6.1090    -1.9610    -0.1680 O.3   1 <1>  -0.4300 
 16 C        7.3860    -1.3740    -0.2780 C.3   1 <1>   0.2000 
 17 C        8.3780    -2.4990    -0.5560 C.3   1 <1>  -0.2400 
 18 C        7.7040    -0.6590     1.0350 C.3   1 <1>  -0.2400 
 19 H       -2.2570    -0.6810     0.9730 H     1 <1>   0.0800 
 20 H        0.4840    -3.9510     0.2660 H     1 <1>   0.1500 
 21 H       -3.2330    -3.2420    -0.3390 H     1 <1>   0.0800 
 22 H       -4.2370    -2.1150     0.5390 H     1 <1>   0.0800 
 23 H       -2.9900    -2.9930     1.3820 H     1 <1>   0.0800 
 24 H       -2.5360    -1.3980    -1.9780 H     1 <1>   0.0800 
 25 H       -1.8720     0.0990    -1.3440 H     1 <1>   0.0800 
 26 H       -3.5590    -0.2690    -1.1250 H     1 <1>   0.0800 
 27 H        2.5740    -5.2200    -0.0240 H     1 <1>   0.1500 
 28 H        4.6580    -3.9480    -0.3370 H     1 <1>   0.1500 
 29 H        7.3850    -0.6780    -1.1030 H     1 <1>   0.0800 
 30 H        8.3720    -3.2140     0.2480 H     1 <1>   0.0800 
 31 H        9.3700    -2.0970    -0.6490 H     1 <1>   0.0800 
 32 H        8.1260    -2.9930    -1.4770 H     1 <1>   0.0800 
 33 H        7.6690    -1.3480     1.8590 H     1 <1>   0.0800 
 34 H        6.9990     0.1360     1.2020 H     1 <1>   0.0800 
 35 H        8.6870    -0.2280     0.9870 H     1 <1>   0.0800 
@<TRIPOS>BOND
  1   1   2  2   
  2   2   3  1   
  3   2   4  1   
  4   3   5  1   
  5   4   6  ar  
  6   4   7  ar  
  7   5   8  1   
  8   5   9  1   
  9   5  19  1   
 10   6  10  ar  
 11   7  11  ar  
 12   7  20  1   
 13   8  21  1   
 14   8  22  1   
 15   8  23  1   
 16   9  24  1   
 17   9  25  1   
 18   9  26  1   
 19  10  12  1   
 20  10  13  ar  
 21  11  13  ar  
 22  11  27  1   
 23  12  14  2   
 24  12  15  1   
 25  13  28  1   
 26  15  16  1   
 27  16  17  1   
 28  16  18  1   
 29  16  29  1   
 30  17  30  1   
 31  17  31  1   
 32  17  32  1   
 33  18  33  1   
 34  18  34  1   
 35  18  35  1   
@<TRIPOS>SUBSTRUCTURE
  1 ****   6 GROUP 4 **** **** 0

# MOE 2024.06 (io_trps.svl 2023.06)
