@<TRIPOS>MOLECULE
NONAME
26 26 1 0 0 
SMALL
USER_CHARGES


@<TRIPOS>ATOM
  1 O        0.0150     1.4060    -1.7000 O.2   1 <1>  -0.5700 
  2 C       -0.1150     2.2840    -0.8670 C.2   1 <1>   0.5440 
  3 N        1.0560     2.8570    -0.4530 N.am  1 <1>  -0.7300 
  4 C       -1.4540     2.6710    -0.3980 C.ar  1 <1>   0.3960 
  5 C        1.2440     4.0510     0.3960 C.3   1 <1>   0.1400 
  6 N       -1.6310     3.1930     0.8320 N.ar  1 <1>  -0.6200 
  7 C       -2.5430     2.4790    -1.2530 C.ar  1 <1>  -0.1500 
  8 C        2.5820     4.7020     0.0580 C.3   1 <1>  -0.1600 
  9 C       -2.8600     3.5180     1.1840 C.ar  1 <1>   0.1600 
 10 C       -3.8230     2.8210    -0.8750 C.ar  1 <1>  -0.1500 
 11 C        2.8180     5.9550     0.9170 C.3   1 <1>  -0.2660 
 12 C       -3.9750     3.3570     0.3830 C.ar  1 <1>  -0.1500 
 13 C        4.1440     6.6090     0.6080 C.2   1 <1>   0.9060 
 14 O        5.1510     6.1920     1.1860 O.co2 1 <1>  -0.9000 
 15 O        4.1680     7.5300    -0.2120 O.co2 1 <1>  -0.9000 
 16 H        1.9100     2.4710    -0.8580 H     1 <1>   0.3700 
 17 H        1.2290     3.7560     1.4320 H     1 <1>   0.0800 
 18 H        0.4460     4.7520     0.2250 H     1 <1>   0.0800 
 19 H       -2.3710     2.0530    -2.2250 H     1 <1>   0.1500 
 20 H        2.5970     4.9880    -0.9800 H     1 <1>   0.0800 
 21 H        3.3840     4.0070     0.2370 H     1 <1>   0.0800 
 22 H       -2.9890     3.9370     2.1680 H     1 <1>   0.1500 
 23 H       -4.6630     2.6750    -1.5330 H     1 <1>   0.1500 
 24 H        2.8180     5.6980     1.9590 H     1 <1>   0.0800 
 25 H        2.0460     6.6800     0.7410 H     1 <1>   0.0800 
 26 H       -4.9470     3.6470     0.7420 H     1 <1>   0.1500 
@<TRIPOS>BOND
  1   1   2  2   
  2   2   3  am  
  3   2   4  1   
  4   3   5  1   
  5   3  16  1   
  6   4   6  ar  
  7   4   7  ar  
  8   5   8  1   
  9   5  17  1   
 10   5  18  1   
 11   6   9  ar  
 12   7  10  ar  
 13   7  19  1   
 14   8  11  1   
 15   8  20  1   
 16   8  21  1   
 17   9  12  ar  
 18   9  22  1   
 19  10  12  ar  
 20  10  23  1   
 21  11  13  1   
 22  11  24  1   
 23  11  25  1   
 24  12  26  1   
 25  13  14  ar  
 26  13  15  ar  
@<TRIPOS>SUBSTRUCTURE
  1 ****   5 GROUP 4 **** **** 0

# MOE 2024.06 (io_trps.svl 2023.06)
