@<TRIPOS>MOLECULE
NONAME
38 39 1 0 0 
SMALL
USER_CHARGES


@<TRIPOS>ATOM
  1 O       -0.9750     5.1540     1.0210 O.3   1 <1>  -0.3630 
  2 C       -2.0250     4.4360     0.5420 C.ar  1 <1>   0.0830 
  3 C       -1.1200     6.5160     1.3800 C.3   1 <1>   0.0400 
  4 C       -1.9160     3.0650     0.5180 C.ar  1 <1>  -0.1440 
  5 C       -3.1930     5.0540     0.0610 C.ar  1 <1>  -0.1500 
  6 C       -2.9540     2.2510     0.0020 C.ar  1 <1>   0.0000 
  7 C       -0.6430     2.4520     1.0550 C.3   1 <1>   0.4870 
  8 C       -4.2100     4.2920    -0.4340 C.ar  1 <1>  -0.1500 
  9 C       -4.1210     2.8880    -0.4820 C.ar  1 <1>   0.0000 
 10 C       -2.9060     0.8360    -0.0680 C.ar  1 <1>  -0.1500 
 11 N        0.4120     2.7610     0.0710 N.4   1 <1>  -0.9060 
 12 C       -5.1710     2.1070    -1.0040 C.ar  1 <1>  -0.1500 
 13 C       -3.9410     0.1040    -0.5820 C.ar  1 <1>  -0.1500 
 14 C        1.7600     2.2790     0.4810 C.3   1 <1>   0.3430 
 15 C       -5.0870     0.7460    -1.0560 C.ar  1 <1>  -0.1500 
 16 C        2.8340     2.6720    -0.5360 C.3   1 <1>   0.1200 
 17 O        4.0360     2.1630    -0.0710 O.3   1 <1>  -0.5600 
 18 C        5.1350     2.4390    -0.8840 C.3   1 <1>   0.0400 
 19 H       -0.2150     6.8380     1.8630 H     1 <1>   0.0800 
 20 H       -1.9480     6.6150     2.0610 H     1 <1>   0.0800 
 21 H       -1.2850     7.1010     0.4920 H     1 <1>   0.0800 
 22 H       -3.2980     6.1230     0.0730 H     1 <1>   0.1500 
 23 H       -0.7410     1.3900     1.1960 H     1 <1>   0.0800 
 24 H       -0.4060     2.9040     2.0050 H     1 <1>   0.0800 
 25 H       -5.1070     4.7590    -0.8030 H     1 <1>   0.1500 
 26 H       -2.0500     0.2980     0.2870 H     1 <1>   0.1500 
 27 H        0.3930     3.7900    -0.0130 H     1 <1>   0.4500 
 28 H        0.1230     2.3850    -0.8390 H     1 <1>   0.4500 
 29 H       -6.0520     2.6060    -1.3670 H     1 <1>   0.1500 
 30 H       -3.8940    -0.9710    -0.6290 H     1 <1>   0.1500 
 31 H        1.7510     1.2050     0.5720 H     1 <1>   0.0800 
 32 H        2.0230     2.7030     1.4360 H     1 <1>   0.0800 
 33 H       -5.8930     0.1550    -1.4570 H     1 <1>   0.1500 
 34 H        2.9240     3.7430    -0.6100 H     1 <1>   0.0800 
 35 H        2.6320     2.2380    -1.5010 H     1 <1>   0.0800 
 36 H        6.0070     2.0000    -0.4310 H     1 <1>   0.0800 
 37 H        5.2680     3.5050    -0.9580 H     1 <1>   0.0800 
 38 H        4.9800     2.0070    -1.8570 H     1 <1>   0.0800 
@<TRIPOS>BOND
  1   1   2  1   
  2   1   3  1   
  3   2   4  ar  
  4   2   5  ar  
  5   3  19  1   
  6   3  20  1   
  7   3  21  1   
  8   4   6  ar  
  9   4   7  1   
 10   5   8  ar  
 11   5  22  1   
 12   6   9  ar  
 13   6  10  ar  
 14   7  11  1   
 15   7  23  1   
 16   7  24  1   
 17   8   9  ar  
 18   8  25  1   
 19   9  12  ar  
 20  10  13  ar  
 21  10  26  1   
 22  11  14  1   
 23  11  27  1   
 24  11  28  1   
 25  12  15  ar  
 26  12  29  1   
 27  13  15  ar  
 28  13  30  1   
 29  14  16  1   
 30  14  31  1   
 31  14  32  1   
 32  15  33  1   
 33  16  17  1   
 34  16  34  1   
 35  16  35  1   
 36  17  18  1   
 37  18  36  1   
 38  18  37  1   
 39  18  38  1   
@<TRIPOS>SUBSTRUCTURE
  1 ****   4 GROUP 4 **** **** 0

# MOE 2024.06 (io_trps.svl 2023.06)
