@<TRIPOS>MOLECULE
NONAME
45 47 1 0 0 
SMALL
USER_CHARGES


@<TRIPOS>ATOM
  1 CL       0.3530    -0.7740     1.2200 Cl    1 <1>  -0.1770 
  2 C        1.9380    -1.3410     0.7730 C.ar  1 <1>   0.1770 
  3 C        2.7570    -1.9030     1.7340 C.ar  1 <1>  -0.1500 
  4 C        2.3570    -1.2240    -0.5390 C.ar  1 <1>  -0.1500 
  5 C        4.0170    -2.3480     1.3730 C.ar  1 <1>  -0.1500 
  6 C        3.6190    -1.6730    -0.8890 C.ar  1 <1>  -0.1500 
  7 C        4.4770    -2.2370     0.0600 C.ar  1 <1>   0.0860 
  8 C        5.8030    -2.7030    -0.3020 C.2   1 <1>   0.5440 
  9 O        6.1020    -3.8580    -0.0640 O.2   1 <1>  -0.5700 
 10 N        6.7350    -1.8750    -0.8980 N.am  1 <1>  -0.6600 
 11 C        6.6450    -0.3880    -0.8890 C.3   1 <1>   0.1400 
 12 C        8.0230    -2.4080    -1.4220 C.3   1 <1>   0.1400 
 13 C        7.7980     0.1870    -0.0620 C.3   1 <1>  -0.1600 
 14 C        9.1820    -1.8560    -0.5890 C.3   1 <1>  -0.1600 
 15 C        9.1730    -0.3150    -0.5530 C.3   1 <1>  -0.0190 
 16 C       10.3370     0.2180     0.2840 C.2   1 <1>   0.5690 
 17 O       10.1410     0.6820     1.3820 O.2   1 <1>  -0.5700 
 18 N       11.5860     0.1440    -0.2370 N.am  1 <1>  -0.7300 
 19 C       12.8190     0.4880     0.4930 C.3   1 <1>   0.2840 
 20 C       13.7900    -0.6670     0.3330 C.ar  1 <1>  -0.1430 
 21 C       13.5840    -1.8700     0.9780 C.ar  1 <1>  -0.1500 
 22 C       14.9180    -0.5840    -0.4600 C.ar  1 <1>  -0.1500 
 23 C       14.4870    -2.9050     0.8030 C.ar  1 <1>   0.1600 
 24 C       15.7590    -1.6800    -0.5670 C.ar  1 <1>   0.1600 
 25 N       15.5690    -2.8380     0.0440 N.ar  1 <1>  -0.6200 
 26 H        2.4090    -1.9900     2.7480 H     1 <1>   0.1500 
 27 H        1.7000    -0.7900    -1.2710 H     1 <1>   0.1500 
 28 H        4.6630    -2.7950     2.1100 H     1 <1>   0.1500 
 29 H        3.9530    -1.5950    -1.9090 H     1 <1>   0.1500 
 30 H        5.7140    -0.0580    -0.4640 H     1 <1>   0.0800 
 31 H        6.7010    -0.0270    -1.9010 H     1 <1>   0.0800 
 32 H        8.1310    -2.1100    -2.4510 H     1 <1>   0.0800 
 33 H        8.0340    -3.4840    -1.3900 H     1 <1>   0.0800 
 34 H        7.6560    -0.0950     0.9670 H     1 <1>   0.0800 
 35 H        7.7700     1.2610    -0.1090 H     1 <1>   0.0800 
 36 H       10.1090    -2.2110    -1.0030 H     1 <1>   0.0800 
 37 H        9.1020    -2.2430     0.4120 H     1 <1>   0.0800 
 38 H        9.3120     0.0470    -1.5560 H     1 <1>   0.0800 
 39 H       11.7420    -0.3150    -1.1340 H     1 <1>   0.3700 
 40 H       12.6080     0.6490     1.5370 H     1 <1>   0.0800 
 41 H       13.2350     1.3930     0.0860 H     1 <1>   0.0800 
 42 H       12.7260    -2.0080     1.6130 H     1 <1>   0.1500 
 43 H       15.1510     0.3180    -0.9950 H     1 <1>   0.1500 
 44 H       14.3090    -3.8360     1.3140 H     1 <1>   0.1500 
 45 H       16.6350    -1.5990    -1.1880 H     1 <1>   0.1500 
@<TRIPOS>BOND
  1   1   2  1   
  2   2   3  ar  
  3   2   4  ar  
  4   3   5  ar  
  5   3  26  1   
  6   4   6  ar  
  7   4  27  1   
  8   5   7  ar  
  9   5  28  1   
 10   6   7  ar  
 11   6  29  1   
 12   7   8  1   
 13   8   9  2   
 14   8  10  am  
 15  10  11  1   
 16  10  12  1   
 17  11  13  1   
 18  11  30  1   
 19  11  31  1   
 20  12  14  1   
 21  12  32  1   
 22  12  33  1   
 23  13  15  1   
 24  13  34  1   
 25  13  35  1   
 26  14  15  1   
 27  14  36  1   
 28  14  37  1   
 29  15  16  1   
 30  15  38  1   
 31  16  17  2   
 32  16  18  am  
 33  18  19  1   
 34  18  39  1   
 35  19  20  1   
 36  19  40  1   
 37  19  41  1   
 38  20  21  ar  
 39  20  22  ar  
 40  21  23  ar  
 41  21  42  1   
 42  22  24  ar  
 43  22  43  1   
 44  23  25  ar  
 45  23  44  1   
 46  24  25  ar  
 47  24  45  1   
@<TRIPOS>SUBSTRUCTURE
  1 ****  14 GROUP 4 **** **** 0

# MOE 2024.06 (io_trps.svl 2023.06)
