@<TRIPOS>MOLECULE
NONAME
40 41 1 0 0 
SMALL
USER_CHARGES


@<TRIPOS>ATOM
  1 N       -0.0660     0.2860    -0.0350 N.3   1 <1>  -0.8100 
  2 C       -0.3930     1.7090     0.1920 C.3   1 <1>   0.1100 
  3 C       -1.1620    -0.5970     0.4120 C.3   1 <1>   0.1100 
  4 C        1.2150    -0.1290     0.5740 C.3   1 <1>   0.1100 
  5 C       -1.7270     2.0980    -0.4770 C.3   1 <1>   0.3430 
  6 C       -2.5000    -0.2270    -0.2600 C.3   1 <1>   0.3430 
  7 C        2.4350     0.5340    -0.1000 C.3   1 <1>  -0.0800 
  8 N       -2.8600     1.2160    -0.0300 N.4   1 <1>  -0.9590 
  9 C        3.5430    -0.5080    -0.3550 C.3   1 <1>  -0.0220 
 10 C        3.0010     1.7000     0.7400 C.3   1 <1>  -0.1600 
 11 C       -4.1250     1.6020    -0.7030 C.3   1 <1>   0.3430 
 12 C        4.8410     0.1520    -0.7910 C.2   1 <1>  -0.2880 
 13 C        4.1250     2.4360    -0.0060 C.3   1 <1>  -0.0220 
 14 C       -5.3070     0.9630     0.0170 C.3   1 <1>  -0.2400 
 15 C        5.0930     1.4550    -0.6450 C.2   1 <1>  -0.2880 
 16 H        0.3780     2.3240    -0.2380 H     1 <1>   0.0800 
 17 H       -0.4360     1.9160     1.2470 H     1 <1>   0.0800 
 18 H       -1.2670    -0.5420     1.4830 H     1 <1>   0.0800 
 19 H       -0.9220    -1.6150     0.1550 H     1 <1>   0.0800 
 20 H        1.3070    -1.1970     0.4570 H     1 <1>   0.0800 
 21 H        1.2140     0.0760     1.6320 H     1 <1>   0.0800 
 22 H       -1.6040     2.0160    -1.5440 H     1 <1>   0.0800 
 23 H       -1.9490     3.1270    -0.2460 H     1 <1>   0.0800 
 24 H       -3.2740    -0.8680     0.1270 H     1 <1>   0.0800 
 25 H       -2.4100    -0.4150    -1.3170 H     1 <1>   0.0800 
 26 H        2.1380     0.9120    -1.0630 H     1 <1>   0.0800 
 27 H       -2.9730     1.3500     0.9820 H     1 <1>   0.4500 
 28 H        3.2160    -1.1850    -1.1250 H     1 <1>   0.0800 
 29 H        3.7350    -1.0790     0.5370 H     1 <1>   0.0800 
 30 H        3.4010     1.3050     1.6580 H     1 <1>   0.0800 
 31 H        2.2340     2.4050     0.9960 H     1 <1>   0.0800 
 32 H       -4.1070     1.2920    -1.7370 H     1 <1>   0.0800 
 33 H       -4.2400     2.6740    -0.6750 H     1 <1>   0.0800 
 34 H        5.5440    -0.5360    -1.2290 H     1 <1>   0.1500 
 35 H        4.6560     3.0650     0.6870 H     1 <1>   0.0800 
 36 H        3.7090     3.0610    -0.7760 H     1 <1>   0.0800 
 37 H       -5.2880    -0.1090    -0.0660 H     1 <1>   0.0800 
 38 H       -6.2200     1.3070    -0.4360 H     1 <1>   0.0800 
 39 H       -5.3250     1.2480     1.0540 H     1 <1>   0.0800 
 40 H        6.0110     1.9150    -0.9740 H     1 <1>   0.1500 
@<TRIPOS>BOND
  1   1   2  1   
  2   1   3  1   
  3   1   4  1   
  4   2   5  1   
  5   2  16  1   
  6   2  17  1   
  7   3   6  1   
  8   3  18  1   
  9   3  19  1   
 10   4   7  1   
 11   4  20  1   
 12   4  21  1   
 13   5   8  1   
 14   5  22  1   
 15   5  23  1   
 16   6   8  1   
 17   6  24  1   
 18   6  25  1   
 19   7   9  1   
 20   7  10  1   
 21   7  26  1   
 22   8  11  1   
 23   8  27  1   
 24   9  12  1   
 25   9  28  1   
 26   9  29  1   
 27  10  13  1   
 28  10  30  1   
 29  10  31  1   
 30  11  14  1   
 31  11  32  1   
 32  11  33  1   
 33  12  15  2   
 34  12  34  1   
 35  13  15  1   
 36  13  35  1   
 37  13  36  1   
 38  14  37  1   
 39  14  38  1   
 40  14  39  1   
 41  15  40  1   
@<TRIPOS>SUBSTRUCTURE
  1 ****   1 GROUP 4 **** **** 0

# MOE 2024.06 (io_trps.svl 2023.06)
